#------------------------------------------------------------------------------
#$Date: 2019-09-05 11:48:56 +0300 (Thu, 05 Sep 2019) $
#$Revision: 218012 $
#$URL: file:///home/coder/svn-repositories/cod/cif/7/23/36/7233675.cif $
#------------------------------------------------------------------------------
#
# This file is available in the Crystallography Open Database (COD),
# http://www.crystallography.net/
#
# All data on this site have been placed in the public domain by the
# contributors.
#
data_7233675
loop_
_publ_author_name
'Robert C. Lennox'
'Mark C. Price'
'William Jamieson'
'Marek Jura'
'Aziz Daoud-Aladine'
'Claire A. Murray'
'Chiu Tang'
'Donna C. Arnold'
_publ_section_title
;
 Strain driven structural phase transformations in dysprosium doped BiFeO3
 ceramics
;
_journal_name_full               'Journal of Materials Chemistry C'
_journal_page_first              3345
_journal_page_last               3360
_journal_paper_doi               10.1039/C3TC32345E
_journal_volume                  2
_journal_year                    2014
_chemical_formula_sum            'Bi Fe O3'
_chemical_formula_weight         312.82
_space_group_IT_number           161
_space_group_name_Hall           'R 3 -2"c'
_space_group_name_H-M_alt        'R 3 c :H'
_symmetry_cell_setting           trigonal
_symmetry_space_group_name_H-M   'R 3 c :H'
_cell_angle_alpha                90.0
_cell_angle_beta                 90.0
_cell_angle_gamma                120.0
_cell_formula_units_Z            6
_cell_length_a                   5.581970(34)
_cell_length_b                   5.58197
_cell_length_c                   13.87773(9)
_cell_volume                     374.476(3)
_computing_structure_refinement  GSAS
_diffrn_radiation_probe          neutron
_exptl_absorpt_correction_T_max  1.00000
_exptl_absorpt_correction_T_min  1.00000
_exptl_absorpt_process_details
;   GSAS Absorption/surface roughness correction: function number 0
 No correction is applied.
;
_pd_calc_method                  'Rietveld Refinement'
_pd_instr_location               ' ?'
_pd_meas_2theta_fixed            168.33
_pd_meas_number_of_points        14012
_pd_phase_name                   'R 3 c'
_pd_proc_info_datetime           2014-01-02T15:40:52
_pd_proc_info_excluded_regions   ' ?'
_pd_proc_ls_background_function
;   GSAS Background function number 1 with 18 terms.
 Shifted Chebyshev function of 1st kind
      1:   9.855260E-04 2:  -2.148260E-04 3:  -6.594990E-05 4:  -3.899070E-05
      5:  -1.017040E-04 6:  -1.897220E-05 7:  -7.720910E-05 8:  -2.256190E-05
      9:   6.476220E-0610:   3.028970E-0511:   4.236800E-0512:   2.556210E-05
     13:   1.793420E-0614:  -1.467260E-0515:  -3.032200E-0516:  -4.505500E-05
     17:  -4.046290E-0518:  -4.450800E-05
;
_pd_proc_ls_peak_cutoff          0.00100
_pd_proc_ls_profile_function
;
 TOF Profile function number 3 with  21 terms
 Profile coefficients for exponential pseudovoigt
  convolution Von Dreele, 1990 (unpublished)
 #1 (alp  ) =   0.2335 #2 (bet-0) = 0.244339 #3 (bet-1) = ********
 #4 (sig-0) =      0.0 #5 (sig-1) =    554.0 #6 (sig-2) =    -28.9
 #7 (gam-0) =     0.00 #8 (gam-1) =     0.00 #9 (gam-2) =     0.00
 #10(gsf  ) =     0.00 #11(g1ec ) =     0.00 #12(g2ec ) =     0.00
 #13(rstr ) =    0.000 #14(rsta ) =    0.000 #15(rsca ) =    0.000
 #16(L11)   =    0.647 #17(L22)   =    0.000 #18(L33)   =    0.090
 #19(L12)   =    0.876 #20(L13)   =   -0.040 #21(L23)   =    0.016
 Peak tails are ignored  where the intensity is below 0.0010 times the peak
   Aniso. broadening axis   0.0   0.0   1.0
;
_pd_proc_ls_prof_R_factor        0.1432
_pd_proc_ls_prof_wR_expected     0.1147
_pd_proc_ls_prof_wR_factor       0.1422
_pd_proc_number_of_points        14012
_pd_spec_mounting                ' ?'
_refine_ls_goodness_of_fit_all   1.24
_refine_ls_matrix_type           full
_refine_ls_number_parameters     37
_refine_ls_number_restraints     0
_refine_ls_R_Fsqd_factor         0.07250
_refine_ls_shift/su_max          0.02
_refine_ls_shift/su_mean         0.00
_reflns_d_resolution_high        0.667
_reflns_d_resolution_low         2.390
_reflns_limit_h_max              7
_reflns_limit_h_min              0
_reflns_limit_k_max              4
_reflns_limit_k_min              0
_reflns_limit_l_max              20
_reflns_limit_l_min              -20
_reflns_number_total             152
_cod_data_source_file            J-Mater-Chem-C-2014-2-3345-2.cif
_cod_data_source_block           295_publ
_cod_depositor_comments
;
The following automatic conversions were performed:

data item '_geom_angle_publ_flag' value 'N' was changed to 'n' in
accordance with the built-in table derived from the CIF Core
dictionary named 'cif_core.dic' version 2.4.5 last updated on
2014-11-21 (36 times).

data item '_geom_bond_publ_flag' value 'N' was changed to 'n' in
accordance with the built-in table derived from the CIF Core
dictionary named 'cif_core.dic' version 2.4.5 last updated on
2014-11-21 (24 times).

Automatic conversion script
Id: cif_fix_values 6909 2019-04-08 15:41:33Z antanas 
;
_cod_original_cell_volume        374.476(6)
_cod_original_sg_symbol_H-M      'R 3 c'
_cod_database_code               7233675
_gsas_exptl_extinct_corr_t_min   0.73322
_gsas_exptl_extinct_corr_t_max   0.99988
loop_
_symmetry_equiv_pos_site_id
_symmetry_equiv_pos_as_xyz
1 +x,+y,+z
2 -y,x-y,+z
3 y-x,-x,+z
4 y-x,+y,+z+1/2
5 -y,-x,+z+1/2
6 +x,x-y,+z+1/2
101 +x+1/3,+y+2/3,+z+2/3
102 -y+1/3,x-y+2/3,+z+2/3
103 y-x+1/3,-x+2/3,+z+2/3
104 y-x+1/3,+y+2/3,+z+1/6
105 -y+1/3,-x+2/3,+z+1/6
106 +x+1/3,x-y+2/3,+z+1/6
201 +x+2/3,+y+1/3,+z+1/3
202 -y+2/3,x-y+1/3,+z+1/3
203 y-x+2/3,-x+1/3,+z+1/3
204 y-x+2/3,+y+1/3,+z+5/6
205 -y+2/3,-x+1/3,+z+5/6
206 +x+2/3,x-y+1/3,+z+5/6
loop_
_atom_site_type_symbol
_atom_site_label
_atom_site_fract_x
_atom_site_fract_y
_atom_site_fract_z
_atom_site_occupancy
_atom_site_thermal_displace_type
_atom_site_U_iso_or_equiv
_atom_site_symmetry_multiplicity
Bi BI1 0.0 0.0 0.0 1.0 Uiso 0.00341(29) 6
Fe FE2 0.0 0.0 0.22109(8) 1.0 Uiso 0.00163(27) 6
O O3 0.44596(19) 0.01745(24) 0.95234(11) 1.0 Uiso 0.00327(23) 18
loop_
_atom_type_symbol
_atom_type_number_in_cell
_atom_type_scat_length_neutron
_atom_type_scat_source
Bi 6.0 0.8532 International_Tables_Vol_C
Fe 6.0 0.9450 International_Tables_Vol_C
O 18.0 0.5805 International_Tables_Vol_C
loop_
_geom_angle_atom_site_label_1
_geom_angle_atom_site_label_2
_geom_angle_atom_site_label_3
_geom_angle
_geom_angle_site_symmetry_1
_geom_angle_site_symmetry_2
_geom_angle_site_symmetry_3
_geom_angle_publ_flag
O3 BI1 O3 113.422(28) 1_554 . 2_554 n
O3 BI1 O3 113.422(28) 1_554 . 3_554 n
O3 BI1 O3 93.644(28) 1_554 . 104_544 n
O3 BI1 O3 71.812(20) 1_554 . 105_554 n
O3 BI1 O3 144.84(6) 1_554 . 106_444 n
O3 BI1 O3 113.422(28) 2_554 . 3_554 n
O3 BI1 O3 144.84(6) 2_554 . 104_544 n
O3 BI1 O3 93.644(28) 2_554 . 105_554 n
O3 BI1 O3 71.812(20) 2_554 . 106_444 n
O3 BI1 O3 71.812(20) 3_554 . 104_544 n
O3 BI1 O3 144.84(6) 3_554 . 105_554 n
O3 BI1 O3 93.644(28) 3_554 . 106_444 n
O3 BI1 O3 73.17(5) 104_544 . 105_554 n
O3 BI1 O3 73.17(5) 104_544 . 106_444 n
O3 BI1 O3 73.17(5) 105_554 . 106_444 n
O3 FE2 O3 79.94(5) 104_544 . 105_554 n
O3 FE2 O3 79.94(5) 104_544 . 106_444 n
O3 FE2 O3 165.21(7) 104_544 . 201_454 n
O3 FE2 O3 89.511(15) 104_544 . 202_444 n
O3 FE2 O3 88.086(14) 104_544 . 203_554 n
O3 FE2 O3 79.94(5) 105_554 . 106_444 n
O3 FE2 O3 88.086(14) 105_554 . 201_454 n
O3 FE2 O3 165.21(7) 105_554 . 202_444 n
O3 FE2 O3 89.511(15) 105_554 . 203_554 n
O3 FE2 O3 89.511(15) 106_444 . 201_454 n
O3 FE2 O3 88.086(14) 106_444 . 202_444 n
O3 FE2 O3 165.21(7) 106_444 . 203_554 n
O3 FE2 O3 100.55(5) 201_454 . 202_444 n
O3 FE2 O3 100.55(5) 201_454 . 203_554 n
O3 FE2 O3 100.55(5) 202_444 . 203_554 n
BI1 O3 BI1 111.13(4) 1_556 . 204_555 n
BI1 O3 FE2 105.34(4) 1_556 . 101_545 n
BI1 O3 FE2 90.50(4) 1_556 . 204_555 n
BI1 O3 FE2 102.84(5) 204_555 . 101_545 n
BI1 O3 FE2 88.63(5) 204_555 . 204_555 n
FE2 O3 FE2 155.13(6) 101_545 . 204_555 n
loop_
_geom_bond_atom_site_label_1
_geom_bond_atom_site_label_2
_geom_bond_distance
_geom_bond_site_symmetry_1
_geom_bond_site_symmetry_2
_geom_bond_publ_flag
BI1 FE2 3.0682(11) . 1_555 n
BI1 FE2 3.31007(25) . 204_444 n
BI1 FE2 3.31007(25) . 204_454 n
BI1 FE2 3.31007(25) . 204_554 n
BI1 O3 2.5301(9) . 1_554 n
BI1 O3 2.5301(9) . 2_554 n
BI1 O3 2.5301(9) . 3_554 n
BI1 O3 2.2765(13) . 104_544 n
BI1 O3 2.2765(13) . 105_554 n
BI1 O3 2.2765(13) . 106_444 n
FE2 BI1 3.0682(11) . 1_555 n
FE2 BI1 3.31007(25) . 104_445 n
FE2 BI1 3.31007(25) . 104_545 n
FE2 BI1 3.31007(25) . 104_555 n
FE2 O3 2.1122(12) . 104_544 n
FE2 O3 2.1122(12) . 105_554 n
FE2 O3 2.1122(12) . 106_444 n
FE2 O3 1.9498(12) . 201_454 n
FE2 O3 1.9498(12) . 202_444 n
FE2 O3 1.9498(12) . 203_554 n
O3 BI1 2.5301(9) . 1_556 n
O3 BI1 2.2765(13) . 204_555 n
O3 FE2 1.9498(12) . 101_545 n
O3 FE2 2.1122(12) . 204_555 n
loop_
_pd_meas_time_of_flight
_pd_proc_d_spacing
_pd_meas_intensity_total
_pd_proc_ls_weight
_pd_proc_intensity_bkg_calc
_pd_calc_intensity_total
31163.7 . 0.00(32) . . .
31166.8 . 0.00(32) . . .
31169.9 . 0.00(31) . . .
31173.1 . -0.00003(9) . . .
31176.2 . -0.00030(30) . . .
31179.3 . -0.00028(30) . . .
31182.4 . 0.00(32) . . .
31185.5 . 0.00(32) . . .
31188.6 . 0.00(31) . . .
31191.8 . 0.00(32) . . .
31194.9 . 0.00(32) . . .
31198.0 . 0.00(32) . . .
31201.1 . 0.00(32) . . .
31204.2 . 0.00(31) . . .
31207.4 . 0.00(32) . . .
31210.5 . 0.00(32) . . .
31213.6 . -0.00008(27) . . .
31216.7 . -0.0008(9) . . .
31219.9 . -0.000027(28) . . .
31223.0 . 0.00(32) . . .
31226.1 . 0.00(32) . . .
31229.2 . 0.00(32) . . .
31232.3 . -0.000005(17) . . .
31235.5 . -0.0002(4) . . .
31238.6 . -0.0016(14) . . .
31241.7 . -0.0011(12) . . .
31244.8 . -0.0009(8) . . .
31248.0 . -0.0024(19) . . .
31251.1 . 0.00(32) . . .
31254.2 . 0.00(32) . . .
31257.3 . 0.00(31) . . .
31260.5 . -0.0005(12) . . .
31263.6 . -0.0025(28) . . .
31266.7 . -0.00009(21) . . .
31269.9 . -0.0012(18) . . .
31273.0 . -0.004(4) . . .
31276.1 . 0.00(32) . . .
31279.2 . 0.00(31) . . .
31282.4 . 0.00(32) . . .
31285.5 . 0.00(32) . . .
31288.6 . 0.00(31) . . .
31291.8 . 0.00(32) . . .
31294.9 . 0.00(32) . . .
31298.0 . 0.00(32) . . .
31301.1 . 0.00(31) . . .
31304.3 . 0.00(32) . . .
31307.4 . 0.00(32) . . .
31310.5 . 0.0006(10) . . .
31313.7 . 0.0031(24) . . .
31316.8 . 0.0015(13) . . .
31319.9 . 0.0010(12) . . .
31323.1 . 0.0035(27) . . .
31326.2 . 0.00(32) . . .
31329.3 . 0.00(31) . . .
31332.5 . 0.00(32) . . .
31335.6 . 0.00001(4) . . .
31338.7 . 0.0005(9) . . .
31341.9 . 0.0029(22) . . .
31345.0 . 0.0008(8) . . .
31348.1 . 0.00(31) . . .
31351.3 . 0.00016(29) . . .
31354.4 . 0.0012(10) . . .
31357.5 . 0.0027(19) . . .
31360.7 . 0.0028(21) . . .
31363.8 . 0.0019(13) . . .
31367.0 . 0.0019(15) . . .
31370.1 . 0.00(32) . . .
31373.2 . 0.00(31) . . .
31376.4 . 0.00013(31) . . .
31379.5 . 0.0008(8) . . .
31382.6 . 0.0014(10) . . .
31385.8 . 0.0021(13) . . .
31388.9 . 0.0026(15) . . .
31392.1 . 0.0026(17) . . .
31395.2 . 0.0017(12) . . .
31398.3 . 0.0031(15) . . .
31401.5 . 0.0027(14) . . .
31404.6 . 0.0016(10) . . .
31407.8 . 0.0028(14) . . .
31410.9 . 0.0029(16) . . .
31414.0 . 0.0018(10) . . .
31417.2 . 0.0028(16) . . .
31420.3 . 0.0034(16) . . .
31423.5 . 0.0058(22) . . .
31426.6 . 0.0022(12) . . .
31429.8 . 0.0041(18) . . .
31432.9 . 0.0051(19) . . .
31436.0 . 0.0034(15) . . .
31439.2 . 0.0030(14) . . .
31442.3 . 0.0035(17) . . .
31445.5 . 0.0004(6) . . .
31448.6 . 0.0020(12) . . .
31451.8 . 0.0030(14) . . .
31454.9 . 0.0035(14) . . .
31458.1 . 0.0043(18) . . .
31461.2 . 0.0010(6) . . .
31464.4 . 0.0016(9) . . .
31467.5 . 0.0025(11) . . .
31470.7 . 0.0030(14) . . .
31473.8 . 0.0025(12) . . .
31476.9 . 0.0047(17) . . .
31480.1 . 0.0039(15) . . .
31483.2 . 0.0017(10) . . .
31486.4 . 0.0012(7) . . .
31489.5 . 0.0018(9) . . .
31492.7 . 0.0014(10) . . .
31495.9 . 0.0018(12) . . .
31499.0 . 0.0016(9) . . .
31502.1 . 0.0031(13) . . .
31505.3 . 0.0030(13) . . .
31508.4 . 0.0023(10) . . .
31511.6 . 0.0051(17) . . .
31514.8 . 0.0039(14) . . .
31517.9 . 0.0021(9) . . .
31521.1 . 0.0042(14) . . .
31524.2 . 0.0058(17) . . .
31527.3 . 0.0033(11) . . .
31530.5 . 0.0029(10) . . .
31533.7 . 0.0036(12) . . .
31536.8 . 0.0043(13) . . .
31540.0 . 0.0063(18) . . .
31543.1 . 0.0021(9) . . .
31546.3 . 0.0019(9) . . .
31549.4 . 0.0020(9) . . .
31552.6 . 0.0032(11) . . .
31555.7 . 0.0043(14) . . .
31558.9 . 0.0020(9) . . .
31562.1 . 0.0032(12) . . .
31565.2 . 0.0023(9) . . .
31568.4 . 0.0036(13) . . .
31571.5 . 0.0025(9) . . .
31574.7 . 0.0026(9) . . .
31577.8 . 0.0016(7) . . .
31581.0 . 0.0023(9) . . .
31584.2 . 0.0018(7) . . .
31587.3 . 0.0017(8) . . .
31590.5 . 0.0018(7) . . .
31593.7 . 0.0021(8) . . .
31596.8 . 0.0010(5) . . .
31600.0 . 0.0020(9) . . .
31603.1 . 0.0022(8) . . .
31606.3 . 0.0026(10) . . .
31609.4 . 0.0008(4) . . .
31612.6 . 0.00051(34) . . .
31615.8 . 0.0008(6) . . .
31618.9 . 0.0011(5) . . .
31622.1 . 0.0028(11) . . .
31625.2 . 0.0011(6) . . .
31628.4 . 0.0012(5) . . .
31631.6 . 0.0024(9) . . .
31634.7 . 0.0020(8) . . .
31637.9 . 0.0018(7) . . .
31641.1 . 0.0021(7) . . .
31644.3 . 0.0025(9) . . .
31647.4 . 0.0024(9) . . .
31650.6 . 0.0025(8) . . .
31653.7 . 0.0030(10) . . .
31656.9 . 0.0021(8) . . .
31660.1 . 0.0026(9) . . .
31663.2 . 0.0028(9) . . .
31666.4 . 0.0019(7) . . .
31669.6 . 0.0031(10) . . .
31672.7 . 0.0028(9) . . .
31675.9 . 0.0019(8) . . .
31679.1 . 0.0018(7) . . .
31682.2 . 0.0015(6) . . .
31685.4 . 0.0022(8) . . .
31688.6 . 0.0020(7) . . .
31691.8 . 0.0016(6) . . .
31694.9 . 0.0011(5) . . .
31698.1 . 0.0012(6) . . .
31701.3 . 0.0016(6) . . .
31704.4 . 0.0016(7) . . .
31707.6 . 0.0018(7) . . .
31710.8 . 0.0018(7) . . .
31713.9 . 0.0017(7) . . .
31717.1 . 0.0009(5) . . .
31720.3 . 0.0006(4) . . .
31723.4 . 0.0016(6) . . .
31726.6 . 0.0017(7) . . .
31729.8 . 0.0019(8) . . .
31733.0 . 0.0010(5) . . .
31736.2 . 0.0011(6) . . .
31739.3 . 0.0012(6) . . .
31742.5 . 0.0021(8) . . .
31745.7 . 0.0032(10) . . .
31748.8 . 0.0015(6) . . .
31752.0 . 0.0018(7) . . .
31755.2 . 0.0020(7) . . .
31758.4 . 0.0021(7) . . .
31761.6 . 0.0025(8) . . .
31764.7 . 0.0024(8) . . .
31767.9 . 0.0012(6) . . .
31771.1 . 0.0013(6) . . .
31774.3 . 0.0015(7) . . .
31777.4 . 0.0011(5) . . .
31780.6 . 0.0011(5) . . .
31783.8 . 0.0011(5) . . .
31787.0 . 0.0010(5) . . .
31790.2 . 0.0007(4) . . .
31793.3 . 0.0010(5) . . .
31796.5 . 0.0017(6) . . .
31799.7 . 0.0026(8) . . .
31802.9 . 0.0011(4) . . .
31806.1 . 0.0009(4) . . .
31809.2 . 0.0016(6) . . .
31812.4 . 0.0013(5) . . .
31815.6 . 0.0009(5) . . .
31818.8 . 0.0012(5) . . .
31822.0 . 0.0009(5) . . .
31825.1 . 0.00028(23) . . .
31828.3 . 0.00073(34) . . .
31831.5 . 0.0010(4) . . .
31834.7 . 0.0012(6) . . .
31837.9 . 0.0009(5) . . .
31841.1 . 0.0012(5) . . .
31844.3 . 0.0022(7) . . .
31847.4 . 0.0023(7) . . .
31850.6 . 0.0026(8) . . .
31853.8 . 0.0012(5) . . .
31857.0 . 0.0014(6) . . .
31860.2 . 0.0021(7) . . .
31863.4 . 0.0014(5) . . .
31866.6 . 0.0014(5) . . .
31869.8 . 0.0017(6) . . .
31872.9 . 0.0012(5) . . .
31876.1 . 0.0015(6) . . .
31879.3 . 0.0018(6) . . .
31882.5 . 0.0016(5) . . .
31885.7 . 0.0024(7) . . .
31888.9 . 0.0018(6) . . .
31892.1 . 0.0025(8) . . .
31895.3 . 0.0020(7) . . .
31898.4 . 0.0014(5) . . .
31901.6 . 0.0014(5) . . .
31904.8 . 0.0020(7) . . .
31908.0 . 0.0018(6) . . .
31911.2 . 0.0013(5) . . .
31914.4 . 0.0023(7) . . .
31917.6 . 0.0025(7) . . .
31920.8 . 0.0026(7) . . .
31924.0 . 0.0018(6) . . .
31927.2 . 0.0023(7) . . .
31930.4 . 0.0031(8) . . .
31933.6 . 0.0023(7) . . .
31936.8 . 0.0020(6) . . .
31940.0 . 0.0017(6) . . .
31943.2 . 0.0013(6) . . .
31946.4 . 0.0010(5) . . .
31949.5 . 0.0019(6) . . .
31952.7 . 0.0017(6) . . .
31955.9 . 0.0017(6) . . .
31959.1 . 0.0012(5) . . .
31962.3 . 0.0018(6) . . .
31965.5 . 0.0012(5) . . .
31968.7 . 0.0009(4) . . .
31971.9 . 0.0012(5) . . .
31975.1 . 0.0009(4) . . .
31978.3 . 0.0012(5) . . .
31981.5 . 0.0009(4) . . .
31984.7 . 0.0015(5) . . .
31987.9 . 0.0022(6) . . .
31991.1 . 0.0015(6) . . .
31994.3 . 0.0009(4) . . .
31997.5 0.66270 0.0014(5) 0.0 0.00106 .
32000.7 0.66276 0.0011(5) 4639594. 0.00106 0.00107
32003.9 0.66283 0.0011(5) 4788138. 0.00106 0.00107
32007.1 0.66290 0.0010(4) 5241990. 0.00106 0.00107
32010.3 0.66296 0.00058(28) 13201041. 0.001063 0.001074
32013.5 0.66303 0.0011(4) 4951462. 0.00106 0.00107
32016.7 0.66310 0.00079(33) 9178892. 0.001062 0.001074
32019.9 0.66316 0.0013(5) 4153142. 0.00106 0.00107
32023.1 0.66323 0.0010(4) 5840691. 0.00106 0.00107
32026.3 0.66329 0.0019(6) 2676010. 0.00106 0.00107
32029.5 0.66336 0.0016(5) 3820479. 0.00106 0.00107
32032.7 0.66343 0.0021(6) 2563477. 0.00106 0.00107
32035.9 0.66349 0.0016(5) 4143719. 0.00106 0.00107
32039.1 0.66356 0.0017(6) 3112929. 0.00106 0.00107
32042.3 0.66363 0.0016(6) 3256160. 0.00106 0.00107
32045.6 0.66369 0.0009(4) 7129027. 0.00106 0.00108
32048.8 0.66376 0.0013(5) 3881449. 0.00106 0.00108
32051.9 0.66382 0.0014(5) 3520605. 0.00106 0.00108
32055.1 0.66389 0.0017(6) 3243916. 0.00106 0.00108
32058.4 0.66396 0.0013(5) 4674492. 0.00106 0.00108
32061.6 0.66403 0.00071(34) 8653326. 0.001057 0.001079
32064.8 0.66409 0.0012(5) 4065470. 0.00106 0.00108
32068.0 0.66416 0.0011(5) 4608692. 0.00106 0.00108
32071.2 0.66422 0.0011(5) 4407241. 0.00106 0.00108
32074.4 0.66429 0.0014(5) 3376446. 0.00106 0.00108
32077.6 0.66436 0.0011(5) 4729432. 0.00106 0.00108
32080.8 0.66442 0.0012(5) 4828891. 0.00106 0.00108
32084.0 0.66449 0.0009(4) 6993578. 0.00105 0.00108
32087.2 0.66456 0.0012(5) 4028677. 0.00105 0.00108
32090.4 0.66462 0.00071(33) 8948062. 0.001054 0.001085
32093.7 0.66469 0.0011(4) 5173513. 0.00105 0.00109
32096.9 0.66476 0.0010(4) 6105854. 0.00105 0.00109
32100.1 0.66482 0.00065(31) 10456772. 0.001053 0.001088
32103.3 0.66489 0.0010(5) 4903687. 0.00105 0.00109
32106.5 0.66496 0.0011(5) 4811925. 0.00105 0.00109
32109.7 0.66502 0.0014(5) 3761569. 0.00105 0.00109
32112.9 0.66509 0.0014(5) 4132227. 0.00105 0.00109
32116.1 0.66515 0.0012(5) 4601409. 0.00105 0.00110
32119.3 0.66522 0.0012(5) 4778968. 0.00105 0.00110
32122.6 0.66529 0.0013(4) 5111809. 0.00105 0.00110
32125.8 0.66536 0.0009(4) 7569674. 0.00105 0.00110
32129.0 0.66542 0.0009(4) 5189663. 0.00105 0.00111
32132.2 0.66549 0.00025(20) 25738632. 0.001050 0.001112
32135.4 0.66555 0.0009(4) 5864612. 0.00105 0.00112
32138.6 0.66562 0.0009(4) 6753652. 0.00105 0.00112
32141.8 0.66569 0.0016(5) 3898192. 0.00105 0.00113
32145.1 0.66576 0.0013(4) 5132029. 0.00105 0.00114
32148.3 0.66582 0.0016(5) 4077459. 0.00105 0.00116
32151.5 0.66589 0.0016(5) 4733101. 0.00105 0.00118
32154.7 0.66595 0.0012(4) 5327742. 0.00105 0.00121
32157.9 0.66602 0.0009(4) 7545977. 0.00105 0.00125
32161.1 0.66609 0.0023(6) 2539916. 0.00105 0.00130
32164.3 0.66615 0.0019(5) 3595376. 0.00105 0.00137
32167.6 0.66622 0.0015(5) 4827596. 0.00105 0.00145
32170.8 0.66629 0.0016(5) 4159599. 0.00105 0.00155
32174.0 0.66635 0.0010(4) 6833559. 0.00105 0.00167
32177.2 0.66642 0.0016(5) 4659056. 0.00105 0.00180
32180.4 0.66649 0.0027(7) 2144244. 0.00105 0.00196
32183.6 0.66655 0.0017(5) 4437182. 0.00105 0.00212
32186.9 0.66662 0.0023(6) 2739088. 0.00105 0.00230
32190.1 0.66669 0.0020(5) 3430772. 0.00105 0.00247
32193.3 0.66675 0.0023(6) 2847611. 0.00105 0.00264
32196.5 0.66682 0.0023(6) 2976849. 0.00105 0.00280
32199.8 0.66689 0.0034(7) 1797299. 0.00105 0.00294
32203.0 0.66696 0.0023(6) 3079914. 0.00105 0.00305
32206.2 0.66702 0.0023(6) 2713431. 0.00104 0.00313
32209.4 0.66709 0.0026(7) 2276193. 0.00104 0.00318
32212.6 0.66715 0.0029(7) 2345150. 0.00104 0.00321
32215.9 0.66722 0.0027(6) 2520964. 0.00104 0.00322
32219.1 0.66729 0.0022(6) 2849936. 0.00104 0.00321
32222.3 0.66736 0.0025(6) 2540560. 0.00104 0.00320
32225.5 0.66742 0.0040(8) 1432024. 0.00104 0.00319
32228.7 0.66749 0.0036(7) 1859566. 0.00104 0.00318
32232.0 0.66756 0.0036(7) 1789534. 0.00104 0.00318
32235.2 0.66762 0.0039(8) 1548765. 0.00104 0.00319
32238.4 0.66769 0.0034(7) 1881641. 0.00104 0.00321
32241.6 0.66775 0.0025(6) 2804546. 0.00104 0.00322
32244.9 0.66782 0.0030(7) 2187157. 0.00104 0.00322
32248.1 0.66789 0.0035(7) 1979448. 0.00104 0.00320
32251.3 0.66796 0.0029(7) 2306699. 0.00104 0.00315
32254.5 0.66802 0.0018(5) 4234885. 0.00104 0.00306
32257.8 0.66809 0.0024(6) 2979052. 0.00104 0.00293
32261.0 0.66816 0.0017(5) 4413044. 0.00104 0.00277
32264.2 0.66822 0.0017(5) 4167717. 0.00104 0.00258
32267.5 0.66829 0.0025(6) 2790761. 0.00104 0.00238
32270.7 0.66836 0.0021(6) 3278125. 0.00104 0.00219
32273.9 0.66842 0.0016(5) 4343972. 0.00104 0.00201
32277.1 0.66849 0.0018(5) 3526992. 0.00104 0.00185
32280.3 0.66856 0.0012(4) 6401534. 0.00104 0.00172
32283.6 0.66863 0.0015(5) 4629219. 0.00104 0.00161
32286.8 0.66869 0.0014(5) 4651036. 0.00104 0.00152
32290.1 0.66876 0.0009(4) 7546914. 0.00104 0.00146
32293.3 0.66883 0.0023(6) 2537476. 0.00104 0.00142
32296.5 0.66889 0.0021(6) 3295962. 0.00104 0.00140
32299.8 0.66896 0.0013(4) 6113866. 0.00104 0.00140
32303.0 0.66903 0.0012(4) 5679355. 0.00104 0.00141
32306.2 0.66909 0.0015(5) 4700582. 0.00104 0.00143
32309.4 0.66916 0.0013(4) 5022467. 0.00104 0.00146
32312.7 0.66923 0.0010(4) 6009286. 0.00104 0.00149
32315.9 0.66929 0.0012(4) 5905841. 0.00104 0.00153
32319.1 0.66936 0.0014(5) 4875226. 0.00104 0.00158
32322.4 0.66943 0.0017(5) 4674801. 0.00104 0.00162
32325.6 0.66950 0.0021(5) 4011987. 0.00104 0.00166
32328.8 0.66956 0.0022(5) 3536292. 0.00104 0.00170
32332.1 0.66963 0.0023(6) 3107923. 0.00104 0.00174
32335.3 0.66970 0.0022(5) 3342966. 0.00104 0.00177
32338.5 0.66976 0.0021(5) 3413390. 0.00104 0.00179
32341.8 0.66983 0.0018(5) 4049927. 0.00104 0.00181
32345.0 0.66990 0.0025(6) 2636369. 0.00104 0.00181
32348.2 0.66996 0.0024(6) 3104814. 0.00104 0.00182
32351.5 0.67003 0.0018(5) 4192696. 0.00104 0.00181
32354.7 0.67010 0.0012(4) 5451563. 0.00104 0.00179
32357.9 0.67016 0.0013(4) 6807199. 0.00104 0.00176
32361.2 0.67023 0.0020(5) 3580043. 0.00104 0.00173
32364.4 0.67030 0.0014(4) 6418178. 0.00104 0.00168
32367.7 0.67037 0.0012(4) 7435289. 0.00104 0.00163
32370.9 0.67043 0.0012(4) 6360719. 0.00104 0.00159
32374.1 0.67050 0.0015(5) 4271617. 0.00104 0.00155
32377.4 0.67057 0.0010(4) 6362945. 0.00104 0.00152
32380.6 0.67063 0.0012(4) 6432869. 0.00104 0.00151
32383.8 0.67070 0.0014(4) 5023593. 0.00104 0.00152
32387.1 0.67077 0.0009(4) 8012820. 0.00104 0.00156
32390.3 0.67084 0.0015(5) 4910831. 0.00104 0.00162
32393.6 0.67090 0.0017(5) 4584963. 0.00104 0.00173
32396.8 0.67097 0.0014(4) 5575453. 0.00104 0.00187
32400.1 0.67104 0.0023(6) 3302838. 0.00104 0.00205
32403.3 0.67110 0.0035(7) 2150791. 0.00104 0.00227
32406.5 0.67117 0.0031(6) 2757366. 0.00104 0.00253
32409.8 0.67124 0.0037(7) 2100748. 0.00104 0.00281
32413.0 0.67131 0.0042(7) 1780675. 0.00104 0.00311
32416.2 0.67137 0.0043(8) 1727854. 0.00104 0.00342
32419.5 0.67144 0.0044(8) 1767518. 0.00104 0.00371
32422.7 0.67151 0.0043(7) 1919486. 0.00104 0.00398
32426.0 0.67158 0.0049(8) 1570055. 0.00104 0.00419
32429.2 0.67164 0.0046(8) 1772625. 0.00104 0.00434
32432.4 0.67171 0.0050(8) 1511028. 0.00104 0.00441
32435.7 0.67178 0.0034(6) 2441563. 0.00104 0.00439
32438.9 0.67184 0.0025(5) 3550137. 0.00104 0.00428
32442.2 0.67191 0.0032(6) 2468575. 0.00104 0.00409
32445.4 0.67198 0.0033(6) 2555855. 0.00104 0.00384
32448.7 0.67205 0.0031(6) 2585907. 0.00104 0.00355
32451.9 0.67211 0.0026(6) 3230885. 0.00104 0.00325
32455.2 0.67218 0.0026(6) 2937088. 0.00104 0.00297
32458.4 0.67225 0.0026(6) 3123865. 0.00104 0.00270
32461.7 0.67231 0.0035(7) 2260762. 0.00104 0.00247
32464.9 0.67238 0.0034(7) 2167840. 0.00104 0.00227
32468.2 0.67245 0.0020(5) 3596631. 0.00104 0.00211
32471.4 0.67252 0.0020(5) 3892011. 0.00104 0.00197
32474.7 0.67258 0.0025(6) 2962875. 0.00104 0.00187
32477.9 0.67265 0.0026(6) 2939510. 0.00104 0.00179
32481.2 0.67272 0.0021(5) 3990489. 0.00104 0.00174
32484.4 0.67279 0.0021(5) 3964283. 0.00104 0.00172
32487.6 0.67285 0.0025(6) 2837054. 0.00104 0.00172
32490.9 0.67292 0.0018(5) 4320690. 0.00104 0.00174
32494.2 0.67299 0.0021(5) 3728142. 0.00104 0.00178
32497.4 0.67305 0.0029(6) 2760968. 0.00104 0.00184
32500.7 0.67312 0.0031(6) 2455998. 0.00104 0.00190
32503.9 0.67319 0.0023(5) 3773666. 0.00104 0.00198
32507.2 0.67326 0.0022(5) 3751634. 0.00104 0.00205
32510.4 0.67332 0.0026(6) 2885465. 0.00104 0.00211
32513.6 0.67339 0.0024(6) 3290610. 0.00104 0.00217
32516.9 0.67346 0.0020(5) 4259075. 0.00104 0.00221
32520.2 0.67353 0.0024(6) 3184584. 0.00104 0.00223
32523.4 0.67359 0.0018(5) 4778028. 0.00104 0.00223
32526.7 0.67366 0.0019(5) 4480976. 0.00104 0.00222
32529.9 0.67373 0.0019(5) 4335847. 0.00104 0.00221
32533.2 0.67380 0.0012(4) 7186076. 0.00104 0.00220
32536.4 0.67386 0.0019(5) 4303674. 0.00104 0.00222
32539.7 0.67393 0.0025(6) 2992693. 0.00104 0.00228
32542.9 0.67400 0.0020(5) 3877293. 0.00104 0.00238
32546.2 0.67407 0.0031(7) 2298758. 0.00104 0.00254
32549.4 0.67413 0.0033(6) 2518920. 0.00104 0.00276
32552.7 0.67420 0.0040(7) 2099109. 0.00104 0.00305
32556.0 0.67427 0.0053(8) 1435959. 0.00104 0.00338
32559.2 0.67433 0.0047(8) 1745402. 0.00104 0.00375
32562.5 0.67440 0.0048(8) 1684162. 0.00104 0.00414
32565.7 0.67447 0.0053(8) 1546669. 0.00104 0.00453
32569.0 0.67454 0.0064(9) 1237196. 0.00104 0.00489
32572.2 0.67460 0.0058(8) 1462754. 0.00104 0.00519
32575.5 0.67467 0.0056(8) 1468650. 0.00104 0.00541
32578.8 0.67474 0.0053(8) 1534855. 0.00104 0.00553
32582.0 0.67481 0.0048(8) 1716132. 0.00104 0.00551
32585.3 0.67488 0.0044(7) 2036554. 0.00104 0.00537
32588.5 0.67494 0.0051(8) 1628808. 0.00104 0.00511
32591.8 0.67501 0.0040(7) 2026039. 0.00104 0.00474
32595.1 0.67508 0.0037(7) 2138084. 0.00104 0.00432
32598.3 0.67514 0.0029(6) 2872682. 0.00104 0.00387
32601.6 0.67521 0.0032(6) 2585417. 0.00104 0.00342
32604.8 0.67528 0.0032(6) 2563686. 0.00104 0.00301
32608.1 0.67535 0.0028(6) 2981856. 0.00104 0.00264
32611.3 0.67541 0.0025(5) 3360708. 0.00104 0.00233
32614.6 0.67548 0.0014(4) 6493159. 0.00104 0.00207
32617.9 0.67555 0.0019(5) 4329219. 0.00104 0.00187
32621.1 0.67562 0.0018(4) 5275013. 0.00104 0.00172
32624.4 0.67569 0.0015(4) 6004394. 0.00104 0.00160
32627.7 0.67575 0.0020(5) 4210322. 0.00104 0.00152
32630.9 0.67582 0.0020(5) 4871035. 0.00104 0.00147
32634.2 0.67589 0.0019(5) 4754449. 0.00104 0.00143
32637.4 0.67595 0.0017(4) 5447837. 0.00104 0.00142
32640.7 0.67602 0.0020(5) 4490327. 0.00104 0.00142
32644.0 0.67609 0.0024(5) 3943680. 0.00104 0.00144
32647.3 0.67616 0.0023(5) 3595500. 0.00104 0.00148
32650.5 0.67623 0.0019(5) 4339417. 0.00104 0.00154
32653.8 0.67629 0.0014(4) 6967884. 0.00104 0.00164
32657.1 0.67636 0.0021(5) 3964164. 0.00104 0.00177
32660.3 0.67643 0.0030(6) 2794851. 0.00104 0.00195
32663.6 0.67650 0.0035(7) 2170963. 0.00104 0.00217
32666.8 0.67656 0.0023(5) 3826766. 0.00104 0.00245
32670.1 0.67663 0.0024(5) 3571667. 0.00104 0.00279
32673.4 0.67670 0.0023(5) 4212902. 0.00104 0.00317
32676.7 0.67677 0.0039(7) 2293832. 0.00104 0.00359
32679.9 0.67684 0.0045(7) 2141970. 0.00104 0.00403
32683.2 0.67690 0.0052(8) 1774593. 0.00104 0.00448
32686.5 0.67697 0.0057(8) 1554722. 0.00104 0.00489
32689.7 0.67704 0.0056(8) 1582753. 0.00104 0.00526
32693.0 0.67711 0.0054(8) 1651493. 0.00104 0.00555
32696.3 0.67718 0.0057(8) 1554994. 0.00104 0.00573
32699.5 0.67724 0.0056(8) 1657390. 0.00104 0.00580
32702.8 0.67731 0.0037(6) 2655649. 0.00104 0.00575
32706.1 0.67738 0.0031(6) 2853403. 0.00104 0.00557
32709.4 0.67745 0.0028(5) 3330123. 0.00104 0.00530
32712.6 0.67751 0.0035(6) 2670691. 0.00104 0.00497
32715.9 0.67758 0.0039(7) 2211962. 0.00104 0.00462
32719.2 0.67765 0.0026(6) 3229133. 0.00104 0.00430
32722.4 0.67772 0.0019(4) 5028099. 0.00104 0.00404
32725.7 0.67778 0.0027(5) 3359523. 0.00104 0.00385
32729.0 0.67785 0.0034(6) 2786526. 0.00104 0.00374
32732.3 0.67792 0.0037(6) 2522703. 0.00104 0.00371
32735.5 0.67799 0.0037(6) 2712030. 0.00104 0.00374
32738.8 0.67806 0.0045(7) 2105985. 0.00104 0.00382
32742.1 0.67812 0.0043(7) 2253880. 0.00104 0.00391
32745.3 0.67819 0.0044(7) 2188966. 0.00104 0.00401
32748.6 0.67826 0.0050(7) 1976517. 0.00104 0.00408
32751.9 0.67833 0.0048(7) 1895574. 0.00104 0.00410
32755.2 0.67840 0.0031(6) 2988339. 0.00104 0.00407
32758.5 0.67846 0.0035(6) 2719107. 0.00105 0.00396
32761.8 0.67853 0.0036(6) 2721404. 0.00105 0.00379
32765.0 0.67860 0.0031(6) 3271286. 0.00105 0.00356
32768.3 0.67867 0.0031(6) 3194794. 0.00105 0.00329
32771.6 0.67874 0.0030(6) 3208525. 0.00105 0.00300
32774.8 0.67880 0.0024(5) 4060953. 0.00105 0.00271
32778.1 0.67887 0.0023(5) 4145254. 0.00105 0.00243
32781.4 0.67894 0.0027(5) 3432369. 0.00105 0.00217
32784.7 0.67901 0.0021(5) 4773813. 0.00105 0.00196
32788.0 0.67907 0.0018(4) 5164732. 0.00105 0.00178
32791.2 0.67914 0.0015(4) 6411314. 0.00105 0.00163
32794.5 0.67921 0.0014(4) 6674893. 0.00105 0.00152
32797.8 0.67928 0.0016(4) 6792664. 0.00105 0.00143
32801.1 0.67935 0.0016(4) 6083361. 0.00105 0.00136
32804.4 0.67941 0.0013(4) 7379799. 0.00105 0.00131
32807.6 0.67948 0.0017(4) 5608680. 0.00105 0.00127
32810.9 0.67955 0.0017(4) 5721269. 0.00105 0.00124
32814.2 0.67962 0.0014(4) 7254601. 0.00105 0.00122
32817.5 0.67969 0.0015(4) 6155311. 0.00105 0.00120
32820.8 0.67975 0.0018(4) 5214572. 0.00105 0.00119
32824.0 0.67982 0.0023(5) 4298912. 0.00105 0.00118
32827.3 0.67989 0.0017(4) 6479229. 0.00105 0.00117
32830.6 0.67996 0.0018(4) 6513597. 0.00105 0.00116
32833.9 0.68003 0.0017(4) 5928010. 0.00105 0.00115
32837.2 0.68009 0.00109(31) 10603318. 0.001049 0.001145
32840.5 0.68016 0.0014(4) 7269954. 0.00105 0.00114
32843.7 0.68023 0.0013(4) 7975645. 0.00105 0.00113
32847.0 0.68030 0.00117(33) 9257300. 0.001050 0.001130
32850.3 0.68037 0.0013(4) 7962838. 0.00105 0.00113
32853.6 0.68043 0.0015(4) 7057370. 0.00105 0.00112
32856.9 0.68050 0.0015(4) 7078965. 0.00105 0.00112
32860.2 0.68057 0.00110(33) 9327292. 0.001050 0.001116
32863.5 0.68064 0.00110(34) 8726697. 0.001050 0.001113
32866.8 0.68071 0.0013(4) 7179301. 0.00105 0.00111
32870.0 0.68077 0.0015(4) 6280312. 0.00105 0.00111
32873.3 0.68084 0.0016(4) 6193047. 0.00105 0.00111
32876.6 0.68091 0.0017(4) 6553644. 0.00105 0.00110
32879.9 0.68098 0.0018(4) 6101742. 0.00105 0.00110
32883.2 0.68105 0.00125(34) 8741336. 0.001052 0.001101
32886.5 0.68112 0.00126(35) 8146602. 0.001052 0.001099
32889.8 0.68118 0.0012(4) 7894856. 0.00105 0.00110
32893.1 0.68125 0.0016(4) 5575571. 0.00105 0.00110
32896.3 0.68132 0.0020(4) 5364477. 0.00105 0.00109
32899.6 0.68139 0.0024(5) 4527498. 0.00105 0.00109
32902.9 0.68146 0.0015(4) 6822704. 0.00105 0.00109
32906.2 0.68152 0.0014(4) 6519320. 0.00105 0.00109
32909.5 0.68159 0.00122(34) 8673876. 0.001053 0.001091
32912.8 0.68166 0.00116(34) 8597620. 0.001053 0.001090
32916.1 0.68173 0.0012(4) 7036666. 0.00105 0.00109
32919.4 0.68180 0.0014(4) 7261818. 0.00105 0.00109
32922.7 0.68187 0.0013(4) 7639211. 0.00105 0.00109
32926.0 0.68193 0.00071(26) 14514457. 0.001054 0.001089
32929.3 0.68200 0.00093(30) 11277121. 0.001054 0.001088
32932.6 0.68207 0.00090(27) 13897612. 0.001055 0.001088
32935.9 0.68214 0.0013(4) 7713094. 0.00105 0.00109
32939.2 0.68221 0.00093(31) 10720512. 0.001055 0.001089
32942.5 0.68228 0.00082(28) 12750831. 0.001055 0.001089
32945.8 0.68234 0.00091(29) 11600755. 0.001055 0.001090
32949.0 0.68241 0.00093(29) 11896996. 0.001056 0.001092
32952.3 0.68248 0.00097(29) 11957073. 0.001056 0.001093
32955.6 0.68255 0.0016(4) 7001495. 0.00106 0.00110
32958.9 0.68262 0.0021(4) 5110977. 0.00106 0.00110
32962.2 0.68268 0.0021(5) 4881963. 0.00106 0.00110
32965.5 0.68275 0.0015(4) 7304722. 0.00106 0.00110
32968.8 0.68282 0.00090(27) 13302583. 0.001057 0.001103
32972.1 0.68289 0.00101(30) 11054694. 0.001057 0.001105
32975.4 0.68296 0.0013(4) 8018041. 0.00106 0.00111
32978.7 0.68303 0.00121(31) 10258612. 0.001058 0.001110
32982.0 0.68309 0.0017(4) 6745571. 0.00106 0.00111
32985.3 0.68316 0.0023(5) 4532784. 0.00106 0.00111
32988.6 0.68323 0.0022(5) 4500024. 0.00106 0.00111
32991.9 0.68330 0.0016(4) 6146507. 0.00106 0.00111
32995.2 0.68337 0.00108(32) 10009367. 0.001059 0.001107
32998.5 0.68344 0.0014(4) 7812847. 0.00106 0.00110
33001.8 0.68350 0.0017(4) 7148947. 0.00106 0.00110
33005.1 0.68357 0.0015(4) 7734023. 0.00106 0.00110
33008.4 0.68364 0.0015(4) 6953569. 0.00106 0.00110
33011.7 0.68371 0.0015(4) 7075217. 0.00106 0.00109
33015.0 0.68378 0.0018(4) 5799635. 0.00106 0.00109
33018.3 0.68385 0.00144(35) 8177231. 0.001060 0.001090
33021.6 0.68391 0.00129(33) 9364076. 0.001060 0.001089
33024.9 0.68398 0.0017(4) 5824636. 0.00106 0.00109
33028.2 0.68405 0.0018(4) 5121071. 0.00106 0.00109
33031.5 0.68412 0.00119(33) 9310279. 0.001061 0.001088
33034.8 0.68419 0.0014(4) 7668838. 0.00106 0.00109
33038.1 0.68426 0.00083(25) 15925757. 0.001062 0.001088
33041.4 0.68432 0.0014(4) 7836204. 0.00106 0.00109
33044.8 0.68440 0.00124(34) 8903740. 0.001062 0.001089
33048.1 0.68446 0.00095(29) 11639168. 0.001062 0.001090
33051.3 0.68453 0.00098(28) 12687967. 0.001063 0.001090
33054.7 0.68460 0.00124(34) 8532893. 0.001063 0.001091
33058.0 0.68467 0.00097(29) 12018581. 0.001063 0.001092
33061.3 0.68474 0.00087(27) 14105516. 0.001063 0.001093
33064.6 0.68481 0.00085(27) 13399497. 0.001064 0.001094
33067.9 0.68487 0.00091(30) 11468850. 0.001064 0.001096
33071.2 0.68494 0.00091(28) 12377423. 0.001064 0.001097
33074.5 0.68501 0.00100(29) 12003331. 0.001064 0.001099
33077.8 0.68508 0.00133(35) 8263440. 0.001064 0.001100
33081.1 0.68515 0.00136(34) 8673687. 0.001065 0.001102
33084.4 0.68522 0.00137(34) 8488322. 0.001065 0.001104
33087.7 0.68528 0.00149(34) 8543109. 0.001065 0.001106
33091.1 0.68535 0.0020(4) 5881467. 0.00107 0.00111
33094.4 0.68542 0.0016(4) 7048175. 0.00107 0.00111
33097.7 0.68549 0.0015(4) 7014245. 0.00107 0.00111
33101.0 0.68556 0.00102(30) 11241919. 0.001066 0.001119
33104.3 0.68563 0.00085(27) 13327127. 0.001066 0.001124
33107.6 0.68570 0.00112(32) 9671829. 0.001067 0.001131
33110.9 0.68576 0.00107(29) 12025196. 0.001067 0.001140
33114.2 0.68583 0.00087(26) 15083103. 0.001067 0.001153
33117.5 0.68590 0.00097(27) 13364663. 0.001067 0.001169
33120.9 0.68597 0.0017(4) 6990997. 0.00107 0.00119
33124.2 0.68604 0.0020(4) 5856552. 0.00107 0.00122
33127.5 0.68611 0.0017(4) 7502195. 0.00107 0.00126
33130.8 0.68618 0.0017(4) 7123722. 0.00107 0.00130
33134.1 0.68625 0.0019(4) 5962087. 0.00107 0.00136
33137.4 0.68631 0.0021(4) 5116225. 0.00107 0.00144
33140.7 0.68638 0.0018(4) 6838243. 0.00107 0.00152
33144.0 0.68645 0.0018(4) 6840200. 0.00107 0.00163
33147.4 0.68652 0.0019(4) 6166230. 0.00107 0.00175
33150.7 0.68659 0.0018(4) 6673823. 0.00107 0.00187
33154.0 0.68666 0.0020(4) 5499969. 0.00107 0.00200
33157.3 0.68673 0.0020(4) 5883860. 0.00107 0.00213
33160.6 0.68679 0.0020(4) 5798005. 0.00107 0.00226
33163.9 0.68686 0.0022(4) 5066591. 0.00107 0.00237
33167.3 0.68693 0.0022(4) 5956987. 0.00107 0.00246
33170.6 0.68700 0.0027(5) 4229341. 0.00107 0.00252
33173.9 0.68707 0.0024(5) 4783271. 0.00107 0.00255
33177.2 0.68714 0.0025(5) 4631729. 0.00107 0.00255
33180.5 0.68721 0.0026(5) 4549042. 0.00107 0.00250
33183.8 0.68727 0.0023(5) 4855716. 0.00107 0.00242
33187.2 0.68735 0.00141(34) 8409200. 0.001073 0.002301
33190.5 0.68741 0.00140(34) 8834591. 0.001073 0.002169
33193.8 0.68748 0.0017(4) 6806325. 0.00107 0.00203
33197.1 0.68755 0.0016(4) 7238721. 0.00107 0.00188
33200.5 0.68762 0.00118(31) 10702134. 0.001074 0.001749
33203.8 0.68769 0.0014(4) 7615073. 0.00107 0.00163
33207.1 0.68776 0.00098(29) 11641920. 0.001074 0.001530
33210.4 0.68783 0.0015(4) 7502554. 0.00107 0.00145
33213.7 0.68789 0.0017(4) 6908907. 0.00107 0.00138
33217.0 0.68796 0.00147(35) 8224326. 0.001075 0.001328
33220.4 0.68803 0.0016(4) 7236318. 0.00108 0.00129
33223.7 0.68810 0.00139(34) 8538731. 0.001076 0.001263
33227.0 0.68817 0.00100(29) 12177856. 0.001076 0.001245
33230.4 0.68824 0.00126(34) 8849456. 0.001076 0.001237
33233.6 0.68831 0.00112(30) 11056459. 0.001076 0.001234
33237.0 0.68838 0.0016(4) 6890751. 0.00108 0.00124
33240.3 0.68845 0.00122(30) 10957808. 0.001077 0.001249
33243.6 0.68851 0.00113(29) 11815377. 0.001077 0.001268
33247.0 0.68858 0.0018(4) 6376186. 0.00108 0.00130
33250.3 0.68865 0.0016(4) 7871242. 0.00108 0.00134
33253.6 0.68872 0.0017(4) 7443487. 0.00108 0.00139
33257.0 0.68879 0.0019(4) 6408057. 0.00108 0.00147
33260.3 0.68886 0.0016(4) 7713435. 0.00108 0.00156
33263.6 0.68893 0.00153(35) 8309998. 0.001079 0.001675
33266.9 0.68900 0.0019(4) 6930961. 0.00108 0.00181
33270.2 0.68906 0.0027(5) 4853817. 0.00108 0.00197
33273.6 0.68914 0.0031(5) 3948743. 0.00108 0.00215
33276.9 0.68920 0.0025(4) 5258141. 0.00108 0.00234
33280.2 0.68927 0.0027(5) 4551174. 0.00108 0.00254
33283.6 0.68934 0.0031(5) 4229624. 0.00108 0.00274
33286.9 0.68941 0.0036(5) 3555043. 0.00108 0.00292
33290.2 0.68948 0.0037(5) 3364937. 0.00108 0.00308
33293.5 0.68955 0.0034(5) 3726822. 0.00108 0.00321
33296.9 0.68962 0.0033(5) 3646393. 0.00108 0.00329
33300.2 0.68969 0.0035(5) 3572371. 0.00108 0.00332
33303.5 0.68975 0.0036(5) 3677991. 0.00108 0.00330
33306.9 0.68983 0.0033(5) 3832363. 0.00108 0.00322
33310.2 0.68989 0.0027(5) 4589233. 0.00108 0.00309
33313.5 0.68996 0.0022(4) 6228190. 0.00108 0.00293
33316.9 0.69003 0.0027(5) 4332685. 0.00108 0.00274
33320.2 0.69010 0.0024(4) 5373449. 0.00108 0.00255
33323.5 0.69017 0.0019(4) 7450598. 0.00108 0.00236
33326.9 0.69024 0.0019(4) 6281739. 0.00108 0.00219
33330.2 0.69031 0.0022(4) 5765687. 0.00108 0.00204
33333.5 0.69038 0.0019(4) 7065615. 0.00108 0.00191
33336.9 0.69045 0.0018(4) 7365001. 0.00108 0.00180
33340.2 0.69052 0.0022(4) 6031070. 0.00108 0.00173
33343.5 0.69058 0.0021(4) 6186996. 0.00109 0.00167
33346.9 0.69065 0.0018(4) 7649109. 0.00109 0.00164
33350.2 0.69072 0.0019(4) 6548868. 0.00109 0.00162
33353.5 0.69079 0.00124(30) 11045678. 0.001086 0.001616
33356.9 0.69086 0.00124(32) 9904982. 0.001086 0.001621
33360.2 0.69093 0.00148(33) 9053549. 0.001086 0.001635
33363.6 0.69100 0.0021(4) 5580001. 0.00109 0.00166
33366.9 0.69107 0.0018(4) 7214097. 0.00109 0.00169
33370.2 0.69114 0.00158(35) 8266109. 0.001087 0.001737
33373.6 0.69121 0.00120(30) 11276067. 0.001088 0.001801
33376.9 0.69128 0.0021(4) 5562591. 0.00109 0.00188
33380.2 0.69134 0.0022(4) 5568187. 0.00109 0.00199
33383.6 0.69141 0.0024(4) 4996580. 0.00109 0.00212
33386.9 0.69148 0.0022(4) 5478204. 0.00109 0.00228
33390.3 0.69155 0.0029(5) 3979507. 0.00109 0.00245
33393.6 0.69162 0.0033(5) 3873929. 0.00109 0.00263
33396.9 0.69169 0.0041(6) 3233995. 0.00109 0.00281
33400.3 0.69176 0.0042(5) 3313307. 0.00109 0.00297
33403.6 0.69183 0.0042(6) 3182384. 0.00109 0.00311
33407.0 0.69190 0.0038(5) 3350566. 0.00109 0.00321
33410.3 0.69197 0.0033(5) 4107892. 0.00109 0.00327
33413.7 0.69204 0.0032(5) 3975368. 0.00109 0.00326
33417.0 0.69211 0.0027(5) 4813862. 0.00109 0.00320
33420.3 0.69217 0.0030(5) 4266749. 0.00109 0.00309
33423.7 0.69225 0.0027(5) 4757551. 0.00109 0.00292
33427.0 0.69231 0.0025(4) 5802412. 0.00109 0.00273
33430.4 0.69238 0.0030(5) 4362162. 0.00109 0.00251
33433.7 0.69245 0.0020(4) 7158562. 0.00109 0.00229
33437.1 0.69252 0.0019(4) 6648727. 0.00109 0.00209
33440.4 0.69259 0.0020(4) 5994700. 0.00109 0.00190
33443.7 0.69266 0.0018(4) 7045339. 0.00109 0.00175
33447.1 0.69273 0.00158(34) 8450188. 0.001094 0.001616
33450.4 0.69280 0.00169(35) 8290097. 0.001094 0.001513
33453.8 0.69287 0.0017(4) 7794442. 0.00109 0.00144
33457.1 0.69294 0.00133(33) 9155139. 0.001094 0.001378
33460.5 0.69301 0.00146(35) 8371411. 0.001095 0.001339
33463.8 0.69308 0.00142(31) 10100212. 0.001095 0.001313
33467.2 0.69315 0.0017(4) 7309578. 0.00110 0.00130
33470.5 0.69321 0.0019(4) 6072003. 0.00110 0.00129
33473.8 0.69328 0.00136(32) 9627300. 0.001096 0.001291
33477.2 0.69335 0.0015(4) 7746589. 0.00110 0.00130
33480.5 0.69342 0.00116(30) 11234852. 0.001096 0.001307
33483.9 0.69349 0.00142(33) 9022430. 0.001097 0.001320
33487.3 0.69356 0.0017(4) 7093121. 0.00110 0.00134
33490.6 0.69363 0.00172(35) 8356271. 0.001097 0.001354
33494.0 0.69370 0.0018(4) 7739291. 0.00110 0.00137
33497.3 0.69377 0.00175(35) 8177488. 0.001098 0.001392
33500.6 0.69384 0.00168(33) 9240005. 0.001098 0.001411
33504.0 0.69391 0.00165(33) 8985511. 0.001098 0.001429
33507.3 0.69398 0.00161(34) 8695680. 0.001099 0.001445
33510.7 0.69405 0.00130(30) 10991164. 0.001099 0.001462
33514.1 0.69412 0.0017(4) 7629292. 0.00110 0.00148
33517.4 0.69419 0.0017(4) 7845587. 0.00110 0.00150
33520.8 0.69426 0.00149(34) 8522654. 0.001100 0.001528
33524.1 0.69433 0.00144(33) 9227171. 0.001100 0.001570
33527.4 0.69439 0.00164(34) 8536200. 0.001100 0.001634
33530.8 0.69446 0.00165(34) 8570919. 0.001101 0.001729
33534.2 0.69453 0.0022(4) 5759531. 0.00110 0.00186
33537.5 0.69460 0.0023(4) 5709238. 0.00110 0.00204
33540.9 0.69467 0.0027(4) 5181426. 0.00110 0.00227
33544.2 0.69474 0.0031(5) 4437591. 0.00110 0.00255
33547.6 0.69481 0.0034(5) 3943579. 0.00110 0.00290
33550.9 0.69488 0.0041(5) 3390575. 0.00110 0.00329
33554.3 0.69495 0.0049(6) 2887903. 0.00110 0.00372
33557.6 0.69502 0.0047(6) 3233250. 0.00110 0.00418
33561.0 0.69509 0.0049(6) 3051057. 0.00110 0.00464
33564.4 0.69516 0.0053(6) 2586120. 0.00110 0.00507
33567.7 0.69523 0.0048(6) 2976764. 0.00110 0.00545
33571.1 0.69530 0.0063(7) 2144442. 0.00110 0.00575
33574.4 0.69537 0.0062(6) 2402873. 0.00110 0.00595
33577.8 0.69544 0.0059(6) 2398985. 0.00110 0.00601
33581.1 0.69551 0.0049(6) 2923400. 0.00110 0.00593
33584.5 0.69558 0.0039(5) 3701267. 0.00110 0.00571
33587.9 0.69565 0.0031(5) 4494732. 0.00111 0.00537
33591.2 0.69572 0.0032(5) 4416218. 0.00111 0.00494
33594.6 0.69579 0.0039(5) 3539957. 0.00111 0.00445
33598.0 0.69586 0.0032(5) 4235193. 0.00111 0.00396
33601.3 0.69592 0.0031(5) 4508191. 0.00111 0.00349
33604.7 0.69599 0.0030(5) 4282153. 0.00111 0.00307
33608.0 0.69606 0.0021(4) 6754027. 0.00111 0.00271
33611.4 0.69613 0.0019(4) 7811644. 0.00111 0.00242
33614.8 0.69620 0.0019(4) 7096129. 0.00111 0.00219
33618.1 0.69627 0.0021(4) 6686728. 0.00111 0.00204
33621.5 0.69634 0.0028(5) 4910882. 0.00111 0.00194
33624.9 0.69641 0.0030(5) 4506027. 0.00111 0.00190
33628.2 0.69648 0.0025(4) 5958807. 0.00111 0.00191
33631.6 0.69655 0.0024(4) 5693512. 0.00111 0.00196
33634.9 0.69662 0.0023(4) 6593263. 0.00111 0.00205
33638.3 0.69669 0.0024(4) 6854257. 0.00111 0.00217
33641.7 0.69676 0.0030(5) 4584609. 0.00111 0.00230
33645.0 0.69683 0.0028(4) 4940773. 0.00111 0.00246
33648.4 0.69690 0.0028(4) 5304593. 0.00111 0.00262
33651.8 0.69697 0.0030(4) 5053618. 0.00111 0.00277
33655.1 0.69704 0.0026(4) 6113564. 0.00111 0.00291
33658.5 0.69711 0.0030(5) 4665907. 0.00111 0.00302
33661.8 0.69718 0.0030(5) 4430720. 0.00111 0.00310
33665.2 0.69725 0.0026(4) 5164302. 0.00111 0.00314
33668.6 0.69732 0.0025(4) 6011376. 0.00111 0.00314
33672.0 0.69739 0.0027(4) 5495615. 0.00111 0.00309
33675.3 0.69746 0.0028(4) 5327970. 0.00111 0.00301
33678.7 0.69753 0.0030(5) 4914771. 0.00111 0.00289
33682.1 0.69760 0.0026(4) 5704292. 0.00111 0.00276
33685.4 0.69767 0.0028(4) 5274382. 0.00111 0.00262
33688.8 0.69774 0.0030(4) 4939077. 0.00111 0.00247
33692.2 0.69781 0.0024(4) 6276742. 0.00111 0.00231
33695.5 0.69788 0.0025(4) 5945642. 0.00111 0.00216
33698.9 0.69795 0.0028(4) 5369378. 0.00111 0.00202
33702.3 0.69802 0.0023(4) 6377414. 0.00111 0.00188
33705.7 0.69809 0.0021(4) 6459938. 0.00111 0.00176
33709.0 0.69816 0.00182(34) 8524569. 0.001115 0.001647
33712.4 0.69823 0.0022(4) 6709297. 0.00112 0.00155
33715.8 0.69830 0.0019(4) 7358181. 0.00112 0.00148
33719.1 0.69837 0.00148(32) 9930858. 0.001116 0.001412
33722.5 0.69844 0.00144(31) 10186548. 0.001116 0.001361
33725.9 0.69851 0.00165(33) 9101386. 0.001117 0.001318
33729.3 0.69858 0.0021(4) 6667939. 0.00112 0.00129
33732.6 0.69864 0.0019(4) 7925447. 0.00112 0.00126
33736.0 0.69872 0.00170(34) 8475743. 0.001117 0.001243
33739.4 0.69879 0.0018(4) 7756866. 0.00112 0.00123
33742.7 0.69885 0.00185(35) 8245967. 0.001118 0.001217
33746.1 0.69892 0.00170(35) 8311897. 0.001118 0.001208
33749.5 0.69899 0.00115(28) 13105470. 0.001118 0.001201
33752.9 0.69907 0.00139(32) 9980166. 0.001119 0.001194
33756.3 0.69914 0.00140(32) 10046930. 0.001119 0.001189
33759.6 0.69920 0.00140(31) 10464666. 0.001119 0.001185
33763.0 0.69927 0.00121(29) 12187491. 0.001120 0.001181
33766.4 0.69935 0.00115(27) 13329575. 0.001120 0.001178
33769.8 0.69942 0.00125(31) 10595575. 0.001120 0.001175
33773.1 0.69948 0.00084(24) 17115538. 0.001120 0.001172
33776.5 0.69955 0.00141(32) 10048495. 0.001121 0.001169
33779.9 0.69962 0.00152(32) 9970853. 0.001121 0.001167
33783.3 0.69970 0.00137(30) 10985555. 0.001121 0.001165
33786.7 0.69977 0.00142(30) 10782076. 0.001121 0.001163
33790.0 0.69983 0.00142(30) 11026792. 0.001122 0.001162
33793.4 0.69990 0.00100(25) 16168180. 0.001122 0.001160
33796.8 0.69997 0.00125(30) 11376439. 0.001122 0.001159
33800.2 0.70005 0.00094(23) 18459820. 0.001123 0.001157
33803.6 0.70012 0.00097(24) 16744366. 0.001123 0.001156
33806.9 0.70018 0.00116(28) 12733377. 0.001123 0.001155
33810.3 0.70025 0.00158(34) 8780799. 0.001123 0.001154
33813.7 0.70032 0.00118(27) 13479058. 0.001124 0.001153
33817.1 0.70040 0.00128(29) 11762460. 0.001124 0.001152
33820.5 0.70047 0.00120(28) 13219853. 0.001124 0.001151
33823.8 0.70053 0.00126(28) 12705012. 0.001124 0.001151
33827.2 0.70060 0.00126(29) 12171464. 0.001125 0.001149
33830.6 0.70068 0.00111(27) 14152101. 0.001125 0.001148
33834.0 0.70075 0.00092(24) 17611410. 0.001125 0.001148
33837.4 0.70082 0.00085(23) 19310874. 0.001125 0.001147
33840.8 0.70089 0.00130(30) 11405403. 0.001126 0.001147
33844.1 0.70095 0.00149(30) 10903578. 0.001126 0.001146
33847.5 0.70103 0.00170(32) 9640473. 0.001126 0.001146
33850.9 0.70110 0.00164(33) 9061357. 0.001127 0.001145
33854.3 0.70117 0.00113(27) 13543586. 0.001127 0.001145
33857.7 0.70124 0.00111(25) 15452491. 0.001127 0.001145
33861.1 0.70131 0.00112(25) 15971830. 0.001127 0.001145
33864.5 0.70138 0.00123(27) 13405904. 0.001128 0.001144
33867.9 0.70145 0.00108(27) 14115940. 0.001128 0.001144
33871.2 0.70152 0.00081(22) 20667288. 0.001128 0.001144
33874.6 0.70159 0.00088(23) 19335784. 0.001128 0.001144
33878.0 0.70166 0.00099(25) 15766175. 0.001129 0.001144
33881.4 0.70173 0.00115(27) 13683614. 0.001129 0.001144
33884.8 0.70180 0.00111(26) 14612620. 0.001129 0.001143
33888.2 0.70187 0.00107(26) 15156466. 0.001129 0.001143
33891.6 0.70194 0.00118(26) 15113857. 0.001130 0.001143
33895.0 0.70201 0.00160(31) 10305265. 0.001130 0.001143
33898.3 0.70208 0.00181(33) 8983698. 0.001130 0.001143
33901.7 0.70215 0.00153(30) 11087083. 0.001130 0.001143
33905.1 0.70222 0.00137(28) 12312100. 0.001131 0.001143
33908.5 0.70229 0.00144(29) 11635770. 0.001131 0.001143
33911.9 0.70236 0.00154(31) 10611538. 0.001131 0.001143
33915.3 0.70243 0.00156(31) 10123698. 0.001131 0.001143
33918.7 0.70250 0.00130(28) 12548076. 0.001132 0.001143
33922.1 0.70257 0.00120(27) 13726495. 0.001132 0.001143
33925.5 0.70264 0.00140(30) 11287577. 0.001132 0.001143
33928.9 0.70271 0.00155(32) 9809665. 0.001133 0.001143
33932.3 0.70278 0.00117(26) 14388025. 0.001133 0.001143
33935.7 0.70285 0.00099(24) 18020214. 0.001133 0.001143
33939.1 0.70292 0.00102(25) 16552808. 0.001133 0.001143
33942.5 0.70299 0.00118(27) 13435419. 0.001134 0.001143
33945.9 0.70306 0.00143(31) 10292171. 0.001134 0.001143
33949.2 0.70313 0.00119(28) 12542519. 0.001134 0.001144
33952.6 0.70320 0.00085(24) 18107408. 0.001134 0.001144
33956.0 0.70327 0.00098(25) 15711840. 0.001135 0.001144
33959.4 0.70334 0.00108(27) 13554536. 0.001135 0.001144
33962.8 0.70341 0.00088(23) 18160402. 0.001135 0.001145
33966.2 0.70348 0.00103(25) 15665043. 0.001135 0.001146
33969.6 0.70355 0.00106(26) 14653169. 0.001136 0.001146
33973.0 0.70363 0.00088(24) 17375180. 0.001136 0.001148
33976.4 0.70370 0.00098(26) 14364043. 0.001136 0.001149
33979.8 0.70377 0.00070(21) 22847400. 0.001136 0.001151
33983.2 0.70384 0.00089(23) 18513342. 0.001137 0.001153
33986.6 0.70391 0.00131(29) 12133152. 0.001137 0.001156
33990.0 0.70398 0.00156(32) 10002153. 0.001137 0.001160
33993.4 0.70405 0.00143(29) 11765895. 0.001137 0.001164
33996.8 0.70412 0.00155(32) 9927893. 0.001138 0.001168
34000.2 0.70419 0.00106(26) 15299431. 0.001138 0.001173
34003.6 0.70426 0.00093(24) 17733370. 0.001138 0.001178
34007.0 0.70433 0.00107(25) 15409201. 0.001138 0.001178
34010.4 0.70440 0.00121(27) 13549446. 0.001139 0.001182
34013.8 0.70447 0.00103(25) 16476861. 0.001139 0.001185
34017.2 0.70454 0.00114(26) 14419008. 0.001139 0.001187
34020.6 0.70461 0.00133(28) 12652451. 0.001139 0.001187
34024.0 0.70468 0.00127(28) 13050179. 0.001140 0.001186
34027.4 0.70475 0.00092(22) 20209268. 0.001140 0.001183
34030.8 0.70482 0.00147(30) 11167120. 0.001140 0.001180
34034.2 0.70489 0.00144(29) 11557270. 0.001140 0.001176
34037.6 0.70496 0.00108(25) 16253970. 0.001141 0.001171
34041.0 0.70503 0.00134(28) 12522127. 0.001141 0.001166
34044.5 0.70511 0.00145(30) 11305536. 0.001141 0.001161
34047.9 0.70518 0.00111(26) 14418068. 0.001141 0.001157
34051.3 0.70525 0.00073(21) 23741260. 0.001142 0.001154
34054.7 0.70532 0.00128(28) 13051030. 0.001142 0.001152
34058.1 0.70539 0.00123(26) 14559655. 0.001142 0.001150
34061.5 0.70546 0.00109(25) 15638654. 0.001142 0.001149
34064.9 0.70553 0.00132(28) 12465816. 0.001143 0.001148
34068.3 0.70560 0.00140(29) 12243932. 0.001143 0.001147
34071.7 0.70567 0.00122(27) 13624927. 0.001143 0.001147
34075.1 0.70574 0.00111(26) 14542048. 0.001143 0.001146
34078.5 0.70581 0.00106(25) 16253325. 0.001144 0.001146
34081.9 0.70588 0.00111(25) 15487847. 0.001144 0.001146
34085.3 0.70595 0.00107(25) 15968180. 0.001144 0.001146
34088.7 0.70602 0.00107(25) 16037471. 0.001144 0.001146
34092.1 0.70609 0.00135(29) 11932798. 0.001145 0.001147
34095.6 0.70617 0.00148(30) 11001954. 0.001145 0.001147
34099.0 0.70624 0.00156(31) 10724183. 0.001145 0.001148
34102.4 0.70631 0.00134(27) 13896650. 0.001145 0.001148
34105.8 0.70638 0.00168(31) 10085292. 0.001146 0.001148
34109.2 0.70645 0.00177(33) 9363068. 0.001146 0.001148
34112.6 0.70652 0.00154(30) 10790890. 0.001146 0.001148
34116.0 0.70659 0.00135(29) 12027460. 0.001146 0.001148
34119.4 0.70666 0.00115(25) 15833240. 0.001146 0.001149
34122.9 0.70673 0.00140(29) 11686621. 0.001147 0.001149
34126.3 0.70680 0.00125(27) 13484112. 0.001147 0.001149
34129.7 0.70687 0.00110(25) 15393751. 0.001147 0.001149
34133.1 0.70694 0.00111(25) 16101936. 0.001147 0.001150
34136.5 0.70701 0.00163(30) 10853971. 0.001148 0.001150
34139.9 0.70708 0.00178(33) 9260534. 0.001148 0.001150
34143.3 0.70715 0.00119(27) 13699304. 0.001148 0.001150
34146.7 0.70722 0.00102(24) 17079316. 0.001148 0.001151
34150.2 0.70730 0.00107(25) 16295794. 0.001149 0.001151
34153.6 0.70737 0.00095(23) 18832830. 0.001149 0.001151
34157.0 0.70744 0.00089(22) 20910392. 0.001149 0.001151
34160.4 0.70751 0.00111(25) 16481679. 0.001149 0.001152
34163.8 0.70758 0.00130(27) 13994657. 0.001150 0.001152
34167.2 0.70765 0.00127(26) 14878607. 0.001150 0.001152
34170.7 0.70772 0.00121(27) 13863940. 0.001150 0.001152
34174.1 0.70779 0.00107(25) 15606509. 0.001150 0.001153
34177.5 0.70786 0.00117(26) 14850642. 0.001150 0.001153
34180.9 0.70793 0.00122(26) 14971699. 0.001151 0.001153
34184.3 0.70800 0.00114(25) 16080144. 0.001151 0.001153
34187.8 0.70808 0.00097(23) 19670924. 0.001151 0.001154
34191.2 0.70815 0.00102(23) 18661418. 0.001151 0.001154
34194.6 0.70822 0.00122(28) 13021712. 0.001152 0.001154
34198.0 0.70829 0.00107(25) 16381858. 0.001152 0.001155
34201.4 0.70836 0.00136(27) 13321454. 0.001152 0.001155
34204.9 0.70843 0.00134(28) 13006718. 0.001152 0.001155
34208.3 0.70850 0.00102(23) 18818696. 0.001153 0.001156
34211.7 0.70857 0.00116(25) 16204737. 0.001153 0.001156
34215.1 0.70864 0.00126(27) 14065069. 0.001153 0.001156
34218.5 0.70871 0.00105(24) 17870048. 0.001153 0.001156
34222.0 0.70878 0.00142(29) 12146440. 0.001153 0.001157
34225.4 0.70885 0.00132(27) 13361955. 0.001154 0.001157
34228.8 0.70892 0.00120(27) 13730567. 0.001154 0.001157
34232.2 0.70900 0.00088(20) 23906448. 0.001154 0.001158
34235.7 0.70907 0.00092(22) 20490266. 0.001154 0.001158
34239.1 0.70914 0.00105(25) 16069255. 0.001155 0.001158
34242.5 0.70921 0.00127(27) 13225799. 0.001155 0.001159
34245.9 0.70928 0.00153(29) 11649812. 0.001155 0.001159
34249.3 0.70935 0.00157(30) 11435594. 0.001155 0.001159
34252.8 0.70942 0.00124(27) 13826477. 0.001156 0.001160
34256.2 0.70949 0.00122(27) 13959186. 0.001156 0.001160
34259.6 0.70956 0.00117(25) 15668324. 0.001156 0.001160
34263.1 0.70964 0.00088(22) 21552612. 0.001156 0.001161
34266.5 0.70971 0.00113(26) 14497950. 0.001156 0.001161
34269.9 0.70978 0.00134(29) 12091835. 0.001157 0.001162
34273.3 0.70985 0.00124(26) 14309873. 0.001157 0.001162
34276.8 0.70992 0.00148(30) 11241595. 0.001157 0.001162
34280.2 0.70999 0.00116(26) 15018352. 0.001157 0.001163
34283.6 0.71006 0.00117(26) 14801467. 0.001157 0.001163
34287.1 0.71013 0.00121(26) 14851238. 0.001158 0.001164
34290.5 0.71020 0.00105(24) 17108108. 0.001158 0.001164
34293.9 0.71027 0.00095(23) 18864708. 0.001158 0.001165
34297.4 0.71035 0.00137(29) 12241601. 0.001158 0.001165
34300.8 0.71042 0.00137(28) 12982939. 0.001159 0.001166
34304.2 0.71049 0.00125(26) 14846362. 0.001159 0.001166
34307.6 0.71056 0.00133(27) 13656891. 0.001159 0.001167
34311.1 0.71063 0.00141(28) 12426221. 0.001159 0.001168
34314.5 0.71070 0.00134(28) 12901579. 0.001159 0.001168
34317.9 0.71077 0.00111(25) 16640196. 0.001160 0.001169
34321.4 0.71084 0.00113(25) 15773256. 0.001160 0.001170
34324.8 0.71091 0.00115(26) 14334847. 0.001160 0.001171
34328.2 0.71098 0.00112(26) 15324296. 0.001160 0.001172
34331.7 0.71106 0.00107(25) 16520839. 0.001161 0.001174
34335.1 0.71113 0.00116(26) 15309839. 0.001161 0.001176
34338.5 0.71120 0.00119(25) 15729175. 0.001161 0.001179
34342.0 0.71127 0.00105(25) 16468443. 0.001161 0.001182
34345.4 0.71134 0.00122(27) 13903076. 0.001161 0.001187
34348.9 0.71141 0.00113(24) 16927132. 0.001162 0.001194
34352.3 0.71148 0.00133(27) 13760092. 0.001162 0.001203
34355.7 0.71155 0.00128(26) 14566713. 0.001162 0.001214
34359.1 0.71162 0.00143(28) 12756895. 0.001162 0.001228
34362.6 0.71170 0.00170(31) 10630096. 0.001162 0.001246
34366.0 0.71177 0.00175(31) 10585748. 0.001163 0.001267
34369.5 0.71184 0.00158(30) 10948956. 0.001163 0.001291
34372.9 0.71191 0.00120(26) 15005992. 0.001163 0.001318
34376.3 0.71198 0.00118(25) 15498203. 0.001163 0.001346
34379.8 0.71205 0.00116(25) 15702502. 0.001163 0.001377
34383.2 0.71212 0.00158(31) 10716735. 0.001164 0.001404
34386.6 0.71219 0.00157(30) 11290540. 0.001164 0.001429
34390.1 0.71227 0.00146(29) 11647026. 0.001164 0.001450
34393.5 0.71234 0.00125(26) 15203146. 0.001164 0.001464
34397.0 0.71241 0.00141(29) 11925378. 0.001165 0.001471
34400.4 0.71248 0.00105(24) 17436826. 0.001165 0.001469
34403.9 0.71255 0.00145(29) 12067361. 0.001165 0.001458
34407.3 0.71262 0.00137(27) 13591144. 0.001165 0.001439
34410.7 0.71269 0.00113(25) 16588104. 0.001165 0.001414
34414.2 0.71277 0.00117(25) 15898555. 0.001166 0.001385
34417.6 0.71284 0.00145(28) 12684731. 0.001166 0.001356
34421.1 0.71291 0.00163(30) 11072397. 0.001166 0.001327
34424.5 0.71298 0.00160(29) 11851335. 0.001166 0.001301
34428.0 0.71305 0.00153(30) 11411394. 0.001166 0.001278
34431.4 0.71312 0.00118(25) 16155672. 0.001167 0.001259
34434.8 0.71319 0.00152(29) 11891586. 0.001167 0.001244
34438.3 0.71327 0.00136(27) 13428141. 0.001167 0.001233
34441.7 0.71334 0.00138(28) 13085790. 0.001167 0.001224
34445.2 0.71341 0.00139(28) 12894800. 0.001167 0.001219
34448.6 0.71348 0.00122(25) 15897111. 0.001168 0.001217
34452.1 0.71355 0.00124(25) 16083972. 0.001168 0.001215
34455.5 0.71362 0.00122(24) 16889350. 0.001168 0.001215
34459.0 0.71369 0.00123(26) 15090285. 0.001168 0.001217
34462.4 0.71376 0.00120(26) 14935901. 0.001168 0.001221
34465.8 0.71383 0.00108(24) 17617052. 0.001169 0.001226
34469.3 0.71391 0.00146(29) 12241389. 0.001169 0.001235
34472.7 0.71398 0.00176(31) 10562698. 0.001169 0.001247
34476.2 0.71405 0.00153(28) 12736821. 0.001169 0.001263
34479.6 0.71412 0.00117(24) 16876450. 0.001169 0.001286
34483.1 0.71419 0.00111(24) 16769008. 0.001169 0.001316
34486.5 0.71426 0.00132(26) 14609390. 0.001170 0.001355
34490.0 0.71434 0.00192(33) 8998781. 0.001170 0.001404
34493.4 0.71441 0.00140(27) 14172519. 0.001170 0.001464
34496.9 0.71448 0.00134(27) 14083932. 0.001170 0.001536
34500.3 0.71455 0.00161(29) 11540211. 0.001170 0.001619
34503.8 0.71462 0.00202(33) 9108209. 0.001171 0.001710
34507.2 0.71469 0.00201(32) 9648519. 0.001171 0.001809
34510.7 0.71477 0.00177(31) 10742373. 0.001171 0.001911
34514.2 0.71484 0.00184(32) 10022749. 0.001171 0.002010
34517.6 0.71491 0.00193(32) 9829953. 0.001171 0.002100
34521.0 0.71498 0.00205(33) 9376443. 0.001172 0.002178
34524.5 0.71505 0.00206(33) 8982060. 0.001172 0.002236
34527.9 0.71512 0.00161(29) 12233897. 0.001172 0.002270
34531.4 0.71519 0.00181(31) 10748521. 0.001172 0.002273
34534.9 0.71527 0.0022(4) 8051866. 0.00117 0.00224
34538.3 0.71534 0.00193(32) 9623612. 0.001173 0.002186
34541.8 0.71541 0.00119(25) 16427620. 0.001173 0.002102
34545.2 0.71548 0.00096(21) 23522984. 0.001173 0.002002
34548.7 0.71555 0.00145(27) 14192060. 0.001173 0.001893
34552.1 0.71562 0.00179(30) 10761635. 0.001173 0.001785
34555.6 0.71570 0.00154(28) 12334313. 0.001173 0.001682
34559.0 0.71577 0.00107(23) 19028298. 0.001174 0.001590
34562.5 0.71584 0.00101(22) 19812530. 0.001174 0.001509
34566.0 0.71591 0.00129(25) 15647416. 0.001174 0.001443
34569.4 0.71598 0.00155(28) 12667819. 0.001174 0.001389
34572.9 0.71605 0.00159(29) 11497096. 0.001174 0.001346
34576.3 0.71612 0.00107(24) 17576438. 0.001175 0.001313
34579.8 0.71620 0.00102(24) 17842620. 0.001175 0.001288
34583.2 0.71627 0.00118(24) 16951780. 0.001175 0.001270
34586.7 0.71634 0.00124(25) 16581904. 0.001175 0.001256
34590.2 0.71641 0.00123(25) 15987615. 0.001175 0.001245
34593.6 0.71648 0.00106(22) 20971178. 0.001175 0.001237
34597.1 0.71656 0.00120(25) 16200484. 0.001176 0.001231
34600.5 0.71663 0.00101(23) 18294296. 0.001176 0.001227
34604.0 0.71670 0.00100(23) 19584204. 0.001176 0.001223
34607.5 0.71677 0.00121(25) 15865065. 0.001176 0.001222
34610.9 0.71684 0.00113(23) 19097790. 0.001176 0.001220
34614.4 0.71691 0.00135(26) 14581817. 0.001176 0.001218
34617.9 0.71699 0.00114(24) 17247056. 0.001177 0.001216
34621.3 0.71706 0.00131(26) 14868943. 0.001177 0.001215
34624.8 0.71713 0.00132(25) 15505492. 0.001177 0.001213
34628.2 0.71720 0.00098(21) 21672626. 0.001177 0.001212
34631.7 0.71727 0.00099(22) 20893194. 0.001177 0.001212
34635.2 0.71734 0.00121(25) 16291254. 0.001178 0.001211
34638.6 0.71741 0.00106(23) 19450136. 0.001178 0.001210
34642.1 0.71749 0.00134(25) 15512287. 0.001178 0.001210
34645.6 0.71756 0.00156(28) 12735461. 0.001178 0.001210
34649.0 0.71763 0.00126(24) 16822596. 0.001178 0.001210
34652.5 0.71770 0.00154(28) 12752227. 0.001178 0.001210
34655.9 0.71777 0.00160(27) 13247382. 0.001179 0.001210
34659.4 0.71785 0.00150(27) 14079526. 0.001179 0.001210
34662.9 0.71792 0.00122(24) 16924212. 0.001179 0.001210
34666.4 0.71799 0.00124(25) 16545114. 0.001179 0.001210
34669.8 0.71806 0.00120(23) 18180376. 0.001179 0.001211
34673.3 0.71813 0.00098(22) 21299572. 0.001179 0.001211
34676.8 0.71821 0.00100(23) 19421596. 0.001180 0.001212
34680.2 0.71828 0.00115(24) 17366480. 0.001180 0.001212
34683.7 0.71835 0.00140(27) 13787026. 0.001180 0.001213
34687.2 0.71842 0.00106(22) 19813212. 0.001180 0.001214
34690.6 0.71849 0.00106(23) 19073340. 0.001180 0.001215
34694.1 0.71856 0.00091(21) 22763342. 0.001180 0.001216
34697.6 0.71864 0.00095(21) 22280834. 0.001181 0.001217
34701.1 0.71871 0.00127(24) 17194916. 0.001181 0.001218
34704.5 0.71878 0.00148(26) 14293976. 0.001181 0.001220
34708.0 0.71885 0.00117(23) 18350202. 0.001181 0.001221
34711.4 0.71892 0.00112(23) 18552254. 0.001181 0.001223
34714.9 0.71900 0.00111(23) 19059322. 0.001181 0.001225
34718.4 0.71907 0.00116(23) 19041552. 0.001182 0.001227
34721.9 0.71914 0.00154(26) 14295003. 0.001182 0.001229
34725.4 0.71921 0.00162(28) 12465870. 0.001182 0.001233
34728.8 0.71928 0.00131(26) 15205331. 0.001182 0.001236
34732.3 0.71936 0.00114(23) 18388982. 0.001182 0.001239
34735.8 0.71943 0.00124(23) 18160226. 0.001182 0.001243
34739.2 0.71950 0.00138(25) 16306821. 0.001182 0.001248
34742.7 0.71957 0.00143(27) 13668704. 0.001183 0.001255
34746.2 0.71964 0.00107(22) 20008518. 0.001183 0.001264
34749.7 0.71972 0.00101(21) 23532412. 0.001183 0.001275
34753.2 0.71979 0.00115(23) 18692910. 0.001183 0.001291
34756.6 0.71986 0.00121(24) 16894046. 0.001183 0.001312
34760.1 0.71993 0.00124(25) 15996461. 0.001183 0.001341
34763.6 0.72000 0.00132(26) 15070254. 0.001184 0.001380
34767.0 0.72008 0.00148(26) 14450085. 0.001184 0.001430
34770.5 0.72015 0.00167(28) 12339474. 0.001184 0.001496
34774.0 0.72022 0.00158(28) 13072371. 0.001184 0.001578
34777.5 0.72029 0.00150(27) 13946462. 0.001184 0.001679
34781.0 0.72037 0.00166(28) 12611102. 0.001184 0.001798
34784.5 0.72044 0.00184(30) 10990620. 0.001184 0.001932
34787.9 0.72051 0.00178(30) 11402133. 0.001185 0.002080
34791.4 0.72058 0.00190(30) 11385012. 0.001185 0.002238
34794.9 0.72065 0.0026(4) 8017781. 0.00118 0.00240
34798.4 0.72073 0.0026(4) 7921578. 0.00119 0.00255
34801.8 0.72080 0.00238(33) 8999949. 0.001185 0.002692
34805.3 0.72087 0.00222(31) 10182097. 0.001185 0.002810
34808.8 0.72094 0.00251(35) 8236293. 0.001186 0.002895
34812.3 0.72101 0.00238(34) 8839830. 0.001186 0.002938
34815.8 0.72109 0.00242(35) 8267577. 0.001186 0.002935
34819.2 0.72116 0.00212(31) 10095175. 0.001186 0.002886
34822.7 0.72123 0.00218(32) 10074028. 0.001186 0.002795
34826.2 0.72130 0.00208(30) 10812025. 0.001186 0.002676
34829.7 0.72137 0.00215(32) 10034356. 0.001186 0.002542
34833.2 0.72145 0.00198(30) 10961570. 0.001187 0.002411
34836.7 0.72152 0.00237(34) 8728042. 0.001187 0.002296
34840.2 0.72159 0.0026(4) 7950465. 0.00119 0.00221
34843.7 0.72166 0.00226(33) 9142377. 0.001187 0.002155
34847.1 0.72173 0.00208(32) 10039462. 0.001187 0.002138
34850.6 0.72181 0.00246(34) 8768960. 0.001187 0.002157
34854.1 0.72188 0.0028(4) 7982251. 0.00119 0.00221
34857.6 0.72195 0.0033(4) 6387590. 0.00119 0.00229
34861.1 0.72202 0.0029(4) 7296074. 0.00119 0.00239
34864.6 0.72210 0.0029(4) 7261166. 0.00119 0.00250
34868.0 0.72217 0.0030(4) 7040810. 0.00119 0.00261
34871.5 0.72224 0.0029(4) 7555832. 0.00119 0.00271
34875.0 0.72231 0.0031(4) 6998670. 0.00119 0.00279
34878.5 0.72239 0.0028(4) 7467281. 0.00119 0.00284
34882.0 0.72246 0.00252(35) 8140652. 0.001189 0.002846
34885.5 0.72253 0.00225(33) 9267892. 0.001189 0.002811
34889.0 0.72260 0.00188(29) 11793065. 0.001189 0.002733
34892.5 0.72268 0.00204(31) 10188827. 0.001189 0.002618
34896.0 0.72275 0.00177(29) 12221036. 0.001189 0.002476
34899.5 0.72282 0.00183(29) 11584326. 0.001189 0.002322
34902.9 0.72289 0.00172(28) 13092947. 0.001189 0.002166
34906.4 0.72296 0.00185(29) 11510115. 0.001189 0.002015
34909.9 0.72304 0.00199(31) 10534590. 0.001190 0.001879
34913.4 0.72311 0.00191(30) 10849113. 0.001190 0.001760
34916.9 0.72318 0.00137(25) 15924771. 0.001190 0.001662
34920.4 0.72325 0.00105(22) 20733318. 0.001190 0.001583
34923.9 0.72333 0.00125(24) 17378134. 0.001190 0.001523
34927.4 0.72340 0.00160(27) 13428318. 0.001190 0.001480
34930.9 0.72347 0.00144(25) 16074350. 0.001190 0.001452
34934.4 0.72354 0.00158(27) 13866435. 0.001191 0.001438
34937.8 0.72361 0.00137(24) 17007314. 0.001191 0.001439
34941.3 0.72369 0.00146(25) 15589373. 0.001191 0.001454
34944.8 0.72376 0.00158(27) 14208336. 0.001191 0.001485
34948.3 0.72383 0.00151(25) 15719539. 0.001191 0.001535
34951.8 0.72390 0.00178(27) 13715227. 0.001191 0.001607
34955.3 0.72398 0.00210(30) 10997509. 0.001191 0.001702
34958.8 0.72405 0.00202(30) 11110124. 0.001191 0.001825
34962.3 0.72412 0.00228(31) 10146947. 0.001192 0.001976
34965.8 0.72419 0.00267(34) 8826336. 0.001192 0.002153
34969.3 0.72427 0.0030(4) 7724567. 0.00119 0.00235
34972.8 0.72434 0.0032(4) 6955279. 0.00119 0.00257
34976.3 0.72441 0.0036(4) 6085666. 0.00119 0.00280
34979.8 0.72448 0.0044(5) 4845683. 0.00119 0.00302
34983.3 0.72456 0.0039(4) 5848935. 0.00119 0.00323
34986.8 0.72463 0.0040(4) 5473041. 0.00119 0.00340
34990.3 0.72470 0.0037(4) 6271031. 0.00119 0.00353
34993.8 0.72477 0.0040(4) 5559713. 0.00119 0.00361
34997.3 0.72485 0.0037(4) 6302092. 0.00119 0.00361
35000.8 0.72492 0.0032(4) 7301391. 0.00119 0.00354
35004.3 0.72499 0.00257(34) 8764878. 0.001193 0.003406
35007.8 0.72506 0.00234(32) 9624307. 0.001193 0.003214
35011.3 0.72514 0.00249(34) 8909354. 0.001193 0.002984
35014.8 0.72521 0.00231(32) 9642753. 0.001193 0.002738
35018.3 0.72528 0.00177(27) 13382863. 0.001194 0.002493
35021.8 0.72535 0.00163(26) 14410723. 0.001194 0.002264
35025.3 0.72543 0.00176(28) 13021276. 0.001194 0.002060
35028.8 0.72550 0.00195(30) 11225559. 0.001194 0.001885
35032.3 0.72557 0.00179(29) 12075312. 0.001194 0.001741
35035.8 0.72564 0.00190(30) 11208976. 0.001194 0.001626
35039.3 0.72572 0.00169(28) 13033440. 0.001194 0.001536
35042.8 0.72579 0.00158(26) 14362645. 0.001194 0.001468
35046.3 0.72586 0.00173(28) 12794875. 0.001195 0.001417
35049.9 0.72594 0.00154(27) 14168964. 0.001195 0.001380
35053.4 0.72601 0.00143(25) 15442774. 0.001195 0.001352
35056.9 0.72608 0.00140(25) 15970146. 0.001195 0.001333
35060.4 0.72615 0.00143(25) 15804993. 0.001195 0.001318
35063.9 0.72623 0.00153(26) 14326740. 0.001195 0.001307
35067.4 0.72630 0.00154(26) 14390252. 0.001195 0.001298
35070.9 0.72637 0.00160(27) 14000440. 0.001195 0.001292
35074.4 0.72644 0.00158(27) 13935669. 0.001195 0.001287
35078. 0.72652 0.00151(26) 14498993. 0.001196 0.001283
35081. 0.72659 0.00141(26) 14991439. 0.001196 0.001281
35085. 0.72666 0.00120(22) 19908332. 0.001196 0.001279
35088. 0.72673 0.00150(25) 16472580. 0.001196 0.001279
35092. 0.72681 0.00168(27) 13986220. 0.001196 0.001281
35095. 0.72688 0.00137(24) 18029232. 0.001196 0.001284
35099. 0.72695 0.00134(24) 16837314. 0.001196 0.001291
35103. 0.72703 0.00128(23) 18794328. 0.001196 0.001301
35106. 0.72710 0.00135(24) 17680638. 0.001196 0.001315
35110. 0.72717 0.00164(27) 13803872. 0.001197 0.001336
35113. 0.72724 0.00165(27) 13530727. 0.001197 0.001363
35117. 0.72732 0.00133(23) 18130082. 0.001197 0.001399
35120. 0.72739 0.00166(28) 12842891. 0.001197 0.001444
35124. 0.72746 0.00175(27) 13720786. 0.001197 0.001498
35127. 0.72754 0.00207(29) 11615542. 0.001197 0.001563
35131. 0.72761 0.00198(29) 12067335. 0.001197 0.001636
35134. 0.72768 0.00203(30) 11253803. 0.001197 0.001715
35138. 0.72775 0.00217(31) 10403472. 0.001197 0.001798
35141. 0.72783 0.00243(33) 9162340. 0.001197 0.001880
35145. 0.72790 0.00228(31) 10243876. 0.001198 0.001959
35148. 0.72797 0.00209(31) 10301649. 0.001198 0.002032
35152. 0.72804 0.00208(30) 11085509. 0.001198 0.002087
35155. 0.72812 0.00268(33) 8978711. 0.001198 0.002123
35159. 0.72819 0.00282(35) 8216244. 0.001198 0.002134
35162. 0.72826 0.00206(30) 11035694. 0.001198 0.002119
35166. 0.72834 0.00134(24) 17741504. 0.001198 0.002078
35169. 0.72841 0.00139(24) 16706158. 0.001198 0.002013
35173. 0.72848 0.00144(24) 17047190. 0.001198 0.001933
35176. 0.72855 0.00160(26) 14523865. 0.001199 0.001843
35180. 0.72863 0.00154(26) 15207967. 0.001199 0.001752
35183. 0.72870 0.00184(29) 12169612. 0.001199 0.001664
35187. 0.72877 0.00191(28) 12397216. 0.001199 0.001583
35190. 0.72885 0.00155(25) 15560221. 0.001199 0.001512
35194. 0.72892 0.00144(25) 16134064. 0.001199 0.001452
35197. 0.72899 0.00171(27) 13599315. 0.001199 0.001404
35201. 0.72906 0.00168(27) 13603808. 0.001199 0.001366
35204. 0.72914 0.00134(24) 17021976. 0.001199 0.001335
35208. 0.72921 0.00108(21) 22147660. 0.001199 0.001312
35212. 0.72928 0.00135(24) 17237750. 0.001199 0.001295
35215. 0.72936 0.00174(28) 13202026. 0.001200 0.001282
35219. 0.72943 0.00146(25) 15890884. 0.001200 0.001272
35222. 0.72950 0.00096(20) 25633924. 0.001200 0.001265
35226. 0.72958 0.00112(21) 22118244. 0.001200 0.001259
35229. 0.72965 0.00137(24) 17999184. 0.001200 0.001255
35233. 0.72972 0.00131(24) 17696218. 0.001200 0.001252
35236. 0.72979 0.00112(21) 21963624. 0.001200 0.001249
35240. 0.72987 0.00140(24) 17227774. 0.001200 0.001245
35243. 0.72994 0.00154(26) 14474417. 0.001200 0.001243
35247. 0.73001 0.00131(24) 17265970. 0.001200 0.001244
35250. 0.73009 0.00134(24) 17290900. 0.001201 0.001243
35254. 0.73016 0.00122(23) 19546274. 0.001201 0.001241
35257. 0.73023 0.00129(23) 18745278. 0.001201 0.001241
35261. 0.73031 0.00131(24) 17664166. 0.001201 0.001240
35264. 0.73038 0.00119(23) 19098944. 0.001201 0.001239
35268. 0.73045 0.00107(22) 20842886. 0.001201 0.001239
35271. 0.73053 0.00119(23) 18309030. 0.001201 0.001238
35275. 0.73060 0.00112(22) 21118246. 0.001201 0.001238
35279. 0.73067 0.00112(22) 21365160. 0.001201 0.001238
35282. 0.73074 0.00131(23) 18238242. 0.001201 0.001238
35286. 0.73082 0.00132(24) 17821622. 0.001201 0.001238
35289. 0.73089 0.00098(20) 25682196. 0.001201 0.001239
35293. 0.73096 0.00112(22) 20932174. 0.001202 0.001239
35296. 0.73104 0.00112(22) 20830634. 0.001202 0.001239
35300. 0.73111 0.00099(20) 25106052. 0.001202 0.001240
35303. 0.73118 0.00116(22) 21021458. 0.001202 0.001241
35307. 0.73126 0.00112(21) 23010946. 0.001202 0.001240
35310. 0.73133 0.00120(21) 21995686. 0.001202 0.001241
35314. 0.73140 0.00122(22) 20306138. 0.001202 0.001243
35317. 0.73148 0.00105(21) 22608106. 0.001202 0.001245
35321. 0.73155 0.00097(20) 25771216. 0.001202 0.001247
35324. 0.73162 0.00126(23) 19017774. 0.001202 0.001251
35328. 0.73170 0.00138(24) 17236850. 0.001202 0.001255
35331. 0.73177 0.00144(24) 17654456. 0.001202 0.001262
35335. 0.73184 0.00150(25) 16407748. 0.001203 0.001270
35339. 0.73192 0.00129(23) 19312026. 0.001203 0.001282
35342. 0.73199 0.00109(21) 22680118. 0.001203 0.001298
35346. 0.73206 0.00099(19) 28563178. 0.001203 0.001319
35349. 0.73213 0.00141(24) 17083160. 0.001203 0.001345
35353. 0.73221 0.00136(23) 18861288. 0.001203 0.001379
35356. 0.73228 0.00146(24) 16697966. 0.001203 0.001420
35360. 0.73235 0.00127(23) 19548374. 0.001203 0.001467
35363. 0.73243 0.00124(23) 19384598. 0.001203 0.001521
35367. 0.73250 0.00138(25) 16414354. 0.001203 0.001580
35370. 0.73257 0.00165(26) 14674773. 0.001203 0.001642
35374. 0.73265 0.00180(26) 14475104. 0.001203 0.001703
35377. 0.73272 0.00201(29) 12100027. 0.001203 0.001762
35381. 0.73279 0.00184(27) 13415352. 0.001204 0.001814
35385. 0.73287 0.00156(25) 15902146. 0.001204 0.001855
35388. 0.73294 0.00142(23) 19003654. 0.001204 0.001881
35392. 0.73301 0.00154(24) 17440480. 0.001204 0.001892
35395. 0.73309 0.00187(28) 12874815. 0.001204 0.001883
35399. 0.73316 0.00205(29) 11723958. 0.001204 0.001858
35402. 0.73323 0.00182(27) 13789985. 0.001204 0.001817
35406. 0.73331 0.00154(25) 15948612. 0.001204 0.001765
35409. 0.73338 0.00155(24) 16929184. 0.001204 0.001709
35413. 0.73345 0.00180(27) 13942603. 0.001204 0.001654
35416. 0.73353 0.00167(26) 15219880. 0.001204 0.001602
35420. 0.73360 0.00179(28) 13041593. 0.001204 0.001556
35423. 0.73367 0.00134(23) 19576576. 0.001204 0.001517
35427. 0.73375 0.00130(22) 19908204. 0.001205 0.001487
35431. 0.73382 0.00140(24) 17559624. 0.001205 0.001463
35434. 0.73389 0.00144(23) 18329902. 0.001205 0.001445
35438. 0.73397 0.00151(25) 16577732. 0.001205 0.001432
35441. 0.73404 0.00133(23) 19293486. 0.001205 0.001421
35445. 0.73412 0.00131(23) 18720372. 0.001205 0.001412
35448. 0.73419 0.00126(22) 20966068. 0.001205 0.001403
35452. 0.73426 0.00164(26) 14983568. 0.001205 0.001396
35455. 0.73434 0.00136(23) 18693694. 0.001205 0.001391
35459. 0.73441 0.00126(22) 19956170. 0.001205 0.001388
35462. 0.73448 0.00161(26) 14985053. 0.001205 0.001388
35466. 0.73455 0.00173(26) 14341125. 0.001205 0.001394
35470. 0.73463 0.00119(22) 21448184. 0.001205 0.001407
35473. 0.73470 0.00106(21) 23219506. 0.001205 0.001429
35477. 0.73478 0.00126(22) 20264240. 0.001205 0.001466
35480. 0.73485 0.00134(24) 18065272. 0.001206 0.001520
35484. 0.73492 0.00156(26) 14632121. 0.001206 0.001597
35487. 0.73500 0.00175(27) 13542935. 0.001206 0.001705
35491. 0.73507 0.00184(28) 12812050. 0.001206 0.001852
35494. 0.73514 0.00205(30) 11165713. 0.001206 0.002039
35498. 0.73522 0.00187(28) 12637765. 0.001206 0.002273
35501. 0.73529 0.00192(27) 13245191. 0.001206 0.002557
35505. 0.73536 0.00267(33) 9124012. 0.001206 0.002894
35509. 0.73544 0.0032(4) 7760138. 0.00121 0.00327
35512. 0.73551 0.0038(4) 6583625. 0.00121 0.00366
35516. 0.73558 0.0040(4) 6380972. 0.00121 0.00408
35519. 0.73566 0.0046(4) 5437353. 0.00121 0.00449
35523. 0.73573 0.0050(4) 5037291. 0.00121 0.00486
35526. 0.73581 0.0047(4) 5549281. 0.00121 0.00518
35530. 0.73588 0.0047(4) 5354165. 0.00121 0.00540
35533. 0.73595 0.0045(4) 5535321. 0.00121 0.00552
35537. 0.73603 0.0041(4) 6128503. 0.00121 0.00551
35541. 0.73610 0.0035(4) 7442758. 0.00121 0.00538
35544. 0.73617 0.0035(4) 7151221. 0.00121 0.00512
35548. 0.73625 0.0033(4) 7633150. 0.00121 0.00477
35551. 0.73632 0.0031(4) 7688201. 0.00121 0.00435
35555. 0.73639 0.00289(33) 9039212. 0.001207 0.003918
35558. 0.73647 0.00307(35) 8370313. 0.001207 0.003484
35562. 0.73654 0.00282(34) 8820373. 0.001207 0.003090
35565. 0.73662 0.00236(29) 11577346. 0.001207 0.002746
35569. 0.73669 0.00264(32) 9933302. 0.001207 0.002461
35573. 0.73676 0.00233(29) 11594823. 0.001207 0.002235
35576. 0.73684 0.00244(32) 10062304. 0.001207 0.002067
35580. 0.73691 0.00227(30) 11376243. 0.001207 0.001948
35583. 0.73698 0.00207(28) 12490671. 0.001207 0.001872
35587. 0.73706 0.00185(27) 13930008. 0.001207 0.001830
35590. 0.73713 0.00197(27) 13732675. 0.001207 0.001814
35594. 0.73721 0.00250(31) 10106562. 0.001207 0.001817
35597. 0.73728 0.00217(29) 12080171. 0.001207 0.001831
35601. 0.73735 0.00205(28) 12917063. 0.001208 0.001851
35605. 0.73743 0.00207(28) 12682076. 0.001208 0.001870
35608. 0.73750 0.00228(30) 11112865. 0.001208 0.001886
35612. 0.73758 0.00215(29) 11909281. 0.001208 0.001896
35615. 0.73765 0.00195(27) 13245150. 0.001208 0.001897
35619. 0.73772 0.00184(26) 14518286. 0.001208 0.001891
35622. 0.73780 0.00203(28) 12345653. 0.001208 0.001881
35626. 0.73787 0.00190(27) 13762950. 0.001208 0.001871
35630. 0.73794 0.00173(25) 15700097. 0.001208 0.001870
35633. 0.73802 0.00170(25) 16072494. 0.001208 0.001883
35637. 0.73809 0.00178(25) 15532365. 0.001208 0.001917
35640. 0.73817 0.00191(26) 14245624. 0.001208 0.001978
35644. 0.73824 0.00203(28) 13121449. 0.001208 0.002069
35647. 0.73831 0.00244(30) 10889875. 0.001208 0.002190
35651. 0.73839 0.00271(33) 9355643. 0.001208 0.002341
35654. 0.73846 0.00283(33) 9083104. 0.001208 0.002516
35658. 0.73853 0.0032(4) 7933564. 0.00121 0.00271
35662. 0.73861 0.0035(4) 7362033. 0.00121 0.00291
35665. 0.73868 0.0035(4) 7702091. 0.00121 0.00311
35669. 0.73876 0.0037(4) 7014651. 0.00121 0.00330
35672. 0.73883 0.00316(34) 8409476. 0.001208 0.003457
35676. 0.73891 0.00305(35) 8308800. 0.001209 0.003571
35679. 0.73898 0.00311(34) 8463614. 0.001209 0.003631
35683. 0.73905 0.0034(4) 7858155. 0.00121 0.00363
35687. 0.73913 0.0033(4) 7710373. 0.00121 0.00356
35690. 0.73920 0.00285(33) 9348953. 0.001209 0.003435
35694. 0.73927 0.0034(4) 7746209. 0.00121 0.00326
35697. 0.73935 0.00320(35) 8238574. 0.001209 0.003060
35701. 0.73942 0.00278(33) 9435373. 0.001209 0.002848
35704. 0.73950 0.00263(32) 9554638. 0.001209 0.002638
35708. 0.73957 0.00227(30) 11195183. 0.001209 0.002447
35712. 0.73964 0.00227(29) 12002195. 0.001209 0.002277
35715. 0.73972 0.00289(33) 9147528. 0.001209 0.002128
35719. 0.73979 0.00282(32) 9770215. 0.001209 0.002003
35722. 0.73987 0.00251(31) 10600528. 0.001209 0.001899
35726. 0.73994 0.00243(31) 10304940. 0.001209 0.001811
35729. 0.74001 0.00219(29) 11578870. 0.001209 0.001734
35733. 0.74009 0.00177(26) 14764489. 0.001209 0.001668
35737. 0.74016 0.00155(24) 17996368. 0.001209 0.001610
35740. 0.74024 0.00169(25) 16369644. 0.001209 0.001558
35744. 0.74031 0.00185(26) 14856498. 0.001209 0.001512
35747. 0.74038 0.00176(25) 15716262. 0.001209 0.001472
35751. 0.74046 0.00169(25) 16074746. 0.001209 0.001438
35754. 0.74053 0.00159(24) 17906662. 0.001209 0.001410
35758. 0.74061 0.00161(25) 16358557. 0.001209 0.001387
35762. 0.74068 0.00151(24) 16967548. 0.001210 0.001368
35765. 0.74076 0.00144(23) 18453820. 0.001210 0.001353
35769. 0.74083 0.00137(22) 20537676. 0.001210 0.001342
35772. 0.74090 0.00141(22) 20046438. 0.001210 0.001333
35776. 0.74098 0.00158(24) 17233268. 0.001210 0.001326
35780. 0.74105 0.00145(23) 18912444. 0.001210 0.001321
35783. 0.74113 0.00151(25) 16026010. 0.001210 0.001318
35787. 0.74120 0.00128(22) 19901246. 0.001210 0.001316
35790. 0.74127 0.00137(23) 18954842. 0.001210 0.001315
35794. 0.74135 0.00134(23) 19709440. 0.001210 0.001316
35797. 0.74142 0.00103(20) 26194264. 0.001210 0.001317
35801. 0.74150 0.00095(19) 28570510. 0.001210 0.001321
35805. 0.74157 0.00116(20) 24137078. 0.001210 0.001326
35808. 0.74164 0.00146(23) 18796780. 0.001210 0.001334
35812. 0.74172 0.00136(22) 20837738. 0.001210 0.001347
35815. 0.74179 0.00141(22) 20279048. 0.001210 0.001366
35819. 0.74187 0.00149(24) 18098988. 0.001210 0.001392
35822. 0.74194 0.00131(21) 22001074. 0.001210 0.001430
35826. 0.74202 0.00161(24) 16984694. 0.001210 0.001483
35830. 0.74209 0.00175(25) 15480240. 0.001210 0.001556
35833. 0.74216 0.00151(23) 18309026. 0.001210 0.001652
35837. 0.74224 0.00157(24) 17600774. 0.001210 0.001776
35840. 0.74231 0.00211(28) 12809254. 0.001210 0.001930
35844. 0.74239 0.00252(31) 10563758. 0.001210 0.002112
35848. 0.74246 0.00270(31) 10232577. 0.001210 0.002324
35851. 0.74254 0.00297(33) 9332424. 0.001210 0.002564
35855. 0.74261 0.0035(4) 7755105. 0.00121 0.00282
35858. 0.74268 0.0038(4) 7258114. 0.00121 0.00308
35862. 0.74276 0.0041(4) 6686501. 0.00121 0.00334
35866. 0.74283 0.0044(4) 6232155. 0.00121 0.00357
35869. 0.74291 0.0045(4) 6015359. 0.00121 0.00376
35873. 0.74298 0.0041(4) 6627869. 0.00121 0.00389
35876. 0.74306 0.0034(4) 8064897. 0.00121 0.00396
35880. 0.74313 0.00336(35) 8179991. 0.001211 0.003940
35883. 0.74320 0.00320(34) 8544964. 0.001211 0.003840
35887. 0.74328 0.00288(32) 9776982. 0.001211 0.003664
35891. 0.74335 0.00297(33) 9448136. 0.001211 0.003429
35894. 0.74343 0.00280(31) 10273859. 0.001211 0.003158
35898. 0.74350 0.00260(30) 11288687. 0.001211 0.002874
35901. 0.74358 0.00220(27) 13412789. 0.001211 0.002599
35905. 0.74365 0.00210(27) 13756624. 0.001211 0.002349
35909. 0.74372 0.00220(27) 13499910. 0.001211 0.002130
35912. 0.74380 0.00205(27) 13962964. 0.001211 0.001943
35916. 0.74387 0.00181(25) 15502119. 0.001211 0.001791
35919. 0.74395 0.00178(26) 15237527. 0.001211 0.001674
35923. 0.74402 0.00155(23) 18155742. 0.001211 0.001586
35927. 0.74410 0.00148(23) 19461794. 0.001211 0.001523
35930. 0.74417 0.00151(23) 19466990. 0.001211 0.001483
35934. 0.74425 0.00161(24) 17708006. 0.001211 0.001460
35937. 0.74432 0.00166(24) 17552486. 0.001211 0.001452
35941. 0.74440 0.00156(23) 19232984. 0.001211 0.001458
35945. 0.74447 0.00147(23) 19508026. 0.001211 0.001475
35948. 0.74454 0.00139(22) 20438078. 0.001211 0.001502
35952. 0.74462 0.00133(22) 21326222. 0.001211 0.001539
35955. 0.74469 0.00136(22) 20274580. 0.001211 0.001582
35959. 0.74477 0.00160(25) 16314373. 0.001211 0.001630
35962. 0.74484 0.00157(23) 18153278. 0.001211 0.001681
35966. 0.74492 0.00175(25) 16325713. 0.001211 0.001729
35970. 0.74499 0.00184(25) 15724827. 0.001211 0.001777
35973. 0.74506 0.00175(24) 18002364. 0.001211 0.001818
35977. 0.74514 0.00177(24) 16814776. 0.001211 0.001848
35980. 0.74521 0.00162(24) 17248012. 0.001211 0.001864
35984. 0.74529 0.00146(22) 20148000. 0.001211 0.001863
35988. 0.74536 0.00142(21) 22657740. 0.001211 0.001845
35991. 0.74544 0.00137(21) 22812050. 0.001211 0.001809
35995. 0.74551 0.00118(20) 25764036. 0.001211 0.001759
35998. 0.74559 0.00129(22) 21253562. 0.001211 0.001700
36002. 0.74566 0.00136(22) 21296128. 0.001211 0.001637
36006. 0.74574 0.00128(21) 23758936. 0.001211 0.001573
36009. 0.74581 0.00126(21) 23269396. 0.001211 0.001514
36013. 0.74589 0.00143(22) 20258898. 0.001211 0.001460
36017. 0.74596 0.00149(23) 18517774. 0.001211 0.001414
36020. 0.74603 0.00136(22) 20539792. 0.001211 0.001377
36024. 0.74611 0.00119(20) 23947300. 0.001211 0.001346
36027. 0.74618 0.00104(19) 27674614. 0.001211 0.001321
36031. 0.74626 0.00103(19) 28074664. 0.001211 0.001302
36035. 0.74633 0.00118(20) 24421512. 0.001212 0.001287
36038. 0.74641 0.00140(22) 20665220. 0.001212 0.001276
36042. 0.74648 0.00150(23) 18505552. 0.001212 0.001268
36045. 0.74656 0.00147(23) 18271154. 0.001212 0.001261
36049. 0.74663 0.00133(22) 20621756. 0.001212 0.001256
36053. 0.74671 0.00130(22) 21240056. 0.001212 0.001252
36056. 0.74678 0.00113(20) 24133444. 0.001212 0.001249
36060. 0.74686 0.00101(20) 26038034. 0.001212 0.001246
36063. 0.74693 0.00104(20) 26198206. 0.001212 0.001244
36067. 0.74701 0.00104(19) 28110740. 0.001212 0.001242
36071. 0.74708 0.00127(21) 22276508. 0.001212 0.001240
36074. 0.74716 0.00152(23) 19640988. 0.001212 0.001239
36078. 0.74723 0.00168(23) 18169232. 0.001212 0.001237
36081. 0.74730 0.00140(21) 21855952. 0.001212 0.001236
36085. 0.74738 0.00113(19) 26918782. 0.001212 0.001235
36089. 0.74746 0.00107(19) 28484232. 0.001212 0.001234
36092. 0.74753 0.00145(23) 19459758. 0.001212 0.001233
36096. 0.74760 0.00161(24) 17211504. 0.001212 0.001232
36099. 0.74768 0.00149(23) 18197340. 0.001212 0.001231
36103. 0.74775 0.00147(23) 19047682. 0.001212 0.001230
36107. 0.74783 0.00140(22) 21512028. 0.001212 0.001227
36110. 0.74790 0.00142(22) 19887022. 0.001212 0.001227
36114. 0.74798 0.00149(23) 18392264. 0.001212 0.001226
36117. 0.74805 0.00156(23) 18357608. 0.001212 0.001225
36121. 0.74813 0.00168(25) 16535041. 0.001212 0.001225
36125. 0.74820 0.00175(26) 15211358. 0.001212 0.001224
36128. 0.74828 0.00152(23) 18659172. 0.001212 0.001224
36132. 0.74835 0.00128(21) 23272120. 0.001212 0.001223
36136. 0.74843 0.00124(21) 22658274. 0.001212 0.001223
36139. 0.74850 0.00120(20) 24039570. 0.001212 0.001223
36143. 0.74858 0.00116(20) 24362492. 0.001212 0.001222
36146. 0.74865 0.00098(18) 29691166. 0.001212 0.001222
36150. 0.74873 0.00107(19) 26928426. 0.001212 0.001221
36154. 0.74880 0.00113(20) 24863900. 0.001212 0.001221
36157. 0.74888 0.00134(21) 21874956. 0.001212 0.001221
36161. 0.74895 0.00165(24) 17840452. 0.001212 0.001221
36164. 0.74903 0.00153(23) 19496838. 0.001212 0.001220
36168. 0.74910 0.00150(23) 19602004. 0.001212 0.001220
36172. 0.74918 0.00135(22) 20625894. 0.001212 0.001220
36175. 0.74925 0.00102(19) 27893290. 0.001212 0.001220
36179. 0.74933 0.00091(18) 31650966. 0.001212 0.001219
36183. 0.74940 0.00093(17) 32980832. 0.001212 0.001219
36186. 0.74948 0.00118(20) 25094886. 0.001212 0.001219
36190. 0.74955 0.00125(20) 25275978. 0.001212 0.001219
36193. 0.74963 0.00142(22) 21532258. 0.001212 0.001219
36197. 0.74970 0.00124(20) 25015582. 0.001212 0.001218
36201. 0.74978 0.00114(20) 26168930. 0.001212 0.001218
36204. 0.74985 0.00108(19) 28517108. 0.001212 0.001218
36208. 0.74993 0.00118(20) 25241426. 0.001212 0.001218
36212. 0.75000 0.00113(19) 27104398. 0.001212 0.001218
36215. 0.75008 0.00112(19) 27553292. 0.001212 0.001218
36219. 0.75015 0.00120(20) 24720234. 0.001212 0.001218
36222. 0.75023 0.00123(20) 24510816. 0.001212 0.001217
36226. 0.75030 0.00108(19) 28419438. 0.001212 0.001217
36230. 0.75038 0.00126(21) 21902122. 0.001212 0.001217
36233. 0.75045 0.00116(20) 24363730. 0.001212 0.001217
36237. 0.75053 0.00103(19) 28520130. 0.001212 0.001217
36241. 0.75060 0.00108(20) 26235972. 0.001212 0.001217
36244. 0.75068 0.00098(18) 31997872. 0.001212 0.001217
36248. 0.75075 0.00117(19) 27596032. 0.001212 0.001217
36251. 0.75083 0.00149(22) 20202794. 0.001212 0.001217
36255. 0.75090 0.00133(21) 22703930. 0.001212 0.001216
36259. 0.75098 0.00143(22) 20987558. 0.001212 0.001216
36262. 0.75105 0.00144(22) 20756380. 0.001212 0.001216
36266. 0.75113 0.00136(22) 20380376. 0.001212 0.001216
36270. 0.75120 0.00100(19) 29086242. 0.001212 0.001216
36273. 0.75128 0.00107(19) 26399124. 0.001212 0.001216
36277. 0.75135 0.00114(20) 26238346. 0.001212 0.001216
36280. 0.75143 0.00129(21) 23736920. 0.001212 0.001216
36284. 0.75150 0.00163(24) 17597488. 0.001212 0.001216
36288. 0.75158 0.00158(23) 18979718. 0.001212 0.001216
36291. 0.75166 0.00138(22) 21515802. 0.001212 0.001216
36295. 0.75173 0.00108(19) 28238720. 0.001212 0.001216
36299. 0.75180 0.00118(20) 25443070. 0.001212 0.001217
36302. 0.75188 0.00122(20) 23841056. 0.001212 0.001214
36306. 0.75196 0.00116(20) 24547480. 0.001212 0.001214
36309. 0.75203 0.00121(20) 24049132. 0.001212 0.001214
36313. 0.75210 0.00136(21) 22330866. 0.001212 0.001214
36317. 0.75218 0.00138(21) 21918820. 0.001212 0.001214
36320. 0.75226 0.00131(21) 23071148. 0.001212 0.001214
36324. 0.75233 0.00127(20) 23975260. 0.001212 0.001214
36328. 0.75241 0.00150(22) 19767816. 0.001212 0.001214
36331. 0.75248 0.00147(22) 21177206. 0.001212 0.001214
36335. 0.75256 0.00112(19) 28290640. 0.001212 0.001214
36339. 0.75263 0.00104(18) 30068358. 0.001212 0.001214
36342. 0.75271 0.00126(20) 24815430. 0.001212 0.001214
36346. 0.75278 0.00126(20) 26051354. 0.001212 0.001214
36349. 0.75286 0.00117(20) 26051762. 0.001212 0.001214
36353. 0.75293 0.00118(20) 24580180. 0.001212 0.001214
36357. 0.75301 0.00121(20) 26133436. 0.001212 0.001214
36360. 0.75308 0.00126(20) 25260906. 0.001212 0.001216
36364. 0.75316 0.00110(19) 28750058. 0.001212 0.001216
36368. 0.75323 0.00111(19) 27739292. 0.001212 0.001216
36371. 0.75331 0.00103(18) 30244152. 0.001212 0.001216
36375. 0.75339 0.00099(18) 32264770. 0.001212 0.001216
36379. 0.75346 0.00121(20) 24965964. 0.001212 0.001217
36382. 0.75354 0.00132(21) 22382554. 0.001212 0.001217
36386. 0.75361 0.00122(20) 23901064. 0.001212 0.001218
36389. 0.75369 0.00124(20) 24845002. 0.001212 0.001218
36393. 0.75376 0.00111(18) 29485870. 0.001212 0.001218
36397. 0.75384 0.00107(18) 29234868. 0.001212 0.001218
36400. 0.75391 0.00112(20) 26115010. 0.001212 0.001218
36404. 0.75399 0.00097(18) 32415844. 0.001212 0.001219
36408. 0.75406 0.00133(21) 22246998. 0.001212 0.001218
36411. 0.75414 0.00155(23) 19539490. 0.001212 0.001218
36415. 0.75422 0.00153(22) 19760084. 0.001212 0.001219
36419. 0.75429 0.00144(22) 20908816. 0.001212 0.001219
36422. 0.75437 0.00092(17) 35049476. 0.001212 0.001219
36426. 0.75444 0.00076(16) 39318384. 0.001212 0.001219
36429. 0.75452 0.00102(19) 29137264. 0.001212 0.001219
36433. 0.75459 0.00126(21) 23231250. 0.001212 0.001219
36437. 0.75467 0.00130(21) 22928028. 0.001212 0.001220
36440. 0.75474 0.00132(21) 22333560. 0.001212 0.001220
36444. 0.75482 0.00124(20) 25233424. 0.001212 0.001220
36448. 0.75489 0.00116(19) 27250664. 0.001212 0.001220
36451. 0.75497 0.00110(19) 27654950. 0.001212 0.001220
36455. 0.75504 0.00138(21) 22204224. 0.001212 0.001220
36459. 0.75512 0.00153(23) 19340820. 0.001212 0.001221
36462. 0.75520 0.00119(19) 26392772. 0.001212 0.001221
36466. 0.75527 0.00126(21) 23127416. 0.001212 0.001221
36470. 0.75535 0.00128(20) 23843690. 0.001212 0.001221
36473. 0.75542 0.00137(21) 21968232. 0.001212 0.001221
36477. 0.75550 0.00127(20) 24834578. 0.001212 0.001222
36481. 0.75558 0.00120(20) 26118224. 0.001212 0.001222
36484. 0.75565 0.00112(19) 28542720. 0.001212 0.001222
36488. 0.75573 0.00123(21) 23745606. 0.001212 0.001222
36491. 0.75580 0.00125(20) 24456082. 0.001212 0.001223
36495. 0.75588 0.00127(20) 24332042. 0.001212 0.001223
36499. 0.75595 0.00126(20) 24604098. 0.001212 0.001223
36502. 0.75603 0.00123(20) 23990636. 0.001212 0.001223
36506. 0.75610 0.00115(19) 26808640. 0.001212 0.001224
36510. 0.75618 0.00127(20) 24710012. 0.001212 0.001224
36513. 0.75625 0.00141(21) 23278390. 0.001212 0.001224
36517. 0.75633 0.00154(22) 20309636. 0.001212 0.001225
36521. 0.75641 0.00145(21) 22069434. 0.001212 0.001225
36524. 0.75648 0.00132(20) 23990304. 0.001212 0.001225
36528. 0.75656 0.00130(21) 23487798. 0.001212 0.001226
36532. 0.75663 0.00139(21) 23149866. 0.001212 0.001226
36535. 0.75671 0.00152(22) 21248522. 0.001212 0.001227
36539. 0.75678 0.00159(23) 19430626. 0.001212 0.001227
36543. 0.75686 0.00174(24) 17175318. 0.001212 0.001228
36546. 0.75694 0.00159(23) 19684564. 0.001212 0.001228
36550. 0.75701 0.00125(20) 24215908. 0.001212 0.001229
36554. 0.75709 0.00114(19) 27596678. 0.001212 0.001229
36557. 0.75716 0.00127(20) 25916096. 0.001212 0.001230
36561. 0.75724 0.00120(19) 26937050. 0.001212 0.001230
36565. 0.75732 0.00110(18) 29219670. 0.001212 0.001231
36568. 0.75739 0.00112(19) 29209872. 0.001212 0.001233
36572. 0.75747 0.00116(19) 27955902. 0.001212 0.001234
36576. 0.75754 0.00124(20) 24998010. 0.001212 0.001234
36579. 0.75762 0.00130(20) 24469550. 0.001212 0.001235
36583. 0.75769 0.00141(21) 23477924. 0.001212 0.001236
36587. 0.75777 0.00180(24) 17889046. 0.001212 0.001237
36590. 0.75785 0.00199(25) 15863351. 0.001212 0.001238
36594. 0.75792 0.00158(22) 21591262. 0.001212 0.001239
36597. 0.75800 0.00136(20) 24733414. 0.001212 0.001240
36601. 0.75807 0.00131(20) 24963718. 0.001212 0.001242
36605. 0.75815 0.00138(21) 23751210. 0.001212 0.001243
36608. 0.75822 0.00134(20) 24338654. 0.001212 0.001244
36612. 0.75830 0.00114(19) 29038716. 0.001212 0.001246
36616. 0.75838 0.00109(18) 29615170. 0.001212 0.001247
36619. 0.75845 0.00139(22) 21558102. 0.001212 0.001249
36623. 0.75853 0.00130(20) 24422020. 0.001212 0.001251
36627. 0.75860 0.00116(19) 27030430. 0.001212 0.001253
36630. 0.75868 0.00125(20) 25121600. 0.001212 0.001255
36634. 0.75876 0.00140(21) 23073364. 0.001212 0.001258
36638. 0.75883 0.00113(19) 28838554. 0.001212 0.001261
36641. 0.75891 0.00101(17) 33342120. 0.001212 0.001264
36645. 0.75899 0.00128(20) 25859200. 0.001212 0.001268
36649. 0.75906 0.00160(22) 20367292. 0.001212 0.001272
36652. 0.75914 0.00169(23) 18571908. 0.001212 0.001277
36656. 0.75921 0.00138(20) 24020094. 0.001212 0.001284
36660. 0.75929 0.00122(19) 26322164. 0.001211 0.001293
36663. 0.75936 0.00122(20) 24381668. 0.001211 0.001304
36667. 0.75944 0.00109(18) 29933316. 0.001211 0.001321
36671. 0.75952 0.00126(20) 25992748. 0.001211 0.001344
36674. 0.75959 0.00149(22) 20272966. 0.001211 0.001377
36678. 0.75967 0.00140(22) 21437404. 0.001211 0.001422
36682. 0.75974 0.00138(21) 23278220. 0.001211 0.001483
36685. 0.75982 0.00134(20) 24204824. 0.001211 0.001565
36689. 0.75989 0.00143(21) 23170242. 0.001211 0.001671
36693. 0.75997 0.00179(24) 18073906. 0.001211 0.001807
36696. 0.76005 0.00209(25) 15490787. 0.001211 0.001973
36700. 0.76012 0.00231(27) 13827567. 0.001211 0.002166
36704. 0.76020 0.00231(27) 13896002. 0.001211 0.002386
36707. 0.76028 0.00251(28) 12814401. 0.001211 0.002627
36711. 0.76035 0.00343(33) 8950944. 0.001211 0.002875
36715. 0.76043 0.00343(33) 9364840. 0.001211 0.003120
36718. 0.76050 0.00332(32) 9698316. 0.001211 0.003349
36722. 0.76058 0.00345(33) 9381943. 0.001211 0.003544
36726. 0.76066 0.00347(33) 9119767. 0.001211 0.003685
36729. 0.76073 0.00326(32) 9815721. 0.001211 0.003764
36733. 0.76081 0.00297(30) 11154103. 0.001211 0.003767
36737. 0.76089 0.00297(30) 11113685. 0.001211 0.003691
36740. 0.76096 0.00302(30) 10821519. 0.001211 0.003543
36744. 0.76104 0.00262(28) 12898644. 0.001211 0.003334
36748. 0.76111 0.00245(27) 14068667. 0.001211 0.003087
36752. 0.76119 0.00254(28) 13166598. 0.001211 0.002824
36755. 0.76127 0.00229(27) 14193008. 0.001211 0.002571
36759. 0.76134 0.00170(22) 20155412. 0.001211 0.002337
36763. 0.76142 0.00157(21) 21688390. 0.001211 0.002130
36766. 0.76149 0.00185(23) 18142018. 0.001211 0.001959
36770. 0.76157 0.00217(27) 14210717. 0.001211 0.001827
36774. 0.76165 0.00200(25) 15442162. 0.001211 0.001731
36777. 0.76172 0.00193(25) 16603231. 0.001211 0.001667
36781. 0.76180 0.00206(25) 15697768. 0.001211 0.001635
36785. 0.76188 0.00180(23) 18145688. 0.001211 0.001633
36788. 0.76195 0.00163(23) 19048820. 0.001211 0.001662
36792. 0.76203 0.00170(23) 18793076. 0.001211 0.001716
36796. 0.76210 0.00178(23) 19392924. 0.001211 0.001800
36799. 0.76218 0.00208(25) 16330058. 0.001211 0.001914
36803. 0.76226 0.00217(26) 15161102. 0.001211 0.002057
36807. 0.76233 0.00227(26) 14613589. 0.001211 0.002227
36810. 0.76241 0.00261(27) 13466830. 0.001211 0.002422
36814. 0.76248 0.00299(29) 11823699. 0.001211 0.002641
36818. 0.76256 0.00303(30) 11221310. 0.001211 0.002874
36821. 0.76264 0.00286(29) 11681463. 0.001211 0.003110
36825. 0.76271 0.00316(31) 10589555. 0.001211 0.003340
36829. 0.76279 0.00361(33) 9138560. 0.001211 0.003556
36832. 0.76287 0.00379(34) 8752998. 0.001211 0.003742
36836. 0.76294 0.00363(33) 9416801. 0.001211 0.003884
36840. 0.76302 0.00380(34) 8900773. 0.001211 0.003970
36844. 0.76310 0.00349(32) 9814355. 0.001211 0.003993
36847. 0.76317 0.00324(31) 10334109. 0.001211 0.003952
36851. 0.76325 0.00328(32) 9997998. 0.001211 0.003856
36855. 0.76332 0.00317(31) 10542317. 0.001211 0.003717
36858. 0.76340 0.00304(30) 11078537. 0.001211 0.003548
36862. 0.76348 0.00322(31) 10094363. 0.001211 0.003363
36866. 0.76355 0.00311(31) 10334013. 0.001211 0.003175
36869. 0.76363 0.00242(27) 13625086. 0.001211 0.002992
36873. 0.76371 0.00209(25) 16301474. 0.001211 0.002819
36877. 0.76378 0.00236(26) 14398731. 0.001211 0.002661
36880. 0.76386 0.00245(28) 13083728. 0.001211 0.002519
36884. 0.76393 0.00219(26) 14866186. 0.001211 0.002389
36888. 0.76401 0.00208(25) 15747093. 0.001211 0.002267
36891. 0.76409 0.00206(25) 16188837. 0.001211 0.002161
36895. 0.76416 0.00216(25) 15716688. 0.001211 0.002052
36899. 0.76424 0.00201(24) 16881492. 0.001211 0.001949
36903. 0.76432 0.00171(22) 20246104. 0.001211 0.001852
36906. 0.76439 0.00172(22) 19796860. 0.001211 0.001764
36910. 0.76447 0.00200(25) 16433706. 0.001211 0.001686
36914. 0.76455 0.00184(23) 18990636. 0.001211 0.001618
36917. 0.76462 0.00168(22) 19960152. 0.001211 0.001561
36921. 0.76470 0.00155(21) 22743940. 0.001210 0.001515
36925. 0.76478 0.00165(22) 21269720. 0.001210 0.001477
36928. 0.76485 0.00154(21) 22812536. 0.001210 0.001450
36932. 0.76493 0.00149(20) 24003838. 0.001210 0.001430
36936. 0.76501 0.00160(21) 22201858. 0.001210 0.001419
36939. 0.76508 0.00147(21) 23588936. 0.001210 0.001416
36943. 0.76516 0.00137(20) 24658408. 0.001210 0.001422
36947. 0.76524 0.00151(21) 21757032. 0.001210 0.001437
36951. 0.76531 0.00149(21) 22533390. 0.001210 0.001462
36954. 0.76539 0.00143(20) 25204078. 0.001210 0.001500
36958. 0.76547 0.00164(21) 21639404. 0.001210 0.001552
36962. 0.76554 0.00180(23) 19301826. 0.001210 0.001618
36965. 0.76562 0.00181(23) 19569172. 0.001210 0.001704
36969. 0.76570 0.00201(25) 16627979. 0.001210 0.001801
36973. 0.76577 0.00205(25) 16521861. 0.001210 0.001910
36976. 0.76585 0.00216(25) 15643415. 0.001210 0.002028
36980. 0.76593 0.00218(25) 15688030. 0.001210 0.002152
36984. 0.76600 0.00224(25) 15869541. 0.001210 0.002274
36988. 0.76608 0.00262(27) 13422707. 0.001210 0.002388
36991. 0.76616 0.00301(30) 11306253. 0.001210 0.002486
36995. 0.76623 0.00297(30) 11324927. 0.001210 0.002560
36999. 0.76631 0.00265(28) 12755654. 0.001210 0.002603
37002. 0.76639 0.00244(27) 13962846. 0.001210 0.002611
37006. 0.76646 0.00244(27) 14181567. 0.001210 0.002577
37010. 0.76654 0.00239(26) 14519583. 0.001210 0.002505
37013. 0.76662 0.00212(25) 16105717. 0.001210 0.002402
37017. 0.76669 0.00194(25) 16546170. 0.001210 0.002277
37021. 0.76677 0.00154(21) 22458802. 0.001210 0.002142
37025. 0.76685 0.00156(21) 23281310. 0.001210 0.002006
37028. 0.76692 0.00164(22) 21158454. 0.001210 0.001879
37032. 0.76700 0.00163(22) 20675926. 0.001210 0.001765
37036. 0.76708 0.00158(21) 21850802. 0.001210 0.001666
37039. 0.76715 0.00153(21) 22814344. 0.001210 0.001584
37043. 0.76723 0.00144(20) 24487652. 0.001210 0.001519
37047. 0.76731 0.00129(19) 27947094. 0.001210 0.001467
37050. 0.76738 0.00151(21) 22583512. 0.001210 0.001428
37054. 0.76746 0.00171(22) 19910230. 0.001210 0.001399
37058. 0.76754 0.00141(20) 25608300. 0.001210 0.001378
37062. 0.76761 0.00134(20) 25093440. 0.001210 0.001364
37065. 0.76769 0.00125(19) 26866254. 0.001210 0.001354
37069. 0.76777 0.00136(20) 25750912. 0.001210 0.001349
37073. 0.76784 0.00167(22) 21097568. 0.001210 0.001348
37076. 0.76792 0.00174(22) 20124110. 0.001210 0.001350
37080. 0.76800 0.00145(20) 24367040. 0.001210 0.001355
37084. 0.76807 0.00118(18) 30206934. 0.001210 0.001365
37088. 0.76815 0.00108(18) 31869784. 0.001210 0.001379
37091. 0.76823 0.00116(19) 29141922. 0.001210 0.001397
37095. 0.76830 0.00125(19) 27156382. 0.001210 0.001420
37099. 0.76838 0.00125(19) 27346284. 0.001210 0.001447
37102. 0.76846 0.00131(19) 26537136. 0.001210 0.001478
37106. 0.76854 0.00164(22) 20634070. 0.001210 0.001513
37110. 0.76861 0.00187(23) 18315512. 0.001210 0.001548
37114. 0.76869 0.00175(22) 20125688. 0.001210 0.001582
37117. 0.76877 0.00167(22) 21217600. 0.001210 0.001615
37121. 0.76884 0.00163(21) 22149286. 0.001210 0.001643
37125. 0.76892 0.00173(22) 20475108. 0.001210 0.001664
37128. 0.76900 0.00167(22) 21076678. 0.001210 0.001676
37132. 0.76907 0.00163(21) 21806382. 0.001210 0.001678
37136. 0.76915 0.00153(21) 23195738. 0.001210 0.001670
37140. 0.76923 0.00137(19) 26664478. 0.001210 0.001653
37143. 0.76930 0.00125(18) 29294092. 0.001210 0.001628
37147. 0.76938 0.00123(18) 30642398. 0.001209 0.001601
37151. 0.76946 0.00141(20) 25409888. 0.001209 0.001574
37154. 0.76953 0.00149(21) 23227106. 0.001209 0.001551
37158. 0.76961 0.00135(19) 26970352. 0.001209 0.001535
37162. 0.76969 0.00134(19) 26627154. 0.001209 0.001531
37166. 0.76977 0.00147(21) 23207060. 0.001209 0.001541
37169. 0.76984 0.00147(21) 22879740. 0.001209 0.001568
37173. 0.76992 0.00157(22) 20963158. 0.001209 0.001615
37177. 0.77000 0.00173(23) 19380674. 0.001209 0.001685
37180. 0.77007 0.00180(23) 19472384. 0.001209 0.001780
37184. 0.77015 0.00210(25) 16159326. 0.001209 0.001902
37188. 0.77023 0.00249(27) 13609022. 0.001209 0.002047
37192. 0.77031 0.00286(29) 12010813. 0.001209 0.002216
37195. 0.77038 0.00293(28) 12508177. 0.001209 0.002404
37199. 0.77046 0.00337(31) 10669886. 0.001209 0.002603
37203. 0.77054 0.00383(33) 9330858. 0.001209 0.002800
37206. 0.77061 0.00415(34) 8437384. 0.001209 0.002987
37210. 0.77069 0.0042(4) 8080250. 0.00121 0.00315
37214. 0.77077 0.00379(33) 9409399. 0.001209 0.003284
37218. 0.77084 0.00351(31) 10425611. 0.001209 0.003370
37221. 0.77092 0.00319(30) 11327558. 0.001209 0.003399
37225. 0.77100 0.00307(30) 11362243. 0.001209 0.003365
37229. 0.77108 0.00304(30) 10977374. 0.001209 0.003271
37232. 0.77115 0.00233(25) 15498945. 0.001209 0.003123
37236. 0.77123 0.00218(25) 16277597. 0.001209 0.002938
37240. 0.77131 0.00220(25) 15983907. 0.001209 0.002736
37244. 0.77138 0.00216(24) 16799674. 0.001209 0.002532
37247. 0.77146 0.00224(24) 16835620. 0.001209 0.002336
37251. 0.77154 0.00231(25) 15958759. 0.001209 0.002161
37255. 0.77162 0.00207(24) 17287344. 0.001209 0.002013
37259. 0.77169 0.00176(22) 20534934. 0.001209 0.001892
37262. 0.77177 0.00177(22) 21437184. 0.001209 0.001796
37266. 0.77185 0.00190(23) 19258274. 0.001209 0.001724
37270. 0.77193 0.00177(22) 20706386. 0.001209 0.001675
37273. 0.77200 0.00181(22) 19875668. 0.001209 0.001642
37277. 0.77208 0.00157(21) 23577862. 0.001209 0.001623
37281. 0.77216 0.00146(20) 25507628. 0.001209 0.001617
37285. 0.77223 0.00178(23) 19715296. 0.001209 0.001620
37288. 0.77231 0.00184(23) 19073224. 0.001209 0.001633
37292. 0.77239 0.00170(21) 23152898. 0.001209 0.001656
37296. 0.77247 0.00174(21) 21863138. 0.001209 0.001691
37300. 0.77254 0.00165(21) 23229704. 0.001209 0.001742
37303. 0.77262 0.00178(22) 20331978. 0.001209 0.001813
37307. 0.77270 0.00201(24) 17517962. 0.001209 0.001911
37311. 0.77277 0.00182(22) 21448944. 0.001209 0.002048
37315. 0.77285 0.00187(22) 20064592. 0.001209 0.002232
37318. 0.77293 0.00204(24) 17421330. 0.001209 0.002479
37322. 0.77301 0.00227(25) 15665216. 0.001209 0.002802
37326. 0.77308 0.00280(28) 12716261. 0.001209 0.003222
37329. 0.77316 0.00344(32) 9952098. 0.001209 0.003750
37333. 0.77324 0.00414(34) 8710703. 0.001209 0.004394
37337. 0.77332 0.0054(4) 6511030. 0.00121 0.00516
37341. 0.77339 0.0062(4) 5658208. 0.00121 0.00603
37344. 0.77347 0.0068(4) 5343316. 0.00121 0.00701
37348. 0.77355 0.0084(5) 4197976. 0.00121 0.00807
37352. 0.77363 0.0105(5) 3312803. 0.00121 0.00916
37356. 0.77370 0.0116(6) 3147103. 0.00121 0.01027
37359. 0.77378 0.0129(6) 2786734. 0.00121 0.01134
37363. 0.77386 0.0139(6) 2562281. 0.00121 0.01230
37367. 0.77394 0.0137(6) 2699542. 0.00121 0.01311
37371. 0.77401 0.0139(6) 2552075. 0.00121 0.01371
37374. 0.77409 0.0128(6) 2866122. 0.00121 0.01406
37378. 0.77417 0.0130(6) 2801669. 0.00121 0.01412
37382. 0.77425 0.0128(6) 2845310. 0.00121 0.01393
37385. 0.77432 0.0123(6) 2997523. 0.00121 0.01351
37389. 0.77440 0.0122(6) 2928960. 0.00121 0.01292
37393. 0.77448 0.0106(5) 3487445. 0.00121 0.01220
37397. 0.77456 0.0097(5) 3743934. 0.00121 0.01140
37400. 0.77463 0.0093(5) 3879172. 0.00121 0.01053
37404. 0.77471 0.0085(5) 4409984. 0.00121 0.00961
37408. 0.77479 0.0079(5) 4614118. 0.00121 0.00865
37412. 0.77487 0.0073(4) 5046245. 0.00121 0.00771
37415. 0.77494 0.0067(4) 5569814. 0.00121 0.00679
37419. 0.77502 0.0060(4) 5928522. 0.00121 0.00594
37423. 0.77510 0.0050(4) 7427790. 0.00121 0.00517
37427. 0.77518 0.00446(35) 8328204. 0.001208 0.004521
37430. 0.77525 0.00453(35) 8221557. 0.001208 0.003981
37434. 0.77533 0.00438(34) 8525317. 0.001208 0.003556
37438. 0.77541 0.00390(32) 9788422. 0.001208 0.003245
37442. 0.77548 0.00385(32) 9640840. 0.001208 0.003029
37445. 0.77556 0.00352(31) 10388595. 0.001208 0.002903
37449. 0.77564 0.00335(30) 11115275. 0.001208 0.002855
37453. 0.77572 0.00369(32) 9858543. 0.001208 0.002869
37457. 0.77580 0.00365(31) 10712711. 0.001208 0.002934
37460. 0.77587 0.00400(33) 9312251. 0.001208 0.003034
37464. 0.77595 0.00381(32) 10012121. 0.001208 0.003154
37468. 0.77603 0.00371(31) 10343614. 0.001208 0.003280
37472. 0.77611 0.00397(33) 9355269. 0.001208 0.003398
37475. 0.77619 0.00419(34) 8473484. 0.001208 0.003491
37479. 0.77626 0.00406(33) 9206820. 0.001208 0.003550
37483. 0.77634 0.00391(33) 9449029. 0.001208 0.003561
37487. 0.77642 0.00345(30) 11105452. 0.001208 0.003516
37490. 0.77650 0.00340(31) 10711826. 0.001208 0.003415
37494. 0.77657 0.00287(28) 13155425. 0.001208 0.003264
37498. 0.77665 0.00293(28) 12398525. 0.001208 0.003075
37502. 0.77673 0.00272(27) 13814877. 0.001208 0.002866
37505. 0.77681 0.00254(26) 14249541. 0.001208 0.002651
37509. 0.77688 0.00232(25) 16267604. 0.001208 0.002444
37513. 0.77696 0.00242(25) 15423601. 0.001208 0.002255
37517. 0.77704 0.00210(23) 19107440. 0.001208 0.002088
37520. 0.77712 0.00196(22) 20161770. 0.001208 0.001946
37524. 0.77719 0.00174(21) 22241904. 0.001208 0.001830
37528. 0.77727 0.00163(21) 23242218. 0.001208 0.001736
37532. 0.77735 0.00173(21) 23131176. 0.001208 0.001664
37535. 0.77743 0.00203(23) 18827866. 0.001208 0.001608
37539. 0.77750 0.00210(23) 18562060. 0.001208 0.001567
37543. 0.77758 0.00191(22) 20757348. 0.001208 0.001537
37547. 0.77766 0.00167(21) 23429518. 0.001208 0.001517
37550. 0.77774 0.00159(20) 24799894. 0.001208 0.001506
37554. 0.77782 0.00176(22) 21039616. 0.001208 0.001502
37558. 0.77789 0.00176(21) 21702484. 0.001208 0.001506
37562. 0.77797 0.00169(21) 21959444. 0.001208 0.001521
37565. 0.77805 0.00158(20) 23858056. 0.001208 0.001548
37569. 0.77813 0.00161(21) 23711832. 0.001208 0.001591
37573. 0.77821 0.00175(22) 20719410. 0.001208 0.001653
37577. 0.77828 0.00184(22) 20065436. 0.001208 0.001739
37580. 0.77836 0.00222(25) 16138915. 0.001208 0.001854
37584. 0.77844 0.00227(25) 16590613. 0.001208 0.002002
37588. 0.77852 0.00230(25) 15957143. 0.001208 0.002184
37592. 0.77859 0.00225(24) 16742058. 0.001208 0.002402
37595. 0.77867 0.00265(26) 14691630. 0.001208 0.002656
37599. 0.77875 0.00347(30) 10915429. 0.001208 0.002933
37603. 0.77883 0.00366(31) 10617104. 0.001208 0.003225
37607. 0.77891 0.00370(31) 10563007. 0.001208 0.003522
37611. 0.77899 0.00411(33) 8995894. 0.001208 0.003801
37614. 0.77906 0.00404(33) 9420345. 0.001208 0.004047
37618. 0.77914 0.00416(33) 9093270. 0.001208 0.004242
37622. 0.77922 0.00436(33) 8979577. 0.001208 0.004367
37626. 0.77930 0.0047(4) 7902793. 0.00121 0.00441
37629. 0.77938 0.00422(34) 8699664. 0.001208 0.004350
37633. 0.77945 0.00350(30) 11145139. 0.001208 0.004201
37637. 0.77953 0.00303(28) 13063643. 0.001208 0.003968
37641. 0.77961 0.00284(27) 13492869. 0.001208 0.003681
37644. 0.77969 0.00268(26) 14878395. 0.001208 0.003363
37648. 0.77977 0.00258(26) 15063660. 0.001208 0.003039
37652. 0.77984 0.00237(25) 16068031. 0.001208 0.002731
37656. 0.77992 0.00234(25) 16410742. 0.001208 0.002449
37659. 0.78000 0.00250(26) 15087279. 0.001208 0.002207
37663. 0.78008 0.00234(25) 16472728. 0.001208 0.002004
37667. 0.78015 0.00212(24) 18069294. 0.001208 0.001839
37671. 0.78023 0.00201(23) 18856516. 0.001208 0.001708
37675. 0.78031 0.00183(22) 21110624. 0.001208 0.001610
37678. 0.78039 0.00161(20) 25575412. 0.001208 0.001535
37682. 0.78047 0.00172(21) 22400586. 0.001208 0.001479
37686. 0.78055 0.00175(22) 20562930. 0.001208 0.001438
37690. 0.78062 0.00141(19) 27359284. 0.001208 0.001408
37693. 0.78070 0.00134(18) 29410354. 0.001208 0.001384
37697. 0.78078 0.00146(20) 25677246. 0.001208 0.001367
37701. 0.78086 0.00145(20) 26261842. 0.001208 0.001353
37705. 0.78094 0.00151(20) 25231172. 0.001208 0.001342
37708. 0.78101 0.00160(20) 24003716. 0.001208 0.001332
37712. 0.78109 0.00146(19) 27180818. 0.001208 0.001324
37716. 0.78117 0.00145(20) 25960236. 0.001208 0.001318
37720. 0.78125 0.00137(19) 28026522. 0.001208 0.001312
37724. 0.78133 0.00137(19) 27857846. 0.001208 0.001307
37727. 0.78140 0.00136(19) 27863380. 0.001207 0.001302
37731. 0.78148 0.00116(17) 33274184. 0.001207 0.001298
37735. 0.78156 0.00112(17) 34023384. 0.001207 0.001295
37739. 0.78164 0.00113(17) 34042608. 0.001207 0.001292
37742. 0.78172 0.00128(19) 29199036. 0.001207 0.001289
37746. 0.78180 0.00135(18) 29620552. 0.001207 0.001287
37750. 0.78187 0.00130(18) 31252690. 0.001207 0.001286
37754. 0.78195 0.00126(18) 31248568. 0.001207 0.001285
37757. 0.78203 0.00133(19) 28769280. 0.001207 0.001285
37761. 0.78211 0.00136(19) 27437316. 0.001207 0.001287
37765. 0.78219 0.00126(18) 31062328. 0.001207 0.001290
37769. 0.78227 0.00120(18) 32206518. 0.001207 0.001296
37773. 0.78234 0.00121(18) 31791558. 0.001207 0.001305
37776. 0.78242 0.00132(18) 31357568. 0.001207 0.001318
37780. 0.78250 0.00162(20) 24590784. 0.001207 0.001336
37784. 0.78258 0.00173(21) 22634400. 0.001207 0.001360
37788. 0.78266 0.00154(20) 26217666. 0.001207 0.001391
37792. 0.78274 0.00139(19) 27809006. 0.001207 0.001428
37795. 0.78281 0.00137(19) 28461228. 0.001207 0.001472
37799. 0.78289 0.00164(20) 24161864. 0.001207 0.001522
37803. 0.78297 0.00180(21) 22419862. 0.001207 0.001577
37807. 0.78305 0.00195(23) 19500940. 0.001207 0.001633
37810. 0.78313 0.00197(22) 20138380. 0.001207 0.001687
37814. 0.78320 0.00189(21) 22025484. 0.001207 0.001739
37818. 0.78328 0.00201(22) 19776782. 0.001207 0.001782
37822. 0.78336 0.00205(23) 19018788. 0.001207 0.001813
37826. 0.78344 0.00186(22) 21247750. 0.001207 0.001830
37829. 0.78352 0.00180(21) 22101420. 0.001207 0.001828
37833. 0.78360 0.00180(22) 20852486. 0.001207 0.001809
37837. 0.78367 0.00163(21) 23648214. 0.001207 0.001772
37841. 0.78375 0.00176(21) 21694800. 0.001207 0.001721
37844. 0.78383 0.00153(20) 25492864. 0.001207 0.001653
37848. 0.78391 0.00129(18) 30912416. 0.001207 0.001591
37852. 0.78399 0.00139(19) 28429618. 0.001207 0.001530
37856. 0.78407 0.00150(20) 26072738. 0.001207 0.001474
37860. 0.78414 0.00142(19) 27015688. 0.001207 0.001423
37863. 0.78422 0.00115(17) 36453620. 0.001207 0.001381
37867. 0.78430 0.00128(18) 30247288. 0.001207 0.001346
37871. 0.78438 0.00143(19) 26751034. 0.001207 0.001318
37875. 0.78446 0.00142(19) 27928432. 0.001207 0.001292
37879. 0.78454 0.00131(18) 30626276. 0.001207 0.001276
37882. 0.78462 0.00132(18) 30793810. 0.001207 0.001264
37886. 0.78469 0.00142(19) 29150898. 0.001207 0.001255
37890. 0.78477 0.00133(18) 30307334. 0.001207 0.001249
37894. 0.78485 0.00123(18) 31441726. 0.001207 0.001244
37897. 0.78493 0.00125(18) 30947348. 0.001207 0.001240
37901. 0.78501 0.00127(18) 30995210. 0.001207 0.001237
37905. 0.78509 0.00127(18) 32128194. 0.001207 0.001235
37909. 0.78517 0.00122(17) 33991544. 0.001207 0.001233
37913. 0.78525 0.00124(17) 33899784. 0.001207 0.001231
37916. 0.78532 0.00149(19) 27723754. 0.001207 0.001230
37920. 0.78540 0.00160(20) 25224400. 0.001207 0.001229
37924. 0.78548 0.00156(20) 25226456. 0.001207 0.001228
37928. 0.78556 0.00143(19) 27242312. 0.001207 0.001227
37932. 0.78564 0.00130(18) 31054400. 0.001207 0.001226
37935. 0.78572 0.00137(18) 29419518. 0.001207 0.001225
37939. 0.78579 0.00154(19) 26632918. 0.001207 0.001224
37943. 0.78587 0.00173(21) 23043936. 0.001207 0.001224
37947. 0.78595 0.00152(20) 25987408. 0.001207 0.001223
37951. 0.78603 0.00121(17) 33459868. 0.001207 0.001223
37954. 0.78611 0.00119(17) 34999808. 0.001207 0.001222
37958. 0.78619 0.00124(17) 33672116. 0.001207 0.001220
37962. 0.78627 0.00123(17) 32853020. 0.001207 0.001221
37966. 0.78635 0.00108(16) 37775976. 0.001207 0.001220
37970. 0.78642 0.00113(17) 35731128. 0.001207 0.001220
37973. 0.78650 0.00124(18) 32132286. 0.001207 0.001220
37977. 0.78658 0.00115(17) 35530180. 0.001207 0.001220
37981. 0.78666 0.00115(17) 34637692. 0.001207 0.001219
37985. 0.78674 0.00098(16) 40782972. 0.001207 0.001219
37989. 0.78682 0.00091(15) 47357868. 0.001207 0.001219
37992. 0.78690 0.00120(17) 35583280. 0.001207 0.001219
37996. 0.78698 0.00134(18) 30484838. 0.001207 0.001219
38000. 0.78705 0.00122(17) 33600240. 0.001207 0.001218
38004. 0.78713 0.00103(16) 40197680. 0.001207 0.001218
38008. 0.78721 0.00109(16) 36768088. 0.001207 0.001218
38011. 0.78729 0.00141(19) 27706058. 0.001207 0.001218
38015. 0.78737 0.00120(17) 35142132. 0.001207 0.001218
38019. 0.78745 0.00107(16) 38070784. 0.001207 0.001218
38023. 0.78753 0.00102(16) 40175092. 0.001207 0.001220
38027. 0.78760 0.00111(16) 37675012. 0.001207 0.001220
38030. 0.78768 0.00120(17) 35613024. 0.001207 0.001220
38034. 0.78776 0.00134(18) 29274032. 0.001207 0.001220
38038. 0.78784 0.00126(18) 31011120. 0.001207 0.001220
38042. 0.78792 0.00123(17) 33563920. 0.001207 0.001221
38046. 0.78800 0.00129(18) 32021840. 0.001207 0.001221
38049. 0.78808 0.00130(17) 32978780. 0.001207 0.001225
38053. 0.78816 0.00159(20) 25913798. 0.001207 0.001226
38057. 0.78824 0.00153(20) 26285560. 0.001207 0.001226
38061. 0.78832 0.00127(18) 31756528. 0.001207 0.001227
38065. 0.78839 0.00117(17) 36474788. 0.001207 0.001227
38068. 0.78847 0.00131(18) 30796034. 0.001207 0.001228
38072. 0.78855 0.00129(18) 30747212. 0.001207 0.001229
38076. 0.78863 0.00117(17) 33773372. 0.001207 0.001231
38080. 0.78871 0.00116(17) 36074192. 0.001207 0.001232
38084. 0.78879 0.00123(17) 34015608. 0.001207 0.001234
38087. 0.78887 0.00134(18) 30163962. 0.001207 0.001236
38091. 0.78895 0.00138(18) 29857500. 0.001207 0.001238
38095. 0.78902 0.00134(18) 31501998. 0.001207 0.001241
38099. 0.78910 0.00122(17) 35663320. 0.001207 0.001241
38103. 0.78918 0.00113(16) 38754836. 0.001207 0.001243
38107. 0.78926 0.00126(17) 33226814. 0.001207 0.001245
38110. 0.78934 0.00136(18) 30937664. 0.001207 0.001247
38114. 0.78942 0.00140(19) 29011402. 0.001207 0.001248
38118. 0.78950 0.00114(16) 36964452. 0.001207 0.001249
38122. 0.78958 0.00092(15) 45648196. 0.001207 0.001249
38126. 0.78966 0.00082(14) 50149348. 0.001207 0.001249
38129. 0.78973 0.00107(16) 37883320. 0.001207 0.001248
38133. 0.78981 0.00141(18) 29360126. 0.001207 0.001246
38137. 0.78989 0.00147(19) 28518480. 0.001207 0.001245
38141. 0.78997 0.00131(18) 31650256. 0.001207 0.001243
38145. 0.79005 0.00104(16) 38275948. 0.001207 0.001242
38148. 0.79013 0.00086(15) 46600848. 0.001207 0.001240
38152. 0.79021 0.00092(15) 43472736. 0.001207 0.001239
38156. 0.79029 0.00102(16) 40429256. 0.001207 0.001239
38160. 0.79037 0.00124(17) 33261288. 0.001207 0.001238
38164. 0.79045 0.00142(19) 27795608. 0.001207 0.001238
38168. 0.79053 0.00129(18) 31794696. 0.001207 0.001238
38171. 0.79060 0.00117(17) 35400016. 0.001207 0.001239
38175. 0.79068 0.00125(17) 33896240. 0.001207 0.001239
38179. 0.79076 0.00157(19) 26678362. 0.001207 0.001240
38183. 0.79084 0.00163(20) 26207294. 0.001207 0.001241
38187. 0.79092 0.00140(18) 30260716. 0.001207 0.001242
38190. 0.79100 0.00141(19) 28824582. 0.001207 0.001244
38194. 0.79108 0.00158(20) 25524866. 0.001207 0.001245
38198. 0.79116 0.00134(18) 31439570. 0.001207 0.001246
38202. 0.79124 0.00133(18) 31183046. 0.001207 0.001248
38206. 0.79132 0.00136(18) 30993940. 0.001207 0.001250
38210. 0.79140 0.00134(18) 30736094. 0.001207 0.001252
38213. 0.79147 0.00127(17) 33605248. 0.001207 0.001255
38217. 0.79155 0.00117(17) 36646716. 0.001207 0.001257
38221. 0.79163 0.00127(18) 32499150. 0.001208 0.001261
38225. 0.79171 0.00147(19) 28738836. 0.001208 0.001265
38229. 0.79179 0.00143(18) 30041124. 0.001208 0.001270
38232. 0.79187 0.00123(16) 36772600. 0.001208 0.001278
38236. 0.79195 0.00139(18) 29645812. 0.001208 0.001287
38240. 0.79203 0.00149(19) 26636654. 0.001208 0.001300
38244. 0.79211 0.00144(19) 27996712. 0.001208 0.001317
38248. 0.79219 0.00117(17) 36565564. 0.001208 0.001339
38252. 0.79227 0.00108(16) 39355424. 0.001208 0.001369
38255. 0.79235 0.00115(16) 38131448. 0.001208 0.001406
38259. 0.79243 0.00158(19) 26534098. 0.001208 0.001452
38263. 0.79250 0.00179(21) 23521992. 0.001208 0.001509
38267. 0.79259 0.00182(21) 22384228. 0.001208 0.001576
38271. 0.79266 0.00193(22) 20614414. 0.001208 0.001652
38275. 0.79274 0.00177(20) 24178116. 0.001208 0.001734
38278. 0.79282 0.00180(20) 24963918. 0.001208 0.001823
38282. 0.79290 0.00220(23) 18986418. 0.001208 0.001913
38286. 0.79298 0.00224(23) 19047228. 0.001208 0.001997
38290. 0.79306 0.00207(21) 22241688. 0.001208 0.002075
38294. 0.79314 0.00220(22) 20205338. 0.001208 0.002138
38298. 0.79322 0.00227(23) 19116124. 0.001208 0.002182
38301. 0.79330 0.00216(22) 20237040. 0.001208 0.002202
38305. 0.79338 0.00218(22) 19953828. 0.001208 0.002196
38309. 0.79346 0.00207(22) 20330762. 0.001208 0.002164
38313. 0.79354 0.00177(20) 24903454. 0.001208 0.002109
38317. 0.79362 0.00167(20) 25507640. 0.001208 0.002036
38321. 0.79370 0.00169(20) 25870004. 0.001208 0.001956
38324. 0.79377 0.00193(21) 22940510. 0.001208 0.001873
38328. 0.79386 0.00191(21) 22829348. 0.001208 0.001796
38332. 0.79393 0.00181(20) 23820764. 0.001208 0.001733
38336. 0.79401 0.00178(20) 24484370. 0.001208 0.001686
38340. 0.79409 0.00183(20) 24301394. 0.001208 0.001658
38344. 0.79417 0.00200(22) 21520808. 0.001208 0.001654
38347. 0.79425 0.00172(19) 26398110. 0.001208 0.001674
38351. 0.79433 0.00157(19) 27845836. 0.001208 0.001721
38355. 0.79441 0.00167(19) 26417450. 0.001208 0.001793
38359. 0.79449 0.00182(20) 25131162. 0.001208 0.001892
38363. 0.79457 0.00192(21) 23738582. 0.001208 0.002016
38367. 0.79465 0.00230(23) 18978200. 0.001208 0.002157
38370. 0.79473 0.00281(26) 15372361. 0.001208 0.002316
38374. 0.79481 0.00310(27) 13875036. 0.001208 0.002483
38378. 0.79489 0.00308(26) 14564730. 0.001208 0.002650
38382. 0.79497 0.00307(26) 14298150. 0.001208 0.002807
38386. 0.79505 0.00313(27) 14001693. 0.001208 0.002944
38390. 0.79513 0.00329(27) 13317647. 0.001208 0.003055
38393. 0.79521 0.00323(28) 13206307. 0.001208 0.003132
38397. 0.79528 0.00290(26) 14930394. 0.001208 0.003171
38401. 0.79536 0.00294(26) 14884654. 0.001208 0.003176
38405. 0.79544 0.00286(26) 15159612. 0.001208 0.003155
38409. 0.79552 0.00272(25) 16165667. 0.001208 0.003126
38413. 0.79560 0.00280(26) 15146346. 0.001208 0.003109
38416. 0.79568 0.00281(25) 15799046. 0.001208 0.003127
38420. 0.79576 0.00319(27) 13811244. 0.001208 0.003198
38424. 0.79584 0.00356(28) 12332038. 0.001208 0.003333
38428. 0.79592 0.00355(28) 12556829. 0.001208 0.003547
38432. 0.79600 0.00370(29) 11588935. 0.001208 0.003840
38436. 0.79608 0.00414(31) 10696613. 0.001208 0.004211
38440. 0.79616 0.00507(34) 8569773. 0.001208 0.004650
38443. 0.79624 0.0055(4) 8109443. 0.00121 0.00515
38447. 0.79632 0.0058(4) 7471405. 0.00121 0.00568
38451. 0.79640 0.0059(4) 7632099. 0.00121 0.00622
38455. 0.79648 0.0071(4) 6135753. 0.00121 0.00673
38459. 0.79656 0.0080(4) 5483947. 0.00121 0.00719
38463. 0.79664 0.0078(4) 5768846. 0.00121 0.00757
38466. 0.79672 0.0080(4) 5438715. 0.00121 0.00785
38470. 0.79680 0.0079(4) 5746151. 0.00121 0.00800
38474. 0.79688 0.0080(4) 5653310. 0.00121 0.00802
38478. 0.79696 0.0075(4) 5918592. 0.00121 0.00790
38482. 0.79704 0.0064(4) 7154191. 0.00121 0.00763
38486. 0.79712 0.0061(4) 7222147. 0.00121 0.00723
38490. 0.79720 0.0059(4) 7364041. 0.00121 0.00671
38493. 0.79728 0.00514(34) 8698354. 0.001208 0.006097
38497. 0.79736 0.00454(32) 9786120. 0.001208 0.005443
38501. 0.79744 0.00404(30) 11133859. 0.001208 0.004790
38505. 0.79752 0.00376(29) 11903858. 0.001208 0.004165
38509. 0.79760 0.00354(29) 12261828. 0.001208 0.003611
38513. 0.79768 0.00319(27) 13846497. 0.001209 0.003130
38517. 0.79776 0.00301(26) 14398862. 0.001209 0.002727
38520. 0.79784 0.00290(26) 15118155. 0.001209 0.002405
38524. 0.79791 0.00275(25) 16287753. 0.001209 0.002147
38528. 0.79799 0.00254(24) 17613396. 0.001209 0.001947
38532. 0.79808 0.00258(25) 16595932. 0.001209 0.001798
38536. 0.79815 0.00226(23) 18877876. 0.001209 0.001687
38540. 0.79824 0.00192(21) 22330472. 0.001209 0.001605
38543. 0.79831 0.00198(21) 22935380. 0.001209 0.001546
38547. 0.79839 0.00206(22) 21313688. 0.001209 0.001500
38551. 0.79847 0.00193(21) 23059216. 0.001209 0.001465
38555. 0.79855 0.00189(21) 22910522. 0.001209 0.001438
38559. 0.79863 0.00170(19) 26334960. 0.001209 0.001417
38563. 0.79871 0.00163(19) 27463014. 0.001209 0.001398
38567. 0.79879 0.00179(20) 24432202. 0.001209 0.001383
38570. 0.79887 0.00192(21) 23246116. 0.001209 0.001370
38574. 0.79895 0.00184(20) 24002622. 0.001209 0.001358
38578. 0.79903 0.00158(18) 30049624. 0.001209 0.001348
38582. 0.79911 0.00171(19) 26634568. 0.001209 0.001339
38586. 0.79919 0.00166(19) 27379562. 0.001209 0.001331
38590. 0.79927 0.00142(18) 31290896. 0.001209 0.001324
38594. 0.79935 0.00123(17) 35772364. 0.001209 0.001317
38597. 0.79943 0.00128(17) 35739236. 0.001209 0.001311
38601. 0.79951 0.00145(18) 31142406. 0.001209 0.001306
38605. 0.79959 0.00159(19) 27349864. 0.001209 0.001301
38609. 0.79967 0.00148(18) 30029212. 0.001209 0.001296
38613. 0.79975 0.00146(18) 29702414. 0.001209 0.001292
38617. 0.79983 0.00146(18) 30737270. 0.001209 0.001288
38621. 0.79991 0.00145(18) 31299398. 0.001209 0.001285
38625. 0.79999 0.00142(18) 30663816. 0.001209 0.001281
38628. 0.80007 0.00119(16) 38658436. 0.001209 0.001278
38632. 0.80015 0.00102(14) 48106732. 0.001209 0.001276
38636. 0.80023 0.00138(18) 32282588. 0.001209 0.001273
38640. 0.80031 0.00142(18) 31462166. 0.001209 0.001271
38644. 0.80039 0.00118(16) 37573172. 0.001209 0.001268
38648. 0.80047 0.00135(17) 32792954. 0.001209 0.001266
38652. 0.80055 0.00145(18) 30534022. 0.001209 0.001265
38655. 0.80063 0.00123(16) 37429016. 0.001209 0.001263
38659. 0.80072 0.00101(15) 44485528. 0.001209 0.001261
38663. 0.80079 0.00094(15) 46754624. 0.001209 0.001260
38667. 0.80087 0.00129(17) 32888542. 0.001209 0.001258
38671. 0.80095 0.00132(17) 34831684. 0.001209 0.001257
38675. 0.80103 0.00119(16) 40055612. 0.001209 0.001256
38679. 0.80112 0.00121(16) 38149660. 0.001209 0.001255
38682. 0.80119 0.00137(18) 32574012. 0.001209 0.001254
38686. 0.80127 0.00150(18) 29320676. 0.001209 0.001253
38690. 0.80136 0.00136(17) 34194028. 0.001210 0.001252
38694. 0.80144 0.00144(18) 31765646. 0.001210 0.001251
38698. 0.80151 0.00154(18) 30112990. 0.001210 0.001251
38702. 0.80160 0.00153(18) 29595866. 0.001210 0.001250
38706. 0.80168 0.00133(17) 33403636. 0.001210 0.001249
38710. 0.80176 0.00118(16) 40272364. 0.001210 0.001249
38713. 0.80184 0.00127(17) 36579912. 0.001210 0.001249
38717. 0.80192 0.00127(17) 36066640. 0.001210 0.001248
38721. 0.80200 0.00127(17) 34529076. 0.001210 0.001248
38725. 0.80208 0.00130(17) 34754108. 0.001210 0.001248
38729. 0.80216 0.00137(17) 33142148. 0.001210 0.001248
38733. 0.80224 0.00136(18) 32578970. 0.001210 0.001247
38737. 0.80232 0.00127(17) 34758936. 0.001210 0.001247
38741. 0.80240 0.00119(16) 39093200. 0.001210 0.001247
38744. 0.80248 0.00133(17) 34927660. 0.001210 0.001248
38748. 0.80256 0.00142(18) 31782928. 0.001210 0.001248
38752. 0.80264 0.00135(17) 32946416. 0.001210 0.001248
38756. 0.80272 0.00114(16) 40382908. 0.001210 0.001248
38760. 0.80280 0.00118(16) 37480940. 0.001210 0.001249
38764. 0.80288 0.00143(18) 30592350. 0.001210 0.001249
38768. 0.80296 0.00139(17) 33683868. 0.001210 0.001250
38772. 0.80304 0.00123(16) 37047484. 0.001210 0.001250
38775. 0.80312 0.00112(16) 41312960. 0.001210 0.001251
38779. 0.80320 0.00135(17) 33430420. 0.001210 0.001251
38783. 0.80328 0.00142(18) 32188750. 0.001210 0.001252
38787. 0.80336 0.00130(17) 35122784. 0.001210 0.001254
38791. 0.80344 0.00118(16) 40132208. 0.001210 0.001255
38795. 0.80352 0.00104(15) 46802240. 0.001210 0.001257
38799. 0.80360 0.00107(15) 44300128. 0.001210 0.001258
38803. 0.80368 0.00118(16) 40445528. 0.001210 0.001261
38807. 0.80376 0.00122(16) 39235016. 0.001210 0.001263
38810. 0.80384 0.00116(16) 41618524. 0.001210 0.001266
38814. 0.80392 0.00130(17) 36337920. 0.001210 0.001271
38818. 0.80401 0.00142(17) 33276658. 0.001210 0.001276
38822. 0.80409 0.00143(17) 32899978. 0.001210 0.001282
38826. 0.80417 0.00140(17) 32897018. 0.001210 0.001293
38830. 0.80425 0.00131(17) 36687636. 0.001211 0.001307
38834. 0.80433 0.00137(17) 35325248. 0.001211 0.001329
38838. 0.80441 0.00143(17) 33753148. 0.001211 0.001359
38841. 0.80449 0.00152(18) 30386584. 0.001211 0.001401
38845. 0.80457 0.00154(18) 29936870. 0.001211 0.001458
38849. 0.80465 0.00151(18) 29623124. 0.001211 0.001533
38853. 0.80473 0.00147(18) 30978854. 0.001211 0.001629
38857. 0.80481 0.00175(20) 25752064. 0.001211 0.001751
38861. 0.80489 0.00191(20) 24932322. 0.001211 0.001896
38865. 0.80497 0.00210(21) 22612118. 0.001211 0.002066
38869. 0.80505 0.00234(23) 19728798. 0.001211 0.002254
38873. 0.80513 0.00248(23) 18672982. 0.001211 0.002454
38876. 0.80521 0.00253(23) 18682692. 0.001211 0.002656
38880. 0.80529 0.00298(25) 15796421. 0.001211 0.002845
38884. 0.80537 0.00353(28) 13202955. 0.001211 0.003011
38888. 0.80545 0.00335(27) 14010440. 0.001211 0.003145
38892. 0.80553 0.00323(26) 14643448. 0.001211 0.003231
38896. 0.80562 0.00337(27) 13890526. 0.001211 0.003258
38900. 0.80570 0.00315(26) 15054092. 0.001211 0.003220
38904. 0.80578 0.00286(24) 16772977. 0.001211 0.003119
38908. 0.80586 0.00244(23) 19340190. 0.001211 0.002959
38911. 0.80594 0.00223(22) 20407964. 0.001211 0.002767
38915. 0.80602 0.00213(21) 21774298. 0.001211 0.002556
38919. 0.80610 0.00222(22) 21133204. 0.001211 0.002343
38923. 0.80618 0.00236(22) 19899418. 0.001211 0.002143
38927. 0.80626 0.00219(22) 21479126. 0.001211 0.001963
38931. 0.80634 0.00192(20) 24396556. 0.001211 0.001811
38935. 0.80642 0.00193(21) 23617208. 0.001211 0.001688
38939. 0.80650 0.00198(21) 23547892. 0.001211 0.001590
38943. 0.80658 0.00196(21) 22537468. 0.001211 0.001517
38946. 0.80666 0.00165(19) 28711694. 0.001211 0.001465
38950. 0.80674 0.00159(18) 30606084. 0.001212 0.001430
38954. 0.80682 0.00175(19) 27985152. 0.001212 0.001412
38958. 0.80691 0.00199(20) 23805094. 0.001212 0.001407
38962. 0.80699 0.00176(19) 27344090. 0.001212 0.001415
38966. 0.80707 0.00155(18) 31518450. 0.001212 0.001437
38970. 0.80715 0.00178(20) 25914988. 0.001212 0.001474
38974. 0.80723 0.00171(19) 27037546. 0.001212 0.001528
38978. 0.80731 0.00160(18) 30391274. 0.001212 0.001601
38982. 0.80739 0.00195(21) 23525434. 0.001212 0.001694
38985. 0.80747 0.00214(21) 21644262. 0.001212 0.001809
38989. 0.80755 0.00236(22) 20604626. 0.001212 0.001944
38993. 0.80763 0.00280(24) 16661642. 0.001212 0.002098
38997. 0.80771 0.00275(25) 16399580. 0.001212 0.002265
39001. 0.80779 0.00248(23) 19130128. 0.001212 0.002439
39005. 0.80788 0.00262(23) 18809868. 0.001212 0.002612
39009. 0.80796 0.00330(26) 14293356. 0.001212 0.002773
39013. 0.80804 0.00378(28) 12526154. 0.001212 0.002911
39017. 0.80812 0.00370(28) 12771397. 0.001212 0.003016
39021. 0.80820 0.00320(26) 14537357. 0.001212 0.003076
39024. 0.80828 0.00292(25) 15715572. 0.001212 0.003083
39028. 0.80836 0.00261(24) 17855062. 0.001212 0.003033
39032. 0.80844 0.00245(22) 19992002. 0.001212 0.002929
39036. 0.80852 0.00259(23) 19012146. 0.001212 0.002781
39040. 0.80860 0.00264(23) 18203292. 0.001212 0.002604
39044. 0.80868 0.00245(23) 19445220. 0.001212 0.002414
39048. 0.80876 0.00205(21) 23502012. 0.001212 0.002225
39052. 0.80884 0.00185(19) 26666060. 0.001212 0.002045
39056. 0.80893 0.00200(21) 23388650. 0.001213 0.001885
39060. 0.80901 0.00196(20) 23947354. 0.001213 0.001749
39064. 0.80909 0.00193(20) 24093576. 0.001213 0.001636
39067. 0.80917 0.00159(18) 29922832. 0.001213 0.001546
39071. 0.80925 0.00142(17) 33313384. 0.001213 0.001476
39075. 0.80933 0.00153(18) 30276838. 0.001213 0.001422
39079. 0.80941 0.00152(18) 30910868. 0.001213 0.001381
39083. 0.80949 0.00148(18) 32304684. 0.001213 0.001351
39087. 0.80957 0.00156(18) 29818382. 0.001213 0.001329
39091. 0.80966 0.00145(18) 32440506. 0.001213 0.001312
39095. 0.80974 0.00126(16) 37993932. 0.001213 0.001299
39099. 0.80982 0.00127(17) 36006040. 0.001213 0.001290
39103. 0.80990 0.00123(16) 40245956. 0.001213 0.001282
39107. 0.80998 0.00153(18) 30459904. 0.001213 0.001276
39110. 0.81006 0.00177(20) 25649848. 0.001213 0.001271
39114. 0.81014 0.00150(18) 31656892. 0.001213 0.001267
39118. 0.81022 0.00129(16) 37585312. 0.001213 0.001263
39122. 0.81030 0.00127(17) 36344944. 0.001213 0.001259
39126. 0.81038 0.00117(16) 40326740. 0.001213 0.001257
39130. 0.81047 0.00130(16) 37460376. 0.001213 0.001254
39134. 0.81055 0.00135(16) 36862948. 0.001213 0.001252
39138. 0.81063 0.00136(17) 34981040. 0.001213 0.001249
39142. 0.81071 0.00139(17) 32853756. 0.001213 0.001248
39146. 0.81079 0.00119(16) 40824380. 0.001213 0.001246
39150. 0.81087 0.00123(16) 40696580. 0.001213 0.001244
39153. 0.81095 0.00143(17) 33863504. 0.001213 0.001243
39157. 0.81103 0.00130(17) 35759916. 0.001214 0.001242
39161. 0.81111 0.00107(15) 47087960. 0.001214 0.001240
39165. 0.81120 0.00125(16) 38023776. 0.001214 0.001239
39169. 0.81128 0.00124(16) 38408920. 0.001214 0.001238
39173. 0.81136 0.00120(16) 40380972. 0.001214 0.001238
39177. 0.81144 0.00132(16) 37539540. 0.001214 0.001237
39181. 0.81152 0.00142(17) 33754992. 0.001214 0.001236
39185. 0.81160 0.00127(16) 37808044. 0.001214 0.001235
39189. 0.81168 0.00124(16) 36943200. 0.001214 0.001235
39193. 0.81176 0.00126(17) 36659520. 0.001214 0.001234
39197. 0.81184 0.00114(15) 43480608. 0.001214 0.001234
39200. 0.81193 0.00111(15) 44489296. 0.001214 0.001233
39204. 0.81201 0.00125(16) 37226308. 0.001214 0.001233
39208. 0.81209 0.00130(17) 36296184. 0.001214 0.001232
39212. 0.81217 0.00133(17) 35311188. 0.001214 0.001232
39216. 0.81225 0.00124(16) 39042776. 0.001214 0.001232
39220. 0.81233 0.00111(15) 43666520. 0.001214 0.001232
39224. 0.81241 0.00116(16) 40069584. 0.001214 0.001231
39228. 0.81250 0.00115(16) 40584888. 0.001214 0.001231
39232. 0.81258 0.00111(15) 42803484. 0.001214 0.001231
39236. 0.81266 0.00132(17) 35382364. 0.001214 0.001231
39240. 0.81274 0.00140(17) 32927482. 0.001214 0.001231
39244. 0.81282 0.00113(15) 43284644. 0.001214 0.001231
39248. 0.81290 0.00108(15) 46544096. 0.001215 0.001231
39252. 0.81298 0.00128(16) 38096604. 0.001215 0.001231
39255. 0.81307 0.00148(18) 32489682. 0.001215 0.001231
39259. 0.81315 0.00139(17) 35598276. 0.001215 0.001231
39263. 0.81323 0.00120(15) 42326388. 0.001215 0.001231
39267. 0.81331 0.00122(16) 40560936. 0.001215 0.001232
39271. 0.81339 0.00139(17) 35065988. 0.001215 0.001232
39275. 0.81347 0.00146(17) 33729884. 0.001215 0.001232
39279. 0.81355 0.00134(17) 36502868. 0.001215 0.001233
39283. 0.81364 0.00123(16) 38181204. 0.001215 0.001233
39287. 0.81372 0.00130(17) 36341308. 0.001215 0.001233
39291. 0.81380 0.00138(17) 34848424. 0.001215 0.001234
39295. 0.81388 0.00132(16) 37962464. 0.001215 0.001234
39299. 0.81396 0.00128(16) 39043100. 0.001215 0.001235
39303. 0.81404 0.00126(16) 39082344. 0.001215 0.001236
39306. 0.81412 0.00113(15) 44603648. 0.001215 0.001237
39310. 0.81420 0.00105(15) 45874148. 0.001215 0.001238
39314. 0.81429 0.00116(16) 40741420. 0.001215 0.001239
39318. 0.81437 0.00126(16) 39516256. 0.001215 0.001240
39322. 0.81445 0.00130(17) 35881372. 0.001215 0.001240
39326. 0.81453 0.00111(16) 41476464. 0.001215 0.001242
39330. 0.81461 0.00105(15) 46987080. 0.001215 0.001245
39334. 0.81469 0.00123(16) 40093884. 0.001216 0.001248
39338. 0.81477 0.00142(17) 35635496. 0.001216 0.001253
39342. 0.81486 0.00147(17) 33678304. 0.001216 0.001260
39346. 0.81494 0.00132(16) 38425188. 0.001216 0.001269
39350. 0.81502 0.00125(16) 40053656. 0.001216 0.001281
39354. 0.81510 0.00104(14) 49872596. 0.001216 0.001299
39358. 0.81518 0.00100(14) 51174436. 0.001216 0.001322
39362. 0.81526 0.00112(15) 44817072. 0.001216 0.001353
39366. 0.81535 0.00111(15) 43373908. 0.001216 0.001393
39369. 0.81543 0.00117(16) 40654668. 0.001216 0.001443
39373. 0.81551 0.00134(17) 35833780. 0.001216 0.001504
39377. 0.81559 0.00152(18) 31660292. 0.001216 0.001576
39381. 0.81567 0.00168(18) 29855130. 0.001216 0.001656
39385. 0.81575 0.00197(20) 25343912. 0.001216 0.001746
39389. 0.81584 0.00236(22) 20370324. 0.001216 0.001840
39393. 0.81592 0.00237(22) 21353834. 0.001216 0.001933
39397. 0.81600 0.00243(22) 20405280. 0.001216 0.002022
39401. 0.81608 0.00236(22) 21371540. 0.001216 0.002100
39405. 0.81616 0.00244(23) 19601458. 0.001216 0.002161
39409. 0.81624 0.00237(22) 20019790. 0.001216 0.002199
39413. 0.81632 0.00212(20) 24186898. 0.001217 0.002210
39417. 0.81641 0.00234(22) 21018802. 0.001217 0.002191
39421. 0.81649 0.00204(20) 25078852. 0.001217 0.002142
39425. 0.81657 0.00166(18) 30401302. 0.001217 0.002068
39429. 0.81665 0.00170(19) 29012592. 0.001217 0.001976
39433. 0.81673 0.00197(20) 24202088. 0.001217 0.001876
39436. 0.81682 0.00212(21) 22543830. 0.001217 0.001776
39440. 0.81690 0.00185(19) 26567382. 0.001217 0.001680
39444. 0.81698 0.00145(17) 33250898. 0.001217 0.001592
39448. 0.81706 0.00127(16) 38997448. 0.001217 0.001517
39452. 0.81714 0.00144(17) 33670600. 0.001217 0.001454
39456. 0.81722 0.00150(17) 33764496. 0.001217 0.001403
39460. 0.81731 0.00149(17) 33901908. 0.001217 0.001363
39464. 0.81739 0.00143(16) 36871672. 0.001217 0.001332
39468. 0.81747 0.00153(18) 31502254. 0.001217 0.001309
39472. 0.81755 0.00148(18) 31921482. 0.001217 0.001292
39476. 0.81763 0.00143(17) 35633592. 0.001217 0.001279
39480. 0.81771 0.00144(17) 33929684. 0.001217 0.001270
39484. 0.81780 0.00125(16) 39581568. 0.001217 0.001263
39488. 0.81788 0.00112(15) 43712128. 0.001217 0.001257
39492. 0.81796 0.00122(16) 38235440. 0.001218 0.001253
39496. 0.81804 0.00124(16) 38653036. 0.001218 0.001249
39500. 0.81812 0.00112(15) 43465996. 0.001218 0.001245
39504. 0.81821 0.00118(16) 41464300. 0.001218 0.001243
39507. 0.81829 0.00141(17) 34882944. 0.001218 0.001241
39511. 0.81837 0.00142(17) 34675048. 0.001218 0.001239
39515. 0.81845 0.00137(17) 34639472. 0.001218 0.001237
39519. 0.81853 0.00123(16) 41227100. 0.001218 0.001236
39523. 0.81862 0.00115(15) 44115508. 0.001218 0.001237
39527. 0.81870 0.00108(14) 48318952. 0.001218 0.001236
39531. 0.81878 0.00114(15) 43258728. 0.001218 0.001235
39535. 0.81886 0.00123(16) 40246232. 0.001218 0.001234
39539. 0.81894 0.00146(18) 32422524. 0.001218 0.001233
39543. 0.81902 0.00136(16) 36752352. 0.001218 0.001233
39547. 0.81911 0.00121(15) 41975804. 0.001218 0.001232
39551. 0.81919 0.00109(15) 46440460. 0.001218 0.001231
39555. 0.81927 0.00115(15) 42703800. 0.001218 0.001231
39559. 0.81935 0.00130(17) 36632496. 0.001218 0.001230
39563. 0.81943 0.00107(14) 48505040. 0.001218 0.001230
39567. 0.81952 0.00100(14) 51092676. 0.001219 0.001230
39571. 0.81960 0.00098(14) 50182084. 0.001219 0.001229
39575. 0.81968 0.00108(15) 45112072. 0.001219 0.001229
39579. 0.81976 0.00123(16) 41238676. 0.001219 0.001229
39583. 0.81984 0.00129(16) 38710488. 0.001219 0.001228
39587. 0.81993 0.00119(15) 41623540. 0.001219 0.001228
39591. 0.82001 0.00115(15) 43271392. 0.001219 0.001228
39595. 0.82009 0.00112(16) 40837112. 0.001219 0.001228
39598. 0.82017 0.00083(13) 58594488. 0.001219 0.001228
39602. 0.82025 0.00092(14) 51920880. 0.001219 0.001228
39606. 0.82034 0.00111(15) 45158388. 0.001219 0.001227
39610. 0.82042 0.00128(16) 41093744. 0.001219 0.001227
39614. 0.82050 0.00141(17) 36701560. 0.001219 0.001227
39618. 0.82058 0.00127(16) 38774112. 0.001219 0.001227
39622. 0.82066 0.00102(14) 47761540. 0.001219 0.001227
39626. 0.82075 0.00110(15) 43085532. 0.001219 0.001227
39630. 0.82083 0.00112(15) 45404584. 0.001219 0.001227
39634. 0.82091 0.00110(14) 48540208. 0.001219 0.001227
39638. 0.82099 0.00116(15) 43791492. 0.001219 0.001227
39642. 0.82107 0.00111(15) 47530728. 0.001220 0.001227
39646. 0.82116 0.00110(15) 47084164. 0.001220 0.001227
39650. 0.82124 0.00117(15) 42162568. 0.001220 0.001227
39654. 0.82132 0.00119(15) 42169800. 0.001220 0.001227
39658. 0.82140 0.00115(15) 43777732. 0.001220 0.001227
39662. 0.82149 0.00117(15) 45596308. 0.001220 0.001227
39666. 0.82157 0.00127(16) 40937268. 0.001220 0.001227
39670. 0.82165 0.00117(15) 44228064. 0.001220 0.001227
39674. 0.82173 0.00123(16) 41536240. 0.001220 0.001227
39678. 0.82181 0.00152(17) 33456446. 0.001220 0.001227
39682. 0.82190 0.00156(18) 31842220. 0.001220 0.001227
39686. 0.82198 0.00137(16) 36876800. 0.001220 0.001227
39690. 0.82206 0.00142(17) 34670008. 0.001220 0.001227
39694. 0.82214 0.00140(17) 34171888. 0.001220 0.001228
39698. 0.82223 0.00132(17) 36429244. 0.001220 0.001228
39702. 0.82231 0.00140(17) 34708852. 0.001220 0.001228
39706. 0.82239 0.00146(17) 33819980. 0.001220 0.001228
39710. 0.82247 0.00139(17) 36061680. 0.001221 0.001228
39714. 0.82256 0.00129(16) 39726276. 0.001221 0.001228
39717. 0.82264 0.00132(16) 39183860. 0.001221 0.001228
39721. 0.82272 0.00123(15) 42920336. 0.001221 0.001228
39725. 0.82280 0.00107(14) 50352996. 0.001221 0.001229
39729. 0.82288 0.00110(15) 47545928. 0.001221 0.001229
39733. 0.82297 0.00113(15) 45818240. 0.001221 0.001229
39737. 0.82305 0.00108(14) 49332400. 0.001221 0.001230
39741. 0.82313 0.00118(15) 43950612. 0.001221 0.001230
39745. 0.82322 0.00137(17) 36368532. 0.001221 0.001230
39749. 0.82330 0.00133(16) 38064804. 0.001221 0.001230
39753. 0.82338 0.00113(15) 44560484. 0.001221 0.001230
39757. 0.82346 0.00107(15) 44632888. 0.001221 0.001231
39761. 0.82354 0.00107(14) 47727044. 0.001221 0.001231
39765. 0.82363 0.00115(15) 46561456. 0.001221 0.001231
39769. 0.82371 0.00127(16) 40583176. 0.001221 0.001231
39773. 0.82379 0.00117(15) 45343908. 0.001221 0.001232
39777. 0.82387 0.00126(16) 40973604. 0.001221 0.001232
39781. 0.82395 0.00137(16) 37363164. 0.001222 0.001232
39785. 0.82404 0.00133(16) 38530724. 0.001222 0.001233
39789. 0.82412 0.00117(15) 43881236. 0.001222 0.001233
39793. 0.82420 0.00129(17) 36530568. 0.001222 0.001233
39797. 0.82428 0.00118(15) 41699652. 0.001222 0.001234
39801. 0.82437 0.00113(15) 45245448. 0.001222 0.001234
39805. 0.82445 0.00126(16) 39612452. 0.001222 0.001235
39809. 0.82453 0.00113(15) 44079708. 0.001222 0.001235
39813. 0.82462 0.00098(14) 50086552. 0.001222 0.001236
39817. 0.82470 0.00098(13) 54909952. 0.001222 0.001236
39821. 0.82478 0.00120(15) 43969988. 0.001222 0.001237
39825. 0.82486 0.00131(16) 38943184. 0.001222 0.001237
39829. 0.82494 0.00137(16) 36895004. 0.001222 0.001238
39833. 0.82503 0.00155(18) 31691558. 0.001222 0.001238
39837. 0.82511 0.00165(18) 30498100. 0.001222 0.001242
39841. 0.82519 0.00163(18) 31550348. 0.001222 0.001243
39845. 0.82528 0.00166(18) 29512922. 0.001223 0.001243
39849. 0.82536 0.00146(17) 35336096. 0.001223 0.001244
39853. 0.82544 0.00140(17) 36275752. 0.001223 0.001245
39857. 0.82552 0.00130(16) 37979536. 0.001223 0.001246
39861. 0.82561 0.00115(15) 44294428. 0.001223 0.001247
39865. 0.82569 0.00138(17) 34355332. 0.001223 0.001248
39869. 0.82577 0.00136(17) 33989676. 0.001223 0.001250
39873. 0.82585 0.00110(15) 44211128. 0.001223 0.001251
39877. 0.82594 0.00112(15) 43614492. 0.001223 0.001252
39881. 0.82602 0.00127(16) 38774352. 0.001223 0.001254
39885. 0.82610 0.00141(17) 33577904. 0.001223 0.001256
39889. 0.82618 0.00146(18) 31363922. 0.001223 0.001257
39893. 0.82627 0.00139(17) 32904294. 0.001223 0.001259
39897. 0.82635 0.00120(16) 39117044. 0.001223 0.001261
39901. 0.82643 0.00128(17) 36650092. 0.001223 0.001264
39905. 0.82652 0.00138(17) 33175652. 0.001223 0.001266
39909. 0.82660 0.00121(17) 36032444. 0.001223 0.001270
39913. 0.82668 0.00109(16) 41548592. 0.001224 0.001274
39917. 0.82676 0.00118(16) 40485960. 0.001224 0.001278
39921. 0.82684 0.00133(17) 34120716. 0.001224 0.001284
39925. 0.82693 0.00144(18) 30792802. 0.001224 0.001292
39929. 0.82701 0.00141(17) 32928564. 0.001224 0.001302
39933. 0.82709 0.00141(18) 32444518. 0.001224 0.001315
39937. 0.82718 0.00127(17) 35623080. 0.001224 0.001334
39941. 0.82726 0.00131(17) 33501224. 0.001224 0.001360
39945. 0.82734 0.00131(17) 32785518. 0.001224 0.001394
39949. 0.82743 0.00142(18) 30927716. 0.001224 0.001440
39953. 0.82751 0.00171(20) 25732008. 0.001224 0.001501
39957. 0.82759 0.00175(20) 24877196. 0.001224 0.001578
39961. 0.82767 0.00165(19) 26793658. 0.001224 0.001674
39965. 0.82776 0.00176(20) 25284374. 0.001224 0.001790
39969. 0.82784 0.00206(22) 20622218. 0.001224 0.001926
39973. 0.82792 0.00206(22) 20317016. 0.001224 0.002080
39977. 0.82801 0.00207(22) 20375882. 0.001225 0.002247
39981. 0.82809 0.00241(24) 17182208. 0.001225 0.002422
39985. 0.82817 0.00261(25) 15851624. 0.001225 0.002597
39989. 0.82825 0.00261(25) 15997581. 0.001225 0.002763
39993. 0.82834 0.00257(25) 16086923. 0.001225 0.002910
39997. 0.82842 0.00259(25) 15595343. 0.001225 0.003027
40001. 0.82850 0.00264(26) 15142372. 0.001225 0.003104
40004. 0.82858 0.00252(25) 16554333. 0.001225 0.003133
40009. 0.82867 0.00269(26) 14722945. 0.001225 0.003109
40013. 0.82875 0.00277(27) 14019023. 0.001225 0.003035
40017. 0.82883 0.00249(25) 15769556. 0.001225 0.002919
40021. 0.82892 0.00248(25) 15579222. 0.001225 0.002775
40025. 0.82900 0.00273(27) 13740577. 0.001225 0.002619
40029. 0.82908 0.00253(26) 15149733. 0.001225 0.002464
40033. 0.82917 0.00242(25) 15753137. 0.001225 0.002319
40037. 0.82925 0.00257(26) 14308415. 0.001225 0.002192
40041. 0.82933 0.00239(25) 15714091. 0.001226 0.002084
40045. 0.82941 0.00208(23) 18796526. 0.001226 0.001994
40049. 0.82950 0.00198(23) 19616520. 0.001226 0.001921
40053. 0.82958 0.00185(21) 21747200. 0.001226 0.001859
40057. 0.82966 0.00181(21) 21864422. 0.001226 0.001805
40061. 0.82975 0.00168(21) 23144146. 0.001226 0.001754
40065. 0.82983 0.00162(20) 24817928. 0.001226 0.001704
40069. 0.82991 0.00179(21) 22237622. 0.001226 0.001654
40073. 0.82999 0.00176(21) 21789294. 0.001226 0.001605
40077. 0.83008 0.00149(19) 27114296. 0.001226 0.001557
40081. 0.83016 0.00160(20) 24042000. 0.001226 0.001512
40085. 0.83024 0.00148(20) 25312624. 0.001226 0.001471
40089. 0.83033 0.00112(17) 34764928. 0.001226 0.001436
40093. 0.83041 0.00110(17) 34607836. 0.001226 0.001405
40097. 0.83049 0.00121(18) 32208982. 0.001226 0.001380
40101. 0.83058 0.00141(19) 27039846. 0.001226 0.001359
40105. 0.83066 0.00157(21) 23684422. 0.001227 0.001342
40109. 0.83074 0.00158(20) 23846256. 0.001227 0.001329
40113. 0.83082 0.00162(21) 22749214. 0.001227 0.001319
40117. 0.83091 0.00150(20) 23910758. 0.001227 0.001312
40121. 0.83099 0.00133(19) 27172130. 0.001227 0.001306
40125. 0.83108 0.00123(19) 28874408. 0.001227 0.001303
40129. 0.83116 0.00123(18) 30014560. 0.001227 0.001300
40133. 0.83124 0.00125(18) 32311896. 0.001227 0.001299
40137. 0.83132 0.00126(18) 30844870. 0.001227 0.001299
40141. 0.83141 0.00122(18) 30932318. 0.001227 0.001301
40145. 0.83149 0.00119(17) 34086688. 0.001227 0.001304
40149. 0.83157 0.00137(19) 28403212. 0.001227 0.001309
40153. 0.83166 0.00142(19) 26319932. 0.001227 0.001317
40157. 0.83174 0.00146(20) 24595464. 0.001227 0.001328
40161. 0.83182 0.00136(19) 27869596. 0.001227 0.001343
40165. 0.83191 0.00147(20) 25638100. 0.001228 0.001362
40169. 0.83199 0.00136(19) 26996650. 0.001228 0.001386
40173. 0.83207 0.00118(18) 29728394. 0.001228 0.001416
40177. 0.83216 0.00124(19) 28368662. 0.001228 0.001450
40181. 0.83224 0.00158(21) 22871024. 0.001228 0.001492
40185. 0.83232 0.00191(23) 19012222. 0.001228 0.001534
40189. 0.83241 0.00187(23) 19229052. 0.001228 0.001578
40193. 0.83249 0.00213(25) 15886979. 0.001228 0.001622
40197. 0.83257 0.00207(25) 16622490. 0.001228 0.001663
40201. 0.83266 0.00170(22) 21573260. 0.001228 0.001699
40205. 0.83274 0.00160(21) 22769470. 0.001228 0.001727
40209. 0.83282 0.00144(20) 25322666. 0.001228 0.001745
40213. 0.83291 0.00179(22) 20009004. 0.001228 0.001751
40217. 0.83299 0.00204(24) 17708760. 0.001228 0.001743
40221. 0.83307 0.00175(22) 20576758. 0.001228 0.001723
40225. 0.83316 0.00169(22) 20850606. 0.001228 0.001693
40229. 0.83324 0.00150(20) 25064580. 0.001229 0.001657
40233. 0.83332 0.00164(21) 21691792. 0.001229 0.001619
40237. 0.83341 0.00176(22) 19771060. 0.001229 0.001584
40241. 0.83349 0.00152(21) 23456954. 0.001229 0.001554
40245. 0.83357 0.00139(20) 25433464. 0.001229 0.001534
40249. 0.83366 0.00146(21) 23079354. 0.001229 0.001527
40253. 0.83374 0.00133(19) 27172780. 0.001229 0.001536
40257. 0.83382 0.00145(19) 26948970. 0.001229 0.001562
40261. 0.83391 0.00158(21) 23624186. 0.001229 0.001611
40265. 0.83399 0.00155(21) 23013908. 0.001229 0.001684
40269. 0.83407 0.00191(23) 18329930. 0.001229 0.001785
40273. 0.83416 0.00219(25) 15562059. 0.001229 0.001916
40278. 0.83424 0.00218(26) 15280990. 0.001229 0.002079
40282. 0.83432 0.00229(26) 15311776. 0.001229 0.002270
40286. 0.83441 0.00248(26) 14311705. 0.001229 0.002487
40290. 0.83449 0.00241(26) 15336511. 0.001230 0.002727
40294. 0.83457 0.00276(28) 12796876. 0.001230 0.002979
40298. 0.83466 0.00326(30) 10883934. 0.001230 0.003228
40302. 0.83474 0.00367(32) 9712356. 0.001230 0.003466
40306. 0.83483 0.00374(33) 9153490. 0.001230 0.003675
40310. 0.83491 0.00360(32) 9790399. 0.001230 0.003837
40314. 0.83499 0.00364(31) 10089159. 0.001230 0.003940
40318. 0.83508 0.00376(33) 9105917. 0.001230 0.003968
40322. 0.83516 0.00303(29) 11524792. 0.001230 0.003914
40326. 0.83524 0.00291(29) 12056618. 0.001230 0.003780
40330. 0.83533 0.00309(30) 10932691. 0.001230 0.003579
40334. 0.83541 0.00266(27) 13250306. 0.001230 0.003334
40338. 0.83549 0.00240(26) 14875908. 0.001230 0.003061
40342. 0.83558 0.00217(25) 15640717. 0.001230 0.002786
40346. 0.83566 0.00164(22) 20680108. 0.001230 0.002525
40350. 0.83575 0.00167(22) 19937850. 0.001231 0.002288
40354. 0.83583 0.00176(22) 21039014. 0.001231 0.002085
40358. 0.83591 0.00192(23) 19517146. 0.001231 0.001914
40362. 0.83599 0.00191(23) 18746256. 0.001231 0.001774
40366. 0.83608 0.00172(22) 20691880. 0.001231 0.001662
40370. 0.83616 0.00188(23) 18884880. 0.001231 0.001576
40374. 0.83625 0.00217(26) 15179910. 0.001231 0.001510
40378. 0.83633 0.00176(22) 20145344. 0.001231 0.001461
40382. 0.83641 0.00172(22) 21381028. 0.001231 0.001427
40386. 0.83650 0.00205(24) 17140422. 0.001231 0.001400
40390. 0.83658 0.00205(25) 16346421. 0.001231 0.001379
40394. 0.83666 0.00168(22) 20993864. 0.001231 0.001364
40399. 0.83675 0.00160(21) 22088536. 0.001231 0.001351
40403. 0.83683 0.00139(19) 26323872. 0.001231 0.001342
40407. 0.83692 0.00137(20) 25457328. 0.001231 0.001333
40411. 0.83700 0.00143(20) 24866582. 0.001232 0.001327
40415. 0.83708 0.00141(20) 25972632. 0.001232 0.001321
40419. 0.83717 0.00136(19) 26812084. 0.001232 0.001316
40423. 0.83725 0.00123(18) 29761786. 0.001232 0.001312
40427. 0.83733 0.00130(19) 28368008. 0.001232 0.001308
40431. 0.83742 0.00150(20) 25414020. 0.001232 0.001305
40435. 0.83750 0.00151(21) 23758214. 0.001232 0.001302
40439. 0.83759 0.00121(18) 30012296. 0.001232 0.001300
40443. 0.83767 0.00102(17) 36540780. 0.001232 0.001298
40447. 0.83775 0.00095(16) 40191180. 0.001232 0.001296
40451. 0.83784 0.00108(17) 36729584. 0.001232 0.001294
40455. 0.83792 0.00136(19) 27352798. 0.001232 0.001293
40459. 0.83800 0.00129(19) 28893760. 0.001232 0.001292
40463. 0.83809 0.00120(18) 31440798. 0.001232 0.001291
40467. 0.83817 0.00098(16) 41250460. 0.001233 0.001290
40471. 0.83826 0.00094(15) 42894864. 0.001233 0.001290
40475. 0.83834 0.00113(17) 33412908. 0.001233 0.001289
40479. 0.83842 0.00105(17) 35765288. 0.001233 0.001287
40483. 0.83851 0.00108(17) 36236984. 0.001233 0.001287
40488. 0.83859 0.00138(19) 28196240. 0.001233 0.001287
40492. 0.83867 0.00125(17) 33460214. 0.001233 0.001288
40496. 0.83876 0.00114(17) 35375464. 0.001233 0.001288
40500. 0.83884 0.00131(18) 29539886. 0.001233 0.001289
40504. 0.83893 0.00141(19) 27927172. 0.001233 0.001290
40508. 0.83901 0.00149(19) 26777244. 0.001233 0.001291
40512. 0.83910 0.00153(19) 26800088. 0.001233 0.001292
40516. 0.83918 0.00136(18) 31716938. 0.001233 0.001293
40520. 0.83926 0.00135(18) 30949274. 0.001233 0.001295
40524. 0.83935 0.00122(17) 35432764. 0.001233 0.001296
40528. 0.83943 0.00122(17) 36664112. 0.001234 0.001299
40532. 0.83952 0.00130(17) 32854560. 0.001234 0.001301
40536. 0.83960 0.00126(17) 33657588. 0.001234 0.001303
40540. 0.83968 0.00130(18) 32489786. 0.001234 0.001306
40544. 0.83977 0.00124(17) 35302936. 0.001234 0.001309
40548. 0.83985 0.00104(16) 40769800. 0.001234 0.001313
40552. 0.83993 0.00096(15) 46928604. 0.001234 0.001317
40556. 0.84002 0.00114(16) 37584948. 0.001234 0.001321
40560. 0.84010 0.00115(16) 38087572. 0.001234 0.001327
40565. 0.84019 0.00124(17) 34926312. 0.001234 0.001333
40569. 0.84027 0.00124(16) 37755256. 0.001234 0.001340
40573. 0.84036 0.00115(15) 42797592. 0.001234 0.001349
40577. 0.84044 0.00122(16) 37796484. 0.001234 0.001361
40581. 0.84052 0.00118(16) 39673588. 0.001234 0.001376
40585. 0.84061 0.00124(16) 37863984. 0.001234 0.001396
40589. 0.84069 0.00135(17) 35390196. 0.001235 0.001425
40593. 0.84078 0.00126(16) 40107444. 0.001235 0.001465
40597. 0.84086 0.00119(16) 41309576. 0.001235 0.001521
40601. 0.84094 0.00122(16) 40052392. 0.001235 0.001598
40605. 0.84103 0.00150(18) 32065348. 0.001235 0.001703
40609. 0.84111 0.00176(19) 27925936. 0.001235 0.001842
40613. 0.84120 0.00178(19) 27535434. 0.001235 0.002025
40617. 0.84128 0.00196(20) 24392764. 0.001235 0.002254
40621. 0.84136 0.00241(22) 20465850. 0.001235 0.002534
40625. 0.84145 0.00281(24) 17597574. 0.001235 0.002869
40630. 0.84153 0.00297(24) 16775580. 0.001235 0.003246
40634. 0.84162 0.00352(26) 14943890. 0.001235 0.003659
40638. 0.84170 0.00489(31) 10479330. 0.001235 0.004091
40642. 0.84178 0.00599(34) 8523455. 0.001235 0.004523
40646. 0.84187 0.0064(4) 7971726. 0.00124 0.00494
40650. 0.84195 0.00622(35) 8154456. 0.001236 0.005290
40654. 0.84204 0.00605(34) 8592876. 0.001236 0.005565
40658. 0.84212 0.00590(34) 8858110. 0.001236 0.005733
40662. 0.84221 0.00561(33) 9301754. 0.001236 0.005769
40666. 0.84229 0.00550(33) 9213155. 0.001236 0.005664
40670. 0.84238 0.00506(31) 10415899. 0.001236 0.005426
40674. 0.84246 0.00448(29) 11670581. 0.001236 0.005076
40678. 0.84254 0.00368(26) 14880352. 0.001236 0.004652
40682. 0.84263 0.00363(26) 15020851. 0.001236 0.004187
40686. 0.84271 0.00344(25) 15804097. 0.001236 0.003722
40691. 0.84280 0.00303(23) 18466246. 0.001236 0.003292
40695. 0.84288 0.00307(23) 18361264. 0.001236 0.002910
40699. 0.84297 0.00288(23) 18865004. 0.001236 0.002583
40703. 0.84305 0.00254(22) 20909370. 0.001236 0.002321
40707. 0.84313 0.00231(21) 23548050. 0.001236 0.002122
40711. 0.84322 0.00227(20) 23867784. 0.001237 0.001979
40715. 0.84330 0.00233(21) 23503928. 0.001237 0.001892
40719. 0.84339 0.00230(20) 24168466. 0.001237 0.001856
40723. 0.84347 0.00216(20) 26008362. 0.001237 0.001866
40727. 0.84356 0.00212(20) 25431602. 0.001237 0.001920
40731. 0.84364 0.00207(19) 26629088. 0.001237 0.002013
40735. 0.84373 0.00216(19) 26347002. 0.001237 0.002140
40739. 0.84381 0.00233(20) 23979380. 0.001237 0.002298
40743. 0.84389 0.00258(22) 21108718. 0.001237 0.002479
40748. 0.84398 0.00287(23) 19306432. 0.001237 0.002672
40752. 0.84406 0.00310(24) 17470758. 0.001237 0.002862
40756. 0.84415 0.00288(23) 19552180. 0.001237 0.003038
40760. 0.84423 0.00288(23) 19590734. 0.001237 0.003187
40764. 0.84432 0.00304(23) 18454260. 0.001237 0.003292
40768. 0.84440 0.00319(24) 17208994. 0.001238 0.003340
40772. 0.84448 0.00304(23) 18520294. 0.001238 0.003325
40776. 0.84457 0.00293(23) 19207596. 0.001238 0.003242
40780. 0.84465 0.00263(22) 21481424. 0.001238 0.003100
40784. 0.84474 0.00236(20) 23945206. 0.001238 0.002912
40788. 0.84482 0.00245(21) 22402970. 0.001238 0.002698
40792. 0.84491 0.00229(20) 25214368. 0.001238 0.002477
40796. 0.84499 0.00200(19) 29185128. 0.001238 0.002260
40801. 0.84508 0.00202(19) 28387030. 0.001238 0.002063
40805. 0.84516 0.00210(19) 27172670. 0.001238 0.001893
40809. 0.84524 0.00200(18) 29445888. 0.001238 0.001752
40813. 0.84533 0.00198(19) 28490438. 0.001238 0.001636
40817. 0.84541 0.00166(17) 34859360. 0.001238 0.001547
40821. 0.84550 0.00149(16) 39002944. 0.001238 0.001480
40825. 0.84558 0.00153(16) 37244820. 0.001238 0.001430
40829. 0.84567 0.00175(18) 31989260. 0.001239 0.001394
40833. 0.84575 0.00165(17) 34786124. 0.001239 0.001369
40837. 0.84584 0.00149(16) 39010404. 0.001239 0.001350
40841. 0.84592 0.00148(16) 38463108. 0.001239 0.001334
40845. 0.84601 0.00144(16) 39075376. 0.001239 0.001323
40850. 0.84609 0.00152(17) 36604656. 0.001239 0.001315
40854. 0.84618 0.00153(17) 35749412. 0.001239 0.001309
40858. 0.84626 0.00146(16) 37424456. 0.001239 0.001303
40862. 0.84635 0.00144(16) 37570196. 0.001239 0.001299
40866. 0.84643 0.00141(16) 38590320. 0.001239 0.001295
40870. 0.84651 0.00137(16) 39693192. 0.001239 0.001292
40874. 0.84660 0.00141(16) 39273616. 0.001239 0.001289
40878. 0.84668 0.00148(16) 37205172. 0.001239 0.001286
40882. 0.84677 0.00152(17) 36717892. 0.001239 0.001283
40886. 0.84685 0.00147(16) 39587648. 0.001239 0.001281
40890. 0.84694 0.00154(16) 37433076. 0.001240 0.001279
40895. 0.84702 0.00160(17) 34002668. 0.001240 0.001277
40899. 0.84711 0.00133(16) 40998988. 0.001240 0.001275
40903. 0.84719 0.00121(15) 44488156. 0.001240 0.001274
40907. 0.84728 0.00127(15) 43783448. 0.001240 0.001272
40911. 0.84736 0.00136(15) 41847084. 0.001240 0.001271
40915. 0.84745 0.00145(16) 39209348. 0.001240 0.001270
40919. 0.84753 0.00149(16) 38378864. 0.001240 0.001268
40923. 0.84762 0.00156(17) 36451348. 0.001240 0.001267
40927. 0.84770 0.00172(17) 33048742. 0.001240 0.001266
40931. 0.84779 0.00157(16) 37362448. 0.001240 0.001265
40935. 0.84787 0.00142(16) 40506808. 0.001240 0.001265
40940. 0.84796 0.00137(15) 41717964. 0.001240 0.001264
40944. 0.84804 0.00132(15) 44057660. 0.001240 0.001263
40948. 0.84813 0.00139(16) 39671752. 0.001240 0.001262
40952. 0.84821 0.00131(15) 42571764. 0.001241 0.001262
40956. 0.84830 0.00122(15) 46700900. 0.001241 0.001261
40960. 0.84838 0.00130(15) 41823904. 0.001241 0.001261
40964. 0.84846 0.00111(14) 51139528. 0.001241 0.001260
40968. 0.84855 0.00108(14) 54483096. 0.001241 0.001260
40972. 0.84863 0.00140(16) 40620856. 0.001241 0.001259
40976. 0.84872 0.00147(16) 38210024. 0.001241 0.001259
40980. 0.84880 0.00126(15) 44750936. 0.001241 0.001258
40985. 0.84889 0.00105(13) 55361284. 0.001241 0.001258
40989. 0.84897 0.00097(13) 62107176. 0.001241 0.001258
40993. 0.84906 0.00116(15) 47530292. 0.001241 0.001257
40997. 0.84914 0.00130(15) 44699896. 0.001241 0.001257
41001. 0.84923 0.00149(16) 39342848. 0.001241 0.001257
41005. 0.84931 0.00147(16) 39008924. 0.001241 0.001256
41009. 0.84940 0.00146(16) 37678228. 0.001241 0.001256
41013. 0.84948 0.00139(16) 39939932. 0.001241 0.001256
41017. 0.84957 0.00114(13) 55004724. 0.001242 0.001256
41022. 0.84966 0.00124(14) 49209628. 0.001242 0.001256
41026. 0.84974 0.00148(17) 36630792. 0.001242 0.001255
41030. 0.84982 0.00144(16) 37956184. 0.001242 0.001255
41034. 0.84991 0.00149(16) 38147644. 0.001242 0.001255
41038. 0.84999 0.00139(15) 42986872. 0.001242 0.001255
41042. 0.85008 0.00133(15) 42812588. 0.001242 0.001255
41046. 0.85017 0.00133(15) 41861596. 0.001242 0.001255
41050. 0.85025 0.00113(14) 51716688. 0.001242 0.001255
41054. 0.85034 0.00112(14) 51788600. 0.001242 0.001255
41058. 0.85042 0.00115(14) 50653948. 0.001242 0.001255
41063. 0.85050 0.00118(14) 48686096. 0.001242 0.001255
41067. 0.85059 0.00120(15) 47159272. 0.001242 0.001255
41071. 0.85067 0.00126(15) 45054180. 0.001242 0.001255
41075. 0.85076 0.00156(17) 35875356. 0.001242 0.001255
41079. 0.85084 0.00161(17) 34924556. 0.001243 0.001255
41083. 0.85093 0.00141(16) 40078836. 0.001243 0.001255
41087. 0.85101 0.00121(14) 48896088. 0.001243 0.001256
41091. 0.85110 0.00116(14) 48838268. 0.001243 0.001256
41095. 0.85118 0.00112(14) 50183880. 0.001243 0.001256
41100. 0.85127 0.00108(14) 51169904. 0.001243 0.001256
41104. 0.85136 0.00101(13) 56120768. 0.001243 0.001257
41108. 0.85144 0.00100(13) 56588800. 0.001243 0.001257
41112. 0.85153 0.00119(15) 46478780. 0.001243 0.001259
41116. 0.85161 0.00124(15) 43990432. 0.001243 0.001259
41120. 0.85170 0.00114(14) 49823980. 0.001243 0.001260
41124. 0.85178 0.00117(14) 49832252. 0.001243 0.001261
41128. 0.85187 0.00118(14) 51299648. 0.001243 0.001262
41132. 0.85195 0.00136(16) 41516004. 0.001243 0.001263
41137. 0.85204 0.00130(15) 44265828. 0.001243 0.001261
41141. 0.85212 0.00117(14) 51015500. 0.001244 0.001264
41145. 0.85221 0.00129(15) 43993364. 0.001244 0.001268
41149. 0.85229 0.00135(15) 42723980. 0.001244 0.001274
41153. 0.85238 0.00139(16) 40350712. 0.001244 0.001281
41157. 0.85246 0.00131(15) 43999404. 0.001244 0.001292
41161. 0.85255 0.00131(15) 41910956. 0.001244 0.001306
41165. 0.85263 0.00122(15) 46320284. 0.001244 0.001325
41169. 0.85272 0.00130(15) 43517812. 0.001244 0.001349
41174. 0.85280 0.00129(15) 43768740. 0.001244 0.001378
41178. 0.85289 0.00118(14) 48829824. 0.001244 0.001414
41182. 0.85298 0.00128(15) 43755208. 0.001244 0.001455
41186. 0.85306 0.00142(16) 39827864. 0.001244 0.001500
41190. 0.85315 0.00154(17) 36517016. 0.001244 0.001553
41194. 0.85323 0.00161(17) 35670584. 0.001244 0.001601
41198. 0.85332 0.00167(17) 35287308. 0.001244 0.001645
41202. 0.85340 0.00188(18) 29744154. 0.001244 0.001686
41207. 0.85349 0.00175(17) 33121854. 0.001245 0.001717
41211. 0.85357 0.00165(17) 35638432. 0.001245 0.001737
41215. 0.85366 0.00167(17) 35237632. 0.001245 0.001742
41219. 0.85375 0.00173(18) 32447906. 0.001245 0.001732
41223. 0.85383 0.00155(16) 40036772. 0.001245 0.001707
41227. 0.85392 0.00157(16) 39033624. 0.001245 0.001669
41231. 0.85400 0.00162(17) 36276648. 0.001245 0.001623
41235. 0.85409 0.00159(16) 37568752. 0.001245 0.001572
41240. 0.85417 0.00155(16) 37745552. 0.001245 0.001521
41244. 0.85426 0.00140(15) 41801684. 0.001245 0.001473
41248. 0.85434 0.00142(16) 40869464. 0.001245 0.001429
41252. 0.85443 0.00143(16) 38773372. 0.001245 0.001393
41256. 0.85451 0.00132(15) 44302492. 0.001245 0.001362
41260. 0.85460 0.00143(16) 39359056. 0.001245 0.001338
41264. 0.85468 0.00136(15) 41982716. 0.001245 0.001319
41268. 0.85477 0.00116(14) 50769956. 0.001245 0.001305
41273. 0.85486 0.00108(14) 52156648. 0.001246 0.001295
41277. 0.85494 0.00115(14) 48651456. 0.001246 0.001287
41281. 0.85503 0.00114(14) 52495932. 0.001246 0.001282
41285. 0.85511 0.00114(14) 52323008. 0.001246 0.001278
41289. 0.85520 0.00132(15) 42823300. 0.001246 0.001275
41293. 0.85528 0.00129(15) 43539556. 0.001246 0.001273
41297. 0.85537 0.00119(14) 49489440. 0.001246 0.001272
41301. 0.85545 0.00141(16) 40357252. 0.001246 0.001271
41306. 0.85554 0.00147(16) 39876568. 0.001246 0.001270
41310. 0.85562 0.00143(15) 42239248. 0.001246 0.001269
41314. 0.85571 0.00131(15) 43790108. 0.001246 0.001269
41318. 0.85580 0.00120(15) 47560524. 0.001246 0.001268
41322. 0.85588 0.00117(14) 52012120. 0.001246 0.001268
41326. 0.85597 0.00119(14) 48949996. 0.001246 0.001268
41330. 0.85605 0.00112(14) 51029312. 0.001246 0.001268
41334. 0.85614 0.00104(13) 55789372. 0.001246 0.001268
41339. 0.85623 0.00112(14) 49534440. 0.001247 0.001268
41343. 0.85631 0.00121(14) 47605884. 0.001247 0.001271
41347. 0.85640 0.00122(14) 47626464. 0.001247 0.001271
41351. 0.85648 0.00117(14) 50956016. 0.001247 0.001271
41355. 0.85657 0.00116(14) 50693528. 0.001247 0.001274
41359. 0.85665 0.00115(14) 52054668. 0.001247 0.001274
41363. 0.85674 0.00136(15) 42440864. 0.001247 0.001274
41368. 0.85682 0.00123(14) 48783328. 0.001247 0.001275
41372. 0.85691 0.00116(14) 52278684. 0.001247 0.001275
41376. 0.85700 0.00129(14) 47689912. 0.001247 0.001276
41380. 0.85708 0.00136(15) 42111408. 0.001247 0.001277
41384. 0.85717 0.00123(15) 46154076. 0.001247 0.001277
41388. 0.85725 0.00119(14) 48697000. 0.001247 0.001278
41392. 0.85734 0.00111(14) 54404692. 0.001247 0.001279
41397. 0.85742 0.00102(13) 56839456. 0.001247 0.001279
41401. 0.85751 0.00101(13) 58023940. 0.001247 0.001280
41405. 0.85760 0.00115(14) 48773592. 0.001247 0.001281
41409. 0.85768 0.00124(15) 45445508. 0.001248 0.001282
41413. 0.85777 0.00130(15) 44840572. 0.001248 0.001284
41417. 0.85785 0.00123(14) 49673432. 0.001248 0.001285
41421. 0.85794 0.00114(14) 54469968. 0.001248 0.001286
41426. 0.85803 0.00126(14) 47777448. 0.001248 0.001287
41430. 0.85811 0.00128(15) 46874420. 0.001248 0.001288
41434. 0.85820 0.00130(15) 44872676. 0.001248 0.001290
41438. 0.85828 0.00129(15) 46570184. 0.001248 0.001291
41442. 0.85837 0.00137(15) 42371744. 0.001248 0.001293
41446. 0.85845 0.00134(15) 42316360. 0.001248 0.001294
41450. 0.85854 0.00115(14) 50266336. 0.001248 0.001296
41455. 0.85863 0.00116(14) 48409916. 0.001248 0.001298
41459. 0.85871 0.00130(15) 44189932. 0.001248 0.001300
41463. 0.85880 0.00132(15) 43288204. 0.001248 0.001302
41467. 0.85888 0.00120(14) 47925564. 0.001248 0.001305
41471. 0.85897 0.00113(14) 50514744. 0.001248 0.001307
41475. 0.85906 0.00108(14) 54552660. 0.001248 0.001310
41479. 0.85914 0.00114(14) 49461960. 0.001249 0.001313
41484. 0.85923 0.00108(13) 56465276. 0.001249 0.001316
41488. 0.85931 0.00125(15) 46075704. 0.001249 0.001320
41492. 0.85940 0.00146(16) 38660272. 0.001249 0.001324
41496. 0.85949 0.00140(16) 41279956. 0.001249 0.001328
41500. 0.85957 0.00122(14) 50405712. 0.001249 0.001335
41504. 0.85966 0.00133(15) 44038920. 0.001249 0.001341
41508. 0.85974 0.00136(15) 43003880. 0.001249 0.001349
41513. 0.85983 0.00130(15) 44953396. 0.001249 0.001359
41517. 0.85992 0.00138(15) 43867964. 0.001249 0.001371
41521. 0.86000 0.00156(17) 36043928. 0.001249 0.001388
41525. 0.86009 0.00124(15) 46657212. 0.001249 0.001410
41529. 0.86017 0.00118(14) 48584256. 0.001249 0.001440
41533. 0.86026 0.00133(15) 41892800. 0.001249 0.001485
41538. 0.86035 0.00137(15) 42395912. 0.001249 0.001535
41542. 0.86043 0.00165(17) 32827646. 0.001249 0.001599
41546. 0.86052 0.00164(17) 33695200. 0.001249 0.001677
41550. 0.86060 0.00152(16) 39857148. 0.001249 0.001773
41554. 0.86069 0.00173(17) 34887340. 0.001250 0.001886
41558. 0.86078 0.00192(18) 30229598. 0.001250 0.002012
41562. 0.86086 0.00190(18) 31811226. 0.001250 0.002149
41567. 0.86095 0.00229(20) 26218278. 0.001250 0.002295
41571. 0.86104 0.00271(22) 21161856. 0.001250 0.002440
41575. 0.86112 0.00266(21) 21810492. 0.001250 0.002579
41579. 0.86121 0.00286(23) 19747402. 0.001250 0.002703
41583. 0.86129 0.00300(23) 19361886. 0.001250 0.002806
41587. 0.86138 0.00294(23) 19324424. 0.001250 0.002880
41592. 0.86146 0.00253(21) 23151360. 0.001250 0.002922
41596. 0.86155 0.00238(20) 24864000. 0.001250 0.002930
41600. 0.86164 0.00269(22) 21289140. 0.001250 0.002911
41604. 0.86172 0.00274(22) 21138564. 0.001250 0.002880
41608. 0.86181 0.00261(21) 22847650. 0.001250 0.002853
41612. 0.86190 0.00282(22) 20488426. 0.001250 0.002854
41617. 0.86198 0.00277(22) 21348396. 0.001250 0.002901
41621. 0.86207 0.00282(22) 20697436. 0.001250 0.003011
41625. 0.86215 0.00323(23) 18219428. 0.001250 0.003195
41629. 0.86224 0.00363(25) 15959078. 0.001251 0.003464
41633. 0.86233 0.00386(26) 14595992. 0.001251 0.003808
41637. 0.86241 0.00428(27) 13802762. 0.001251 0.004223
41642. 0.86250 0.00507(29) 11796109. 0.001251 0.004696
41646. 0.86259 0.00570(31) 10129021. 0.001251 0.005192
41650. 0.86267 0.00620(32) 9478828. 0.001251 0.005687
41654. 0.86276 0.0072(4) 8071066. 0.00125 0.00615
41658. 0.86284 0.0075(4) 7983671. 0.00125 0.00653
41662. 0.86293 0.0073(4) 8062099. 0.00125 0.00681
41667. 0.86302 0.00673(34) 8841394. 0.001251 0.006949
41671. 0.86311 0.00654(33) 8912030. 0.001251 0.006916
41675. 0.86319 0.00589(31) 10211776. 0.001251 0.006712
41679. 0.86328 0.00534(30) 11058938. 0.001251 0.006351
41683. 0.86336 0.00499(29) 11898864. 0.001251 0.005871
41687. 0.86345 0.00491(29) 11955996. 0.001251 0.005313
41692. 0.86354 0.00454(28) 12878340. 0.001251 0.004729
41696. 0.86362 0.00411(27) 13907721. 0.001251 0.004168
41700. 0.86371 0.00365(25) 15918324. 0.001251 0.003652
41704. 0.86380 0.00318(23) 18327310. 0.001251 0.003194
41708. 0.86388 0.00287(23) 19626328. 0.001252 0.002812
41712. 0.86397 0.00264(21) 21887888. 0.001252 0.002501
41717. 0.86405 0.00265(21) 22255514. 0.001252 0.002253
41721. 0.86414 0.00250(20) 23921486. 0.001252 0.002064
41725. 0.86423 0.00232(20) 24739376. 0.001252 0.001926
41729. 0.86431 0.00215(19) 27353770. 0.001252 0.001825
41733. 0.86440 0.00197(18) 29736890. 0.001252 0.001754
41737. 0.86449 0.00173(17) 34556480. 0.001252 0.001707
41742. 0.86457 0.00194(18) 29793650. 0.001252 0.001679
41746. 0.86466 0.00217(19) 26316270. 0.001252 0.001667
41750. 0.86475 0.00197(18) 29741076. 0.001252 0.001670
41754. 0.86483 0.00183(17) 32851178. 0.001252 0.001688
41758. 0.86492 0.00192(18) 30437196. 0.001252 0.001725
41762. 0.86501 0.00198(19) 28874416. 0.001252 0.001785
41767. 0.86509 0.00192(18) 29873524. 0.001252 0.001875
41771. 0.86518 0.00205(19) 28537460. 0.001252 0.002001
41775. 0.86527 0.00236(21) 23479512. 0.001252 0.002171
41779. 0.86535 0.00217(20) 25933028. 0.001252 0.002391
41783. 0.86544 0.00231(20) 25335260. 0.001252 0.002672
41788. 0.86553 0.00305(23) 19579474. 0.001253 0.003015
41792. 0.86561 0.00373(25) 16007962. 0.001253 0.003416
41796. 0.86570 0.00422(27) 13902832. 0.001253 0.003871
41800. 0.86579 0.00495(30) 11299457. 0.001253 0.004358
41804. 0.86587 0.00540(31) 10702924. 0.001253 0.004865
41808. 0.86596 0.00593(32) 9936102. 0.001253 0.005371
41813. 0.86605 0.00641(33) 9403893. 0.001253 0.005844
41817. 0.86613 0.00684(33) 9010663. 0.001253 0.006247
41821. 0.86622 0.00712(34) 8409757. 0.001253 0.006547
41825. 0.86630 0.00678(33) 8946854. 0.001253 0.006720
41829. 0.86639 0.00674(34) 8798848. 0.001253 0.006743
41834. 0.86648 0.00630(33) 9281689. 0.001253 0.006607
41838. 0.86657 0.00575(31) 10315710. 0.001253 0.006322
41842. 0.86665 0.00558(31) 10582145. 0.001253 0.005918
41846. 0.86674 0.00516(30) 11124181. 0.001253 0.005442
41850. 0.86682 0.00414(26) 14486959. 0.001253 0.004930
41854. 0.86691 0.00362(25) 16547046. 0.001253 0.004417
41859. 0.86700 0.00331(24) 17742434. 0.001253 0.003939
41863. 0.86709 0.00311(23) 18911382. 0.001253 0.003518
41867. 0.86717 0.00316(23) 18538806. 0.001253 0.003162
41871. 0.86726 0.00308(23) 19002354. 0.001253 0.002873
41875. 0.86735 0.00299(23) 19481656. 0.001254 0.002650
41880. 0.86743 0.00286(22) 21386902. 0.001254 0.002478
41884. 0.86752 0.00290(22) 20776538. 0.001254 0.002347
41888. 0.86761 0.00285(22) 21055914. 0.001254 0.002247
41892. 0.86769 0.00267(21) 22455932. 0.001254 0.002167
41896. 0.86778 0.00232(20) 26012412. 0.001254 0.002098
41901. 0.86787 0.00214(19) 28111270. 0.001254 0.002034
41905. 0.86795 0.00230(20) 25194372. 0.001254 0.001972
41909. 0.86804 0.00214(19) 27591632. 0.001254 0.001911
41913. 0.86813 0.00182(17) 33488720. 0.001254 0.001853
41917. 0.86822 0.00175(17) 33607080. 0.001254 0.001800
41922. 0.86830 0.00182(18) 31417676. 0.001254 0.001752
41926. 0.86839 0.00175(17) 33433228. 0.001254 0.001711
41930. 0.86848 0.00162(17) 36640748. 0.001254 0.001678
41934. 0.86856 0.00166(17) 34769488. 0.001254 0.001652
41938. 0.86865 0.00181(18) 31913744. 0.001254 0.001634
41943. 0.86874 0.00184(18) 31532544. 0.001254 0.001625
41947. 0.86882 0.00158(16) 37960044. 0.001254 0.001623
41951. 0.86891 0.00139(15) 42711216. 0.001254 0.001630
41955. 0.86900 0.00120(14) 50565928. 0.001254 0.001646
41959. 0.86908 0.00126(15) 47433584. 0.001254 0.001674
41963. 0.86917 0.00152(16) 39445316. 0.001255 0.001717
41968. 0.86926 0.00175(17) 34716920. 0.001255 0.001778
41972. 0.86934 0.00176(17) 35209304. 0.001255 0.001863
41976. 0.86943 0.00186(17) 32749560. 0.001255 0.001979
41980. 0.86952 0.00191(18) 30553836. 0.001255 0.002133
41984. 0.86961 0.00195(18) 30071412. 0.001255 0.002333
41989. 0.86969 0.00225(20) 26168830. 0.001255 0.002586
41993. 0.86978 0.00259(21) 23257738. 0.001255 0.002900
41997. 0.86987 0.00338(24) 17488202. 0.001255 0.003280
42001. 0.86995 0.00403(26) 14458375. 0.001255 0.003728
42005. 0.87004 0.00436(27) 13303559. 0.001255 0.004247
42010. 0.87013 0.00487(29) 11885723. 0.001255 0.004833
42014. 0.87021 0.00554(31) 10465911. 0.001255 0.005478
42018. 0.87030 0.00638(33) 9030808. 0.001255 0.006172
42022. 0.87039 0.0071(4) 8087413. 0.00126 0.00690
42026. 0.87048 0.0080(4) 7258722. 0.00126 0.00763
42031. 0.87056 0.0088(4) 6643953. 0.00126 0.00834
42035. 0.87065 0.0094(4) 6213316. 0.00126 0.00900
42039. 0.87074 0.0102(4) 5642183. 0.00126 0.00958
42043. 0.87082 0.0106(4) 5529532. 0.00126 0.01006
42047. 0.87091 0.0112(4) 5303199. 0.00126 0.01042
42052. 0.87100 0.0115(4) 5059769. 0.00126 0.01065
42056. 0.87108 0.0109(4) 5488488. 0.00126 0.01073
42060. 0.87117 0.0113(4) 5247266. 0.00126 0.01064
42064. 0.87126 0.0111(4) 5330456. 0.00126 0.01035
42069. 0.87135 0.0101(4) 5884385. 0.00126 0.00986
42073. 0.87143 0.0088(4) 6827524. 0.00126 0.00919
42077. 0.87152 0.0081(4) 7312223. 0.00126 0.00839
42081. 0.87161 0.00729(35) 8317722. 0.001256 0.007509
42085. 0.87170 0.00658(33) 9204880. 0.001256 0.006613
42090. 0.87178 0.00574(31) 10417131. 0.001256 0.005748
42094. 0.87187 0.00491(29) 12310744. 0.001256 0.004955
42098. 0.87196 0.00471(28) 12778715. 0.001256 0.004249
42102. 0.87205 0.00434(27) 13664854. 0.001256 0.003650
42106. 0.87213 0.00387(25) 15519824. 0.001256 0.003162
42111. 0.87222 0.00356(24) 16769877. 0.001256 0.002771
42115. 0.87231 0.00335(24) 17396414. 0.001256 0.002463
42119. 0.87239 0.00321(24) 18009756. 0.001256 0.002233
42123. 0.87248 0.00274(21) 21727644. 0.001256 0.002055
42127. 0.87257 0.00243(20) 24798428. 0.001256 0.001921
42132. 0.87265 0.00249(20) 24397984. 0.001256 0.001819
42136. 0.87274 0.00251(20) 23967448. 0.001256 0.001743
42140. 0.87283 0.00228(19) 26679746. 0.001256 0.001685
42144. 0.87292 0.00230(20) 25371822. 0.001256 0.001635
42149. 0.87301 0.00217(19) 27084338. 0.001256 0.001599
42153. 0.87309 0.00195(18) 30790778. 0.001256 0.001569
42157. 0.87318 0.00198(18) 29622652. 0.001256 0.001544
42161. 0.87327 0.00216(19) 27219180. 0.001256 0.001522
42165. 0.87336 0.00215(19) 27154726. 0.001256 0.001504
42170. 0.87344 0.00200(19) 29186908. 0.001257 0.001487
42174. 0.87353 0.00199(18) 29482304. 0.001257 0.001473
42178. 0.87362 0.00192(18) 30058934. 0.001257 0.001460
42182. 0.87370 0.00176(18) 32501908. 0.001257 0.001448
42186. 0.87379 0.00163(17) 35984224. 0.001257 0.001438
42191. 0.87388 0.00149(16) 40184968. 0.001257 0.001428
42195. 0.87397 0.00136(15) 45126296. 0.001257 0.001420
42199. 0.87405 0.00141(15) 41655976. 0.001257 0.001412
42203. 0.87414 0.00143(15) 43260156. 0.001257 0.001405
42208. 0.87423 0.00165(17) 36334016. 0.001257 0.001398
42212. 0.87432 0.00174(17) 33763228. 0.001257 0.001392
42216. 0.87440 0.00164(16) 36801408. 0.001257 0.001387
42220. 0.87449 0.00162(17) 36555452. 0.001257 0.001382
42224. 0.87458 0.00148(16) 39820424. 0.001257 0.001378
42229. 0.87467 0.00148(16) 39425544. 0.001257 0.001373
42233. 0.87475 0.00158(16) 37922628. 0.001257 0.001370
42237. 0.87484 0.00153(16) 40147904. 0.001257 0.001366
42241. 0.87493 0.00132(15) 46353344. 0.001257 0.001363
42246. 0.87501 0.00129(15) 45867020. 0.001257 0.001361
42250. 0.87510 0.00135(15) 43405008. 0.001257 0.001358
42254. 0.87519 0.00131(15) 45503240. 0.001257 0.001356
42258. 0.87528 0.00139(15) 42195568. 0.001257 0.001354
42263. 0.87537 0.00140(15) 41727056. 0.001257 0.001352
42267. 0.87545 0.00135(15) 44708524. 0.001257 0.001351
42271. 0.87554 0.00141(15) 43113016. 0.001257 0.001350
42275. 0.87563 0.00157(17) 36284628. 0.001257 0.001349
42279. 0.87572 0.00145(16) 39881872. 0.001257 0.001348
42284. 0.87580 0.00122(14) 51497240. 0.001257 0.001348
42288. 0.87589 0.00133(15) 46129412. 0.001258 0.001348
42292. 0.87598 0.00138(15) 42112796. 0.001258 0.001348
42296. 0.87607 0.00121(14) 50648056. 0.001258 0.001348
42301. 0.87615 0.00136(15) 44888580. 0.001258 0.001346
42305. 0.87624 0.00154(16) 38544288. 0.001258 0.001348
42309. 0.87633 0.00155(16) 37239336. 0.001258 0.001349
42313. 0.87642 0.00126(15) 46329976. 0.001258 0.001353
42317. 0.87650 0.00114(14) 52290220. 0.001258 0.001359
42322. 0.87659 0.00125(15) 45858728. 0.001258 0.001369
42326. 0.87668 0.00129(15) 46365300. 0.001258 0.001382
42330. 0.87677 0.00136(15) 43099108. 0.001258 0.001401
42334. 0.87686 0.00135(15) 43080036. 0.001258 0.001428
42339. 0.87694 0.00141(16) 40192040. 0.001258 0.001464
42343. 0.87703 0.00143(16) 40868248. 0.001258 0.001514
42347. 0.87712 0.00156(16) 38254484. 0.001258 0.001577
42351. 0.87721 0.00157(16) 39618460. 0.001258 0.001657
42356. 0.87730 0.00155(16) 39413860. 0.001258 0.001754
42360. 0.87738 0.00190(18) 31061358. 0.001258 0.001866
42364. 0.87747 0.00222(19) 26594514. 0.001258 0.001994
42368. 0.87756 0.00231(20) 25573192. 0.001258 0.002132
42373. 0.87765 0.00243(20) 24771722. 0.001258 0.002272
42377. 0.87773 0.00258(20) 23799334. 0.001258 0.002411
42381. 0.87782 0.00274(21) 21752000. 0.001258 0.002538
42385. 0.87791 0.00267(20) 23904272. 0.001258 0.002643
42390. 0.87800 0.00287(22) 21477714. 0.001258 0.002717
42394. 0.87809 0.00265(21) 22825780. 0.001258 0.002752
42398. 0.87817 0.00253(20) 23919292. 0.001258 0.002743
42402. 0.87826 0.00261(21) 22724810. 0.001258 0.002687
42406. 0.87835 0.00243(20) 24521654. 0.001258 0.002592
42411. 0.87844 0.00217(19) 27872344. 0.001258 0.002464
42415. 0.87852 0.00219(19) 27388924. 0.001258 0.002318
42419. 0.87861 0.00208(19) 29206672. 0.001258 0.002167
42423. 0.87870 0.00183(18) 31797034. 0.001258 0.002020
42428. 0.87879 0.00177(17) 33418430. 0.001259 0.001886
42432. 0.87888 0.00186(18) 32035018. 0.001259 0.001769
42436. 0.87896 0.00184(17) 33799232. 0.001259 0.001671
42440. 0.87905 0.00172(17) 34632100. 0.001259 0.001591
42445. 0.87914 0.00141(15) 41758052. 0.001259 0.001530
42449. 0.87923 0.00142(15) 42853544. 0.001259 0.001483
42453. 0.87932 0.00159(16) 37496544. 0.001259 0.001448
42457. 0.87940 0.00152(16) 40386604. 0.001259 0.001422
42462. 0.87949 0.00153(16) 39774024. 0.001259 0.001404
42466. 0.87958 0.00144(15) 42813172. 0.001259 0.001392
42470. 0.87967 0.00137(15) 44266240. 0.001259 0.001383
42474. 0.87976 0.00139(15) 42681664. 0.001259 0.001377
42479. 0.87984 0.00136(15) 43795608. 0.001259 0.001373
42483. 0.87993 0.00106(13) 59026124. 0.001259 0.001371
42487. 0.88002 0.00098(13) 63164048. 0.001259 0.001369
42491. 0.88011 0.00127(14) 48499420. 0.001259 0.001369
42496. 0.88020 0.00140(15) 44643520. 0.001259 0.001369
42500. 0.88028 0.00128(14) 51965576. 0.001259 0.001370
42504. 0.88037 0.00133(14) 48143088. 0.001259 0.001372
42508. 0.88046 0.00147(16) 40910516. 0.001259 0.001374
42513. 0.88055 0.00145(16) 40102164. 0.001259 0.001377
42517. 0.88064 0.00134(15) 44717180. 0.001259 0.001380
42521. 0.88072 0.00146(16) 39131844. 0.001259 0.001384
42525. 0.88081 0.00142(15) 41635720. 0.001259 0.001389
42530. 0.88090 0.00139(15) 43021496. 0.001259 0.001394
42534. 0.88099 0.00138(15) 43629132. 0.001259 0.001400
42538. 0.88108 0.00144(16) 40853544. 0.001259 0.001407
42542. 0.88116 0.00133(15) 44494292. 0.001259 0.001415
42547. 0.88125 0.00124(14) 47840908. 0.001259 0.001425
42551. 0.88134 0.00139(15) 41776116. 0.001259 0.001437
42555. 0.88143 0.00136(15) 45933796. 0.001259 0.001450
42559. 0.88152 0.00144(16) 41237004. 0.001259 0.001468
42564. 0.88161 0.00142(15) 42068716. 0.001259 0.001492
42568. 0.88169 0.00142(15) 44318148. 0.001259 0.001525
42572. 0.88178 0.00147(16) 41547656. 0.001259 0.001568
42576. 0.88187 0.00145(16) 41079916. 0.001259 0.001628
42581. 0.88196 0.00159(17) 36258000. 0.001259 0.001710
42585. 0.88205 0.00177(17) 33475124. 0.001259 0.001822
42589. 0.88214 0.00219(20) 26120946. 0.001259 0.001964
42593. 0.88222 0.00241(20) 24532596. 0.001259 0.002161
42598. 0.88231 0.00247(20) 23942718. 0.001259 0.002417
42602. 0.88240 0.00270(22) 21308896. 0.001260 0.002735
42606. 0.88249 0.00312(23) 19134936. 0.001260 0.003121
42611. 0.88258 0.00390(26) 15125928. 0.001260 0.003576
42615. 0.88266 0.00439(27) 13886813. 0.001260 0.004094
42619. 0.88275 0.00495(28) 12462609. 0.001260 0.004671
42623. 0.88284 0.00625(32) 9609562. 0.001260 0.005274
42628. 0.88293 0.00723(34) 8479795. 0.001260 0.005885
42632. 0.88302 0.0077(4) 7836426. 0.00126 0.00648
42636. 0.88311 0.0079(4) 7594105. 0.00126 0.00701
42640. 0.88320 0.0086(4) 6955233. 0.00126 0.00744
42645. 0.88328 0.0089(4) 6740921. 0.00126 0.00772
42649. 0.88337 0.0083(4) 7349325. 0.00126 0.00784
42653. 0.88346 0.00738(35) 8218217. 0.001260 0.007761
42657. 0.88355 0.00680(33) 9047324. 0.001260 0.007481
42662. 0.88364 0.00653(33) 9174329. 0.001260 0.007035
42666. 0.88372 0.00583(31) 10494545. 0.001260 0.006463
42670. 0.88381 0.00571(31) 10651046. 0.001260 0.005814
42675. 0.88390 0.00550(31) 10653960. 0.001260 0.005154
42679. 0.88399 0.00468(28) 12874046. 0.001260 0.004518
42683. 0.88408 0.00386(25) 16171689. 0.001260 0.003929
42687. 0.88417 0.00345(24) 17342176. 0.001260 0.003418
42692. 0.88426 0.00320(23) 18277588. 0.001260 0.002984
42696. 0.88434 0.00295(22) 20197752. 0.001260 0.002624
42700. 0.88443 0.00281(22) 21581704. 0.001260 0.002337
42704. 0.88452 0.00276(22) 21366910. 0.001260 0.002115
42709. 0.88461 0.00239(20) 25298508. 0.001260 0.001945
42713. 0.88470 0.00216(19) 28313944. 0.001260 0.001816
42717. 0.88479 0.00214(19) 28107712. 0.001260 0.001720
42721. 0.88487 0.00225(19) 26721302. 0.001260 0.001648
42726. 0.88496 0.00228(19) 26514294. 0.001260 0.001593
42730. 0.88505 0.00207(18) 29807240. 0.001260 0.001551
42734. 0.88514 0.00191(18) 32012952. 0.001260 0.001518
42739. 0.88523 0.00177(17) 36094948. 0.001260 0.001492
42743. 0.88532 0.00160(16) 40367332. 0.001260 0.001471
42747. 0.88541 0.00147(16) 41247656. 0.001260 0.001453
42751. 0.88549 0.00147(16) 40422164. 0.001260 0.001437
42756. 0.88558 0.00146(15) 42015720. 0.001260 0.001424
42760. 0.88567 0.00153(16) 40550356. 0.001260 0.001412
42764. 0.88576 0.00150(16) 40620944. 0.001260 0.001401
42769. 0.88585 0.00120(14) 52422532. 0.001260 0.001392
42773. 0.88594 0.00133(15) 44685948. 0.001260 0.001383
42777. 0.88603 0.00141(15) 43202408. 0.001260 0.001376
42781. 0.88612 0.00138(15) 44748292. 0.001260 0.001369
42786. 0.88620 0.00140(15) 41944340. 0.001260 0.001363
42790. 0.88629 0.00130(15) 45543552. 0.001260 0.001357
42794. 0.88638 0.00133(15) 46362888. 0.001260 0.001352
42798. 0.88647 0.00142(15) 42342156. 0.001260 0.001347
42803. 0.88656 0.00129(15) 47380036. 0.001260 0.001343
42807. 0.88665 0.00118(14) 54144320. 0.001260 0.001339
42811. 0.88674 0.00128(14) 48399528. 0.001260 0.001336
42816. 0.88682 0.00126(14) 49116416. 0.001260 0.001332
42820. 0.88691 0.00115(14) 54036720. 0.001260 0.001329
42824. 0.88700 0.00119(14) 52559356. 0.001260 0.001327
42828. 0.88709 0.00125(14) 49717288. 0.001260 0.001324
42833. 0.88718 0.00120(14) 52299576. 0.001260 0.001322
42837. 0.88727 0.00121(14) 51103948. 0.001260 0.001320
42841. 0.88736 0.00111(13) 55393528. 0.001260 0.001318
42846. 0.88745 0.00107(13) 57882696. 0.001260 0.001316
42850. 0.88753 0.00122(14) 50506048. 0.001260 0.001315
42854. 0.88762 0.00119(14) 53163452. 0.001260 0.001313
42858. 0.88771 0.00114(14) 53279900. 0.001260 0.001312
42863. 0.88780 0.00108(13) 56188424. 0.001260 0.001311
42867. 0.88789 0.00125(14) 48060896. 0.001260 0.001310
42871. 0.88798 0.00131(15) 46695992. 0.001260 0.001308
42876. 0.88807 0.00131(15) 45086328. 0.001260 0.001307
42880. 0.88816 0.00135(15) 43137656. 0.001260 0.001307
42884. 0.88825 0.00140(15) 42221892. 0.001260 0.001307
42888. 0.88833 0.00125(14) 48864468. 0.001260 0.001307
42893. 0.88842 0.00111(14) 54474724. 0.001260 0.001307
42897. 0.88851 0.00109(13) 54889944. 0.001260 0.001308
42901. 0.88860 0.00115(14) 53800108. 0.001260 0.001310
42906. 0.88869 0.00120(14) 53066968. 0.001260 0.001312
42910. 0.88878 0.00131(15) 44998948. 0.001261 0.001316
42914. 0.88887 0.00139(15) 41763320. 0.001261 0.001321
42918. 0.88896 0.00122(14) 49888928. 0.001261 0.001330
42923. 0.88905 0.00121(14) 50599956. 0.001261 0.001342
42927. 0.88913 0.00141(15) 44056132. 0.001261 0.001359
42931. 0.88922 0.00154(16) 39553644. 0.001261 0.001382
42936. 0.88931 0.00158(16) 37576444. 0.001261 0.001412
42940. 0.88940 0.00153(16) 40905888. 0.001261 0.001451
42944. 0.88949 0.00151(15) 41969948. 0.001261 0.001499
42949. 0.88958 0.00147(16) 40971608. 0.001261 0.001557
42953. 0.88967 0.00140(15) 43732220. 0.001261 0.001624
42957. 0.88976 0.00164(16) 37285804. 0.001261 0.001698
42961. 0.88985 0.00179(17) 33497126. 0.001261 0.001776
42966. 0.88994 0.00189(18) 31431572. 0.001261 0.001855
42970. 0.89003 0.00210(19) 27972676. 0.001261 0.001929
42974. 0.89011 0.00218(19) 27854566. 0.001261 0.001995
42979. 0.89020 0.00221(19) 27822176. 0.001261 0.002046
42983. 0.89029 0.00208(18) 30001872. 0.001261 0.002078
42987. 0.89038 0.00214(18) 29303594. 0.001261 0.002087
42992. 0.89047 0.00215(19) 28483034. 0.001261 0.002069
42996. 0.89056 0.00181(17) 34245140. 0.001261 0.002026
43000. 0.89065 0.00163(16) 38601164. 0.001261 0.001963
43004. 0.89074 0.00156(16) 39716580. 0.001261 0.001885
43009. 0.89083 0.00157(16) 39009088. 0.001261 0.001801
43013. 0.89092 0.00168(17) 35837192. 0.001261 0.001716
43017. 0.89101 0.00159(16) 37575012. 0.001261 0.001636
43022. 0.89109 0.00154(16) 38692124. 0.001261 0.001564
43026. 0.89118 0.00150(16) 40125392. 0.001261 0.001503
43030. 0.89127 0.00130(15) 45472888. 0.001261 0.001452
43035. 0.89136 0.00126(15) 46998100. 0.001261 0.001411
43039. 0.89145 0.00146(16) 40169900. 0.001261 0.001380
43043. 0.89154 0.00142(15) 42131328. 0.001261 0.001356
43047. 0.89163 0.00128(14) 47959132. 0.001261 0.001338
43052. 0.89172 0.00139(15) 44356944. 0.001261 0.001324
43056. 0.89181 0.00151(16) 40477252. 0.001261 0.001314
43060. 0.89190 0.00132(15) 47298572. 0.001261 0.001307
43065. 0.89199 0.00123(14) 50952260. 0.001261 0.001302
43069. 0.89207 0.00123(14) 51829900. 0.001261 0.001298
43073. 0.89217 0.00124(14) 49486924. 0.001261 0.001294
43078. 0.89225 0.00121(14) 51106956. 0.001261 0.001292
43082. 0.89234 0.00123(14) 52473344. 0.001261 0.001290
43086. 0.89243 0.00126(14) 52400184. 0.001261 0.001288
43091. 0.89252 0.00142(15) 43703236. 0.001261 0.001286
43095. 0.89261 0.00154(16) 38676020. 0.001261 0.001285
43099. 0.89270 0.00133(15) 46170460. 0.001261 0.001283
43103. 0.89279 0.00129(14) 48226356. 0.001261 0.001282
43108. 0.89288 0.00128(14) 48994796. 0.001261 0.001281
43112. 0.89297 0.00122(14) 51161236. 0.001261 0.001280
43116. 0.89306 0.00116(14) 52399788. 0.001261 0.001279
43121. 0.89315 0.00109(13) 56955208. 0.001261 0.001278
43125. 0.89324 0.00122(14) 48803444. 0.001261 0.001278
43129. 0.89333 0.00120(14) 50744832. 0.001261 0.001277
43134. 0.89341 0.00128(15) 46545796. 0.001261 0.001276
43138. 0.89350 0.00133(15) 45029292. 0.001261 0.001276
43142. 0.89359 0.00122(14) 50396796. 0.001261 0.001275
43147. 0.89368 0.00112(14) 54410836. 0.001261 0.001275
43151. 0.89377 0.00100(12) 66475828. 0.001261 0.001274
43155. 0.89386 0.00115(14) 53761968. 0.001261 0.001274
43160. 0.89395 0.00115(14) 52840476. 0.001261 0.001273
43164. 0.89404 0.00112(14) 53811816. 0.001261 0.001273
43168. 0.89413 0.00123(14) 48340160. 0.001261 0.001273
43172. 0.89422 0.00120(14) 51301424. 0.001261 0.001266
43177. 0.89431 0.00120(14) 51571864. 0.001261 0.001265
43181. 0.89440 0.00129(15) 47520760. 0.001261 0.001265
43185. 0.89449 0.00122(14) 48716232. 0.001261 0.001265
43190. 0.89458 0.00097(13) 63969272. 0.001261 0.001265
43194. 0.89467 0.00102(13) 61580492. 0.001261 0.001265
43198. 0.89476 0.00126(15) 46974252. 0.001261 0.001265
43203. 0.89485 0.00122(14) 48545552. 0.001261 0.001265
43207. 0.89494 0.00124(14) 48510640. 0.001261 0.001264
43211. 0.89502 0.00128(14) 49652608. 0.001261 0.001264
43216. 0.89512 0.00116(13) 55272144. 0.001261 0.001264
43220. 0.89520 0.00116(14) 54670044. 0.001261 0.001264
43224. 0.89529 0.00124(14) 48654604. 0.001261 0.001264
43229. 0.89538 0.00130(15) 46893136. 0.001260 0.001264
43233. 0.89547 0.00131(14) 47782060. 0.001260 0.001264
43237. 0.89556 0.00136(15) 44435484. 0.001260 0.001264
43242. 0.89565 0.00155(16) 37524948. 0.001260 0.001263
43246. 0.89574 0.00155(16) 39014540. 0.001260 0.001263
43250. 0.89583 0.00158(17) 36630212. 0.001260 0.001263
43255. 0.89592 0.00132(15) 45680620. 0.001260 0.001263
43259. 0.89601 0.00108(13) 57673872. 0.001260 0.001263
43263. 0.89610 0.00117(14) 53932792. 0.001260 0.001263
43268. 0.89619 0.00123(14) 50603708. 0.001260 0.001263
43272. 0.89628 0.00107(13) 56789448. 0.001260 0.001263
43276. 0.89637 0.00099(13) 63767104. 0.001260 0.001263
43281. 0.89646 0.00118(14) 53820700. 0.001260 0.001263
43285. 0.89655 0.00128(14) 50112208. 0.001260 0.001263
43289. 0.89664 0.00133(14) 47591260. 0.001260 0.001263
43294. 0.89673 0.00135(15) 45582072. 0.001260 0.001263
43298. 0.89682 0.00125(14) 51640968. 0.001260 0.001262
43302. 0.89691 0.00126(14) 50919752. 0.001260 0.001262
43307. 0.89700 0.00127(14) 50989500. 0.001260 0.001262
43311. 0.89709 0.00118(13) 55355764. 0.001260 0.001262
43315. 0.89718 0.00112(13) 55397352. 0.001260 0.001262
43320. 0.89727 0.00114(14) 53517400. 0.001260 0.001262
43324. 0.89736 0.00125(14) 48297416. 0.001260 0.001262
43328. 0.89745 0.00138(15) 42861968. 0.001260 0.001262
43333. 0.89754 0.00150(16) 39310432. 0.001260 0.001262
43337. 0.89762 0.00133(15) 47270640. 0.001260 0.001262
43341. 0.89772 0.00125(14) 49209376. 0.001260 0.001262
43346. 0.89780 0.00112(13) 56706944. 0.001260 0.001262
43350. 0.89790 0.00121(14) 52402984. 0.001260 0.001262
43354. 0.89799 0.00129(14) 48074200. 0.001260 0.001262
43359. 0.89807 0.00123(14) 50101940. 0.001260 0.001262
43363. 0.89816 0.00129(15) 47358520. 0.001260 0.001262
43367. 0.89825 0.00138(15) 42246540. 0.001260 0.001262
43372. 0.89834 0.00116(13) 55128752. 0.001260 0.001262
43376. 0.89843 0.00124(14) 49762468. 0.001260 0.001262
43380. 0.89852 0.00125(14) 50029560. 0.001260 0.001262
43385. 0.89862 0.00124(14) 51386580. 0.001260 0.001262
43389. 0.89870 0.00130(14) 47844936. 0.001260 0.001262
43393. 0.89879 0.00134(15) 46720548. 0.001260 0.001262
43398. 0.89888 0.00142(15) 44277740. 0.001260 0.001262
43402. 0.89897 0.00133(15) 46696192. 0.001260 0.001262
43406. 0.89906 0.00125(14) 50117728. 0.001260 0.001262
43411. 0.89915 0.00136(15) 44874060. 0.001260 0.001262
43415. 0.89924 0.00136(15) 45050516. 0.001260 0.001261
43419. 0.89933 0.00134(15) 43631228. 0.001260 0.001261
43424. 0.89942 0.00128(15) 46005972. 0.001260 0.001261
43428. 0.89951 0.00128(14) 47925272. 0.001260 0.001261
43432. 0.89960 0.00143(16) 41437700. 0.001260 0.001261
43437. 0.89969 0.00129(15) 47539960. 0.001260 0.001261
43441. 0.89978 0.00113(14) 54045924. 0.001260 0.001261
43445. 0.89987 0.00126(14) 48228328. 0.001260 0.001261
43450. 0.89996 0.00136(15) 43500044. 0.001260 0.001261
43454. 0.90005 0.00118(14) 50699080. 0.001260 0.001261
43458. 0.90014 0.00107(13) 57885720. 0.001260 0.001261
43463. 0.90023 0.00106(13) 58508044. 0.001260 0.001261
43467. 0.90032 0.00105(13) 56876172. 0.001260 0.001261
43471. 0.90041 0.00109(13) 55982652. 0.001260 0.001261
43476. 0.90050 0.00122(14) 49048992. 0.001260 0.001261
43480. 0.90059 0.00119(14) 52474376. 0.001260 0.001261
43485. 0.90068 0.00114(14) 54811036. 0.001260 0.001261
43489. 0.90077 0.00115(13) 55413632. 0.001260 0.001261
43493. 0.90087 0.00130(15) 47046804. 0.001260 0.001261
43498. 0.90095 0.00137(15) 42570712. 0.001260 0.001261
43502. 0.90104 0.00127(15) 46686992. 0.001260 0.001265
43506. 0.90113 0.00110(13) 57173116. 0.001260 0.001265
43511. 0.90123 0.00106(13) 57530268. 0.001260 0.001265
43515. 0.90131 0.00098(12) 65096868. 0.001260 0.001265
43519. 0.90141 0.00131(15) 45959112. 0.001260 0.001265
43524. 0.90149 0.00142(15) 42128032. 0.001260 0.001265
43528. 0.90158 0.00124(14) 51195144. 0.001259 0.001265
43532. 0.90168 0.00124(14) 49540412. 0.001259 0.001265
43537. 0.90177 0.00118(14) 52187588. 0.001259 0.001265
43541. 0.90186 0.00111(13) 56979420. 0.001259 0.001265
43545. 0.90195 0.00118(14) 52310404. 0.001259 0.001266
43550. 0.90204 0.00115(13) 55856244. 0.001259 0.001266
43554. 0.90213 0.00119(14) 53530356. 0.001259 0.001266
43559. 0.90222 0.00118(14) 53043272. 0.001259 0.001266
43563. 0.90231 0.00132(15) 46406248. 0.001259 0.001268
43567. 0.90240 0.00133(15) 45751820. 0.001259 0.001268
43572. 0.90249 0.00109(13) 59325040. 0.001259 0.001268
43576. 0.90258 0.00112(13) 56549952. 0.001259 0.001268
43580. 0.90267 0.00128(14) 49451864. 0.001259 0.001269
43585. 0.90276 0.00138(15) 45206320. 0.001259 0.001269
43589. 0.90285 0.00119(14) 52612604. 0.001259 0.001269
43593. 0.90294 0.00109(13) 57709508. 0.001259 0.001269
43598. 0.90303 0.00110(13) 56549388. 0.001259 0.001270
43602. 0.90312 0.00118(14) 53015872. 0.001259 0.001270
43606. 0.90321 0.00129(14) 48384072. 0.001259 0.001270
43611. 0.90330 0.00136(15) 44956012. 0.001259 0.001271
43615. 0.90339 0.00139(15) 43374032. 0.001259 0.001271
43620. 0.90348 0.00145(15) 42192164. 0.001259 0.001272
43624. 0.90357 0.00139(15) 45333660. 0.001259 0.001272
43628. 0.90366 0.00119(14) 54454568. 0.001259 0.001273
43633. 0.90375 0.00134(15) 44267248. 0.001259 0.001274
43637. 0.90384 0.00136(15) 45158804. 0.001259 0.001275
43641. 0.90393 0.00129(14) 47704352. 0.001259 0.001276
43646. 0.90402 0.00113(13) 55390860. 0.001259 0.001277
43650. 0.90411 0.00116(14) 54397080. 0.001259 0.001279
43654. 0.90420 0.00115(14) 54034400. 0.001259 0.001282
43659. 0.90430 0.00106(13) 58719788. 0.001259 0.001286
43663. 0.90439 0.00113(14) 52637912. 0.001259 0.001290
43668. 0.90448 0.00103(13) 63041740. 0.001259 0.001297
43672. 0.90457 0.00115(13) 55702532. 0.001259 0.001305
43676. 0.90466 0.00129(14) 48559264. 0.001259 0.001315
43681. 0.90475 0.00126(14) 51322428. 0.001259 0.001328
43685. 0.90484 0.00128(14) 52440164. 0.001259 0.001343
43689. 0.90493 0.00139(15) 46134384. 0.001259 0.001361
43694. 0.90502 0.00122(14) 52073968. 0.001259 0.001380
43698. 0.90511 0.00117(14) 52360224. 0.001258 0.001400
43702. 0.90520 0.00119(14) 53527704. 0.001258 0.001421
43707. 0.90529 0.00125(14) 51488152. 0.001258 0.001442
43711. 0.90538 0.00140(15) 44936956. 0.001258 0.001461
43716. 0.90547 0.00146(15) 42385528. 0.001258 0.001476
43720. 0.90556 0.00131(14) 48340652. 0.001258 0.001487
43724. 0.90565 0.00130(14) 49391804. 0.001258 0.001492
43729. 0.90574 0.00149(15) 42354796. 0.001258 0.001491
43733. 0.90584 0.00153(16) 39651988. 0.001258 0.001483
43737. 0.90592 0.00138(15) 44642164. 0.001258 0.001469
43742. 0.90602 0.00144(15) 42412916. 0.001258 0.001451
43746. 0.90611 0.00131(14) 49269288. 0.001258 0.001429
43751. 0.90620 0.00142(15) 43569548. 0.001258 0.001408
43755. 0.90629 0.00137(15) 46246576. 0.001258 0.001387
43759. 0.90638 0.00120(14) 54279484. 0.001258 0.001367
43764. 0.90647 0.00128(14) 47935332. 0.001258 0.001350
43768. 0.90656 0.00130(14) 48018328. 0.001258 0.001336
43772. 0.90665 0.00130(15) 47118844. 0.001258 0.001325
43777. 0.90674 0.00122(14) 50426264. 0.001258 0.001316
43781. 0.90683 0.00113(14) 54564328. 0.001258 0.001309
43786. 0.90692 0.00118(14) 53646168. 0.001258 0.001304
43790. 0.90701 0.00139(15) 45609200. 0.001258 0.001301
43794. 0.90711 0.00151(16) 39756472. 0.001258 0.001302
43799. 0.90719 0.00127(14) 47836760. 0.001258 0.001301
43803. 0.90729 0.00118(14) 52544408. 0.001258 0.001300
43808. 0.90738 0.00127(14) 49683936. 0.001258 0.001300
43812. 0.90747 0.00136(15) 45656276. 0.001258 0.001300
43816. 0.90756 0.00125(14) 52118572. 0.001258 0.001301
43821. 0.90765 0.00128(14) 50239588. 0.001258 0.001301
43825. 0.90774 0.00131(15) 47505092. 0.001258 0.001302
43829. 0.90783 0.00126(14) 48777360. 0.001257 0.001303
43834. 0.90792 0.00137(15) 43335916. 0.001257 0.001305
43838. 0.90801 0.00134(15) 44838980. 0.001257 0.001306
43843. 0.90810 0.00113(13) 56599524. 0.001257 0.001308
43847. 0.90819 0.00126(14) 49165944. 0.001257 0.001309
43851. 0.90828 0.00130(14) 47716648. 0.001257 0.001311
43856. 0.90838 0.00115(13) 57133004. 0.001257 0.001314
43860. 0.90847 0.00125(14) 50942264. 0.001257 0.001316
43865. 0.90856 0.00136(15) 46539856. 0.001257 0.001319
43869. 0.90865 0.00140(15) 43921540. 0.001257 0.001321
43873. 0.90874 0.00134(15) 46696984. 0.001257 0.001328
43878. 0.90883 0.00130(14) 48576912. 0.001257 0.001332
43882. 0.90892 0.00146(16) 41546608. 0.001257 0.001335
43886. 0.90901 0.00145(15) 42342260. 0.001257 0.001340
43891. 0.90910 0.00134(15) 46924404. 0.001257 0.001345
43895. 0.90919 0.00123(14) 52776912. 0.001257 0.001350
43900. 0.90929 0.00122(14) 53411348. 0.001257 0.001356
43904. 0.90938 0.00130(14) 48118420. 0.001257 0.001363
43908. 0.90947 0.00127(14) 50163776. 0.001257 0.001372
43913. 0.90956 0.00122(14) 53445576. 0.001257 0.001382
43917. 0.90965 0.00136(15) 45689060. 0.001257 0.001395
43922. 0.90974 0.00138(15) 45502440. 0.001257 0.001413
43926. 0.90983 0.00126(14) 50586668. 0.001257 0.001437
43930. 0.90992 0.00126(14) 48656352. 0.001257 0.001470
43935. 0.91001 0.00134(15) 47092140. 0.001257 0.001515
43939. 0.91010 0.00156(16) 40714396. 0.001257 0.001577
43944. 0.91019 0.00168(16) 37469832. 0.001256 0.001660
43948. 0.91029 0.00165(16) 37759804. 0.001256 0.001771
43952. 0.91038 0.00195(18) 31040288. 0.001256 0.001915
43957. 0.91047 0.00218(19) 28396202. 0.001256 0.002097
43961. 0.91056 0.00237(20) 25659102. 0.001256 0.002322
43966. 0.91065 0.00257(20) 24060968. 0.001256 0.002592
43970. 0.91074 0.00302(22) 20881138. 0.001256 0.002906
43974. 0.91083 0.00343(24) 17875452. 0.001256 0.003262
43979. 0.91092 0.00359(24) 17202388. 0.001256 0.003653
43983. 0.91102 0.00417(26) 14896310. 0.001256 0.004072
43988. 0.91111 0.00459(27) 13738102. 0.001256 0.004504
43992. 0.91120 0.00506(28) 12526472. 0.001256 0.004935
43996. 0.91129 0.00577(30) 10825057. 0.001256 0.005345
44001. 0.91138 0.00590(31) 10655993. 0.001256 0.005718
44005. 0.91147 0.00606(31) 10490772. 0.001256 0.006036
44010. 0.91156 0.00656(32) 9487417. 0.001256 0.006285
44014. 0.91165 0.00654(32) 9508923. 0.001256 0.006459
44018. 0.91174 0.00641(32) 9897292. 0.001256 0.006552
44023. 0.91184 0.00647(32) 9838983. 0.001256 0.006555
44027. 0.91193 0.00644(32) 9769759. 0.001256 0.006463
44032. 0.91202 0.00609(31) 10176800. 0.001256 0.006268
44036. 0.91211 0.00542(29) 11590863. 0.001256 0.005971
44040. 0.91220 0.00510(28) 12342424. 0.001256 0.005583
44045. 0.91229 0.00477(28) 12965809. 0.001255 0.005127
44049. 0.91238 0.00418(26) 14761397. 0.001255 0.004635
44054. 0.91247 0.00362(24) 17501170. 0.001255 0.004137
44058. 0.91256 0.00335(23) 18913740. 0.001255 0.003663
44062. 0.91266 0.00312(22) 20587014. 0.001255 0.003226
44067. 0.91275 0.00302(22) 21003232. 0.001255 0.002844
44071. 0.91284 0.00300(22) 20869456. 0.001255 0.002526
44076. 0.91293 0.00274(21) 22036184. 0.001255 0.002268
44080. 0.91302 0.00207(18) 31309546. 0.001255 0.002060
44084. 0.91311 0.00200(18) 31773958. 0.001255 0.001897
44089. 0.91320 0.00187(17) 33906772. 0.001255 0.001774
44093. 0.91330 0.00186(17) 33857244. 0.001255 0.001683
44098. 0.91339 0.00188(17) 33746232. 0.001255 0.001615
44102. 0.91348 0.00176(17) 35713132. 0.001255 0.001566
44106. 0.91357 0.00155(16) 40558756. 0.001255 0.001529
44111. 0.91366 0.00151(16) 41297640. 0.001255 0.001501
44115. 0.91375 0.00169(16) 37026132. 0.001255 0.001480
44120. 0.91385 0.00171(16) 37077372. 0.001255 0.001465
44124. 0.91394 0.00148(15) 43444564. 0.001255 0.001452
44129. 0.91403 0.00129(14) 49776940. 0.001255 0.001442
44133. 0.91412 0.00124(14) 52352588. 0.001255 0.001435
44137. 0.91421 0.00137(15) 45430700. 0.001254 0.001428
44142. 0.91430 0.00141(15) 44122044. 0.001254 0.001424
44146. 0.91439 0.00142(16) 41119516. 0.001254 0.001420
44151. 0.91448 0.00124(14) 49697696. 0.001254 0.001417
44155. 0.91458 0.00118(14) 53889596. 0.001254 0.001416
44159. 0.91467 0.00139(15) 45495436. 0.001254 0.001416
44164. 0.91476 0.00156(16) 40000072. 0.001254 0.001416
44168. 0.91485 0.00151(15) 41626452. 0.001254 0.001418
44173. 0.91494 0.00139(15) 44304940. 0.001254 0.001421
44177. 0.91503 0.00132(15) 46840984. 0.001254 0.001426
44182. 0.91513 0.00139(15) 43484948. 0.001254 0.001433
44186. 0.91522 0.00146(16) 41003160. 0.001254 0.001443
44190. 0.91531 0.00134(15) 44636452. 0.001254 0.001458
44195. 0.91540 0.00123(14) 51733912. 0.001254 0.001479
44199. 0.91549 0.00130(14) 49118700. 0.001254 0.001510
44204. 0.91558 0.00139(15) 45430452. 0.001254 0.001555
44208. 0.91567 0.00153(16) 40801496. 0.001254 0.001620
44212. 0.91577 0.00154(15) 41716016. 0.001254 0.001711
44217. 0.91586 0.00168(17) 36383996. 0.001254 0.001837
44221. 0.91595 0.00180(17) 35379800. 0.001253 0.002004
44226. 0.91604 0.00214(18) 30286698. 0.001253 0.002221
44230. 0.91613 0.00257(20) 24163794. 0.001253 0.002494
44235. 0.91622 0.00269(21) 22967510. 0.001253 0.002829
44239. 0.91632 0.00287(22) 21521720. 0.001253 0.003223
44243. 0.91641 0.00349(24) 18106738. 0.001253 0.003659
44248. 0.91650 0.00421(25) 15493224. 0.001253 0.004133
44252. 0.91659 0.00514(29) 12241290. 0.001253 0.004618
44257. 0.91668 0.00577(30) 10993417. 0.001253 0.005081
44261. 0.91677 0.00603(31) 10486207. 0.001253 0.005498
44266. 0.91687 0.00571(30) 11287338. 0.001253 0.005841
44270. 0.91696 0.00593(31) 10730033. 0.001253 0.006072
44274. 0.91705 0.00619(31) 10293108. 0.001253 0.006167
44279. 0.91714 0.00577(30) 11119635. 0.001253 0.006115
44283. 0.91723 0.00533(29) 11896585. 0.001253 0.005919
44288. 0.91733 0.00539(29) 11660647. 0.001253 0.005613
44292. 0.91742 0.00510(28) 12325373. 0.001253 0.005237
44297. 0.91751 0.00455(27) 13745630. 0.001253 0.004842
44301. 0.91760 0.00404(25) 15803044. 0.001252 0.004470
44305. 0.91769 0.00396(25) 15831040. 0.001252 0.004166
44310. 0.91778 0.00389(25) 16513924. 0.001252 0.003957
44314. 0.91788 0.00425(26) 14901261. 0.001252 0.003858
44319. 0.91797 0.00463(27) 13557988. 0.001252 0.003868
44323. 0.91806 0.00472(27) 13367281. 0.001252 0.003977
44328. 0.91815 0.00468(27) 13845187. 0.001252 0.004170
44332. 0.91824 0.00485(28) 13150826. 0.001252 0.004420
44336. 0.91833 0.00525(28) 12640099. 0.001252 0.004696
44341. 0.91843 0.00605(30) 10766483. 0.001252 0.004963
44345. 0.91852 0.00602(31) 10747475. 0.001252 0.005187
44350. 0.91861 0.00539(29) 12213092. 0.001252 0.005340
44354. 0.91870 0.00518(28) 12499795. 0.001252 0.005391
44359. 0.91879 0.00478(27) 13795588. 0.001252 0.005325
44363. 0.91889 0.00463(26) 14327506. 0.001252 0.005136
44368. 0.91898 0.00457(27) 13818293. 0.001252 0.004840
44372. 0.91907 0.00409(26) 15135101. 0.001252 0.004471
44376. 0.91916 0.00365(24) 17516598. 0.001251 0.004056
44381. 0.91925 0.00341(23) 18702990. 0.001251 0.003632
44385. 0.91935 0.00311(22) 20759120. 0.001251 0.003227
44390. 0.91944 0.00281(21) 22606926. 0.001251 0.002860
44394. 0.91953 0.00227(19) 29087538. 0.001251 0.002545
44399. 0.91962 0.00223(19) 28921096. 0.001251 0.002280
44403. 0.91971 0.00238(20) 26108682. 0.001251 0.002067
44407. 0.91981 0.00218(18) 29767092. 0.001251 0.001902
44412. 0.91990 0.00212(18) 29797682. 0.001251 0.001778
44416. 0.91999 0.00199(17) 33633636. 0.001251 0.001688
44421. 0.92008 0.00213(18) 30230468. 0.001251 0.001626
44425. 0.92017 0.00213(18) 30498204. 0.001251 0.001587
44430. 0.92027 0.00195(17) 32903482. 0.001251 0.001568
44434. 0.92036 0.00173(16) 37051432. 0.001251 0.001565
44439. 0.92045 0.00185(17) 34495688. 0.001251 0.001579
44443. 0.92054 0.00207(18) 30273522. 0.001251 0.001610
44447. 0.92063 0.00195(17) 33131198. 0.001250 0.001657
44452. 0.92073 0.00190(17) 33896784. 0.001250 0.001723
44456. 0.92082 0.00195(17) 33829460. 0.001250 0.001805
44461. 0.92091 0.00204(18) 31433772. 0.001250 0.001903
44465. 0.92100 0.00205(18) 30392730. 0.001250 0.002014
44470. 0.92109 0.00194(17) 33213394. 0.001250 0.002134
44474. 0.92119 0.00223(19) 28435714. 0.001250 0.002257
44479. 0.92128 0.00261(20) 24741858. 0.001250 0.002383
44483. 0.92137 0.00291(21) 21933166. 0.001250 0.002489
44487. 0.92146 0.00282(21) 22801076. 0.001250 0.002573
44492. 0.92156 0.00245(19) 26665974. 0.001250 0.002627
44496. 0.92165 0.00259(20) 24945636. 0.001250 0.002643
44501. 0.92174 0.00288(21) 21889844. 0.001250 0.002617
44505. 0.92183 0.00254(20) 25540658. 0.001250 0.002550
44510. 0.92193 0.00224(19) 28814976. 0.001250 0.002449
44514. 0.92202 0.00219(18) 29566224. 0.001249 0.002322
44519. 0.92211 0.00219(18) 29530648. 0.001249 0.002182
44523. 0.92220 0.00200(18) 32438300. 0.001249 0.002042
44528. 0.92229 0.00192(17) 34149200. 0.001249 0.001915
44532. 0.92239 0.00191(17) 32912154. 0.001249 0.001795
44536. 0.92248 0.00179(17) 35330676. 0.001249 0.001692
44541. 0.92257 0.00182(17) 34732172. 0.001249 0.001607
44545. 0.92266 0.00170(16) 38754848. 0.001249 0.001538
44550. 0.92276 0.00166(16) 37452816. 0.001249 0.001484
44554. 0.92285 0.00138(15) 45846368. 0.001249 0.001443
44559. 0.92294 0.00126(14) 51882532. 0.001249 0.001412
44563. 0.92303 0.00150(15) 41867608. 0.001249 0.001390
44568. 0.92313 0.00140(15) 45846120. 0.001249 0.001373
44572. 0.92322 0.00123(14) 54300736. 0.001249 0.001361
44577. 0.92331 0.00132(14) 48489144. 0.001249 0.001351
44581. 0.92340 0.00129(14) 51098864. 0.001248 0.001344
44585. 0.92349 0.00146(15) 44174916. 0.001248 0.001334
44590. 0.92359 0.00153(16) 40323936. 0.001248 0.001330
44594. 0.92368 0.00152(16) 40551748. 0.001248 0.001326
44599. 0.92377 0.00148(15) 44362892. 0.001248 0.001323
44603. 0.92386 0.00148(15) 42380264. 0.001248 0.001320
44608. 0.92396 0.00137(15) 45730188. 0.001248 0.001318
44612. 0.92405 0.00137(15) 46932260. 0.001248 0.001316
44617. 0.92414 0.00141(15) 45711512. 0.001248 0.001314
44621. 0.92423 0.00138(15) 47287400. 0.001248 0.001312
44626. 0.92433 0.00135(14) 48313588. 0.001248 0.001311
44630. 0.92442 0.00116(13) 56247448. 0.001248 0.001310
44635. 0.92451 0.00102(12) 66067184. 0.001248 0.001309
44639. 0.92460 0.00117(13) 55724428. 0.001248 0.001308
44643. 0.92470 0.00131(14) 49651160. 0.001247 0.001307
44648. 0.92479 0.00129(14) 49898028. 0.001247 0.001306
44652. 0.92488 0.00126(14) 52646980. 0.001247 0.001306
44657. 0.92497 0.00147(15) 44930068. 0.001247 0.001306
44661. 0.92507 0.00146(15) 44151016. 0.001247 0.001305
44666. 0.92516 0.00125(14) 52143148. 0.001247 0.001305
44670. 0.92525 0.00137(15) 44253500. 0.001247 0.001305
44675. 0.92534 0.00123(14) 51412684. 0.001247 0.001305
44679. 0.92544 0.00114(13) 55023344. 0.001247 0.001305
44684. 0.92553 0.00113(13) 58753348. 0.001247 0.001305
44688. 0.92562 0.00142(15) 45164580. 0.001247 0.001305
44693. 0.92571 0.00140(15) 47021928. 0.001247 0.001306
44697. 0.92581 0.00129(14) 49086180. 0.001247 0.001306
44702. 0.92590 0.00128(14) 48265640. 0.001247 0.001307
44706. 0.92599 0.00122(14) 51012584. 0.001246 0.001307
44710. 0.92608 0.00112(13) 59603204. 0.001246 0.001308
44715. 0.92618 0.00124(14) 51866180. 0.001246 0.001309
44719. 0.92627 0.00120(14) 52947008. 0.001246 0.001310
44724. 0.92636 0.00108(13) 59597048. 0.001246 0.001311
44728. 0.92646 0.00120(14) 51458692. 0.001246 0.001312
44733. 0.92655 0.00115(13) 55185604. 0.001246 0.001314
44737. 0.92664 0.00107(13) 60198616. 0.001246 0.001315
44742. 0.92673 0.00109(13) 60347692. 0.001246 0.001316
44746. 0.92683 0.00124(14) 52011700. 0.001246 0.001318
44751. 0.92692 0.00125(14) 53648944. 0.001246 0.001316
44755. 0.92701 0.00111(13) 60333116. 0.001246 0.001318
44760. 0.92710 0.00103(12) 64823348. 0.001246 0.001320
44764. 0.92720 0.00121(14) 52660552. 0.001245 0.001323
44769. 0.92729 0.00127(14) 51071148. 0.001245 0.001325
44773. 0.92738 0.00130(14) 51326836. 0.001245 0.001328
44778. 0.92748 0.00130(14) 51604040. 0.001245 0.001331
44782. 0.92757 0.00127(14) 50951448. 0.001245 0.001334
44787. 0.92766 0.00116(13) 59061544. 0.001245 0.001338
44791. 0.92775 0.00124(14) 51490632. 0.001245 0.001342
44796. 0.92785 0.00105(13) 59787492. 0.001245 0.001346
44800. 0.92794 0.00108(13) 60421816. 0.001245 0.001351
44805. 0.92803 0.00128(14) 51151696. 0.001245 0.001356
44809. 0.92813 0.00126(14) 50895836. 0.001245 0.001362
44814. 0.92822 0.00126(14) 48889524. 0.001245 0.001369
44818. 0.92831 0.00120(14) 53813428. 0.001245 0.001377
44822. 0.92840 0.00117(13) 56625392. 0.001244 0.001386
44827. 0.92850 0.00123(14) 51618636. 0.001244 0.001398
44831. 0.92859 0.00132(15) 47303232. 0.001244 0.001408
44836. 0.92868 0.00125(14) 51439052. 0.001244 0.001425
44840. 0.92877 0.00121(14) 53913916. 0.001244 0.001447
44845. 0.92887 0.00125(14) 51280912. 0.001244 0.001475
44849. 0.92896 0.00128(14) 51520848. 0.001244 0.001513
44854. 0.92905 0.00143(15) 45621116. 0.001244 0.001560
44858. 0.92915 0.00153(15) 42708040. 0.001244 0.001621
44863. 0.92924 0.00160(16) 39548460. 0.001244 0.001697
44867. 0.92933 0.00174(17) 36722576. 0.001244 0.001790
44872. 0.92943 0.00184(17) 35373444. 0.001244 0.001904
44876. 0.92952 0.00194(17) 33527242. 0.001243 0.002039
44881. 0.92961 0.00228(19) 27941912. 0.001243 0.002197
44885. 0.92971 0.00250(20) 25466348. 0.001243 0.002379
44890. 0.92980 0.00279(21) 22438430. 0.001243 0.002587
44894. 0.92989 0.00291(21) 22160340. 0.001243 0.002824
44899. 0.92998 0.00311(22) 20745722. 0.001243 0.003094
44903. 0.93008 0.00355(24) 17865868. 0.001243 0.003400
44908. 0.93017 0.00366(24) 17678878. 0.001243 0.003748
44912. 0.93026 0.00403(25) 15999260. 0.001243 0.004141
44917. 0.93036 0.00476(27) 13321389. 0.001243 0.004583
44921. 0.93045 0.00531(29) 11615793. 0.001243 0.005070
44926. 0.93054 0.00535(29) 12154689. 0.001243 0.005607
44930. 0.93064 0.00648(32) 9891093. 0.001242 0.006191
44935. 0.93073 0.00751(34) 8494387. 0.001242 0.006802
44939. 0.93082 0.0081(4) 7977770. 0.00124 0.00741
44944. 0.93092 0.0087(4) 7532546. 0.00124 0.00799
44948. 0.93101 0.0090(4) 7250840. 0.00124 0.00848
44953. 0.93110 0.0091(4) 7101289. 0.00124 0.00885
44957. 0.93119 0.0089(4) 7210515. 0.00124 0.00905
44962. 0.93129 0.0085(4) 7679897. 0.00124 0.00903
44966. 0.93138 0.0081(4) 8030687. 0.00124 0.00878
44971. 0.93147 0.00763(34) 8483785. 0.001242 0.008314
44975. 0.93157 0.00697(33) 9324114. 0.001242 0.007675
44980. 0.93166 0.00619(31) 10598900. 0.001242 0.006923
44984. 0.93175 0.00582(30) 11204094. 0.001241 0.006126
44989. 0.93185 0.00569(30) 11306585. 0.001241 0.005341
44993. 0.93194 0.00500(28) 12987149. 0.001241 0.004614
44998. 0.93203 0.00406(25) 16200137. 0.001241 0.003972
45002. 0.93213 0.00374(24) 17514820. 0.001241 0.003429
45007. 0.93222 0.00357(23) 18289096. 0.001241 0.002989
45011. 0.93231 0.00327(23) 19554796. 0.001241 0.002644
45016. 0.93241 0.00276(21) 23642400. 0.001241 0.002387
45020. 0.93250 0.00263(20) 24963124. 0.001241 0.002204
45025. 0.93259 0.00275(21) 23499252. 0.001241 0.002084
45029. 0.93269 0.00255(20) 25977268. 0.001241 0.002020
45034. 0.93278 0.00237(19) 27548006. 0.001241 0.002004
45038. 0.93287 0.00239(20) 26257600. 0.001240 0.002034
45043. 0.93297 0.00248(20) 25293314. 0.001240 0.002112
45047. 0.93306 0.00245(19) 26485824. 0.001240 0.002242
45052. 0.93315 0.00261(20) 24749322. 0.001240 0.002430
45056. 0.93325 0.00304(22) 21280452. 0.001240 0.002680
45061. 0.93334 0.00337(23) 19493128. 0.001240 0.003003
45065. 0.93343 0.00388(25) 16131534. 0.001240 0.003393
45070. 0.93353 0.00425(26) 15001343. 0.001240 0.003845
45074. 0.93362 0.00451(26) 14529296. 0.001240 0.004364
45079. 0.93371 0.00514(28) 12664363. 0.001240 0.004928
45083. 0.93381 0.00595(30) 11138659. 0.001240 0.005505
45088. 0.93390 0.00715(33) 9049311. 0.001239 0.006073
45092. 0.93399 0.00750(34) 8600386. 0.001239 0.006600
45097. 0.93409 0.00767(34) 8595241. 0.001239 0.007047
45101. 0.93418 0.0084(4) 7860074. 0.00124 0.00738
45106. 0.93427 0.0086(4) 7609562. 0.00124 0.00755
45110. 0.93437 0.00772(34) 8426858. 0.001239 0.007547
45115. 0.93446 0.00695(32) 9721843. 0.001239 0.007346
45119. 0.93456 0.00669(32) 9898493. 0.001239 0.006965
45124. 0.93465 0.00647(32) 10017342. 0.001239 0.006451
45128. 0.93474 0.00611(31) 10538482. 0.001239 0.005851
45133. 0.93484 0.00536(29) 12119214. 0.001239 0.005218
45137. 0.93493 0.00459(26) 14283073. 0.001238 0.004594
45142. 0.93502 0.00392(24) 16940532. 0.001238 0.004014
45146. 0.93511 0.00360(24) 17859774. 0.001238 0.003498
45151. 0.93521 0.00326(23) 19654082. 0.001238 0.003051
45155. 0.93530 0.00282(21) 23016380. 0.001238 0.002680
45160. 0.93540 0.00261(20) 25805552. 0.001238 0.002386
45164. 0.93549 0.00274(20) 24112080. 0.001238 0.002154
45169. 0.93558 0.00264(20) 24298944. 0.001238 0.001976
45173. 0.93568 0.00245(20) 26050390. 0.001238 0.001842
45178. 0.93577 0.00222(18) 29984050. 0.001238 0.001739
45183. 0.93586 0.00192(17) 34390680. 0.001238 0.001663
45187. 0.93596 0.00172(16) 37641392. 0.001237 0.001606
45192. 0.93605 0.00196(18) 31660670. 0.001237 0.001563
45196. 0.93614 0.00198(18) 32449496. 0.001237 0.001529
45201. 0.93624 0.00177(16) 37203300. 0.001237 0.001502
45205. 0.93633 0.00173(16) 36838900. 0.001237 0.001481
45210. 0.93643 0.00171(17) 36289088. 0.001237 0.001463
45214. 0.93652 0.00159(16) 39826520. 0.001237 0.001448
45219. 0.93661 0.00132(14) 52082056. 0.001237 0.001435
45223. 0.93671 0.00147(15) 44792472. 0.001237 0.001423
45228. 0.93680 0.00164(16) 38906444. 0.001237 0.001413
45232. 0.93689 0.00155(16) 40591616. 0.001237 0.001405
45237. 0.93699 0.00132(14) 48805416. 0.001236 0.001397
45241. 0.93708 0.00122(14) 53210908. 0.001236 0.001391
45246. 0.93718 0.00132(14) 49837960. 0.001236 0.001386
45250. 0.93727 0.00141(15) 45728796. 0.001236 0.001381
45255. 0.93736 0.00145(15) 43879900. 0.001236 0.001378
45259. 0.93746 0.00143(15) 46659360. 0.001236 0.001375
45264. 0.93755 0.00136(14) 50724188. 0.001236 0.001375
45268. 0.93764 0.00140(14) 47701936. 0.001236 0.001376
45273. 0.93774 0.00135(14) 49435208. 0.001236 0.001379
45278. 0.93783 0.00127(14) 53517472. 0.001236 0.001386
45282. 0.93793 0.00129(14) 50102164. 0.001235 0.001398
45287. 0.93802 0.00122(14) 54426152. 0.001235 0.001416
45291. 0.93811 0.00134(14) 48683012. 0.001235 0.001443
45296. 0.93821 0.00132(14) 52641840. 0.001235 0.001481
45300. 0.93830 0.00138(14) 49584704. 0.001235 0.001533
45305. 0.93840 0.00143(15) 46001280. 0.001235 0.001601
45309. 0.93849 0.00175(17) 35554080. 0.001235 0.001687
45314. 0.93858 0.00178(17) 36086728. 0.001235 0.001792
45318. 0.93868 0.00178(16) 37421796. 0.001235 0.001917
45323. 0.93877 0.00211(18) 30154738. 0.001235 0.002059
45327. 0.93886 0.00235(19) 27458182. 0.001234 0.002211
45332. 0.93896 0.00234(19) 28930104. 0.001234 0.002371
45336. 0.93905 0.00253(20) 25699140. 0.001234 0.002529
45341. 0.93915 0.00266(20) 24398762. 0.001234 0.002675
45346. 0.93924 0.00294(22) 21178968. 0.001234 0.002797
45350. 0.93934 0.00297(22) 21490380. 0.001234 0.002885
45355. 0.93943 0.00291(21) 22615840. 0.001234 0.002929
45359. 0.93952 0.00263(20) 25698634. 0.001234 0.002923
45364. 0.93962 0.00259(20) 25086590. 0.001234 0.002863
45368. 0.93971 0.00258(20) 25108104. 0.001234 0.002756
45373. 0.93981 0.00233(19) 27517648. 0.001234 0.002611
45377. 0.93990 0.00205(18) 32583760. 0.001233 0.002444
45382. 0.93999 0.00207(18) 31674326. 0.001233 0.002269
45386. 0.94009 0.00208(18) 31117068. 0.001233 0.002101
45391. 0.94018 0.00190(17) 34389600. 0.001233 0.001944
45395. 0.94028 0.00184(17) 34415808. 0.001233 0.001807
45400. 0.94037 0.00179(17) 35514308. 0.001233 0.001691
45404. 0.94046 0.00142(14) 48251292. 0.001233 0.001596
45409. 0.94056 0.00143(15) 46067436. 0.001233 0.001520
45414. 0.94065 0.00156(15) 42141192. 0.001233 0.001462
45418. 0.94075 0.00149(15) 43230664. 0.001233 0.001418
45423. 0.94084 0.00138(15) 46879144. 0.001232 0.001385
45427. 0.94093 0.00131(14) 48813848. 0.001232 0.001361
45432. 0.94103 0.00137(15) 44835476. 0.001232 0.001343
45436. 0.94112 0.00149(15) 43082792. 0.001232 0.001328
45441. 0.94122 0.00140(15) 46983280. 0.001232 0.001318
45445. 0.94131 0.00122(14) 54115964. 0.001232 0.001309
45450. 0.94140 0.00121(14) 50770260. 0.001232 0.001303
45454. 0.94150 0.00120(14) 52296496. 0.001232 0.001298
45459. 0.94159 0.00134(14) 48604640. 0.001232 0.001293
45464. 0.94169 0.00131(14) 50024136. 0.001231 0.001289
45468. 0.94178 0.00124(14) 51293084. 0.001231 0.001286
45473. 0.94188 0.00126(14) 52178712. 0.001231 0.001282
45477. 0.94197 0.00152(15) 41643388. 0.001231 0.001280
45482. 0.94206 0.00156(16) 41291288. 0.001231 0.001277
45486. 0.94216 0.00146(15) 43936304. 0.001231 0.001269
45491. 0.94225 0.00127(14) 50933928. 0.001231 0.001267
45495. 0.94235 0.00124(14) 52675776. 0.001231 0.001265
45500. 0.94244 0.00128(14) 49312784. 0.001231 0.001263
45504. 0.94253 0.00127(14) 50449764. 0.001231 0.001261
45509. 0.94263 0.00137(15) 46559972. 0.001230 0.001260
45514. 0.94272 0.00132(14) 49021724. 0.001230 0.001258
45518. 0.94282 0.00127(14) 52149620. 0.001230 0.001257
45523. 0.94291 0.00136(15) 45454696. 0.001230 0.001256
45527. 0.94301 0.00119(13) 57069688. 0.001230 0.001255
45532. 0.94310 0.00145(15) 44004440. 0.001230 0.001254
45536. 0.94320 0.00149(15) 42360232. 0.001230 0.001253
45541. 0.94329 0.00132(14) 50870904. 0.001230 0.001252
45545. 0.94338 0.00118(13) 58755616. 0.001230 0.001251
45550. 0.94348 0.00124(14) 52295864. 0.001230 0.001250
45555. 0.94357 0.00134(14) 49342656. 0.001229 0.001249
45559. 0.94367 0.00147(15) 45215492. 0.001229 0.001248
45564. 0.94376 0.00146(15) 44336568. 0.001229 0.001248
45568. 0.94386 0.00119(13) 57141572. 0.001229 0.001247
45573. 0.94395 0.00118(14) 54804580. 0.001229 0.001246
45577. 0.94404 0.00134(14) 47794880. 0.001229 0.001246
45582. 0.94414 0.00127(14) 51434804. 0.001229 0.001245
45587. 0.94424 0.00107(13) 63626932. 0.001229 0.001245
45591. 0.94433 0.00112(13) 63012244. 0.001229 0.001244
45596. 0.94442 0.00138(15) 47297932. 0.001228 0.001243
45600. 0.94452 0.00130(14) 48792088. 0.001228 0.001243
45605. 0.94461 0.00110(13) 60898272. 0.001228 0.001242
45609. 0.94471 0.00109(13) 62875628. 0.001228 0.001242
45614. 0.94480 0.00111(13) 61662036. 0.001228 0.001241
45618. 0.94490 0.00114(13) 58865992. 0.001228 0.001241
45623. 0.94499 0.00102(12) 68160240. 0.001228 0.001241
45628. 0.94508 0.00106(13) 62343768. 0.001228 0.001240
45632. 0.94518 0.00109(13) 61076108. 0.001228 0.001240
45637. 0.94528 0.00117(13) 55760868. 0.001228 0.001239
45641. 0.94537 0.00118(13) 56537536. 0.001227 0.001239
45646. 0.94546 0.00150(15) 41872348. 0.001227 0.001239
45650. 0.94556 0.00140(15) 46885044. 0.001227 0.001238
45655. 0.94565 0.00114(13) 61344148. 0.001227 0.001238
45660. 0.94575 0.00115(13) 58883716. 0.001227 0.001237
45664. 0.94584 0.00124(14) 53292232. 0.001227 0.001237
45669. 0.94594 0.00128(14) 50953100. 0.001227 0.001237
45673. 0.94603 0.00116(13) 60759472. 0.001227 0.001237
45678. 0.94612 0.00120(13) 57760532. 0.001227 0.001236
45682. 0.94622 0.00125(14) 54072792. 0.001226 0.001236
45687. 0.94632 0.00127(14) 51385464. 0.001226 0.001230
45691. 0.94641 0.00118(13) 58119140. 0.001226 0.001230
45696. 0.94650 0.00118(13) 59526688. 0.001226 0.001230
45701. 0.94660 0.00120(13) 56923880. 0.001226 0.001230
45705. 0.94669 0.00113(13) 58250552. 0.001226 0.001229
45710. 0.94679 0.00103(12) 64756092. 0.001226 0.001229
45714. 0.94688 0.00119(14) 53961516. 0.001226 0.001229
45719. 0.94698 0.00133(15) 46821116. 0.001226 0.001229
45723. 0.94707 0.00121(14) 53885968. 0.001225 0.001229
45728. 0.94717 0.00110(13) 61330332. 0.001225 0.001228
45733. 0.94726 0.00120(13) 55346932. 0.001225 0.001228
45737. 0.94736 0.00141(15) 44558084. 0.001225 0.001228
45742. 0.94745 0.00137(15) 45159136. 0.001225 0.001228
45746. 0.94755 0.00121(13) 55460940. 0.001225 0.001228
45751. 0.94764 0.00128(14) 51824456. 0.001225 0.001231
45755. 0.94773 0.00123(14) 54481872. 0.001225 0.001231
45760. 0.94783 0.00121(13) 55636296. 0.001225 0.001231
45765. 0.94793 0.00120(13) 56506648. 0.001224 0.001231
45769. 0.94802 0.00115(13) 57149832. 0.001224 0.001231
45774. 0.94812 0.00118(14) 52946540. 0.001224 0.001231
45778. 0.94821 0.00115(13) 54967164. 0.001224 0.001231
45783. 0.94830 0.00118(13) 56633168. 0.001224 0.001230
45788. 0.94840 0.00133(14) 49733108. 0.001224 0.001230
45792. 0.94849 0.00131(14) 51223780. 0.001224 0.001230
45797. 0.94859 0.00122(14) 54235728. 0.001224 0.001230
45801. 0.94868 0.00109(13) 61668060. 0.001224 0.001230
45806. 0.94878 0.00109(13) 60236356. 0.001223 0.001234
45810. 0.94887 0.00101(13) 63853560. 0.001223 0.001234
45815. 0.94897 0.00101(13) 63456300. 0.001223 0.001234
45820. 0.94906 0.00125(14) 50806136. 0.001223 0.001234
45824. 0.94916 0.00132(14) 49634612. 0.001223 0.001234
45829. 0.94925 0.00126(14) 53913904. 0.001223 0.001234
45833. 0.94935 0.00131(14) 52024328. 0.001223 0.001234
45838. 0.94944 0.00116(13) 61669708. 0.001223 0.001234
45843. 0.94954 0.00118(13) 58761884. 0.001223 0.001234
45847. 0.94963 0.00122(13) 55229176. 0.001222 0.001234
45852. 0.94973 0.00122(14) 54301776. 0.001222 0.001234
45856. 0.94982 0.00120(14) 54195776. 0.001222 0.001234
45861. 0.94992 0.00119(14) 53168428. 0.001222 0.001234
45865. 0.95001 0.00120(14) 54524044. 0.001222 0.001234
45870. 0.95011 0.00116(13) 57883992. 0.001222 0.001234
45875. 0.95020 0.00117(13) 55770804. 0.001222 0.001234
45879. 0.95030 0.00109(13) 63309400. 0.001222 0.001234
45884. 0.95039 0.00121(13) 56178992. 0.001222 0.001233
45888. 0.95049 0.00113(13) 58927032. 0.001221 0.001233
45893. 0.95058 0.00101(12) 65274828. 0.001221 0.001233
45898. 0.95068 0.00114(13) 59069240. 0.001221 0.001233
45902. 0.95077 0.00124(13) 55306100. 0.001221 0.001234
45907. 0.95087 0.00120(13) 56686020. 0.001221 0.001234
45911. 0.95096 0.00119(13) 56698020. 0.001221 0.001234
45916. 0.95106 0.00125(14) 52848632. 0.001221 0.001234
45921. 0.95116 0.00124(14) 53495984. 0.001221 0.001234
45925. 0.95125 0.00114(13) 57313320. 0.001221 0.001235
45930. 0.95135 0.00117(13) 56275396. 0.001220 0.001235
45934. 0.95144 0.00131(14) 49903912. 0.001220 0.001235
45939. 0.95154 0.00127(14) 51345080. 0.001220 0.001235
45944. 0.95163 0.00108(13) 60798368. 0.001220 0.001235
45948. 0.95173 0.00109(13) 59042096. 0.001220 0.001236
45953. 0.95182 0.00125(14) 51952708. 0.001220 0.001236
45957. 0.95192 0.00149(15) 42726920. 0.001220 0.001236
45962. 0.95201 0.00138(15) 47087760. 0.001220 0.001237
45966. 0.95211 0.00120(14) 54707976. 0.001220 0.001247
45971. 0.95220 0.00118(13) 56210864. 0.001219 0.001247
45976. 0.95230 0.00129(14) 51959452. 0.001219 0.001248
45980. 0.95239 0.00131(14) 49842660. 0.001219 0.001248
45985. 0.95249 0.00121(14) 54426464. 0.001219 0.001249
45990. 0.95258 0.00108(13) 62298680. 0.001219 0.001250
45994. 0.95268 0.00113(13) 57326932. 0.001219 0.001250
45999. 0.95277 0.00113(13) 60215636. 0.001219 0.001251
46003. 0.95287 0.00125(14) 54009988. 0.001219 0.001252
46008. 0.95296 0.00132(14) 50428336. 0.001219 0.001252
46012. 0.95306 0.00125(14) 53191728. 0.001218 0.001253
46017. 0.95315 0.00122(14) 54832892. 0.001218 0.001254
46022. 0.95325 0.00115(13) 58628908. 0.001218 0.001255
46026. 0.95335 0.00104(12) 66565364. 0.001218 0.001255
46031. 0.95344 0.00104(12) 67518144. 0.001218 0.001256
46036. 0.95354 0.00116(13) 56606736. 0.001218 0.001257
46040. 0.95363 0.00125(14) 51369840. 0.001218 0.001258
46045. 0.95373 0.00129(14) 50746164. 0.001218 0.001259
46049. 0.95382 0.00126(14) 51033288. 0.001217 0.001260
46054. 0.95392 0.00108(13) 60647928. 0.001217 0.001262
46059. 0.95401 0.00111(13) 62350680. 0.001217 0.001263
46063. 0.95411 0.00127(14) 54096168. 0.001217 0.001264
46068. 0.95420 0.00122(13) 54874948. 0.001217 0.001265
46072. 0.95430 0.00116(13) 55218444. 0.001217 0.001267
46077. 0.95440 0.00108(13) 61306840. 0.001217 0.001268
46082. 0.95449 0.00120(13) 55911348. 0.001217 0.001270
46086. 0.95459 0.00124(14) 53536240. 0.001217 0.001272
46091. 0.95468 0.00116(13) 58997704. 0.001216 0.001273
46095. 0.95478 0.00125(14) 53362852. 0.001216 0.001275
46100. 0.95487 0.00113(13) 58339400. 0.001216 0.001277
46105. 0.95497 0.00080(11) 84963200. 0.001216 0.001280
46109. 0.95506 0.00097(12) 67292472. 0.001216 0.001282
46114. 0.95516 0.00119(14) 54852912. 0.001216 0.001284
46118. 0.95526 0.00115(13) 59714416. 0.001216 0.001287
46123. 0.95535 0.00125(13) 55299456. 0.001216 0.001290
46128. 0.95545 0.00132(14) 52894316. 0.001215 0.001294
46132. 0.95554 0.00126(14) 54677004. 0.001215 0.001297
46137. 0.95564 0.00133(14) 48685092. 0.001215 0.001302
46142. 0.95573 0.00124(14) 53586952. 0.001215 0.001307
46146. 0.95583 0.00113(13) 60641884. 0.001215 0.001314
46151. 0.95592 0.00127(14) 52913688. 0.001215 0.001322
46155. 0.95602 0.00138(14) 49460708. 0.001215 0.001333
46160. 0.95612 0.00129(13) 55121304. 0.001215 0.001347
46165. 0.95621 0.00125(13) 55569168. 0.001215 0.001366
46169. 0.95631 0.00131(14) 51407596. 0.001214 0.001390
46174. 0.95640 0.00132(14) 50969900. 0.001214 0.001422
46178. 0.95650 0.00137(14) 49285256. 0.001214 0.001461
46183. 0.95659 0.00140(14) 48421708. 0.001214 0.001508
46188. 0.95669 0.00148(15) 45458724. 0.001214 0.001565
46192. 0.95679 0.00162(16) 39604420. 0.001214 0.001631
46197. 0.95688 0.00158(16) 40965104. 0.001214 0.001701
46202. 0.95698 0.00149(15) 44080512. 0.001214 0.001775
46206. 0.95707 0.00154(15) 43182644. 0.001213 0.001849
46211. 0.95717 0.00171(16) 39456952. 0.001213 0.001919
46215. 0.95727 0.00197(17) 33964240. 0.001213 0.001979
46220. 0.95736 0.00200(18) 32376164. 0.001213 0.002026
46225. 0.95746 0.00182(16) 37248168. 0.001213 0.002057
46229. 0.95755 0.00190(17) 35725108. 0.001213 0.002068
46234. 0.95765 0.00183(17) 36413872. 0.001213 0.002061
46239. 0.95774 0.00165(16) 41157984. 0.001213 0.002040
46243. 0.95784 0.00177(16) 37874812. 0.001212 0.002011
46248. 0.95794 0.00189(17) 35131432. 0.001212 0.001984
46252. 0.95803 0.00205(18) 31841850. 0.001212 0.001970
46257. 0.95813 0.00195(17) 34716624. 0.001212 0.001981
46262. 0.95822 0.00192(17) 35003140. 0.001212 0.002027
46266. 0.95832 0.00187(17) 35354216. 0.001212 0.002122
46271. 0.95842 0.00199(18) 32277812. 0.001212 0.002279
46276. 0.95851 0.00228(19) 28661146. 0.001212 0.002507
46280. 0.95861 0.00280(21) 23671460. 0.001212 0.002822
46285. 0.95870 0.00356(23) 18263990. 0.001211 0.003229
46289. 0.95880 0.00384(24) 17313208. 0.001211 0.003727
46294. 0.95889 0.00428(26) 15331395. 0.001211 0.004315
46299. 0.95899 0.00491(27) 13682953. 0.001211 0.004992
46303. 0.95909 0.00612(30) 10822299. 0.001211 0.005728
46308. 0.95918 0.00731(33) 9161728. 0.001211 0.006494
46313. 0.95928 0.0084(4) 7853820. 0.00121 0.00725
46317. 0.95937 0.0093(4) 7061879. 0.00121 0.00795
46322. 0.95947 0.0097(4) 6780816. 0.00121 0.00854
46326. 0.95956 0.0098(4) 6815896. 0.00121 0.00898
46331. 0.95966 0.0100(4) 6580529. 0.00121 0.00921
46336. 0.95976 0.0092(4) 7241703. 0.00121 0.00921
46340. 0.95985 0.00842(35) 8128671. 0.001210 0.008947
46345. 0.95995 0.00804(35) 8259825. 0.001210 0.008456
46350. 0.96005 0.00739(33) 9097273. 0.001210 0.007789
46354. 0.96014 0.00705(33) 9242184. 0.001210 0.007010
46359. 0.96024 0.00602(30) 11047840. 0.001209 0.006190
46364. 0.96034 0.00552(30) 11451248. 0.001209 0.005396
46368. 0.96043 0.00462(26) 14520441. 0.001209 0.004662
46373. 0.96053 0.00404(24) 16840202. 0.001209 0.004007
46377. 0.96062 0.00369(23) 19152186. 0.001209 0.003452
46382. 0.96072 0.00363(23) 18641858. 0.001209 0.002998
46387. 0.96081 0.00344(23) 19371192. 0.001209 0.002637
46391. 0.96091 0.00323(22) 20121930. 0.001209 0.002359
46396. 0.96101 0.00274(20) 24220866. 0.001208 0.002153
46401. 0.96110 0.00235(18) 29412364. 0.001208 0.002000
46405. 0.96120 0.00247(19) 26492294. 0.001208 0.001888
46410. 0.96129 0.00241(19) 27371228. 0.001208 0.001810
46415. 0.96139 0.00243(19) 26703824. 0.001208 0.001754
46419. 0.96149 0.00226(18) 30075320. 0.001208 0.001717
46424. 0.96158 0.00225(18) 29449316. 0.001208 0.001691
46429. 0.96168 0.00209(18) 32421296. 0.001208 0.001676
46433. 0.96178 0.00181(16) 38012460. 0.001207 0.001667
46438. 0.96187 0.00167(16) 39452728. 0.001207 0.001666
46442. 0.96197 0.00166(16) 40643244. 0.001207 0.001670
46447. 0.96207 0.00180(17) 35180868. 0.001207 0.001682
46452. 0.96216 0.00150(15) 43884732. 0.001207 0.001702
46456. 0.96226 0.00150(15) 43859920. 0.001207 0.001734
46461. 0.96235 0.00177(17) 36541760. 0.001207 0.001780
46466. 0.96245 0.00190(17) 33674804. 0.001207 0.001849
46470. 0.96255 0.00181(17) 36259412. 0.001207 0.001945
46475. 0.96264 0.00193(17) 34458020. 0.001206 0.002083
46480. 0.96274 0.00235(19) 27231088. 0.001206 0.002274
46484. 0.96283 0.00242(19) 27548588. 0.001206 0.002534
46489. 0.96293 0.00294(22) 21603144. 0.001206 0.002879
46494. 0.96303 0.00331(22) 20024928. 0.001206 0.003324
46498. 0.96312 0.00370(24) 17972074. 0.001206 0.003890
46503. 0.96322 0.00450(26) 14415993. 0.001206 0.004574
46508. 0.96332 0.00565(29) 11632344. 0.001206 0.005369
46512. 0.96341 0.00677(32) 9809186. 0.001205 0.006286
46517. 0.96351 0.0084(4) 7629247. 0.00121 0.00729
46521. 0.96360 0.0098(4) 6726704. 0.00121 0.00835
46526. 0.96370 0.0112(4) 6049369. 0.00121 0.00943
46531. 0.96380 0.0123(4) 5330921. 0.00120 0.01044
46535. 0.96390 0.0129(4) 5164762. 0.00120 0.01134
46540. 0.96399 0.0141(5) 4599133. 0.00120 0.01205
46545. 0.96409 0.0136(5) 4866680. 0.00120 0.01250
46549. 0.96419 0.0135(5) 4849611. 0.00120 0.01263
46554. 0.96428 0.0123(4) 5422975. 0.00120 0.01241
46559. 0.96438 0.0116(4) 5595593. 0.00120 0.01186
46563. 0.96447 0.0101(4) 6650980. 0.00120 0.01102
46568. 0.96457 0.0095(4) 7004032. 0.00120 0.00997
46573. 0.96467 0.0092(4) 7093546. 0.00120 0.00883
46577. 0.96476 0.00799(35) 8359155. 0.001204 0.007683
46582. 0.96486 0.00736(34) 8601884. 0.001204 0.006593
46587. 0.96496 0.00616(31) 10583036. 0.001203 0.005606
46591. 0.96505 0.00573(30) 11226522. 0.001203 0.004750
46596. 0.96515 0.00513(28) 13007584. 0.001203 0.004032
46601. 0.96525 0.00471(27) 13905655. 0.001203 0.003441
46605. 0.96534 0.00413(25) 15894364. 0.001203 0.002975
46610. 0.96544 0.00391(25) 16556485. 0.001203 0.002621
46615. 0.96554 0.00358(23) 18411706. 0.001203 0.002349
46619. 0.96563 0.00324(22) 20091300. 0.001203 0.002146
46624. 0.96573 0.00274(20) 24647296. 0.001202 0.001995
46629. 0.96583 0.00242(19) 27053016. 0.001202 0.001881
46633. 0.96592 0.00245(20) 25748518. 0.001202 0.001799
46638. 0.96602 0.00243(19) 27249768. 0.001202 0.001737
46643. 0.96612 0.00229(19) 29128352. 0.001202 0.001690
46647. 0.96621 0.00234(19) 27279076. 0.001202 0.001656
46652. 0.96631 0.00212(18) 31933202. 0.001202 0.001632
46657. 0.96641 0.00213(18) 30813280. 0.001202 0.001618
46661. 0.96650 0.00202(18) 32381678. 0.001201 0.001612
46666. 0.96660 0.00177(16) 37474132. 0.001201 0.001617
46671. 0.96670 0.00175(16) 38395520. 0.001201 0.001631
46675. 0.96679 0.00196(17) 33619468. 0.001201 0.001657
46680. 0.96689 0.00184(17) 36434872. 0.001201 0.001693
46685. 0.96699 0.00161(16) 41272124. 0.001201 0.001740
46689. 0.96708 0.00166(16) 39205972. 0.001201 0.001796
46694. 0.96718 0.00185(17) 34083236. 0.001201 0.001858
46699. 0.96728 0.00184(17) 35995540. 0.001200 0.001925
46703. 0.96737 0.00204(18) 31558696. 0.001200 0.001990
46708. 0.96747 0.00196(17) 33459458. 0.001200 0.002052
46713. 0.96757 0.00205(18) 32028690. 0.001200 0.002104
46717. 0.96766 0.00215(18) 31300402. 0.001200 0.002141
46722. 0.96776 0.00224(18) 29941566. 0.001200 0.002158
46727. 0.96786 0.00247(19) 26482538. 0.001200 0.002152
46731. 0.96795 0.00226(19) 28680792. 0.001200 0.002121
46736. 0.96805 0.00201(18) 31835248. 0.001199 0.002069
46741. 0.96815 0.00184(17) 35520688. 0.001199 0.002000
46745. 0.96824 0.00164(16) 40765992. 0.001199 0.001920
46750. 0.96834 0.00159(15) 42048708. 0.001199 0.001838
46755. 0.96844 0.00155(15) 43125352. 0.001199 0.001758
46759. 0.96854 0.00156(15) 42015444. 0.001199 0.001686
46764. 0.96863 0.00153(15) 42770440. 0.001199 0.001624
46769. 0.96873 0.00148(15) 45933096. 0.001198 0.001572
46773. 0.96883 0.00141(15) 46978544. 0.001198 0.001532
46778. 0.96892 0.00144(15) 43971788. 0.001198 0.001504
46783. 0.96902 0.00132(14) 49743024. 0.001198 0.001486
46787. 0.96912 0.00121(14) 54539868. 0.001198 0.001480
46792. 0.96921 0.00134(14) 49729616. 0.001198 0.001485
46797. 0.96931 0.00154(15) 42872108. 0.001198 0.001503
46802. 0.96941 0.00160(16) 39889228. 0.001198 0.001536
46806. 0.96950 0.00155(15) 41815296. 0.001197 0.001589
46811. 0.96960 0.00151(15) 43343744. 0.001197 0.001667
46816. 0.96970 0.00145(15) 45232924. 0.001197 0.001776
46820. 0.96980 0.00156(16) 41614924. 0.001197 0.001922
46825. 0.96989 0.00192(17) 33957172. 0.001197 0.002113
46830. 0.96999 0.00271(21) 23450816. 0.001197 0.002352
46834. 0.97009 0.00304(21) 21809548. 0.001197 0.002637
46839. 0.97018 0.00342(23) 19078232. 0.001197 0.002970
46844. 0.97028 0.00384(25) 16303625. 0.001196 0.003348
46848. 0.97038 0.00419(25) 15445467. 0.001196 0.003754
46853. 0.97048 0.00463(26) 14490827. 0.001196 0.004172
46858. 0.97057 0.00529(28) 12450418. 0.001196 0.004579
46862. 0.97067 0.00566(29) 11815493. 0.001196 0.004949
46867. 0.97077 0.00642(32) 9925965. 0.001196 0.005252
46872. 0.97086 0.00624(31) 10625471. 0.001196 0.005464
46876. 0.97096 0.00603(30) 11140729. 0.001196 0.005559
46881. 0.97106 0.00590(30) 11382224. 0.001195 0.005519
46886. 0.97115 0.00545(28) 12364067. 0.001195 0.005341
46891. 0.97125 0.00493(27) 13454597. 0.001195 0.005042
46895. 0.97135 0.00466(27) 13950056. 0.001195 0.004655
46900. 0.97145 0.00424(26) 15264140. 0.001195 0.004217
46905. 0.97154 0.00399(25) 16405401. 0.001195 0.003766
46909. 0.97164 0.00382(24) 17513164. 0.001195 0.003332
46914. 0.97174 0.00347(23) 19257124. 0.001195 0.002933
46919. 0.97183 0.00293(21) 23286234. 0.001194 0.002590
46923. 0.97193 0.00261(20) 26064230. 0.001194 0.002299
46928. 0.97203 0.00244(19) 28049808. 0.001194 0.002061
46933. 0.97213 0.00223(18) 30256486. 0.001194 0.001874
46937. 0.97222 0.00207(18) 31916378. 0.001194 0.001730
46942. 0.97232 0.00212(18) 31282696. 0.001194 0.001621
46947. 0.97242 0.00208(18) 31942800. 0.001194 0.001540
46952. 0.97252 0.00193(17) 34521756. 0.001194 0.001480
46956. 0.97261 0.00191(17) 34261868. 0.001193 0.001436
46961. 0.97271 0.00175(16) 37271116. 0.001193 0.001403
46966. 0.97281 0.00152(15) 43884764. 0.001193 0.001378
46970. 0.97291 0.00152(15) 43598144. 0.001193 0.001359
46975. 0.97300 0.00152(15) 42824368. 0.001193 0.001343
46980. 0.97310 0.00149(15) 45068664. 0.001193 0.001330
46984. 0.97320 0.00159(15) 42154908. 0.001193 0.001320
46989. 0.97330 0.00152(15) 42881760. 0.001193 0.001310
46994. 0.97339 0.00130(14) 48944796. 0.001192 0.001302
46999. 0.97349 0.00124(14) 52748056. 0.001192 0.001295
47003. 0.97359 0.00120(13) 55637792. 0.001192 0.001288
47008. 0.97368 0.00119(13) 56461428. 0.001192 0.001282
47013. 0.97378 0.00132(14) 49371740. 0.001192 0.001277
47017. 0.97388 0.00125(14) 52162844. 0.001192 0.001272
47022. 0.97398 0.00126(14) 52808240. 0.001192 0.001268
47027. 0.97407 0.00130(14) 50851440. 0.001192 0.001264
47031. 0.97417 0.00128(14) 51074640. 0.001191 0.001260
47036. 0.97427 0.00126(14) 53515444. 0.001191 0.001256
47041. 0.97437 0.00133(14) 50828384. 0.001191 0.001253
47046. 0.97446 0.00131(14) 50778612. 0.001191 0.001250
47050. 0.97456 0.00118(13) 57532308. 0.001191 0.001247
47055. 0.97466 0.00121(13) 55994876. 0.001191 0.001245
47060. 0.97476 0.00131(14) 50060624. 0.001191 0.001242
47064. 0.97485 0.00141(15) 46593824. 0.001190 0.001240
47069. 0.97495 0.00141(15) 47432584. 0.001190 0.001238
47074. 0.97505 0.00134(14) 48926076. 0.001190 0.001236
47078. 0.97515 0.00110(13) 62620472. 0.001190 0.001234
47083. 0.97524 0.00113(13) 57994052. 0.001190 0.001232
47088. 0.97534 0.00125(14) 49844380. 0.001190 0.001231
47093. 0.97544 0.00129(14) 49393212. 0.001190 0.001229
47097. 0.97554 0.00130(14) 50434580. 0.001190 0.001228
47102. 0.97563 0.00126(14) 52660272. 0.001189 0.001226
47107. 0.97573 0.00130(14) 48942944. 0.001189 0.001225
47111. 0.97583 0.00137(15) 46763992. 0.001189 0.001224
47116. 0.97593 0.00138(15) 46352588. 0.001189 0.001223
47121. 0.97602 0.00119(13) 55390868. 0.001189 0.001221
47126. 0.97612 0.00105(12) 64269196. 0.001189 0.001210
47130. 0.97622 0.00115(13) 57006372. 0.001189 0.001209
47135. 0.97632 0.00126(14) 52003628. 0.001189 0.001208
47140. 0.97642 0.00125(14) 53679664. 0.001188 0.001207
47144. 0.97651 0.00115(13) 58923072. 0.001188 0.001206
47149. 0.97661 0.00140(15) 46705228. 0.001188 0.001206
47154. 0.97671 0.00154(15) 43098764. 0.001188 0.001205
47159. 0.97681 0.00142(15) 46957508. 0.001188 0.001204
47163. 0.97690 0.00138(14) 49292896. 0.001188 0.001204
47168. 0.97700 0.00132(14) 52319436. 0.001188 0.001203
47173. 0.97710 0.00133(14) 50352940. 0.001188 0.001202
47177. 0.97720 0.00137(14) 48107524. 0.001187 0.001202
47182. 0.97729 0.00145(15) 45464780. 0.001187 0.001201
47187. 0.97739 0.00140(15) 47046948. 0.001187 0.001201
47192. 0.97749 0.00131(14) 49365416. 0.001187 0.001200
47196. 0.97759 0.00123(14) 53693944. 0.001187 0.001200
47201. 0.97769 0.00117(13) 58236404. 0.001187 0.001199
47206. 0.97778 0.00119(13) 54869980. 0.001187 0.001199
47211. 0.97788 0.00115(13) 56541484. 0.001187 0.001198
47215. 0.97798 0.00106(13) 63215564. 0.001186 0.001198
47220. 0.97808 0.00115(13) 56056240. 0.001186 0.001197
47225. 0.97817 0.00119(13) 55305144. 0.001186 0.001197
47229. 0.97827 0.00124(14) 52216224. 0.001186 0.001196
47234. 0.97837 0.00120(14) 54312600. 0.001186 0.001196
47239. 0.97847 0.00109(13) 61050948. 0.001186 0.001196
47244. 0.97857 0.00113(13) 57702112. 0.001186 0.001195
47248. 0.97867 0.00121(14) 53816556. 0.001185 0.001194
47253. 0.97876 0.00115(13) 57496640. 0.001185 0.001194
47258. 0.97886 0.00114(13) 58770532. 0.001185 0.001193
47262. 0.97896 0.00119(13) 56378948. 0.001185 0.001193
47267. 0.97906 0.00111(13) 58910924. 0.001185 0.001193
47272. 0.97915 0.00109(13) 60358944. 0.001185 0.001193
47277. 0.97925 0.00112(13) 60098376. 0.001185 0.001192
47281. 0.97935 0.00119(13) 56308476. 0.001185 0.001192
47286. 0.97945 0.00131(14) 50366920. 0.001184 0.001192
47291. 0.97955 0.00124(14) 51787912. 0.001184 0.001191
47296. 0.97964 0.00109(13) 61405700. 0.001184 0.001191
47300. 0.97974 0.00118(13) 55852400. 0.001184 0.001191
47305. 0.97984 0.00130(14) 50303480. 0.001184 0.001190
47310. 0.97994 0.00124(14) 54188572. 0.001184 0.001190
47315. 0.98004 0.00134(15) 47238664. 0.001184 0.001190
47319. 0.98013 0.00108(13) 62862728. 0.001184 0.001190
47324. 0.98023 0.00106(13) 62618652. 0.001183 0.001189
47329. 0.98033 0.00111(13) 59940416. 0.001183 0.001189
47333. 0.98043 0.00127(14) 49830264. 0.001183 0.001189
47338. 0.98053 0.00121(14) 53912984. 0.001183 0.001193
47343. 0.98063 0.00119(13) 55191600. 0.001183 0.001192
47348. 0.98072 0.00107(13) 62670860. 0.001183 0.001192
47352. 0.98082 0.00115(13) 56030368. 0.001183 0.001192
47357. 0.98092 0.00123(14) 51362272. 0.001183 0.001192
47362. 0.98102 0.00128(14) 50310312. 0.001182 0.001192
47367. 0.98111 0.00134(14) 49122796. 0.001182 0.001192
47371. 0.98121 0.00124(14) 50171576. 0.001182 0.001192
47376. 0.98131 0.00111(13) 59542360. 0.001182 0.001191
47381. 0.98141 0.00126(14) 50982304. 0.001182 0.001191
47386. 0.98151 0.00127(14) 51372100. 0.001182 0.001191
47390. 0.98161 0.00121(14) 51993096. 0.001182 0.001191
47395. 0.98170 0.00103(13) 62728696. 0.001182 0.001191
47400. 0.98180 0.00123(14) 52105080. 0.001181 0.001191
47404. 0.98190 0.00128(14) 53016716. 0.001181 0.001186
47409. 0.98200 0.00130(14) 51328144. 0.001181 0.001186
47414. 0.98210 0.00125(14) 52302108. 0.001181 0.001186
47419. 0.98220 0.00112(13) 59678796. 0.001181 0.001186
47423. 0.98229 0.00111(13) 61456756. 0.001181 0.001186
47428. 0.98239 0.00110(13) 59944628. 0.001181 0.001186
47433. 0.98249 0.00114(13) 58371244. 0.001181 0.001186
47438. 0.98259 0.00118(13) 56712376. 0.001180 0.001186
47442. 0.98269 0.00114(13) 57126136. 0.001180 0.001186
47447. 0.98278 0.00102(12) 67309280. 0.001180 0.001186
47452. 0.98288 0.00114(13) 57844368. 0.001180 0.001186
47457. 0.98298 0.00120(13) 57852008. 0.001180 0.001186
47461. 0.98308 0.00128(14) 52422224. 0.001180 0.001186
47466. 0.98318 0.00116(14) 54786124. 0.001180 0.001186
47471. 0.98328 0.00117(13) 55771048. 0.001179 0.001186
47476. 0.98337 0.00118(13) 57444888. 0.001179 0.001186
47480. 0.98347 0.00115(13) 58844896. 0.001179 0.001187
47485. 0.98357 0.00120(13) 55928380. 0.001179 0.001187
47490. 0.98367 0.00119(13) 55372600. 0.001179 0.001187
47495. 0.98377 0.00126(14) 52792192. 0.001179 0.001187
47499. 0.98387 0.00127(14) 52275104. 0.001179 0.001187
47504. 0.98397 0.00113(13) 58990100. 0.001179 0.001187
47509. 0.98406 0.00106(13) 62672240. 0.001178 0.001187
47514. 0.98416 0.00121(13) 55253732. 0.001178 0.001187
47518. 0.98426 0.00140(15) 46573760. 0.001178 0.001187
47523. 0.98436 0.00139(14) 49775604. 0.001178 0.001187
47528. 0.98446 0.00131(14) 52142652. 0.001178 0.001187
47533. 0.98456 0.00120(13) 58465548. 0.001178 0.001187
47537. 0.98466 0.00138(14) 48972604. 0.001178 0.001188
47542. 0.98475 0.00131(14) 50950672. 0.001178 0.001188
47547. 0.98485 0.00135(14) 48250980. 0.001177 0.001188
47552. 0.98495 0.00123(14) 53907704. 0.001177 0.001188
47556. 0.98505 0.00111(13) 59237312. 0.001177 0.001188
47561. 0.98515 0.00124(14) 52101360. 0.001177 0.001189
47566. 0.98525 0.00115(13) 58648812. 0.001177 0.001189
47571. 0.98535 0.00107(13) 62997848. 0.001177 0.001189
47576. 0.98544 0.00124(14) 52296528. 0.001177 0.001189
47580. 0.98554 0.00119(14) 54154364. 0.001177 0.001190
47585. 0.98564 0.00108(13) 60222836. 0.001176 0.001190
47590. 0.98574 0.00121(14) 54033696. 0.001176 0.001190
47595. 0.98584 0.00129(14) 49444672. 0.001176 0.001191
47599. 0.98594 0.00130(14) 51909992. 0.001176 0.001191
47604. 0.98604 0.00133(14) 52602716. 0.001176 0.001191
47609. 0.98613 0.00137(14) 47800268. 0.001176 0.001192
47614. 0.98623 0.00119(13) 55447196. 0.001176 0.001192
47618. 0.98633 0.00108(13) 60359228. 0.001176 0.001193
47623. 0.98643 0.00116(14) 51068960. 0.001175 0.001193
47628. 0.98653 0.00113(14) 54476500. 0.001175 0.001194
47633. 0.98663 0.00136(15) 47279056. 0.001175 0.001194
47637. 0.98673 0.00163(16) 40275132. 0.001175 0.001195
47642. 0.98682 0.00143(15) 46728948. 0.001175 0.001196
47647. 0.98692 0.00130(14) 49301940. 0.001175 0.001196
47652. 0.98702 0.00123(14) 51333808. 0.001175 0.001197
47656. 0.98712 0.00113(13) 58830620. 0.001175 0.001198
47661. 0.98722 0.00126(14) 52049028. 0.001174 0.001199
47666. 0.98732 0.00129(14) 51951512. 0.001174 0.001200
47671. 0.98742 0.00125(14) 52999456. 0.001174 0.001201
47676. 0.98752 0.00115(13) 57895988. 0.001174 0.001202
47680. 0.98761 0.00111(13) 62829776. 0.001174 0.001203
47685. 0.98771 0.00129(14) 51234688. 0.001174 0.001205
47690. 0.98781 0.00113(13) 59866912. 0.001174 0.001206
47695. 0.98791 0.00103(12) 66426476. 0.001174 0.001208
47699. 0.98801 0.00101(12) 64785616. 0.001173 0.001209
47704. 0.98811 0.00094(12) 72486320. 0.001173 0.001211
47709. 0.98821 0.00114(13) 59488700. 0.001173 0.001213
47714. 0.98831 0.00138(14) 49642652. 0.001173 0.001215
47718. 0.98841 0.00138(14) 49409472. 0.001173 0.001218
47723. 0.98850 0.00117(13) 58471576. 0.001173 0.001220
47728. 0.98860 0.00111(13) 57509180. 0.001173 0.001223
47733. 0.98870 0.00100(13) 63474388. 0.001173 0.001226
47738. 0.98880 0.00096(12) 70570224. 0.001172 0.001230
47742. 0.98890 0.00116(13) 56687692. 0.001172 0.001234
47747. 0.98900 0.00116(13) 58062836. 0.001172 0.001238
47752. 0.98910 0.00119(13) 55206220. 0.001172 0.001243
47757. 0.98920 0.00128(14) 50685648. 0.001172 0.001249
47761. 0.98930 0.00122(14) 54574212. 0.001172 0.001256
47766. 0.98940 0.00124(14) 54154216. 0.001172 0.001264
47771. 0.98950 0.00135(15) 46986976. 0.001172 0.001275
47776. 0.98959 0.00127(14) 52238628. 0.001171 0.001289
47781. 0.98969 0.00145(15) 44679460. 0.001171 0.001308
47785. 0.98979 0.00149(15) 44647748. 0.001171 0.001334
47790. 0.98989 0.00134(14) 49956120. 0.001171 0.001371
47795. 0.98999 0.00137(15) 47560928. 0.001171 0.001421
47800. 0.99009 0.00154(15) 41735000. 0.001171 0.001491
47804. 0.99019 0.00149(15) 44413120. 0.001171 0.001587
47809. 0.99029 0.00167(16) 37389576. 0.001171 0.001713
47814. 0.99038 0.00192(17) 32775596. 0.001170 0.001877
47819. 0.99048 0.00227(19) 27673416. 0.001170 0.002086
47824. 0.99058 0.00247(20) 25980532. 0.001170 0.002342
47828. 0.99068 0.00266(20) 24823750. 0.001170 0.002644
47833. 0.99078 0.00312(22) 21049796. 0.001170 0.002988
47838. 0.99088 0.00353(23) 18772344. 0.001170 0.003365
47843. 0.99098 0.00394(24) 16991998. 0.001170 0.003759
47848. 0.99108 0.00458(27) 14183827. 0.001170 0.004148
47852. 0.99118 0.00474(27) 14225619. 0.001169 0.004512
47857. 0.99128 0.00521(28) 12787540. 0.001169 0.004830
47862. 0.99138 0.00554(29) 11759251. 0.001169 0.005070
47867. 0.99148 0.00522(28) 12830166. 0.001169 0.005206
47871. 0.99158 0.00526(28) 12876984. 0.001169 0.005218
47876. 0.99167 0.00524(28) 12862284. 0.001169 0.005099
47881. 0.99177 0.00488(27) 13474971. 0.001169 0.004858
47886. 0.99187 0.00462(27) 13960644. 0.001169 0.004525
47891. 0.99197 0.00427(25) 15413056. 0.001168 0.004131
47895. 0.99207 0.00378(24) 17354924. 0.001168 0.003709
47900. 0.99217 0.00352(23) 18551890. 0.001168 0.003292
47905. 0.99227 0.00342(23) 19138656. 0.001168 0.002905
47910. 0.99237 0.00321(22) 20070462. 0.001168 0.002562
47915. 0.99247 0.00268(20) 24079620. 0.001168 0.002269
47919. 0.99257 0.00247(19) 26323026. 0.001168 0.002028
47924. 0.99267 0.00243(19) 27221104. 0.001168 0.001837
47929. 0.99277 0.00224(19) 29187134. 0.001167 0.001688
47934. 0.99287 0.00214(18) 30337448. 0.001167 0.001576
47939. 0.99297 0.00211(18) 31585394. 0.001167 0.001491
47943. 0.99306 0.00195(17) 35126980. 0.001167 0.001429
47948. 0.99316 0.00190(17) 35628128. 0.001167 0.001384
47953. 0.99326 0.00181(17) 35958992. 0.001167 0.001350
47958. 0.99336 0.00160(16) 41105252. 0.001167 0.001325
47963. 0.99346 0.00147(15) 46144792. 0.001167 0.001306
47967. 0.99356 0.00159(15) 41676732. 0.001166 0.001291
47972. 0.99366 0.00160(16) 40149724. 0.001166 0.001278
47977. 0.99376 0.00139(15) 46508256. 0.001166 0.001268
47982. 0.99386 0.00136(14) 48355244. 0.001166 0.001259
47986. 0.99396 0.00124(14) 54590760. 0.001166 0.001252
47991. 0.99406 0.00130(14) 48932068. 0.001166 0.001245
47996. 0.99416 0.00135(14) 47630308. 0.001166 0.001239
48001. 0.99426 0.00138(14) 49480380. 0.001166 0.001234
48006. 0.99436 0.00123(13) 56163920. 0.001165 0.001229
48010. 0.99446 0.00117(13) 56740328. 0.001165 0.001225
48015. 0.99455 0.00127(14) 50746124. 0.001165 0.001221
48020. 0.99465 0.00121(14) 53370076. 0.001165 0.001217
48025. 0.99475 0.00120(14) 54192068. 0.001165 0.001214
48030. 0.99486 0.00115(13) 57040324. 0.001165 0.001211
48035. 0.99495 0.00116(13) 58264812. 0.001165 0.001208
48039. 0.99505 0.00117(13) 55072712. 0.001165 0.001206
48044. 0.99515 0.00104(13) 60279036. 0.001164 0.001203
48049. 0.99525 0.00121(14) 54459628. 0.001164 0.001201
48054. 0.99535 0.00136(14) 49705388. 0.001164 0.001199
48059. 0.99545 0.00119(13) 57144820. 0.001164 0.001197
48063. 0.99555 0.00110(13) 58507752. 0.001164 0.001195
48068. 0.99565 0.00118(14) 54444272. 0.001164 0.001194
48073. 0.99575 0.00123(14) 52971384. 0.001164 0.001192
48078. 0.99585 0.00125(14) 50741252. 0.001164 0.001191
48083. 0.99595 0.00107(13) 63017008. 0.001163 0.001189
48087. 0.99605 0.00109(13) 60111452. 0.001163 0.001188
48092. 0.99615 0.00102(13) 63034916. 0.001163 0.001187
48097. 0.99625 0.00104(12) 65959724. 0.001163 0.001186
48102. 0.99635 0.00122(13) 55150928. 0.001163 0.001185
48107. 0.99645 0.00134(14) 48741300. 0.001163 0.001184
48111. 0.99655 0.00134(14) 49927100. 0.001163 0.001183
48116. 0.99665 0.00129(14) 50630104. 0.001163 0.001182
48121. 0.99675 0.00128(14) 49351612. 0.001163 0.001181
48126. 0.99685 0.00116(13) 57666264. 0.001162 0.001180
48131. 0.99695 0.00122(14) 54687776. 0.001162 0.001180
48135. 0.99705 0.00124(14) 53691952. 0.001162 0.001179
48140. 0.99715 0.00137(15) 46377264. 0.001162 0.001178
48145. 0.99725 0.00130(14) 49373900. 0.001162 0.001177
48150. 0.99735 0.00108(13) 63163340. 0.001162 0.001177
48155. 0.99744 0.00120(14) 54329976. 0.001162 0.001176
48160. 0.99754 0.00128(14) 50386192. 0.001162 0.001176
48164. 0.99764 0.00123(14) 52904276. 0.001161 0.001175
48169. 0.99774 0.00118(14) 54022432. 0.001161 0.001174
48174. 0.99784 0.00116(14) 54296280. 0.001161 0.001174
48179. 0.99794 0.00128(14) 49362960. 0.001161 0.001173
48184. 0.99804 0.00133(14) 48338760. 0.001161 0.001173
48188. 0.99814 0.00131(14) 51065180. 0.001161 0.001172
48193. 0.99824 0.00126(13) 55239544. 0.001161 0.001172
48198. 0.99834 0.00125(13) 56073984. 0.001161 0.001171
48203. 0.99844 0.00148(15) 44553452. 0.001160 0.001171
48208. 0.99854 0.00142(15) 44881972. 0.001160 0.001171
48213. 0.99864 0.00118(13) 57326236. 0.001160 0.001170
48217. 0.99874 0.00123(13) 55011512. 0.001160 0.001170
48222. 0.99884 0.00134(15) 47439748. 0.001160 0.001169
48227. 0.99894 0.00117(14) 54073400. 0.001160 0.001169
48232. 0.99904 0.00131(14) 47867964. 0.001160 0.001169
48237. 0.99914 0.00129(14) 50632928. 0.001160 0.001168
48242. 0.99924 0.00117(13) 56040252. 0.001160 0.001168
48246. 0.99934 0.00124(14) 52188216. 0.001159 0.001168
48251. 0.99944 0.00126(14) 52729632. 0.001159 0.001167
48256. 0.99954 0.00119(13) 55080908. 0.001159 0.001167
48261. 0.99964 0.00106(13) 63820948. 0.001159 0.001167
48266. 0.99974 0.00122(14) 53109548. 0.001159 0.001166
48270. 0.99984 0.00124(14) 52544536. 0.001159 0.001166
48275. 0.99994 0.00111(13) 62277592. 0.001159 0.001166
48280. 1.00004 0.00120(13) 55411972. 0.001159 0.001165
48285. 1.00014 0.00127(14) 51110364. 0.001158 0.001165
48290. 1.00024 0.00111(13) 61272972. 0.001158 0.001165
48295. 1.00034 0.00101(12) 67213328. 0.001158 0.001165
48299. 1.00044 0.00105(13) 63014532. 0.001158 0.001164
48304. 1.00054 0.00116(14) 54156732. 0.001158 0.001164
48309. 1.00064 0.00115(13) 58911072. 0.001158 0.001164
48314. 1.00074 0.00126(14) 54077000. 0.001158 0.001164
48319. 1.00084 0.00128(14) 52846340. 0.001158 0.001163
48324. 1.00094 0.00127(14) 51689864. 0.001158 0.001163
48328. 1.00104 0.00130(14) 50819704. 0.001157 0.001163
48333. 1.00114 0.00136(14) 48454040. 0.001157 0.001163
48338. 1.00124 0.00129(14) 50912072. 0.001157 0.001162
48343. 1.00134 0.00121(14) 53224416. 0.001157 0.001162
48348. 1.00144 0.00104(13) 63756568. 0.001157 0.001162
48353. 1.00155 0.00106(13) 63510808. 0.001157 0.001162
48357. 1.00164 0.00119(13) 55335164. 0.001157 0.001162
48362. 1.00174 0.00113(13) 59471856. 0.001157 0.001161
48367. 1.00185 0.00110(13) 60966696. 0.001156 0.001161
48372. 1.00195 0.00113(13) 57975676. 0.001156 0.001161
48377. 1.00205 0.00113(13) 57137244. 0.001156 0.001161
48382. 1.00215 0.00108(13) 61288052. 0.001156 0.001161
48386. 1.00225 0.00099(12) 67026884. 0.001156 0.001160
48391. 1.00235 0.00101(12) 64863496. 0.001156 0.001160
48396. 1.00245 0.00108(13) 61111052. 0.001156 0.001160
48401. 1.00255 0.00108(13) 60512316. 0.001156 0.001160
48406. 1.00265 0.00103(12) 64524524. 0.001156 0.001160
48411. 1.00275 0.00094(12) 71388240. 0.001155 0.001159
48416. 1.00285 0.00096(12) 65805648. 0.001155 0.001159
48420. 1.00295 0.00098(12) 65620892. 0.001155 0.001159
48425. 1.00305 0.00109(13) 61273632. 0.001155 0.001159
48430. 1.00315 0.00127(14) 51543340. 0.001155 0.001159
48435. 1.00325 0.00118(13) 55444052. 0.001155 0.001158
48440. 1.00335 0.00107(13) 61047512. 0.001155 0.001158
48445. 1.00345 0.00106(12) 64648156. 0.001155 0.001158
48449. 1.00355 0.00110(13) 59500684. 0.001154 0.001154
48454. 1.00365 0.00109(13) 59017460. 0.001154 0.001154
48459. 1.00375 0.00114(13) 56955232. 0.001154 0.001154
48464. 1.00385 0.00105(12) 64464076. 0.001154 0.001154
48469. 1.00395 0.00106(12) 64226544. 0.001154 0.001154
48474. 1.00405 0.00111(13) 59962596. 0.001154 0.001154
48479. 1.00415 0.00109(13) 57860308. 0.001154 0.001154
48483. 1.00425 0.00105(13) 63184812. 0.001154 0.001154
48488. 1.00435 0.00114(13) 55593412. 0.001154 0.001154
48493. 1.00445 0.00107(13) 62263928. 0.001153 0.001153
48498. 1.00455 0.00115(13) 58485304. 0.001153 0.001153
48503. 1.00466 0.00122(13) 55488556. 0.001153 0.001153
48508. 1.00476 0.00132(14) 48704132. 0.001153 0.001153
48512. 1.00486 0.00127(14) 50969600. 0.001153 0.001153
48517. 1.00496 0.00133(15) 46692460. 0.001153 0.001153
48522. 1.00506 0.00142(15) 44178156. 0.001153 0.001153
48527. 1.00516 0.00137(14) 47571284. 0.001153 0.001153
48532. 1.00526 0.00125(14) 51858516. 0.001153 0.001153
48537. 1.00536 0.00122(14) 52704536. 0.001152 0.001152
48542. 1.00546 0.00128(14) 49538764. 0.001152 0.001152
48546. 1.00556 0.00119(14) 53487580. 0.001152 0.001152
48551. 1.00566 0.00113(13) 56670804. 0.001152 0.001152
48556. 1.00576 0.00132(14) 49701984. 0.001152 0.001152
48561. 1.00586 0.00147(15) 44255268. 0.001152 0.001152
48566. 1.00596 0.00129(14) 51324732. 0.001152 0.001152
48571. 1.00606 0.00113(13) 58176716. 0.001152 0.001152
48576. 1.00616 0.00101(12) 67709160. 0.001151 0.001151
48580. 1.00626 0.00104(13) 63702804. 0.001151 0.001151
48585. 1.00636 0.00102(12) 66127972. 0.001151 0.001151
48590. 1.00647 0.00095(12) 73619080. 0.001151 0.001151
48595. 1.00657 0.00101(12) 67038472. 0.001151 0.001151
48600. 1.00667 0.00122(14) 53059316. 0.001151 0.001151
48605. 1.00677 0.00127(14) 51589312. 0.001151 0.001151
48610. 1.00687 0.00120(13) 56108088. 0.001151 0.001151
48614. 1.00697 0.00124(14) 53087040. 0.001151 0.001151
48619. 1.00707 0.00122(14) 52978692. 0.001150 0.001150
48624. 1.00717 0.00105(13) 63046852. 0.001150 0.001150
48629. 1.00727 0.00098(12) 69567616. 0.001150 0.001150
48634. 1.00737 0.00117(13) 56496868. 0.001150 0.001150
48639. 1.00747 0.00126(14) 52621320. 0.001150 0.001150
48644. 1.00757 0.00125(14) 53542224. 0.001150 0.001150
48649. 1.00768 0.00127(14) 50766096. 0.001150 0.001150
48653. 1.00778 0.00110(13) 60193468. 0.001150 0.001150
48658. 1.00788 0.00104(12) 65407884. 0.001150 0.001150
48663. 1.00798 0.00115(13) 55627860. 0.001149 0.001149
48668. 1.00808 0.00107(13) 59769344. 0.001149 0.001149
48673. 1.00818 0.00094(12) 71477352. 0.001149 0.001149
48678. 1.00828 0.00099(12) 69542352. 0.001149 0.001149
48683. 1.00838 0.00118(13) 54903360. 0.001149 0.001149
48687. 1.00848 0.00129(14) 48733328. 0.001149 0.001149
48692. 1.00858 0.00123(14) 51755120. 0.001149 0.001149
48697. 1.00868 0.00123(13) 56406300. 0.001149 0.001149
48702. 1.00878 0.00139(15) 47559964. 0.001149 0.001149
48707. 1.00889 0.00126(14) 51380948. 0.001148 0.001148
48712. 1.00899 0.00121(14) 53975924. 0.001148 0.001148
48717. 1.00909 0.00120(13) 56724944. 0.001148 0.001148
48722. 1.00919 0.00120(13) 56856624. 0.001148 0.001148
48726. 1.00929 0.00126(14) 51138544. 0.001148 0.001148
48731. 1.00939 0.00110(13) 60495156. 0.001148 0.001148
48736. 1.00949 0.00100(12) 66407316. 0.001148 0.001148
48741. 1.00959 0.00103(12) 64061752. 0.001148 0.001148
48746. 1.00969 0.00107(13) 60916124. 0.001148 0.001148
48751. 1.00980 0.00095(12) 67096828. 0.001147 0.001147
48756. 1.00989 0.00111(13) 56567140. 0.001147 0.001147
48761. 1.01000 0.00118(13) 56075336. 0.001147 0.001147
48765. 1.01010 0.00111(13) 62045168. 0.001147 0.001147
48770. 1.01020 0.00122(13) 57260896. 0.001147 0.001147
48775. 1.01030 0.00125(14) 54431060. 0.001147 0.001147
48780. 1.01040 0.00116(13) 56347936. 0.001147 0.001147
48785. 1.01050 0.00105(12) 64478356. 0.001147 0.001147
48790. 1.01060 0.00106(12) 64538312. 0.001147 0.001147
48795. 1.01070 0.00099(12) 68401592. 0.001146 0.001146
48800. 1.01081 0.00101(12) 65874636. 0.001146 0.001146
48804. 1.01091 0.00106(12) 64090924. 0.001146 0.001146
48809. 1.01101 0.00113(13) 58761576. 0.001146 0.001146
48814. 1.01111 0.00121(14) 54639484. 0.001146 0.001146
48819. 1.01121 0.00142(15) 43107080. 0.001146 0.001146
48824. 1.01131 0.00117(14) 53852372. 0.001146 0.001146
48829. 1.01141 0.00103(13) 61732548. 0.001146 0.001146
48834. 1.01151 0.00109(13) 61534156. 0.001146 0.001146
48839. 1.01161 0.00131(14) 49480088. 0.001146 0.001146
48844. 1.01172 0.00126(14) 50960192. 0.001145 0.001145
48848. 1.01182 0.00125(14) 53112584. 0.001145 0.001145
48853. 1.01192 0.00139(15) 47334748. 0.001145 0.001145
48858. 1.01202 0.00134(14) 50522176. 0.001145 0.001145
48863. 1.01212 0.00139(15) 46285112. 0.001145 0.001145
48868. 1.01222 0.00133(14) 47797704. 0.001145 0.001145
48873. 1.01232 0.00117(13) 55426600. 0.001145 0.001145
48878. 1.01242 0.00105(13) 63911444. 0.001145 0.001145
48883. 1.01253 0.00118(14) 54840572. 0.001145 0.001145
48887. 1.01263 0.00120(14) 54473588. 0.001144 0.001144
48892. 1.01273 0.00112(13) 58628728. 0.001144 0.001144
48897. 1.01283 0.00114(13) 59079508. 0.001144 0.001144
48902. 1.01293 0.00127(14) 51633924. 0.001144 0.001144
48907. 1.01303 0.00120(13) 55129112. 0.001144 0.001144
48912. 1.01313 0.00112(13) 58360484. 0.001144 0.001144
48917. 1.01323 0.00108(13) 59765552. 0.001144 0.001144
48922. 1.01334 0.00097(12) 69635624. 0.001144 0.001144
48927. 1.01344 0.00109(13) 61451748. 0.001144 0.001144
48932. 1.01354 0.00122(14) 54172160. 0.001143 0.001143
48936. 1.01364 0.00117(13) 55278876. 0.001143 0.001143
48941. 1.01374 0.00111(13) 57922556. 0.001143 0.001143
48946. 1.01384 0.00106(13) 62810688. 0.001143 0.001143
48951. 1.01395 0.00119(13) 55618984. 0.001143 0.001143
48956. 1.01405 0.00130(14) 48971436. 0.001143 0.001143
48961. 1.01415 0.00123(14) 52318064. 0.001143 0.001143
48966. 1.01425 0.00112(13) 59548752. 0.001143 0.001143
48971. 1.01435 0.00114(13) 57660076. 0.001143 0.001143
48976. 1.01445 0.00124(14) 52393976. 0.001143 0.001143
48981. 1.01455 0.00128(14) 53260980. 0.001142 0.001142
48985. 1.01466 0.00145(15) 44872660. 0.001142 0.001142
48990. 1.01476 0.00131(14) 50162516. 0.001142 0.001142
48995. 1.01486 0.00139(15) 45641804. 0.001142 0.001142
49000. 1.01496 0.00127(14) 51473616. 0.001142 0.001142
49005. 1.01506 0.00112(13) 58319932. 0.001142 0.001142
49010. 1.01516 0.00093(12) 73841384. 0.001142 0.001142
49015. 1.01527 0.00109(13) 60012928. 0.001142 0.001142
49020. 1.01537 0.00134(14) 47921516. 0.001142 0.001142
49025. 1.01547 0.00126(14) 52806448. 0.001141 0.001141
49030. 1.01557 0.00117(14) 54269484. 0.001141 0.001141
49034. 1.01567 0.00100(12) 67700240. 0.001141 0.001141
49039. 1.01577 0.00098(12) 69659040. 0.001141 0.001141
49044. 1.01587 0.00102(12) 67699296. 0.001141 0.001141
49049. 1.01598 0.00113(13) 58743864. 0.001141 0.001141
49054. 1.01608 0.00108(13) 63008072. 0.001141 0.001141
49059. 1.01618 0.00115(13) 57875308. 0.001141 0.001141
49064. 1.01628 0.00104(12) 66253352. 0.001141 0.001141
49069. 1.01638 0.00102(12) 65956440. 0.001141 0.001146
49074. 1.01648 0.00116(13) 55810560. 0.001140 0.001146
49079. 1.01658 0.00121(14) 52069224. 0.001140 0.001147
49083. 1.01669 0.00105(13) 59538380. 0.001140 0.001147
49088. 1.01679 0.00096(12) 70582624. 0.001140 0.001147
49093. 1.01689 0.00124(14) 52445696. 0.001140 0.001147
49098. 1.01699 0.00121(14) 53615232. 0.001140 0.001147
49103. 1.01709 0.00102(12) 64048540. 0.001140 0.001147
49108. 1.01720 0.00103(13) 63156812. 0.001140 0.001147
49113. 1.01730 0.00104(13) 63854028. 0.001140 0.001147
49118. 1.01740 0.00119(14) 54153176. 0.001140 0.001147
49123. 1.01750 0.00113(13) 58943708. 0.001139 0.001147
49128. 1.01760 0.00097(12) 68907480. 0.001139 0.001147
49133. 1.01771 0.00087(12) 75564880. 0.001139 0.001147
49138. 1.01781 0.00107(13) 58732256. 0.001139 0.001147
49142. 1.01791 0.00116(14) 53643056. 0.001139 0.001147
49147. 1.01801 0.00114(13) 57051140. 0.001139 0.001147
49152. 1.01811 0.00119(13) 54949652. 0.001139 0.001147
49157. 1.01821 0.00117(13) 56093860. 0.001139 0.001147
49162. 1.01832 0.00118(13) 57071036. 0.001139 0.001148
49167. 1.01842 0.00138(15) 46895016. 0.001139 0.001148
49172. 1.01852 0.00145(15) 44396332. 0.001138 0.001148
49177. 1.01862 0.00135(15) 47501304. 0.001138 0.001148
49182. 1.01872 0.00118(13) 57059940. 0.001138 0.001148
49187. 1.01883 0.00121(14) 52835400. 0.001138 0.001148
49192. 1.01893 0.00115(13) 57116048. 0.001138 0.001148
49197. 1.01903 0.00131(14) 47741432. 0.001138 0.001148
49201. 1.01913 0.00121(14) 51768136. 0.001138 0.001148
49206. 1.01923 0.00098(12) 65957036. 0.001138 0.001148
49211. 1.01933 0.00090(11) 76589448. 0.001138 0.001149
49216. 1.01944 0.00109(13) 59779832. 0.001138 0.001149
49221. 1.01954 0.00112(13) 60728700. 0.001137 0.001149
49226. 1.01964 0.00118(13) 57392992. 0.001137 0.001149
49231. 1.01974 0.00123(14) 52643284. 0.001137 0.001149
49236. 1.01984 0.00112(13) 60785296. 0.001137 0.001149
49241. 1.01995 0.00116(13) 57362576. 0.001137 0.001150
49246. 1.02005 0.00121(14) 53937572. 0.001137 0.001150
49251. 1.02015 0.00108(13) 61329552. 0.001137 0.001150
49256. 1.02025 0.00114(13) 57882176. 0.001137 0.001150
49261. 1.02036 0.00123(14) 53640776. 0.001137 0.001150
49265. 1.02046 0.00118(13) 55055340. 0.001137 0.001151
49270. 1.02056 0.00106(13) 62453372. 0.001136 0.001151
49275. 1.02066 0.00105(13) 60262980. 0.001136 0.001151
49280. 1.02076 0.00112(13) 58280452. 0.001136 0.001151
49285. 1.02087 0.00127(14) 53796664. 0.001136 0.001152
49290. 1.02097 0.00136(14) 48011208. 0.001136 0.001152
49295. 1.02107 0.00122(14) 52770116. 0.001136 0.001152
49300. 1.02117 0.00114(13) 60548504. 0.001136 0.001153
49305. 1.02128 0.00126(14) 53874040. 0.001136 0.001153
49310. 1.02138 0.00109(13) 63256316. 0.001136 0.001154
49315. 1.02148 0.00114(13) 58167532. 0.001136 0.001154
49320. 1.02158 0.00117(13) 57622568. 0.001135 0.001154
49325. 1.02168 0.00128(14) 51609052. 0.001135 0.001155
49330. 1.02179 0.00135(14) 49231444. 0.001135 0.001155
49334. 1.02189 0.00126(14) 52503504. 0.001135 0.001156
49339. 1.02199 0.00112(13) 57146572. 0.001135 0.001156
49344. 1.02209 0.00120(13) 55155456. 0.001135 0.001157
49349. 1.02219 0.00139(14) 49770336. 0.001135 0.001157
49354. 1.02230 0.00139(15) 47286300. 0.001135 0.001158
49359. 1.02240 0.00125(14) 52086472. 0.001135 0.001159
49364. 1.02250 0.00127(14) 50596296. 0.001135 0.001159
49369. 1.02260 0.00124(13) 55343180. 0.001135 0.001160
49374. 1.02271 0.00123(13) 55774144. 0.001134 0.001161
49379. 1.02281 0.00130(14) 49050360. 0.001134 0.001162
49384. 1.02291 0.00123(14) 53179044. 0.001134 0.001163
49389. 1.02301 0.00113(13) 61764128. 0.001134 0.001164
49394. 1.02312 0.00115(13) 58367884. 0.001134 0.001165
49399. 1.02322 0.00115(13) 57012740. 0.001134 0.001166
49404. 1.02332 0.00113(13) 56434656. 0.001134 0.001167
49409. 1.02342 0.00105(13) 62675916. 0.001134 0.001168
49414. 1.02353 0.00101(12) 65856964. 0.001134 0.001169
49418. 1.02363 0.00109(13) 61686688. 0.001134 0.001171
49423. 1.02373 0.00114(13) 57394520. 0.001133 0.001172
49428. 1.02383 0.00101(12) 66277236. 0.001133 0.001174
49433. 1.02393 0.00100(12) 68108216. 0.001133 0.001175
49438. 1.02404 0.00110(13) 58403460. 0.001133 0.001177
49443. 1.02414 0.00103(12) 64981936. 0.001133 0.001179
49448. 1.02424 0.00111(13) 58849524. 0.001133 0.001181
49453. 1.02434 0.00104(13) 62580136. 0.001133 0.001183
49458. 1.02445 0.00097(12) 65017684. 0.001133 0.001186
49463. 1.02455 0.00099(12) 66515824. 0.001133 0.001188
49468. 1.02465 0.00104(12) 66311860. 0.001133 0.001191
49473. 1.02475 0.00120(14) 53734336. 0.001133 0.001194
49478. 1.02486 0.00127(14) 52998316. 0.001132 0.001197
49483. 1.02496 0.00123(14) 54131512. 0.001132 0.001201
49488. 1.02506 0.00122(13) 55045796. 0.001132 0.001204
49493. 1.02516 0.00129(14) 51146452. 0.001132 0.001208
49498. 1.02527 0.00122(14) 52915644. 0.001132 0.001213
49503. 1.02537 0.00114(13) 55954868. 0.001132 0.001218
49507. 1.02547 0.00111(13) 59165220. 0.001132 0.001223
49512. 1.02558 0.00111(13) 59717648. 0.001132 0.001229
49517. 1.02568 0.00099(12) 69617272. 0.001132 0.001236
49522. 1.02578 0.00097(12) 68924088. 0.001132 0.001243
49527. 1.02588 0.00103(13) 63314476. 0.001132 0.001251
49532. 1.02599 0.00125(14) 51642784. 0.001131 0.001261
49537. 1.02609 0.00136(15) 47322052. 0.001131 0.001274
49542. 1.02619 0.00114(13) 61450684. 0.001131 0.001288
49547. 1.02629 0.00121(13) 56150424. 0.001131 0.001305
49552. 1.02640 0.00129(14) 50249340. 0.001131 0.001328
49557. 1.02650 0.00122(14) 52096884. 0.001131 0.001358
49562. 1.02660 0.00122(14) 53832028. 0.001131 0.001399
49567. 1.02670 0.00130(14) 49879032. 0.001131 0.001455
49572. 1.02681 0.00140(15) 46244104. 0.001131 0.001533
49577. 1.02691 0.00172(16) 37026636. 0.001131 0.001639
49582. 1.02701 0.00183(17) 35556500. 0.001131 0.001782
49587. 1.02711 0.00178(17) 36629676. 0.001130 0.001975
49592. 1.02722 0.00201(18) 31045214. 0.001130 0.002222
49597. 1.02732 0.00204(17) 33105422. 0.001130 0.002532
49602. 1.02742 0.00254(20) 25723436. 0.001130 0.002914
49607. 1.02753 0.00307(22) 20462624. 0.001130 0.003359
49612. 1.02763 0.00377(24) 17569696. 0.001130 0.003866
49617. 1.02773 0.00476(27) 13738868. 0.001130 0.004421
49621. 1.02783 0.00529(28) 12607101. 0.001130 0.005002
49626. 1.02794 0.00579(29) 11506356. 0.001130 0.005589
49631. 1.02804 0.00659(32) 9748190. 0.001130 0.006136
49636. 1.02814 0.00705(33) 9388275. 0.001130 0.006614
49641. 1.02825 0.00712(32) 9479130. 0.001129 0.006987
49646. 1.02835 0.00745(33) 9024352. 0.001129 0.007211
49651. 1.02845 0.0080(4) 7997562. 0.00113 0.00726
49656. 1.02855 0.00703(33) 9411826. 0.001129 0.007122
49661. 1.02866 0.00643(31) 10172157. 0.001129 0.006816
49666. 1.02876 0.00578(30) 11384405. 0.001129 0.006380
49671. 1.02886 0.00538(29) 12256459. 0.001129 0.005859
49676. 1.02897 0.00534(29) 12072855. 0.001129 0.005316
49681. 1.02907 0.00482(27) 13803620. 0.001129 0.004789
49686. 1.02917 0.00442(26) 15337710. 0.001129 0.004304
49691. 1.02928 0.00436(25) 15448252. 0.001129 0.003883
49696. 1.02938 0.00425(25) 15404480. 0.001129 0.003537
49701. 1.02948 0.00387(24) 17301758. 0.001128 0.003256
49706. 1.02958 0.00377(24) 17756510. 0.001128 0.003031
49711. 1.02969 0.00365(23) 18146532. 0.001128 0.002848
49716. 1.02979 0.00325(22) 20411364. 0.001128 0.002690
49721. 1.02989 0.00270(20) 25206840. 0.001128 0.002545
49726. 1.03000 0.00292(21) 22837598. 0.001128 0.002404
49731. 1.03010 0.00279(21) 23418322. 0.001128 0.002266
49736. 1.03020 0.00219(18) 31469260. 0.001128 0.002130
49741. 1.03031 0.00229(18) 29567818. 0.001128 0.001998
49746. 1.03041 0.00244(19) 26431452. 0.001128 0.001874
49751. 1.03051 0.00217(18) 30537414. 0.001128 0.001762
49756. 1.03061 0.00206(18) 32205670. 0.001127 0.001661
49761. 1.03072 0.00200(17) 32976790. 0.001127 0.001575
49766. 1.03082 0.00176(16) 37760328. 0.001127 0.001503
49771. 1.03092 0.00169(16) 39066524. 0.001127 0.001444
49776. 1.03103 0.00177(17) 35603204. 0.001127 0.001396
49781. 1.03113 0.00157(15) 42558616. 0.001127 0.001358
49786. 1.03123 0.00154(15) 43177400. 0.001127 0.001328
49791. 1.03134 0.00148(15) 43398496. 0.001127 0.001304
49796. 1.03144 0.00126(14) 53093028. 0.001127 0.001285
49800. 1.03154 0.00146(15) 45895464. 0.001127 0.001270
49805. 1.03165 0.00160(16) 40151732. 0.001127 0.001258
49810. 1.03175 0.00131(14) 49362664. 0.001127 0.001248
49815. 1.03185 0.00113(13) 58528460. 0.001126 0.001240
49820. 1.03195 0.00129(14) 50140448. 0.001126 0.001233
49825. 1.03206 0.00142(15) 45482300. 0.001126 0.001226
49830. 1.03216 0.00139(15) 47440004. 0.001126 0.001221
49835. 1.03227 0.00125(14) 54314036. 0.001126 0.001216
49840. 1.03237 0.00131(14) 50629672. 0.001126 0.001212
49845. 1.03247 0.00122(13) 55894188. 0.001126 0.001208
49850. 1.03258 0.00119(13) 58095136. 0.001126 0.001205
49855. 1.03268 0.00124(14) 54688808. 0.001126 0.001202
49860. 1.03278 0.00116(13) 56394864. 0.001126 0.001200
49865. 1.03288 0.00105(13) 63548152. 0.001126 0.001198
49870. 1.03299 0.00110(13) 60405332. 0.001126 0.001197
49875. 1.03309 0.00125(14) 53778596. 0.001125 0.001197
49880. 1.03320 0.00139(14) 48281792. 0.001125 0.001198
49885. 1.03330 0.00126(14) 54506296. 0.001125 0.001201
49890. 1.03340 0.00126(13) 55674496. 0.001125 0.001204
49895. 1.03350 0.00126(13) 54912500. 0.001125 0.001210
49900. 1.03361 0.00122(13) 58139344. 0.001125 0.001217
49905. 1.03371 0.00138(14) 51032148. 0.001125 0.001226
49910. 1.03381 0.00145(15) 46113972. 0.001125 0.001237
49915. 1.03392 0.00132(14) 50728836. 0.001125 0.001249
49920. 1.03402 0.00128(14) 51927796. 0.001125 0.001262
49925. 1.03413 0.00131(14) 49255872. 0.001125 0.001274
49930. 1.03423 0.00137(15) 47049464. 0.001125 0.001287
49935. 1.03433 0.00136(15) 47535284. 0.001125 0.001297
49940. 1.03444 0.00144(15) 44102484. 0.001124 0.001305
49945. 1.03454 0.00133(14) 48807176. 0.001124 0.001310
49950. 1.03464 0.00128(14) 51950044. 0.001124 0.001310
49955. 1.03475 0.00133(14) 50090444. 0.001124 0.001306
49960. 1.03485 0.00132(14) 50673740. 0.001124 0.001297
49965. 1.03495 0.00129(14) 52232180. 0.001124 0.001286
49970. 1.03506 0.00131(14) 49831260. 0.001124 0.001273
49975. 1.03516 0.00124(14) 50491076. 0.001124 0.001259
49980. 1.03527 0.00121(14) 51853800. 0.001124 0.001246
49985. 1.03537 0.00122(14) 54004704. 0.001124 0.001235
49990. 1.03547 0.00121(13) 56276504. 0.001124 0.001225
49995. 1.03558 0.00137(14) 48354088. 0.001124 0.001217
50000. 1.03568 0.00148(15) 42999256. 0.001123 0.001211
50005. 1.03578 0.00130(14) 49579656. 0.001123 0.001208
50010. 1.03589 0.00125(14) 52609928. 0.001123 0.001207
50015. 1.03599 0.00133(14) 51165268. 0.001123 0.001209
50020. 1.03609 0.00137(14) 48652364. 0.001123 0.001213
50025. 1.03620 0.00137(14) 47816712. 0.001123 0.001221
50030. 1.03630 0.00136(14) 49231056. 0.001123 0.001234
50035. 1.03640 0.00125(14) 53291936. 0.001123 0.001252
50040. 1.03651 0.00117(13) 56008644. 0.001123 0.001278
50045. 1.03661 0.00120(13) 55745480. 0.001123 0.001314
50050. 1.03672 0.00127(14) 52287352. 0.001123 0.001363
50055. 1.03682 0.00118(13) 56633500. 0.001123 0.001428
50060. 1.03692 0.00124(14) 52995736. 0.001123 0.001510
50065. 1.03703 0.00144(15) 45214384. 0.001122 0.001613
50070. 1.03713 0.00158(15) 42564140. 0.001122 0.001736
50075. 1.03723 0.00164(15) 41753536. 0.001122 0.001881
50080. 1.03734 0.00177(16) 38010212. 0.001122 0.002044
50085. 1.03744 0.00220(19) 28723332. 0.001122 0.002216
50090. 1.03754 0.00225(18) 29934956. 0.001122 0.002394
50095. 1.03765 0.00254(19) 26475910. 0.001122 0.002570
50100. 1.03775 0.00296(21) 22486936. 0.001122 0.002729
50105. 1.03786 0.00302(21) 22119070. 0.001122 0.002862
50110. 1.03796 0.00300(21) 22254382. 0.001122 0.002956
50115. 1.03806 0.00293(21) 22936752. 0.001122 0.003000
50120. 1.03817 0.00271(20) 25125978. 0.001122 0.002985
50125. 1.03827 0.00271(20) 24811650. 0.001122 0.002911
50130. 1.03838 0.00270(20) 25094280. 0.001122 0.002785
50135. 1.03848 0.00254(19) 26494520. 0.001121 0.002622
50140. 1.03858 0.00213(18) 32041764. 0.001121 0.002436
50145. 1.03869 0.00215(18) 31448260. 0.001121 0.002245
50150. 1.03879 0.00226(19) 28920170. 0.001121 0.002060
50155. 1.03890 0.00206(18) 32066002. 0.001121 0.001888
50160. 1.03900 0.00200(17) 32792038. 0.001121 0.001738
50165. 1.03910 0.00181(16) 37583140. 0.001121 0.001612
50170. 1.03921 0.00171(16) 39771372. 0.001121 0.001510
50175. 1.03931 0.00164(16) 41416688. 0.001121 0.001427
50180. 1.03942 0.00148(15) 45591788. 0.001121 0.001363
50185. 1.03952 0.00134(14) 50498424. 0.001121 0.001314
50191. 1.03962 0.00138(14) 47663880. 0.001121 0.001277
50196. 1.03973 0.00135(14) 49886352. 0.001121 0.001250
50201. 1.03983 0.00133(14) 50575360. 0.001120 0.001230
50206. 1.03994 0.00128(14) 51871576. 0.001120 0.001215
50211. 1.04004 0.00116(13) 59287940. 0.001120 0.001204
50216. 1.04014 0.00116(13) 61128140. 0.001120 0.001195
50221. 1.04025 0.00130(14) 50041820. 0.001120 0.001188
50226. 1.04035 0.00128(14) 51023556. 0.001120 0.001179
50231. 1.04046 0.00127(14) 52395600. 0.001120 0.001174
50236. 1.04056 0.00138(15) 46276516. 0.001120 0.001170
50241. 1.04066 0.00135(15) 47252764. 0.001120 0.001166
50246. 1.04077 0.00125(14) 52040364. 0.001120 0.001163
50251. 1.04087 0.00110(13) 59621556. 0.001120 0.001160
50256. 1.04098 0.00095(12) 69866472. 0.001120 0.001157
50261. 1.04108 0.00103(13) 62589788. 0.001120 0.001155
50266. 1.04118 0.00114(13) 56431532. 0.001120 0.001153
50271. 1.04129 0.00114(13) 57813848. 0.001119 0.001151
50276. 1.04139 0.00121(14) 52216564. 0.001119 0.001149
50281. 1.04150 0.00125(14) 51098532. 0.001119 0.001145
50286. 1.04160 0.00112(13) 58565040. 0.001119 0.001143
50291. 1.04170 0.00098(12) 69265664. 0.001119 0.001142
50296. 1.04181 0.00107(13) 61407428. 0.001119 0.001141
50301. 1.04191 0.00100(12) 66240152. 0.001119 0.001139
50306. 1.04202 0.00093(12) 70705504. 0.001119 0.001138
50311. 1.04212 0.00108(13) 57997416. 0.001119 0.001137
50316. 1.04223 0.00106(13) 60626316. 0.001119 0.001136
50321. 1.04233 0.00093(12) 71531608. 0.001119 0.001135
50326. 1.04244 0.00106(13) 62156364. 0.001119 0.001135
50331. 1.04254 0.00127(14) 51729684. 0.001119 0.001134
50336. 1.04264 0.00124(13) 55072432. 0.001119 0.001133
50341. 1.04275 0.00128(14) 49445348. 0.001119 0.001141
50346. 1.04285 0.00109(13) 59673432. 0.001118 0.001141
50351. 1.04296 0.00088(11) 79388784. 0.001118 0.001139
50356. 1.04306 0.00098(12) 70025720. 0.001118 0.001139
50361. 1.04317 0.00115(13) 56893948. 0.001118 0.001138
50367. 1.04327 0.00116(13) 56318856. 0.001118 0.001138
50372. 1.04337 0.00126(14) 51209064. 0.001118 0.001138
50377. 1.04348 0.00117(13) 56586516. 0.001118 0.001138
50382. 1.04358 0.00114(13) 56220260. 0.001118 0.001137
50387. 1.04369 0.00123(14) 54303280. 0.001118 0.001137
50392. 1.04379 0.00135(14) 50465416. 0.001118 0.001137
50397. 1.04390 0.00128(14) 53353764. 0.001118 0.001137
50402. 1.04400 0.00125(13) 55113280. 0.001118 0.001137
50407. 1.04411 0.00129(14) 50951700. 0.001118 0.001136
50412. 1.04421 0.00119(14) 54728748. 0.001118 0.001148
50417. 1.04431 0.00112(13) 57942396. 0.001117 0.001148
50422. 1.04442 0.00118(14) 53591364. 0.001117 0.001148
50427. 1.04452 0.00119(13) 55003052. 0.001117 0.001148
50432. 1.04463 0.00118(13) 57399676. 0.001117 0.001148
50437. 1.04473 0.00122(13) 56992596. 0.001117 0.001148
50442. 1.04484 0.00120(13) 58251300. 0.001117 0.001149
50447. 1.04494 0.00119(13) 56992232. 0.001117 0.001149
50452. 1.04504 0.00119(13) 55920480. 0.001117 0.001149
50457. 1.04515 0.00117(13) 56245976. 0.001117 0.001149
50462. 1.04526 0.00123(14) 53197488. 0.001117 0.001150
50467. 1.04536 0.00115(13) 59786168. 0.001117 0.001150
50472. 1.04547 0.00124(14) 50102084. 0.001117 0.001150
50477. 1.04557 0.00109(13) 58619284. 0.001117 0.001151
50483. 1.04567 0.00099(12) 65644736. 0.001117 0.001151
50488. 1.04578 0.00102(12) 65371616. 0.001117 0.001152
50493. 1.04588 0.00102(12) 64844248. 0.001117 0.001152
50498. 1.04599 0.00104(13) 62476336. 0.001116 0.001153
50503. 1.04609 0.00104(12) 65585932. 0.001116 0.001153
50508. 1.04620 0.00113(13) 59253124. 0.001116 0.001154
50513. 1.04630 0.00111(13) 58727948. 0.001116 0.001154
50518. 1.04641 0.00110(13) 57508824. 0.001116 0.001155
50523. 1.04651 0.00110(13) 57941172. 0.001116 0.001155
50528. 1.04662 0.00107(13) 61635028. 0.001116 0.001156
50533. 1.04672 0.00100(12) 68039152. 0.001116 0.001157
50538. 1.04682 0.00094(11) 77218480. 0.001116 0.001157
50543. 1.04693 0.00103(12) 66030368. 0.001116 0.001158
50548. 1.04703 0.00102(12) 66453408. 0.001116 0.001159
50553. 1.04714 0.00117(13) 56144780. 0.001116 0.001160
50558. 1.04724 0.00118(14) 54122340. 0.001116 0.001161
50563. 1.04735 0.00103(13) 63683784. 0.001116 0.001162
50568. 1.04745 0.00104(13) 63085372. 0.001116 0.001163
50573. 1.04756 0.00128(14) 50351804. 0.001116 0.001164
50579. 1.04766 0.00134(15) 47366820. 0.001115 0.001165
50584. 1.04777 0.00113(13) 59315496. 0.001115 0.001166
50589. 1.04787 0.00107(12) 64326640. 0.001115 0.001167
50594. 1.04798 0.00112(13) 60256976. 0.001115 0.001168
50599. 1.04808 0.00120(13) 56260484. 0.001115 0.001169
50604. 1.04819 0.00124(14) 52433436. 0.001115 0.001171
50609. 1.04829 0.00124(14) 51872600. 0.001115 0.001172
50614. 1.04840 0.00118(14) 54114428. 0.001115 0.001174
50619. 1.04850 0.00090(12) 74695248. 0.001115 0.001175
50624. 1.04861 0.00089(11) 77005200. 0.001115 0.001177
50629. 1.04871 0.00118(13) 56086568. 0.001115 0.001187
50634. 1.04882 0.00130(14) 48889988. 0.001115 0.001189
50639. 1.04892 0.00108(13) 61510536. 0.001115 0.001191
50644. 1.04903 0.00093(12) 72215272. 0.001115 0.001194
50649. 1.04913 0.00103(12) 64813632. 0.001115 0.001196
50654. 1.04924 0.00121(14) 52676856. 0.001115 0.001198
50660. 1.04934 0.00132(14) 49286740. 0.001114 0.001201
50665. 1.04945 0.00129(14) 53243608. 0.001114 0.001203
50670. 1.04955 0.00121(14) 54201340. 0.001114 0.001206
50675. 1.04966 0.00109(13) 60269936. 0.001114 0.001209
50680. 1.04976 0.00097(12) 66766436. 0.001114 0.001212
50685. 1.04987 0.00099(12) 67321480. 0.001114 0.001215
50690. 1.04997 0.00115(13) 56082744. 0.001114 0.001219
50695. 1.05008 0.00109(12) 64172776. 0.001114 0.001223
50700. 1.05018 0.00124(13) 55045436. 0.001114 0.001226
50705. 1.05029 0.00126(14) 52856492. 0.001114 0.001231
50710. 1.05039 0.00112(13) 57618644. 0.001114 0.001235
50715. 1.05050 0.00097(12) 66506424. 0.001114 0.001240
50720. 1.05060 0.00098(12) 67862672. 0.001114 0.001245
50725. 1.05071 0.00118(14) 53523384. 0.001114 0.001250
50730. 1.05081 0.00110(13) 61082680. 0.001114 0.001255
50736. 1.05092 0.00099(12) 67861024. 0.001114 0.001261
50741. 1.05102 0.00086(11) 81255008. 0.001114 0.001268
50746. 1.05113 0.00102(12) 66933808. 0.001113 0.001275
50751. 1.05123 0.00116(13) 55531668. 0.001113 0.001281
50756. 1.05134 0.00100(12) 66164300. 0.001113 0.001289
50761. 1.05144 0.00114(13) 57272056. 0.001113 0.001297
50766. 1.05155 0.00126(14) 51465588. 0.001113 0.001307
50771. 1.05165 0.00122(13) 55702588. 0.001113 0.001317
50776. 1.05176 0.00115(13) 58895156. 0.001113 0.001328
50781. 1.05186 0.00116(13) 57764020. 0.001113 0.001340
50786. 1.05197 0.00137(14) 48520456. 0.001113 0.001353
50791. 1.05207 0.00118(13) 56645260. 0.001113 0.001368
50797. 1.05218 0.00098(12) 68154096. 0.001113 0.001384
50802. 1.05229 0.00117(13) 56050080. 0.001113 0.001402
50807. 1.05239 0.00128(14) 52173276. 0.001113 0.001422
50812. 1.05250 0.00137(15) 47046556. 0.001113 0.001446
50817. 1.05260 0.00129(14) 51629420. 0.001113 0.001475
50822. 1.05271 0.00113(13) 60220904. 0.001113 0.001511
50827. 1.05281 0.00114(13) 58129912. 0.001113 0.001557
50832. 1.05292 0.00120(13) 56853392. 0.001113 0.001617
50837. 1.05302 0.00117(13) 58411272. 0.001112 0.001698
50842. 1.05313 0.00125(14) 53629640. 0.001112 0.001807
50847. 1.05323 0.00155(15) 42586796. 0.001112 0.001956
50852. 1.05334 0.00161(16) 40250136. 0.001112 0.002153
50857. 1.05344 0.00171(16) 38030516. 0.001112 0.002415
50863. 1.05355 0.00227(19) 28721098. 0.001112 0.002757
50868. 1.05365 0.00278(21) 23423642. 0.001112 0.003191
50873. 1.05376 0.00320(22) 20327028. 0.001112 0.003726
50878. 1.05386 0.00378(24) 17188092. 0.001112 0.004366
50883. 1.05397 0.00474(27) 13618989. 0.001112 0.005105
50888. 1.05408 0.00573(29) 11550244. 0.001112 0.005928
50893. 1.05418 0.00699(33) 9355800. 0.001112 0.006813
50898. 1.05429 0.0081(4) 8023366. 0.00111 0.00773
50903. 1.05439 0.0090(4) 7200900. 0.00111 0.00862
50908. 1.05450 0.0097(4) 6770519. 0.00111 0.00946
50914. 1.05460 0.0103(4) 6455493. 0.00111 0.01020
50919. 1.05471 0.0107(4) 6024667. 0.00111 0.01077
50924. 1.05481 0.0104(4) 6329146. 0.00111 0.01116
50929. 1.05492 0.0103(4) 6379630. 0.00111 0.01135
50934. 1.05502 0.0099(4) 6617240. 0.00111 0.01138
50939. 1.05513 0.0098(4) 6681306. 0.00111 0.01129
50944. 1.05524 0.0098(4) 6671985. 0.00111 0.01117
50949. 1.05534 0.0096(4) 6778692. 0.00111 0.01110
50954. 1.05545 0.0108(4) 6011560. 0.00111 0.01115
50959. 1.05555 0.0122(4) 5268270. 0.00111 0.01135
50964. 1.05566 0.0123(4) 5319042. 0.00111 0.01171
50970. 1.05576 0.0129(4) 5084719. 0.00111 0.01219
50975. 1.05587 0.0137(5) 4833607. 0.00111 0.01273
50980. 1.05598 0.0144(5) 4630968. 0.00111 0.01327
50985. 1.05608 0.0155(5) 4190617. 0.00111 0.01371
50990. 1.05619 0.0148(5) 4449358. 0.00111 0.01395
50995. 1.05629 0.0140(5) 4719819. 0.00111 0.01392
51000. 1.05640 0.0137(5) 4737487. 0.00111 0.01355
51005. 1.05650 0.0127(4) 5097292. 0.00111 0.01285
51010. 1.05661 0.0110(4) 5890127. 0.00111 0.01187
51015. 1.05672 0.0097(4) 6673548. 0.00111 0.01069
51021. 1.05682 0.0090(4) 7311178. 0.00111 0.00943
51026. 1.05693 0.00768(34) 8680941. 0.001111 0.008165
51031. 1.05703 0.00697(33) 9385069. 0.001110 0.006973
51036. 1.05714 0.00637(31) 10218503. 0.001110 0.005903
51041. 1.05724 0.00553(29) 11716432. 0.001110 0.004979
51046. 1.05735 0.00509(28) 12763461. 0.001110 0.004211
51051. 1.05746 0.00454(26) 14398467. 0.001110 0.003595
51056. 1.05756 0.00389(24) 16917942. 0.001110 0.003107
51061. 1.05767 0.00370(24) 17587426. 0.001110 0.002734
51066. 1.05777 0.00291(21) 23225426. 0.001110 0.002452
51072. 1.05788 0.00242(19) 27120928. 0.001110 0.002245
51077. 1.05799 0.00214(18) 30267260. 0.001110 0.002095
51082. 1.05809 0.00199(18) 32038012. 0.001110 0.001988
51087. 1.05820 0.00193(17) 34716132. 0.001110 0.001911
51092. 1.05830 0.00210(18) 32184028. 0.001110 0.001856
51097. 1.05841 0.00215(18) 30342622. 0.001110 0.001819
51102. 1.05851 0.00201(18) 32571458. 0.001110 0.001796
51107. 1.05862 0.00207(17) 32749762. 0.001110 0.001787
51112. 1.05873 0.00205(17) 33124470. 0.001110 0.001793
51118. 1.05883 0.00182(16) 37445588. 0.001110 0.001818
51123. 1.05894 0.00181(17) 36152252. 0.001110 0.001867
51128. 1.05904 0.00198(17) 33634212. 0.001110 0.001948
51133. 1.05915 0.00231(19) 28196272. 0.001110 0.002072
51138. 1.05926 0.00212(18) 31248558. 0.001109 0.002255
51143. 1.05936 0.00215(18) 30088694. 0.001109 0.002511
51148. 1.05947 0.00238(19) 26646338. 0.001109 0.002859
51153. 1.05957 0.00281(21) 23340548. 0.001109 0.003319
51159. 1.05968 0.00349(23) 18815322. 0.001109 0.003901
51164. 1.05979 0.00433(26) 14987731. 0.001109 0.004603
51169. 1.05989 0.00515(28) 12828046. 0.001109 0.005425
51174. 1.06000 0.00648(31) 10099843. 0.001109 0.006350
51179. 1.06010 0.00783(35) 8269453. 0.001109 0.007345
51184. 1.06021 0.0088(4) 7545862. 0.00111 0.00837
51189. 1.06032 0.0108(4) 5993576. 0.00111 0.00937
51194. 1.06042 0.0123(4) 5272939. 0.00111 0.01026
51199. 1.06053 0.0123(4) 5284879. 0.00111 0.01098
51205. 1.06063 0.0121(4) 5464364. 0.00111 0.01146
51210. 1.06074 0.0121(4) 5341816. 0.00111 0.01163
51215. 1.06085 0.0110(4) 5863530. 0.00111 0.01146
51220. 1.06095 0.0102(4) 6344903. 0.00111 0.01095
51225. 1.06106 0.0093(4) 7049103. 0.00111 0.01017
51230. 1.06116 0.0086(4) 7667795. 0.00111 0.00918
51235. 1.06127 0.00765(34) 8617389. 0.001109 0.008086
51240. 1.06138 0.00645(31) 10080691. 0.001109 0.006994
51246. 1.06148 0.00546(29) 12036642. 0.001109 0.005961
51251. 1.06159 0.00492(27) 13606032. 0.001108 0.005031
51256. 1.06169 0.00460(26) 14682812. 0.001108 0.004221
51261. 1.06180 0.00443(26) 14588683. 0.001108 0.003550
51266. 1.06191 0.00384(24) 16765890. 0.001108 0.003022
51271. 1.06201 0.00335(23) 19641512. 0.001108 0.002602
51276. 1.06212 0.00315(22) 20772758. 0.001108 0.002284
51281. 1.06223 0.00298(21) 22071956. 0.001108 0.002048
51287. 1.06233 0.00274(21) 23417800. 0.001108 0.001876
51292. 1.06244 0.00261(20) 25463180. 0.001108 0.001751
51297. 1.06255 0.00247(19) 26858442. 0.001108 0.001659
51302. 1.06265 0.00224(19) 29201812. 0.001108 0.001592
51307. 1.06276 0.00206(18) 32284120. 0.001108 0.001541
51312. 1.06287 0.00193(17) 34066804. 0.001108 0.001501
51317. 1.06297 0.00155(15) 43105136. 0.001108 0.001469
51323. 1.06308 0.00148(15) 43084116. 0.001108 0.001443
51328. 1.06318 0.00156(16) 39995468. 0.001108 0.001422
51333. 1.06329 0.00152(16) 41363772. 0.001108 0.001403
51338. 1.06340 0.00155(15) 42506872. 0.001108 0.001387
51343. 1.06350 0.00153(15) 43543592. 0.001108 0.001372
51348. 1.06361 0.00141(14) 48103480. 0.001108 0.001360
51353. 1.06372 0.00149(15) 43797524. 0.001108 0.001349
51358. 1.06382 0.00148(15) 43719596. 0.001108 0.001339
51364. 1.06393 0.00137(14) 49433588. 0.001108 0.001331
51369. 1.06404 0.00122(13) 56186752. 0.001108 0.001323
51374. 1.06414 0.00117(13) 57219512. 0.001107 0.001317
51379. 1.06425 0.00117(13) 57550548. 0.001107 0.001311
51384. 1.06435 0.00114(13) 59710776. 0.001107 0.001306
51389. 1.06446 0.00124(13) 55897420. 0.001107 0.001302
51394. 1.06457 0.00133(14) 51140152. 0.001107 0.001299
51400. 1.06467 0.00122(13) 58033816. 0.001107 0.001297
51405. 1.06478 0.00124(13) 55381100. 0.001107 0.001295
51410. 1.06489 0.00134(14) 47637644. 0.001107 0.001294
51415. 1.06499 0.00125(14) 51159236. 0.001107 0.001293
51420. 1.06510 0.00130(14) 47916752. 0.001107 0.001294
51425. 1.06521 0.00116(13) 56521580. 0.001107 0.001295
51430. 1.06531 0.00113(13) 58574524. 0.001107 0.001296
51436. 1.06542 0.00120(13) 55684708. 0.001107 0.001299
51441. 1.06553 0.00125(14) 51698132. 0.001107 0.001303
51446. 1.06563 0.00111(13) 61199896. 0.001107 0.001307
51451. 1.06574 0.00124(14) 53621728. 0.001107 0.001313
51456. 1.06585 0.00130(14) 50299700. 0.001107 0.001321
51461. 1.06595 0.00120(13) 55728912. 0.001107 0.001331
51466. 1.06606 0.00116(13) 57772604. 0.001107 0.001344
51472. 1.06617 0.00103(12) 68318104. 0.001107 0.001361
51477. 1.06627 0.00113(13) 58585484. 0.001107 0.001385
51482. 1.06638 0.00119(13) 55988320. 0.001107 0.001419
51487. 1.06649 0.00127(14) 52102484. 0.001107 0.001468
51492. 1.06659 0.00137(14) 48472008. 0.001107 0.001537
51497. 1.06670 0.00143(15) 44872108. 0.001107 0.001636
51502. 1.06681 0.00128(14) 52037944. 0.001106 0.001776
51508. 1.06691 0.00153(15) 43286472. 0.001106 0.001966
51513. 1.06702 0.00201(18) 31865472. 0.001106 0.002219
51518. 1.06713 0.00222(19) 28703830. 0.001106 0.002549
51523. 1.06723 0.00249(20) 25782626. 0.001106 0.002963
51528. 1.06734 0.00309(22) 20647334. 0.001106 0.003465
51533. 1.06745 0.00381(24) 17098200. 0.001106 0.004052
51539. 1.06755 0.00461(27) 13984019. 0.001106 0.004713
51544. 1.06766 0.00541(29) 12246301. 0.001106 0.005424
51549. 1.06777 0.00638(31) 10510276. 0.001106 0.006159
51554. 1.06787 0.00759(34) 8693354. 0.001106 0.006864
51559. 1.06798 0.0085(4) 7798541. 0.00111 0.00749
51564. 1.06809 0.0093(4) 6844835. 0.00111 0.00800
51569. 1.06819 0.0088(4) 7419862. 0.00111 0.00834
51575. 1.06830 0.0088(4) 7504887. 0.00111 0.00847
51580. 1.06841 0.0083(4) 8121506. 0.00111 0.00835
51585. 1.06852 0.00788(34) 8404210. 0.001106 0.007990
51590. 1.06862 0.00728(34) 8849951. 0.001106 0.007434
51595. 1.06873 0.00674(32) 9612996. 0.001106 0.006739
51600. 1.06884 0.00590(30) 11131526. 0.001106 0.005967
51606. 1.06894 0.00509(28) 12612984. 0.001106 0.005195
51611. 1.06905 0.00450(27) 14019884. 0.001106 0.004471
51616. 1.06916 0.00389(24) 16802198. 0.001106 0.003813
51621. 1.06926 0.00343(23) 19685970. 0.001106 0.003242
51626. 1.06937 0.00336(23) 19666570. 0.001106 0.002763
51631. 1.06948 0.00303(21) 22128088. 0.001106 0.002392
51637. 1.06958 0.00252(19) 26573140. 0.001106 0.002096
51642. 1.06969 0.00217(18) 30702140. 0.001106 0.001874
51647. 1.06980 0.00210(18) 30499772. 0.001105 0.001710
51652. 1.06991 0.00197(18) 32050666. 0.001105 0.001590
51657. 1.07001 0.00187(17) 32762060. 0.001105 0.001504
51662. 1.07012 0.00172(16) 37734928. 0.001105 0.001440
51668. 1.07023 0.00178(17) 36668780. 0.001105 0.001393
51673. 1.07033 0.00183(17) 35080852. 0.001105 0.001358
51678. 1.07044 0.00171(16) 37712660. 0.001105 0.001331
51683. 1.07055 0.00151(15) 43961920. 0.001105 0.001309
51688. 1.07066 0.00138(14) 48139900. 0.001105 0.001291
51693. 1.07076 0.00125(14) 53978320. 0.001105 0.001275
51699. 1.07087 0.00122(13) 55146624. 0.001105 0.001262
51704. 1.07098 0.00127(14) 50527856. 0.001105 0.001251
51709. 1.07108 0.00128(14) 49647232. 0.001105 0.001241
51714. 1.07119 0.00119(13) 55485288. 0.001105 0.001231
51719. 1.07130 0.00117(13) 55936776. 0.001105 0.001223
51724. 1.07141 0.00134(14) 47938492. 0.001105 0.001216
51730. 1.07151 0.00137(15) 47168804. 0.001105 0.001209
51735. 1.07162 0.00137(15) 45141508. 0.001105 0.001203
51740. 1.07173 0.00126(14) 49049848. 0.001105 0.001197
51745. 1.07183 0.00118(13) 56688280. 0.001105 0.001192
51750. 1.07194 0.00133(14) 48645068. 0.001105 0.001188
51755. 1.07205 0.00124(14) 51637116. 0.001105 0.001183
51761. 1.07216 0.00127(14) 51729576. 0.001105 0.001179
51766. 1.07226 0.00117(13) 57300040. 0.001105 0.001176
51771. 1.07237 0.00096(12) 68715768. 0.001105 0.001172
51776. 1.07248 0.00109(13) 56926768. 0.001105 0.001169
51781. 1.07258 0.00106(13) 60055976. 0.001105 0.001166
51787. 1.07269 0.00101(12) 65505136. 0.001105 0.001154
51792. 1.07280 0.00117(13) 55774048. 0.001105 0.001152
51797. 1.07291 0.00120(14) 53517984. 0.001105 0.001150
51802. 1.07301 0.00123(14) 52527836. 0.001104 0.001148
51807. 1.07312 0.00119(14) 54750464. 0.001104 0.001146
51812. 1.07323 0.00113(13) 59303728. 0.001104 0.001144
51818. 1.07334 0.00117(13) 55875632. 0.001104 0.001142
51823. 1.07344 0.00120(14) 53614844. 0.001104 0.001140
51828. 1.07355 0.00137(15) 46641220. 0.001104 0.001139
51833. 1.07366 0.00141(15) 46060644. 0.001104 0.001138
51838. 1.07377 0.00131(14) 48344152. 0.001104 0.001136
51844. 1.07387 0.00116(14) 53793428. 0.001104 0.001135
51849. 1.07398 0.00099(12) 64550968. 0.001104 0.001134
51854. 1.07409 0.00103(13) 59843220. 0.001104 0.001133
51859. 1.07420 0.00114(14) 54336212. 0.001104 0.001132
51864. 1.07430 0.00110(13) 60241888. 0.001104 0.001131
51869. 1.07441 0.00113(13) 56680512. 0.001104 0.001130
51875. 1.07452 0.00126(14) 49492796. 0.001104 0.001129
51880. 1.07463 0.00118(13) 56187576. 0.001104 0.001128
51885. 1.07473 0.00125(14) 54074372. 0.001104 0.001127
51890. 1.07484 0.00137(15) 47038988. 0.001104 0.001126
51895. 1.07495 0.00120(13) 55829472. 0.001104 0.001125
51901. 1.07506 0.00117(13) 55688492. 0.001104 0.001125
51906. 1.07516 0.00110(13) 59361384. 0.001104 0.001124
51911. 1.07527 0.00110(13) 59866180. 0.001104 0.001123
51916. 1.07538 0.00113(13) 57966840. 0.001104 0.001123
51921. 1.07549 0.00110(13) 59691484. 0.001104 0.001122
51927. 1.07559 0.00103(12) 67467096. 0.001104 0.001122
51932. 1.07570 0.00119(13) 55039220. 0.001104 0.001121
51937. 1.07581 0.00118(14) 54169336. 0.001104 0.001121
51942. 1.07592 0.00110(13) 57012692. 0.001104 0.001120
51947. 1.07602 0.00109(13) 58775696. 0.001104 0.001120
51953. 1.07613 0.00126(14) 52065780. 0.001104 0.001119
51958. 1.07624 0.00128(14) 51037216. 0.001104 0.001119
51963. 1.07635 0.00113(13) 58985076. 0.001104 0.001118
51968. 1.07645 0.00115(13) 58624492. 0.001104 0.001118
51973. 1.07656 0.00119(13) 56310176. 0.001104 0.001117
51979. 1.07667 0.00114(13) 57684776. 0.001103 0.001117
51984. 1.07678 0.00116(13) 56942372. 0.001103 0.001117
51989. 1.07689 0.00115(13) 56767964. 0.001103 0.001116
51994. 1.07699 0.00118(13) 54903576. 0.001103 0.001116
51999. 1.07710 0.00120(13) 55099996. 0.001103 0.001116
52005. 1.07721 0.00109(13) 60216320. 0.001103 0.001115
52010. 1.07732 0.00087(12) 75562664. 0.001103 0.001115
52015. 1.07742 0.00082(11) 83262840. 0.001103 0.001115
52020. 1.07753 0.00103(12) 66626620. 0.001103 0.001114
52025. 1.07764 0.00108(13) 62651364. 0.001103 0.001114
52031. 1.07775 0.00106(12) 64110500. 0.001103 0.001114
52036. 1.07786 0.00108(13) 61224152. 0.001103 0.001114
52041. 1.07796 0.00101(12) 64292124. 0.001103 0.001113
52046. 1.07807 0.00117(13) 55390492. 0.001103 0.001113
52051. 1.07818 0.00128(14) 50863384. 0.001103 0.001113
52057. 1.07829 0.00111(13) 58605556. 0.001103 0.001113
52062. 1.07840 0.00115(14) 53835200. 0.001103 0.001112
52067. 1.07850 0.00116(13) 56236932. 0.001103 0.001112
52072. 1.07861 0.00117(13) 55171980. 0.001103 0.001112
52077. 1.07872 0.00124(14) 52531884. 0.001103 0.001112
52083. 1.07883 0.00132(14) 49856640. 0.001103 0.001111
52088. 1.07893 0.00126(14) 51813760. 0.001103 0.001111
52093. 1.07904 0.00126(14) 51155924. 0.001103 0.001111
52098. 1.07915 0.00120(14) 53681976. 0.001103 0.001111
52103. 1.07926 0.00126(14) 49782480. 0.001103 0.001111
52109. 1.07937 0.00117(14) 54825548. 0.001103 0.001111
52114. 1.07947 0.00109(13) 58776720. 0.001103 0.001110
52119. 1.07958 0.00104(13) 63956440. 0.001103 0.001110
52124. 1.07969 0.00103(12) 66945408. 0.001103 0.001110
52130. 1.07980 0.00112(13) 58937896. 0.001103 0.001110
52135. 1.07991 0.00115(13) 55029928. 0.001103 0.001110
52140. 1.08001 0.00101(12) 64266340. 0.001103 0.001110
52145. 1.08012 0.00114(13) 56320056. 0.001103 0.001109
52150. 1.08023 0.00129(14) 51665508. 0.001103 0.001109
52156. 1.08034 0.00117(13) 59430596. 0.001103 0.001103
52161. 1.08045 0.00104(13) 61116592. 0.001103 0.001103
52166. 1.08055 0.00095(12) 67156392. 0.001103 0.001103
52171. 1.08066 0.00118(13) 55087592. 0.001103 0.001103
52176. 1.08077 0.00125(14) 51872744. 0.001103 0.001103
52182. 1.08088 0.00116(13) 56652312. 0.001103 0.001103
52187. 1.08099 0.00125(14) 51500248. 0.001102 0.001102
52192. 1.08110 0.00122(14) 52027696. 0.001102 0.001102
52197. 1.08120 0.00107(13) 62587276. 0.001102 0.001102
52203. 1.08131 0.00111(13) 61990488. 0.001102 0.001102
52208. 1.08142 0.00118(13) 60064480. 0.001102 0.001102
52213. 1.08153 0.00127(14) 52428588. 0.001102 0.001102
52218. 1.08164 0.00110(13) 59168420. 0.001102 0.001102
52223. 1.08174 0.00102(12) 64671524. 0.001102 0.001102
52229. 1.08185 0.00116(13) 55104268. 0.001102 0.001103
52234. 1.08196 0.00110(13) 60667020. 0.001102 0.001103
52239. 1.08207 0.00102(13) 63930496. 0.001102 0.001103
52244. 1.08218 0.00115(14) 54076708. 0.001102 0.001103
52250. 1.08229 0.00116(13) 56389380. 0.001102 0.001103
52255. 1.08239 0.00117(13) 56773196. 0.001102 0.001103
52260. 1.08250 0.00130(14) 49214384. 0.001102 0.001103
52265. 1.08261 0.00123(14) 53429584. 0.001102 0.001103
52270. 1.08272 0.00111(13) 59916364. 0.001102 0.001103
52276. 1.08283 0.00095(12) 73439568. 0.001102 0.001103
52281. 1.08294 0.00096(12) 70213224. 0.001102 0.001103
52286. 1.08304 0.00113(13) 57705952. 0.001102 0.001103
52291. 1.08315 0.00118(13) 55318452. 0.001102 0.001103
52297. 1.08326 0.00108(13) 61197224. 0.001102 0.001103
52302. 1.08337 0.00099(12) 65410476. 0.001102 0.001103
52307. 1.08348 0.00091(12) 71380384. 0.001102 0.001103
52312. 1.08359 0.00106(13) 61721400. 0.001102 0.001103
52318. 1.08369 0.00120(14) 53855932. 0.001102 0.001103
52323. 1.08380 0.00112(13) 57878364. 0.001102 0.001103
52328. 1.08391 0.00105(13) 61827392. 0.001102 0.001103
52333. 1.08402 0.00108(13) 62619424. 0.001102 0.001103
52338. 1.08413 0.00114(13) 58813948. 0.001102 0.001103
52344. 1.08424 0.00121(14) 54637932. 0.001102 0.001103
52349. 1.08434 0.00118(14) 54757560. 0.001102 0.001103
52354. 1.08445 0.00097(12) 69534168. 0.001102 0.001103
52359. 1.08456 0.00106(13) 62659508. 0.001102 0.001103
52365. 1.08467 0.00114(13) 55172484. 0.001102 0.001103
52370. 1.08478 0.00097(12) 65025420. 0.001102 0.001103
52375. 1.08489 0.00099(12) 67258456. 0.001102 0.001103
52380. 1.08500 0.00102(13) 63670488. 0.001102 0.001103
52386. 1.08511 0.00093(12) 68995176. 0.001102 0.001103
52391. 1.08521 0.00101(13) 63786148. 0.001102 0.001103
52396. 1.08532 0.00105(13) 62863384. 0.001102 0.001103
52401. 1.08543 0.00103(12) 65330476. 0.001102 0.001103
52407. 1.08554 0.00107(13) 62998452. 0.001102 0.001103
52412. 1.08565 0.00115(13) 55685684. 0.001102 0.001104
52417. 1.08576 0.00109(13) 60850180. 0.001102 0.001104
52422. 1.08587 0.00124(14) 52013508. 0.001102 0.001104
52428. 1.08597 0.00109(13) 62974168. 0.001101 0.001104
52433. 1.08608 0.00111(13) 58352268. 0.001101 0.001104
52438. 1.08619 0.00099(12) 66100268. 0.001101 0.001104
52443. 1.08630 0.00092(12) 74987712. 0.001101 0.001104
52449. 1.08641 0.00105(13) 61956396. 0.001101 0.001104
52454. 1.08652 0.00103(12) 65619196. 0.001101 0.001104
52459. 1.08663 0.00106(13) 63532276. 0.001101 0.001104
52464. 1.08673 0.00116(13) 55779696. 0.001101 0.001104
52470. 1.08684 0.00133(15) 45370464. 0.001101 0.001104
52475. 1.08695 0.00124(14) 52286072. 0.001101 0.001104
52480. 1.08706 0.00111(13) 62775036. 0.001101 0.001104
52485. 1.08717 0.00107(13) 62177996. 0.001101 0.001104
52491. 1.08728 0.00099(12) 66700872. 0.001101 0.001104
52496. 1.08739 0.00102(12) 67888888. 0.001101 0.001104
52501. 1.08750 0.00124(14) 51777448. 0.001101 0.001104
52506. 1.08760 0.00117(14) 54645856. 0.001101 0.001104
52512. 1.08771 0.00115(13) 55654208. 0.001101 0.001104
52517. 1.08782 0.00120(13) 56407892. 0.001101 0.001104
52522. 1.08793 0.00124(14) 53777200. 0.001101 0.001105
52527. 1.08804 0.00118(13) 56002176. 0.001101 0.001105
52533. 1.08815 0.00111(13) 56635412. 0.001101 0.001105
52538. 1.08826 0.00103(13) 63831952. 0.001101 0.001105
52543. 1.08837 0.00110(13) 60578012. 0.001101 0.001105
52548. 1.08848 0.00110(13) 59784032. 0.001101 0.001105
52554. 1.08858 0.00106(13) 62072684. 0.001101 0.001105
52559. 1.08869 0.00110(13) 60056956. 0.001101 0.001105
52564. 1.08880 0.00107(13) 62812412. 0.001101 0.001105
52569. 1.08891 0.00105(13) 62983180. 0.001101 0.001106
52575. 1.08902 0.00101(12) 66530784. 0.001101 0.001106
52580. 1.08913 0.00103(12) 65325692. 0.001101 0.001106
52585. 1.08924 0.00106(13) 62219828. 0.001101 0.001106
52590. 1.08935 0.00105(12) 64600272. 0.001101 0.001106
52596. 1.08946 0.00097(12) 72775320. 0.001101 0.001106
52601. 1.08957 0.00109(13) 61604780. 0.001101 0.001107
52606. 1.08967 0.00117(13) 58158680. 0.001101 0.001107
52611. 1.08978 0.00112(13) 61653688. 0.001101 0.001107
52617. 1.08989 0.00103(12) 65870296. 0.001101 0.001107
52622. 1.09000 0.00111(13) 58336216. 0.001101 0.001107
52627. 1.09011 0.00113(13) 59476236. 0.001101 0.001108
52632. 1.09022 0.00118(13) 56278856. 0.001101 0.001108
52638. 1.09033 0.00115(14) 54652724. 0.001101 0.001108
52643. 1.09044 0.00103(13) 62891432. 0.001101 0.001109
52648. 1.09055 0.00107(13) 62954484. 0.001101 0.001109
52654. 1.09066 0.00110(13) 61022256. 0.001101 0.001109
52659. 1.09076 0.00111(13) 62446092. 0.001101 0.001110
52664. 1.09087 0.00132(14) 48959668. 0.001101 0.001110
52669. 1.09098 0.00121(14) 52273856. 0.001101 0.001111
52675. 1.09109 0.00112(13) 57620720. 0.001101 0.001111
52680. 1.09120 0.00120(14) 54183836. 0.001101 0.001112
52685. 1.09131 0.00140(15) 44779408. 0.001101 0.001112
52690. 1.09142 0.00128(14) 50497620. 0.001101 0.001113
52696. 1.09153 0.00109(13) 60345260. 0.001101 0.001114
52701. 1.09164 0.00106(12) 64592540. 0.001101 0.001114
52706. 1.09175 0.00112(13) 59696552. 0.001101 0.001115
52711. 1.09186 0.00106(13) 63309468. 0.001101 0.001116
52717. 1.09197 0.00111(13) 59718424. 0.001101 0.001117
52722. 1.09207 0.00128(14) 50402716. 0.001101 0.001118
52727. 1.09218 0.00115(13) 58284780. 0.001101 0.001121
52733. 1.09229 0.00113(13) 57462436. 0.001101 0.001122
52738. 1.09240 0.00110(13) 60440384. 0.001100 0.001124
52743. 1.09251 0.00108(13) 60618568. 0.001100 0.001126
52748. 1.09262 0.00102(12) 65536952. 0.001100 0.001128
52754. 1.09273 0.00103(12) 65155828. 0.001100 0.001131
52759. 1.09284 0.00112(13) 59161020. 0.001100 0.001134
52764. 1.09295 0.00127(14) 49687208. 0.001100 0.001139
52770. 1.09306 0.00133(15) 45879472. 0.001100 0.001156
52775. 1.09317 0.00116(13) 57398984. 0.001100 0.001165
52780. 1.09328 0.00117(13) 56592856. 0.001100 0.001177
52785. 1.09339 0.00120(14) 52677424. 0.001100 0.001193
52791. 1.09350 0.00117(13) 55319264. 0.001100 0.001216
52796. 1.09361 0.00134(15) 46863548. 0.001100 0.001245
52801. 1.09371 0.00136(15) 46381332. 0.001100 0.001284
52806. 1.09382 0.00128(14) 51815580. 0.001100 0.001333
52812. 1.09393 0.00124(14) 54344284. 0.001100 0.001394
52817. 1.09404 0.00131(14) 48584776. 0.001100 0.001467
52822. 1.09415 0.00147(15) 43405728. 0.001100 0.001550
52828. 1.09426 0.00157(16) 40456516. 0.001100 0.001644
52833. 1.09437 0.00179(17) 36243364. 0.001100 0.001745
52838. 1.09448 0.00219(18) 30012934. 0.001100 0.001849
52843. 1.09459 0.00239(19) 27622504. 0.001100 0.001950
52849. 1.09470 0.00241(19) 26572400. 0.001100 0.002041
52854. 1.09481 0.00229(19) 28124834. 0.001100 0.002116
52859. 1.09492 0.00223(18) 29444332. 0.001100 0.002169
52865. 1.09503 0.00235(19) 27722452. 0.001100 0.002192
52870. 1.09514 0.00243(19) 26654750. 0.001100 0.002181
52875. 1.09525 0.00227(19) 29068120. 0.001100 0.002137
52880. 1.09536 0.00193(17) 34253996. 0.001100 0.002062
52886. 1.09547 0.00170(16) 39063840. 0.001100 0.001966
52891. 1.09558 0.00178(17) 35285356. 0.001100 0.001860
52896. 1.09568 0.00166(16) 38435424. 0.001100 0.001751
52902. 1.09579 0.00156(15) 41766224. 0.001100 0.001646
52907. 1.09590 0.00149(15) 44057712. 0.001100 0.001549
52912. 1.09601 0.00146(15) 44085040. 0.001100 0.001466
52917. 1.09612 0.00132(14) 50362028. 0.001100 0.001395
52923. 1.09623 0.00140(15) 46050288. 0.001100 0.001337
52928. 1.09634 0.00137(14) 47686088. 0.001100 0.001291
52933. 1.09645 0.00140(15) 47247612. 0.001100 0.001255
52939. 1.09656 0.00123(14) 53522932. 0.001100 0.001228
52944. 1.09667 0.00100(12) 68117936. 0.001100 0.001208
52949. 1.09678 0.00121(13) 55264540. 0.001100 0.001194
52955. 1.09689 0.00135(14) 47847756. 0.001100 0.001183
52960. 1.09700 0.00130(14) 49400380. 0.001100 0.001175
52965. 1.09711 0.00124(14) 50303668. 0.001100 0.001170
52970. 1.09722 0.00101(12) 65325516. 0.001100 0.001165
52976. 1.09733 0.00114(13) 57048520. 0.001100 0.001169
52981. 1.09744 0.00113(13) 56995272. 0.001100 0.001167
52986. 1.09755 0.00105(13) 60182304. 0.001100 0.001165
52992. 1.09766 0.00097(12) 70300680. 0.001100 0.001163
52997. 1.09777 0.00119(13) 55358752. 0.001100 0.001162
53002. 1.09788 0.00125(14) 52842332. 0.001100 0.001161
53008. 1.09799 0.00119(13) 55590076. 0.001100 0.001161
53013. 1.09810 0.00131(14) 49983676. 0.001100 0.001161
53018. 1.09821 0.00140(15) 45939860. 0.001100 0.001160
53023. 1.09832 0.00122(14) 53120628. 0.001100 0.001160
53029. 1.09843 0.00104(13) 63408612. 0.001100 0.001161
53034. 1.09854 0.00095(12) 71343232. 0.001100 0.001161
53039. 1.09865 0.00105(13) 61488008. 0.001100 0.001162
53045. 1.09876 0.00102(13) 62730240. 0.001100 0.001162
53050. 1.09887 0.00104(13) 59648672. 0.001100 0.001163
53055. 1.09898 0.00109(13) 59606432. 0.001100 0.001164
53061. 1.09909 0.00119(13) 57180592. 0.001100 0.001165
53066. 1.09920 0.00123(14) 54569884. 0.001100 0.001166
53071. 1.09931 0.00122(14) 54481040. 0.001100 0.001168
53076. 1.09942 0.00128(14) 51281280. 0.001100 0.001169
53082. 1.09953 0.00114(13) 58579448. 0.001100 0.001171
53087. 1.09964 0.00100(12) 69254208. 0.001100 0.001173
53092. 1.09975 0.00114(13) 55129528. 0.001100 0.001175
53098. 1.09986 0.00116(14) 54722692. 0.001100 0.001177
53103. 1.09997 0.00137(15) 46003644. 0.001100 0.001179
53108. 1.10008 0.00134(14) 48230188. 0.001100 0.001182
53114. 1.10019 0.00115(13) 57332368. 0.001100 0.001184
53119. 1.10030 0.00131(14) 48941804. 0.001100 0.001187
53124. 1.10041 0.00139(15) 45529456. 0.001100 0.001190
53130. 1.10052 0.00119(14) 52468152. 0.001100 0.001194
53135. 1.10063 0.00102(13) 63473048. 0.001100 0.001197
53140. 1.10074 0.00097(12) 69497736. 0.001100 0.001201
53146. 1.10085 0.00096(12) 70303912. 0.001100 0.001206
53151. 1.10096 0.00090(12) 75230344. 0.001100 0.001210
53156. 1.10107 0.00113(13) 56499824. 0.001100 0.001215
53161. 1.10118 0.00114(13) 57784116. 0.001100 0.001220
53167. 1.10129 0.00105(13) 63853784. 0.001099 0.001226
53172. 1.10140 0.00114(14) 54702384. 0.001099 0.001233
53177. 1.10151 0.00129(15) 47433772. 0.001099 0.001239
53183. 1.10162 0.00140(15) 44937836. 0.001099 0.001247
53188. 1.10173 0.00121(14) 54041760. 0.001099 0.001255
53193. 1.10184 0.00117(13) 55655716. 0.001099 0.001264
53199. 1.10195 0.00115(13) 56253440. 0.001099 0.001274
53204. 1.10206 0.00106(13) 60326500. 0.001099 0.001285
53209. 1.10217 0.00098(12) 68510088. 0.001099 0.001297
53215. 1.10228 0.00109(13) 59903640. 0.001099 0.001311
53220. 1.10239 0.00123(14) 52414952. 0.001099 0.001326
53225. 1.10250 0.00128(14) 49254024. 0.001099 0.001343
53231. 1.10261 0.00113(13) 57169452. 0.001099 0.001364
53236. 1.10272 0.00128(14) 51058188. 0.001099 0.001390
53241. 1.10283 0.00134(14) 49194824. 0.001099 0.001422
53247. 1.10294 0.00130(14) 51317052. 0.001099 0.001465
53252. 1.10305 0.00136(14) 49001816. 0.001099 0.001523
53257. 1.10317 0.00145(15) 43924908. 0.001099 0.001603
53263. 1.10328 0.00142(15) 46042968. 0.001099 0.001714
53268. 1.10339 0.00166(16) 38124288. 0.001099 0.001871
53273. 1.10350 0.00177(17) 36632636. 0.001099 0.002088
53279. 1.10361 0.00199(17) 33530660. 0.001099 0.002388
53284. 1.10372 0.00267(20) 24247332. 0.001099 0.002790
53289. 1.10383 0.00327(23) 19633636. 0.001099 0.003308
53295. 1.10394 0.00399(25) 15641612. 0.001099 0.003970
53300. 1.10405 0.00439(27) 14161897. 0.001099 0.004779
53305. 1.10416 0.00501(28) 13045090. 0.001099 0.005733
53311. 1.10427 0.00725(34) 8567778. 0.001099 0.006806
53316. 1.10438 0.0086(4) 7400025. 0.00110 0.00797
53321. 1.10449 0.0096(4) 6681940. 0.00110 0.00920
53327. 1.10460 0.0112(4) 5919216. 0.00110 0.01040
53332. 1.10471 0.0128(4) 5045799. 0.00110 0.01151
53337. 1.10482 0.0134(5) 4772268. 0.00110 0.01243
53343. 1.10493 0.0135(5) 4824029. 0.00110 0.01309
53348. 1.10504 0.0137(5) 4647911. 0.00110 0.01341
53353. 1.10515 0.0133(5) 4837048. 0.00110 0.01334
53359. 1.10526 0.0123(4) 5328965. 0.00110 0.01287
53364. 1.10537 0.0120(4) 5277813. 0.00110 0.01206
53369. 1.10548 0.0106(4) 6114544. 0.00110 0.01099
53375. 1.10560 0.0097(4) 6510380. 0.00110 0.00977
53380. 1.10571 0.0089(4) 7052807. 0.00110 0.00851
53385. 1.10582 0.00755(34) 8557008. 0.001099 0.007280
53391. 1.10593 0.00659(32) 9809692. 0.001099 0.006143
53396. 1.10604 0.00593(31) 10739884. 0.001099 0.005152
53401. 1.10615 0.00519(28) 12311884. 0.001099 0.004313
53407. 1.10626 0.00459(27) 13928202. 0.001099 0.003619
53412. 1.10637 0.00416(25) 15447320. 0.001099 0.003071
53417. 1.10648 0.00359(24) 17616830. 0.001099 0.002647
53423. 1.10659 0.00301(22) 21385340. 0.001099 0.002328
53428. 1.10670 0.00287(21) 22141214. 0.001099 0.002092
53433. 1.10681 0.00277(21) 22910938. 0.001099 0.001920
53439. 1.10692 0.00259(20) 24319126. 0.001099 0.001795
53444. 1.10703 0.00243(19) 26304492. 0.001099 0.001705
53449. 1.10714 0.00212(18) 31261726. 0.001099 0.001639
53455. 1.10726 0.00217(18) 30155854. 0.001099 0.001591
53460. 1.10737 0.00210(18) 31810132. 0.001099 0.001554
53465. 1.10748 0.00195(18) 32351256. 0.001099 0.001527
53471. 1.10759 0.00177(16) 37164508. 0.001099 0.001506
53476. 1.10770 0.00175(16) 37738668. 0.001099 0.001491
53481. 1.10781 0.00157(15) 41670264. 0.001099 0.001481
53487. 1.10792 0.00167(16) 37562352. 0.001099 0.001474
53492. 1.10803 0.00159(16) 40759072. 0.001099 0.001472
53498. 1.10814 0.00139(15) 46095372. 0.001099 0.001474
53503. 1.10825 0.00163(16) 38608988. 0.001099 0.001482
53508. 1.10836 0.00165(16) 39124396. 0.001099 0.001498
53514. 1.10847 0.00153(16) 40765012. 0.001099 0.001524
53519. 1.10859 0.00156(16) 39860332. 0.001099 0.001565
53524. 1.10870 0.00159(16) 40476852. 0.001099 0.001625
53530. 1.10881 0.00151(15) 44021028. 0.001099 0.001709
53535. 1.10892 0.00162(16) 40520380. 0.001099 0.001829
53540. 1.10903 0.00172(17) 36675920. 0.001099 0.001993
53546. 1.10914 0.00191(17) 33335726. 0.001099 0.002210
53551. 1.10925 0.00236(19) 27093616. 0.001099 0.002495
53556. 1.10936 0.00276(21) 23026910. 0.001099 0.002848
53562. 1.10947 0.00308(22) 20889936. 0.001099 0.003278
53567. 1.10958 0.00351(23) 18221670. 0.001099 0.003783
53572. 1.10969 0.00422(26) 15233760. 0.001099 0.004356
53578. 1.10981 0.00506(28) 12541339. 0.001099 0.004981
53583. 1.10992 0.00556(29) 11852737. 0.001099 0.005634
53589. 1.11003 0.00611(30) 10976322. 0.001099 0.006292
53594. 1.11014 0.00723(33) 8992704. 0.001099 0.006903
53599. 1.11025 0.00783(34) 8458278. 0.001099 0.007432
53605. 1.11036 0.0084(4) 7643984. 0.00110 0.00783
53610. 1.11047 0.00775(34) 8447593. 0.001099 0.008058
53615. 1.11058 0.00738(33) 9020125. 0.001099 0.008075
53621. 1.11070 0.00765(35) 8280081. 0.001099 0.007871
53626. 1.11081 0.00705(33) 9137315. 0.001099 0.007464
53631. 1.11092 0.00613(31) 10711188. 0.001099 0.006893
53637. 1.11103 0.00537(29) 12131445. 0.001099 0.006221
53642. 1.11114 0.00491(28) 12952786. 0.001099 0.005515
53648. 1.11125 0.00436(26) 14617924. 0.001099 0.004827
53653. 1.11136 0.00389(25) 16427779. 0.001099 0.004178
53658. 1.11147 0.00355(24) 17909922. 0.001099 0.003602
53664. 1.11158 0.00325(22) 19980468. 0.001099 0.003101
53669. 1.11170 0.00303(22) 21268866. 0.001099 0.002690
53674. 1.11181 0.00267(20) 24646788. 0.001099 0.002358
53680. 1.11192 0.00253(20) 25454590. 0.001099 0.002096
53685. 1.11203 0.00240(19) 27303456. 0.001099 0.001894
53691. 1.11214 0.00236(19) 27301402. 0.001099 0.001744
53696. 1.11225 0.00210(18) 30587582. 0.001099 0.001631
53701. 1.11236 0.00182(17) 35699432. 0.001099 0.001547
53707. 1.11247 0.00187(17) 34828948. 0.001099 0.001483
53712. 1.11258 0.00188(17) 33936520. 0.001099 0.001435
53717. 1.11270 0.00159(16) 41024316. 0.001099 0.001397
53723. 1.11281 0.00147(15) 44463012. 0.001099 0.001368
53728. 1.11292 0.00162(16) 38218360. 0.001099 0.001344
53733. 1.11303 0.00162(16) 40140716. 0.001099 0.001323
53739. 1.11314 0.00167(16) 38875212. 0.001099 0.001306
53744. 1.11325 0.00163(16) 38734928. 0.001099 0.001291
53750. 1.11336 0.00146(15) 44622340. 0.001099 0.001278
53755. 1.11348 0.00133(14) 49388988. 0.001099 0.001266
53760. 1.11359 0.00123(14) 52852636. 0.001099 0.001255
53766. 1.11370 0.00131(14) 48456552. 0.001099 0.001245
53771. 1.11381 0.00143(15) 44368200. 0.001099 0.001237
53776. 1.11392 0.00135(14) 48210916. 0.001099 0.001229
53782. 1.11403 0.00124(14) 52807660. 0.001099 0.001222
53787. 1.11415 0.00123(14) 52569520. 0.001099 0.001215
53793. 1.11426 0.00122(14) 51774700. 0.001099 0.001209
53798. 1.11437 0.00118(14) 54216436. 0.001099 0.001203
53803. 1.11448 0.00114(13) 56107600. 0.001099 0.001198
53809. 1.11459 0.00108(13) 62362732. 0.001099 0.001193
53814. 1.11470 0.00107(13) 63832728. 0.001099 0.001189
53820. 1.11481 0.00116(14) 54640512. 0.001098 0.001185
53825. 1.11492 0.00115(13) 56679764. 0.001098 0.001181
53830. 1.11504 0.00120(13) 55761452. 0.001098 0.001177
53836. 1.11515 0.00126(14) 52890816. 0.001098 0.001174
53841. 1.11526 0.00124(14) 52423020. 0.001098 0.001171
53846. 1.11537 0.00119(14) 53054476. 0.001098 0.001168
53852. 1.11548 0.00115(13) 55819692. 0.001098 0.001165
53857. 1.11560 0.00114(13) 56674740. 0.001098 0.001163
53863. 1.11571 0.00127(14) 49539092. 0.001098 0.001160
53868. 1.11582 0.00126(14) 49529280. 0.001098 0.001158
53873. 1.11593 0.00122(14) 50471728. 0.001098 0.001156
53879. 1.11604 0.00129(14) 48355740. 0.001098 0.001154
53884. 1.11615 0.00123(14) 51803520. 0.001098 0.001152
53890. 1.11626 0.00115(13) 55642896. 0.001098 0.001150
53895. 1.11638 0.00121(14) 52070664. 0.001098 0.001148
53900. 1.11649 0.00120(14) 52378480. 0.001098 0.001147
53906. 1.11660 0.00108(13) 58850916. 0.001098 0.001145
53911. 1.11671 0.00117(13) 55137780. 0.001098 0.001144
53916. 1.11682 0.00120(14) 52855452. 0.001098 0.001142
53922. 1.11693 0.00109(13) 59454360. 0.001098 0.001141
53927. 1.11705 0.00113(13) 56867636. 0.001098 0.001140
53933. 1.11716 0.00108(13) 60117616. 0.001098 0.001139
53938. 1.11727 0.00103(12) 66395364. 0.001098 0.001137
53943. 1.11738 0.00112(13) 57380232. 0.001098 0.001136
53949. 1.11749 0.00099(12) 66386836. 0.001098 0.001135
53954. 1.11761 0.00111(13) 58199872. 0.001098 0.001134
53960. 1.11772 0.00113(13) 58553408. 0.001098 0.001133
53965. 1.11783 0.00110(13) 60800836. 0.001098 0.001132
53970. 1.11794 0.00109(13) 59924776. 0.001098 0.001131
53976. 1.11805 0.00113(13) 56702168. 0.001098 0.001131
53981. 1.11816 0.00113(13) 58868700. 0.001098 0.001130
53987. 1.11828 0.00122(14) 51918476. 0.001098 0.001129
53992. 1.11839 0.00121(14) 52068424. 0.001098 0.001128
53997. 1.11850 0.00117(14) 54756468. 0.001098 0.001127
54003. 1.11861 0.00106(13) 62572988. 0.001098 0.001117
54008. 1.11872 0.00110(13) 58750220. 0.001098 0.001117
54014. 1.11884 0.00110(13) 58586892. 0.001098 0.001116
54019. 1.11895 0.00109(13) 60092032. 0.001098 0.001116
54024. 1.11906 0.00113(13) 57328712. 0.001098 0.001115
54030. 1.11917 0.00125(14) 49748184. 0.001098 0.001115
54035. 1.11928 0.00115(13) 56440040. 0.001098 0.001114
54041. 1.11940 0.00099(12) 69570096. 0.001098 0.001114
54046. 1.11951 0.00107(13) 60280528. 0.001098 0.001114
54051. 1.11962 0.00110(13) 57911140. 0.001098 0.001113
54057. 1.11973 0.00107(13) 61939316. 0.001098 0.001113
54062. 1.11984 0.00124(14) 50942556. 0.001098 0.001112
54068. 1.11996 0.00134(15) 47465852. 0.001098 0.001112
54073. 1.12007 0.00130(14) 48783924. 0.001098 0.001112
54078. 1.12018 0.00117(14) 54422876. 0.001098 0.001111
54084. 1.12029 0.00109(13) 58503108. 0.001098 0.001111
54089. 1.12040 0.00111(13) 59294620. 0.001098 0.001111
54095. 1.12052 0.00117(13) 56472104. 0.001098 0.001111
54100. 1.12063 0.00116(13) 56902028. 0.001098 0.001110
54106. 1.12074 0.00112(13) 60083160. 0.001098 0.001110
54111. 1.12085 0.00107(13) 63743804. 0.001098 0.001110
54116. 1.12097 0.00105(13) 62053244. 0.001098 0.001109
54122. 1.12108 0.00093(12) 73541752. 0.001098 0.001109
54127. 1.12119 0.00101(12) 64525432. 0.001098 0.001109
54133. 1.12130 0.00112(13) 55389416. 0.001098 0.001109
54138. 1.12141 0.00101(12) 64085380. 0.001098 0.001109
54143. 1.12153 0.00102(12) 65262524. 0.001098 0.001108
54149. 1.12164 0.00111(13) 61037812. 0.001098 0.001108
54154. 1.12175 0.00122(14) 52721228. 0.001098 0.001108
54160. 1.12186 0.00111(13) 59202876. 0.001098 0.001108
54165. 1.12197 0.00096(12) 65361780. 0.001098 0.001107
54171. 1.12209 0.00093(12) 68652032. 0.001098 0.001107
54176. 1.12220 0.00111(13) 56828604. 0.001098 0.001107
54181. 1.12231 0.00111(13) 57274696. 0.001098 0.001107
54187. 1.12242 0.00096(12) 67371232. 0.001098 0.001107
54192. 1.12254 0.00097(12) 66767576. 0.001098 0.001107
54198. 1.12265 0.00106(13) 61673160. 0.001098 0.001106
54203. 1.12276 0.00126(14) 50681948. 0.001098 0.001106
54208. 1.12287 0.00120(14) 53711760. 0.001098 0.001106
54214. 1.12298 0.00094(12) 72798992. 0.001098 0.001106
54219. 1.12310 0.00097(12) 66529368. 0.001098 0.001106
54225. 1.12321 0.00094(12) 66400076. 0.001098 0.001106
54230. 1.12332 0.00088(12) 73942760. 0.001098 0.001106
54236. 1.12344 0.00093(12) 69866760. 0.001098 0.001105
54241. 1.12355 0.00083(11) 79009824. 0.001098 0.001105
54246. 1.12366 0.00086(12) 75203144. 0.001098 0.001105
54252. 1.12377 0.00094(12) 70679168. 0.001098 0.001105
54257. 1.12388 0.00094(12) 74540776. 0.001098 0.001105
54263. 1.12400 0.00102(12) 65009148. 0.001098 0.001105
54268. 1.12411 0.00117(14) 52623000. 0.001098 0.001105
54274. 1.12422 0.00110(13) 61273692. 0.001098 0.001104
54279. 1.12433 0.00116(13) 58047240. 0.001098 0.001104
54284. 1.12445 0.00117(14) 53758116. 0.001098 0.001104
54290. 1.12456 0.00116(14) 54857492. 0.001098 0.001104
54295. 1.12467 0.00105(13) 61627520. 0.001098 0.001104
54301. 1.12478 0.00090(12) 71630896. 0.001098 0.001104
54306. 1.12490 0.00092(12) 75435048. 0.001098 0.001098
54312. 1.12501 0.00118(13) 56278416. 0.001098 0.001098
54317. 1.12512 0.00118(13) 55425544. 0.001098 0.001098
54322. 1.12523 0.00104(13) 63647992. 0.001098 0.001098
54328. 1.12535 0.00110(13) 56750608. 0.001098 0.001098
54333. 1.12546 0.00116(13) 55020244. 0.001098 0.001098
54339. 1.12557 0.00110(13) 59904784. 0.001098 0.001098
54344. 1.12568 0.00122(14) 51992508. 0.001098 0.001098
54350. 1.12580 0.00131(15) 46676328. 0.001098 0.001098
54355. 1.12591 0.00121(14) 54606852. 0.001098 0.001098
54361. 1.12602 0.00117(14) 54591912. 0.001098 0.001098
54366. 1.12614 0.00103(13) 62889528. 0.001098 0.001098
54371. 1.12625 0.00116(14) 54852464. 0.001098 0.001098
54377. 1.12636 0.00118(13) 55492276. 0.001098 0.001098
54382. 1.12647 0.00120(14) 53502412. 0.001098 0.001098
54388. 1.12659 0.00117(13) 55092524. 0.001098 0.001098
54393. 1.12670 0.00114(13) 56463928. 0.001098 0.001098
54399. 1.12681 0.00111(13) 58724932. 0.001098 0.001098
54404. 1.12692 0.00115(13) 56244424. 0.001098 0.001098
54409. 1.12704 0.00126(14) 52435756. 0.001098 0.001098
54415. 1.12715 0.00123(14) 53173676. 0.001098 0.001098
54420. 1.12726 0.00117(14) 54404352. 0.001098 0.001098
54426. 1.12737 0.00114(13) 56488544. 0.001098 0.001098
54431. 1.12749 0.00114(13) 56738184. 0.001098 0.001098
54437. 1.12760 0.00107(13) 61419888. 0.001098 0.001098
54442. 1.12771 0.00101(12) 65067792. 0.001098 0.001098
54448. 1.12783 0.00100(12) 66374172. 0.001098 0.001098
54453. 1.12794 0.00100(13) 62538848. 0.001098 0.001098
54458. 1.12805 0.00104(13) 58991872. 0.001098 0.001098
54464. 1.12816 0.00110(13) 59014568. 0.001098 0.001098
54469. 1.12828 0.00117(13) 56510148. 0.001098 0.001098
54475. 1.12839 0.00131(14) 51949944. 0.001098 0.001098
54480. 1.12850 0.00140(15) 47121324. 0.001098 0.001098
54486. 1.12862 0.00119(14) 53440600. 0.001098 0.001098
54491. 1.12873 0.00104(13) 61927712. 0.001098 0.001098
54497. 1.12884 0.00103(13) 60415216. 0.001098 0.001098
54502. 1.12896 0.00092(12) 70828832. 0.001098 0.001098
54507. 1.12907 0.00114(13) 57811220. 0.001098 0.001098
54513. 1.12918 0.00136(15) 46133160. 0.001098 0.001098
54518. 1.12929 0.00118(14) 54402720. 0.001098 0.001098
54524. 1.12941 0.00102(12) 65981796. 0.001098 0.001098
54529. 1.12952 0.00124(14) 50002160. 0.001098 0.001098
54535. 1.12963 0.00123(14) 50696788. 0.001098 0.001098
54540. 1.12975 0.00106(13) 62751488. 0.001098 0.001098
54546. 1.12986 0.00109(13) 60590992. 0.001098 0.001098
54551. 1.12997 0.00094(12) 71934040. 0.001098 0.001098
54557. 1.13008 0.00093(12) 71162048. 0.001098 0.001098
54562. 1.13020 0.00095(12) 66471652. 0.001098 0.001106
54567. 1.13031 0.00086(12) 74403280. 0.001098 0.001106
54573. 1.13042 0.00090(12) 71743336. 0.001097 0.001106
54578. 1.13054 0.00092(12) 71247360. 0.001097 0.001106
54584. 1.13065 0.00121(14) 54145308. 0.001097 0.001106
54589. 1.13076 0.00130(14) 49970592. 0.001097 0.001107
54595. 1.13088 0.00108(13) 59061272. 0.001097 0.001107
54600. 1.13099 0.00095(12) 66383172. 0.001097 0.001107
54606. 1.13110 0.00110(13) 58392876. 0.001097 0.001107
54611. 1.13122 0.00130(14) 48836340. 0.001097 0.001107
54617. 1.13133 0.00132(14) 49554024. 0.001097 0.001108
54622. 1.13144 0.00131(15) 46793912. 0.001097 0.001108
54628. 1.13156 0.00108(13) 57290428. 0.001097 0.001108
54633. 1.13167 0.00092(12) 70445776. 0.001097 0.001108
54638. 1.13178 0.00099(12) 65885152. 0.001097 0.001109
54644. 1.13190 0.00110(13) 59203620. 0.001097 0.001109
54649. 1.13201 0.00112(14) 53129584. 0.001097 0.001109
54655. 1.13212 0.00094(13) 63953292. 0.001097 0.001109
54660. 1.13224 0.00100(12) 65762532. 0.001097 0.001110
54666. 1.13235 0.00118(13) 55603208. 0.001097 0.001110
54671. 1.13246 0.00115(13) 56590204. 0.001097 0.001110
54677. 1.13257 0.00109(13) 59248976. 0.001097 0.001111
54682. 1.13269 0.00109(14) 54847340. 0.001097 0.001111
54688. 1.13280 0.00089(12) 69962840. 0.001097 0.001111
54693. 1.13291 0.00092(12) 67377856. 0.001097 0.001112
54699. 1.13303 0.00108(13) 58407944. 0.001097 0.001112
54704. 1.13314 0.00121(14) 52085304. 0.001097 0.001113
54710. 1.13325 0.00122(14) 52803828. 0.001097 0.001113
54715. 1.13337 0.00114(13) 55163632. 0.001097 0.001113
54720. 1.13348 0.00108(13) 56895472. 0.001097 0.001114
54726. 1.13359 0.00097(12) 66304712. 0.001097 0.001114
54731. 1.13371 0.00100(12) 65059876. 0.001097 0.001115
54737. 1.13382 0.00107(13) 61814220. 0.001097 0.001115
54742. 1.13394 0.00115(13) 55525232. 0.001097 0.001116
54748. 1.13405 0.00106(13) 61522304. 0.001097 0.001117
54753. 1.13416 0.00115(13) 54904552. 0.001097 0.001117
54759. 1.13428 0.00100(13) 62972540. 0.001097 0.001118
54764. 1.13439 0.00084(11) 77398336. 0.001097 0.001118
54770. 1.13450 0.00105(13) 58781796. 0.001097 0.001119
54775. 1.13462 0.00111(13) 56732852. 0.001097 0.001120
54781. 1.13473 0.00100(12) 66528968. 0.001097 0.001121
54786. 1.13484 0.00104(13) 62507004. 0.001097 0.001121
54792. 1.13496 0.00104(13) 61818712. 0.001097 0.001122
54797. 1.13507 0.00104(13) 61025536. 0.001097 0.001123
54803. 1.13518 0.00102(13) 62852412. 0.001097 0.001124
54808. 1.13530 0.00101(13) 63095512. 0.001097 0.001125
54814. 1.13541 0.00107(13) 58802036. 0.001097 0.001126
54819. 1.13553 0.00102(13) 61222440. 0.001097 0.001127
54825. 1.13564 0.00099(12) 65526768. 0.001097 0.001129
54830. 1.13575 0.00120(14) 50359328. 0.001097 0.001130
54836. 1.13587 0.00105(13) 60733220. 0.001097 0.001131
54841. 1.13598 0.00107(13) 59563660. 0.001097 0.001133
54847. 1.13609 0.00131(15) 45302472. 0.001097 0.001134
54852. 1.13620 0.00109(13) 56980500. 0.001097 0.001136
54857. 1.13632 0.00088(12) 73693824. 0.001097 0.001138
54863. 1.13643 0.00101(13) 63276968. 0.001097 0.001139
54868. 1.13655 0.00110(13) 56533896. 0.001097 0.001141
54874. 1.13666 0.00101(13) 63058048. 0.001097 0.001144
54879. 1.13677 0.00105(13) 60346140. 0.001097 0.001146
54885. 1.13689 0.00105(13) 62017608. 0.001097 0.001148
54890. 1.13700 0.00121(14) 52149300. 0.001097 0.001151
54896. 1.13712 0.00131(15) 46470144. 0.001097 0.001154
54901. 1.13723 0.00119(14) 49505712. 0.001097 0.001157
54907. 1.13734 0.00108(13) 58178944. 0.001097 0.001160
54912. 1.13746 0.00121(14) 54017832. 0.001097 0.001164
54918. 1.13757 0.00126(14) 49897924. 0.001097 0.001168
54923. 1.13768 0.00107(13) 61872084. 0.001097 0.001172
54929. 1.13780 0.00102(12) 64919800. 0.001097 0.001177
54934. 1.13791 0.00100(13) 63102980. 0.001097 0.001182
54940. 1.13803 0.00107(13) 57340232. 0.001097 0.001188
54945. 1.13814 0.00115(14) 54251136. 0.001097 0.001195
54951. 1.13825 0.00106(13) 61702436. 0.001097 0.001202
54956. 1.13837 0.00111(13) 56885720. 0.001097 0.001210
54962. 1.13848 0.00118(14) 53367104. 0.001097 0.001219
54967. 1.13860 0.00121(14) 53316384. 0.001097 0.001230
54973. 1.13871 0.00123(14) 52244980. 0.001097 0.001243
54978. 1.13882 0.00130(14) 49142756. 0.001097 0.001259
54984. 1.13894 0.00134(14) 48387004. 0.001097 0.001280
54989. 1.13905 0.00132(14) 48775172. 0.001097 0.001308
54995. 1.13917 0.00141(15) 44196804. 0.001097 0.001348
55000. 1.13928 0.00142(15) 44394376. 0.001097 0.001405
55006. 1.13939 0.00117(13) 55019516. 0.001097 0.001488
55011. 1.13951 0.00106(13) 57109880. 0.001097 0.001608
55017. 1.13962 0.00143(15) 41855704. 0.001097 0.001779
55022. 1.13974 0.00175(17) 35395196. 0.001097 0.002018
55028. 1.13985 0.00192(18) 32520546. 0.001097 0.002342
55033. 1.13996 0.00230(19) 26748534. 0.001097 0.002770
55039. 1.14008 0.00274(21) 23149288. 0.001097 0.003312
55044. 1.14019 0.00336(23) 18447562. 0.001097 0.003977
55050. 1.14031 0.00415(26) 14995404. 0.001097 0.004757
55055. 1.14042 0.00544(29) 11699186. 0.001097 0.005643
55061. 1.14054 0.00694(34) 8807175. 0.001097 0.006583
55066. 1.14065 0.0080(4) 7625778. 0.00110 0.00753
55072. 1.14076 0.0090(4) 6920302. 0.00110 0.00843
55077. 1.14088 0.0098(4) 6518225. 0.00110 0.00923
55083. 1.14099 0.0106(4) 5848744. 0.00110 0.00984
55088. 1.14111 0.0107(4) 5809557. 0.00110 0.01018
55094. 1.14122 0.0104(4) 6044152. 0.00110 0.01022
55099. 1.14133 0.0099(4) 6341525. 0.00110 0.00994
55105. 1.14145 0.0091(4) 6783666. 0.00110 0.00936
55110. 1.14156 0.0081(4) 7739561. 0.00110 0.00855
55116. 1.14167 0.00747(35) 8393933. 0.001096 0.007594
55121. 1.14179 0.00618(31) 10389775. 0.001096 0.006580
55127. 1.14190 0.00525(29) 11903923. 0.001096 0.005593
55133. 1.14202 0.00448(27) 13981892. 0.001096 0.004696
55138. 1.14213 0.00387(25) 16533569. 0.001096 0.003913
55144. 1.14225 0.00365(24) 17269556. 0.001096 0.003266
55149. 1.14236 0.00330(23) 19244188. 0.001096 0.002740
55155. 1.14247 0.00285(21) 22832266. 0.001096 0.002332
55160. 1.14259 0.00273(21) 23534162. 0.001096 0.002023
55166. 1.14270 0.00243(19) 26522074. 0.001096 0.001798
55171. 1.14282 0.00213(18) 30414378. 0.001096 0.001638
55177. 1.14293 0.00188(17) 34583292. 0.001096 0.001525
55182. 1.14305 0.00167(16) 38784844. 0.001096 0.001445
55188. 1.14316 0.00160(16) 38176984. 0.001096 0.001389
55193. 1.14328 0.00155(16) 40283212. 0.001096 0.001348
55199. 1.14339 0.00163(16) 39367916. 0.001096 0.001318
55204. 1.14350 0.00167(16) 36855580. 0.001096 0.001294
55210. 1.14362 0.00146(15) 42347140. 0.001096 0.001275
55215. 1.14373 0.00129(14) 49436236. 0.001096 0.001259
55221. 1.14385 0.00156(16) 38640352. 0.001096 0.001245
55226. 1.14396 0.00162(16) 38125792. 0.001096 0.001233
55232. 1.14408 0.00145(15) 44557268. 0.001096 0.001223
55237. 1.14419 0.00139(15) 44618196. 0.001096 0.001214
55243. 1.14430 0.00132(14) 47692820. 0.001096 0.001205
55248. 1.14442 0.00143(15) 44806284. 0.001096 0.001198
55254. 1.14453 0.00149(15) 43756596. 0.001096 0.001191
55259. 1.14465 0.00126(14) 52017420. 0.001096 0.001185
55265. 1.14476 0.00118(14) 52075376. 0.001096 0.001180
55271. 1.14488 0.00107(13) 57577428. 0.001096 0.001175
55276. 1.14499 0.00098(12) 64439712. 0.001096 0.001170
55282. 1.14511 0.00113(14) 53117296. 0.001096 0.001166
55287. 1.14522 0.00114(14) 53730528. 0.001096 0.001162
55293. 1.14534 0.00114(14) 54673600. 0.001096 0.001159
55298. 1.14545 0.00116(13) 55428456. 0.001096 0.001156
55304. 1.14557 0.00124(14) 50730548. 0.001096 0.001153
55309. 1.14568 0.00116(14) 54448956. 0.001096 0.001150
55315. 1.14580 0.00118(14) 51374384. 0.001096 0.001147
55320. 1.14591 0.00111(13) 55062116. 0.001096 0.001145
55326. 1.14602 0.00110(13) 58063608. 0.001096 0.001143
55331. 1.14614 0.00117(13) 56418876. 0.001096 0.001141
55337. 1.14625 0.00120(14) 53420108. 0.001096 0.001139
55342. 1.14637 0.00131(14) 48049100. 0.001096 0.001137
55348. 1.14648 0.00126(14) 49474604. 0.001096 0.001135
55354. 1.14660 0.00116(14) 51827864. 0.001096 0.001134
55359. 1.14671 0.00113(13) 56324548. 0.001096 0.001132
55365. 1.14683 0.00127(14) 50102420. 0.001096 0.001131
55370. 1.14694 0.00122(14) 52941696. 0.001096 0.001130
55376. 1.14706 0.00114(13) 58237748. 0.001096 0.001129
55381. 1.14717 0.00115(13) 55695032. 0.001096 0.001127
55387. 1.14729 0.00124(14) 50390168. 0.001096 0.001126
55392. 1.14740 0.00130(14) 47790764. 0.001096 0.001125
55398. 1.14752 0.00123(14) 49173492. 0.001096 0.001124
55403. 1.14763 0.00103(13) 62470212. 0.001096 0.001124
55409. 1.14775 0.00107(13) 60291296. 0.001096 0.001123
55414. 1.14786 0.00116(13) 54920984. 0.001096 0.001122
55420. 1.14797 0.00115(13) 55378064. 0.001096 0.001121
55426. 1.14809 0.00117(14) 51103864. 0.001096 0.001120
55431. 1.14820 0.00106(13) 59251932. 0.001096 0.001120
55437. 1.14832 0.00104(13) 59577956. 0.001096 0.001119
55442. 1.14843 0.00098(12) 64499536. 0.001096 0.001119
55448. 1.14855 0.00114(14) 53093836. 0.001096 0.001118
55453. 1.14866 0.00117(14) 54136048. 0.001096 0.001118
55459. 1.14878 0.00111(13) 58434996. 0.001096 0.001117
55464. 1.14889 0.00113(13) 54955360. 0.001096 0.001117
55470. 1.14901 0.00101(12) 64098560. 0.001096 0.001116
55475. 1.14912 0.00096(12) 68178208. 0.001096 0.001116
55481. 1.14924 0.00116(14) 52145076. 0.001095 0.001115
55487. 1.14935 0.00123(14) 50832412. 0.001095 0.001115
55492. 1.14947 0.00129(14) 49180164. 0.001095 0.001115
55498. 1.14958 0.00132(15) 47010212. 0.001095 0.001114
55503. 1.14970 0.00125(14) 50002832. 0.001095 0.001114
55509. 1.14981 0.00114(14) 52983196. 0.001095 0.001114
55514. 1.14993 0.00093(12) 65525540. 0.001095 0.001114
55520. 1.15004 0.00094(12) 64565324. 0.001095 0.001113
55525. 1.15016 0.00106(13) 55299500. 0.001095 0.001113
55531. 1.15027 0.00105(13) 57614524. 0.001095 0.001113
55537. 1.15039 0.00117(14) 51466724. 0.001095 0.001113
55542. 1.15051 0.00110(13) 55766196. 0.001095 0.001113
55548. 1.15062 0.00104(13) 59792480. 0.001095 0.001113
55553. 1.15073 0.00108(13) 58257636. 0.001095 0.001113
55559. 1.15085 0.00097(12) 66996996. 0.001095 0.001113
55564. 1.15097 0.00092(12) 66851020. 0.001095 0.001113
55570. 1.15108 0.00092(12) 68102920. 0.001095 0.001113
55575. 1.15120 0.00115(14) 52420716. 0.001095 0.001113
55581. 1.15131 0.00113(13) 56520096. 0.001095 0.001113
55587. 1.15143 0.00128(14) 47794084. 0.001095 0.001113
55592. 1.15154 0.00123(14) 50336924. 0.001095 0.001113
55598. 1.15166 0.00115(14) 54639876. 0.001095 0.001113
55603. 1.15177 0.00105(13) 59614076. 0.001095 0.001113
55609. 1.15189 0.00112(14) 54798364. 0.001095 0.001113
55614. 1.15200 0.00125(14) 49677876. 0.001095 0.001114
55620. 1.15212 0.00117(14) 54789720. 0.001095 0.001105
55625. 1.15223 0.00109(13) 58924088. 0.001095 0.001106
55631. 1.15235 0.00109(13) 56886028. 0.001095 0.001106
55637. 1.15246 0.00111(13) 57451324. 0.001095 0.001107
55642. 1.15258 0.00114(13) 55496096. 0.001095 0.001107
55648. 1.15269 0.00109(13) 57100808. 0.001095 0.001108
55653. 1.15281 0.00111(13) 58468096. 0.001095 0.001109
55659. 1.15292 0.00106(13) 60186748. 0.001095 0.001110
55664. 1.15304 0.00090(12) 72458496. 0.001095 0.001111
55670. 1.15316 0.00096(12) 64389652. 0.001095 0.001112
55676. 1.15327 0.00097(12) 65245876. 0.001095 0.001113
55681. 1.15339 0.00109(13) 57235176. 0.001095 0.001114
55687. 1.15350 0.00118(14) 52431120. 0.001095 0.001116
55692. 1.15362 0.00106(13) 59880828. 0.001095 0.001117
55698. 1.15373 0.00116(14) 52147032. 0.001095 0.001119
55703. 1.15385 0.00110(13) 55101396. 0.001095 0.001122
55709. 1.15396 0.00090(12) 72814968. 0.001095 0.001124
55715. 1.15408 0.00103(13) 56741344. 0.001095 0.001128
55720. 1.15419 0.00109(13) 56212932. 0.001095 0.001133
55726. 1.15431 0.00122(14) 51252196. 0.001095 0.001139
55731. 1.15442 0.00117(13) 55383604. 0.001095 0.001148
55737. 1.15454 0.00118(14) 53612148. 0.001095 0.001161
55742. 1.15466 0.00127(14) 49259236. 0.001095 0.001179
55748. 1.15477 0.00125(14) 48746224. 0.001095 0.001204
55754. 1.15489 0.00108(13) 57728920. 0.001095 0.001238
55759. 1.15500 0.00113(13) 55331612. 0.001095 0.001283
55765. 1.15512 0.00126(14) 48190752. 0.001095 0.001342
55770. 1.15523 0.00133(14) 48243748. 0.001095 0.001416
55776. 1.15535 0.00153(15) 42529988. 0.001094 0.001506
55781. 1.15546 0.00167(16) 37378068. 0.001094 0.001611
55787. 1.15558 0.00178(17) 34679184. 0.001094 0.001730
55793. 1.15570 0.00185(17) 34396188. 0.001094 0.001858
55798. 1.15581 0.00194(17) 33349380. 0.001094 0.001989
55804. 1.15593 0.00214(19) 28996740. 0.001094 0.002115
55809. 1.15604 0.00214(18) 29820272. 0.001094 0.002229
55815. 1.15616 0.00228(19) 27406406. 0.001094 0.002321
55821. 1.15627 0.00246(20) 24650578. 0.001094 0.002382
55826. 1.15639 0.00265(21) 22688328. 0.001094 0.002404
55832. 1.15650 0.00245(20) 25617038. 0.001094 0.002382
55837. 1.15662 0.00219(19) 29018270. 0.001094 0.002316
55843. 1.15674 0.00193(17) 32767438. 0.001094 0.002215
55848. 1.15685 0.00186(17) 33357016. 0.001094 0.002090
55854. 1.15697 0.00179(17) 34629800. 0.001094 0.001952
55860. 1.15708 0.00164(16) 37772300. 0.001094 0.001815
55865. 1.15720 0.00142(15) 44460808. 0.001094 0.001686
55871. 1.15731 0.00129(14) 49966136. 0.001094 0.001570
55876. 1.15743 0.00149(16) 40496316. 0.001094 0.001469
55882. 1.15755 0.00143(16) 41311952. 0.001094 0.001386
55888. 1.15766 0.00118(14) 51617508. 0.001094 0.001319
55893. 1.15778 0.00112(13) 57402264. 0.001094 0.001267
55899. 1.15789 0.00116(14) 54323200. 0.001094 0.001228
55904. 1.15801 0.00129(15) 47369308. 0.001094 0.001199
55910. 1.15813 0.00148(16) 40234136. 0.001094 0.001178
55916. 1.15824 0.00134(15) 45438044. 0.001094 0.001162
55921. 1.15836 0.00116(13) 54974756. 0.001094 0.001151
55927. 1.15847 0.00131(15) 47381232. 0.001094 0.001143
55932. 1.15859 0.00134(14) 48177916. 0.001094 0.001137
55938. 1.15871 0.00138(15) 44959240. 0.001094 0.001132
55943. 1.15882 0.00126(14) 49104416. 0.001094 0.001128
55949. 1.15894 0.00118(14) 54555124. 0.001094 0.001125
55955. 1.15905 0.00123(14) 50584248. 0.001094 0.001122
55960. 1.15917 0.00118(14) 52170320. 0.001094 0.001120
55966. 1.15928 0.00117(13) 56678920. 0.001094 0.001118
55971. 1.15940 0.00124(14) 51370192. 0.001094 0.001116
55977. 1.15952 0.00113(14) 53880492. 0.001094 0.001114
55983. 1.15963 0.00099(13) 63773360. 0.001094 0.001113
55988. 1.15975 0.00104(13) 61408252. 0.001094 0.001112
55994. 1.15986 0.00106(13) 59663768. 0.001094 0.001110
55999. 1.15998 0.00088(12) 69534760. 0.001094 0.001109
56005. 1.16010 0.00082(11) 75978880. 0.001094 0.001108
56011. 1.16021 0.00099(13) 63930316. 0.001094 0.001107
56016. 1.16033 0.00105(13) 60400216. 0.001094 0.001107
56022. 1.16044 0.00096(13) 63661036. 0.001093 0.001106
56027. 1.16056 0.00105(13) 57764348. 0.001093 0.001105
56033. 1.16068 0.00111(13) 56751332. 0.001093 0.001105
56039. 1.16079 0.00116(14) 54268552. 0.001093 0.001104
56044. 1.16091 0.00121(14) 50426628. 0.001093 0.001103
56050. 1.16102 0.00098(12) 65579224. 0.001093 0.001103
56056. 1.16114 0.00098(12) 65405664. 0.001093 0.001102
56061. 1.16126 0.00109(13) 56888152. 0.001093 0.001102
56067. 1.16137 0.00108(13) 56030652. 0.001093 0.001101
56072. 1.16149 0.00102(13) 60923264. 0.001093 0.001101
56078. 1.16161 0.00109(13) 59426468. 0.001093 0.001101
56084. 1.16172 0.00114(13) 58349872. 0.001093 0.001100
56089. 1.16184 0.00123(14) 50766724. 0.001093 0.001100
56095. 1.16196 0.00118(14) 51759272. 0.001093 0.001100
56100. 1.16207 0.00114(14) 54271488. 0.001093 0.001099
56106. 1.16219 0.00109(13) 56724720. 0.001093 0.001099
56112. 1.16231 0.00099(13) 61393424. 0.001093 0.001099
56117. 1.16242 0.00109(14) 54292740. 0.001093 0.001099
56123. 1.16254 0.00112(14) 54274252. 0.001093 0.001098
56128. 1.16265 0.00118(14) 51454128. 0.001093 0.001098
56134. 1.16277 0.00126(14) 48926728. 0.001093 0.001098
56140. 1.16289 0.00124(14) 50787096. 0.001093 0.001098
56145. 1.16300 0.00108(13) 59887216. 0.001093 0.001098
56151. 1.16312 0.00105(13) 57291680. 0.001093 0.001097
56157. 1.16324 0.00106(13) 56164984. 0.001093 0.001097
56162. 1.16335 0.00109(13) 55095904. 0.001093 0.001097
56168. 1.16347 0.00104(13) 60620824. 0.001093 0.001097
56173. 1.16358 0.00107(13) 58165032. 0.001093 0.001097
56179. 1.16370 0.00117(14) 53449880. 0.001093 0.001097
56185. 1.16382 0.00111(13) 57786352. 0.001093 0.001096
56190. 1.16393 0.00109(13) 57283556. 0.001093 0.001096
56196. 1.16405 0.00124(14) 51013640. 0.001093 0.001096
56201. 1.16417 0.00128(14) 48008168. 0.001093 0.001096
56207. 1.16428 0.00114(13) 55226816. 0.001093 0.001096
56213. 1.16440 0.00117(14) 54394464. 0.001093 0.001096
56218. 1.16452 0.00109(13) 57042132. 0.001093 0.001096
56224. 1.16463 0.00098(12) 64927976. 0.001093 0.001096
56230. 1.16475 0.00100(13) 63043300. 0.001093 0.001095
56235. 1.16486 0.00107(13) 56893556. 0.001092 0.001095
56241. 1.16498 0.00116(14) 51971032. 0.001092 0.001095
56246. 1.16510 0.00130(15) 45721308. 0.001092 0.001095
56252. 1.16521 0.00113(14) 52266896. 0.001092 0.001095
56258. 1.16533 0.00092(12) 68629080. 0.001092 0.001095
56263. 1.16545 0.00112(13) 55885956. 0.001092 0.001095
56269. 1.16556 0.00118(14) 53345968. 0.001092 0.001095
56275. 1.16568 0.00098(13) 62752708. 0.001092 0.001095
56280. 1.16580 0.00094(12) 65966976. 0.001092 0.001095
56286. 1.16591 0.00105(13) 59419944. 0.001092 0.001094
56291. 1.16603 0.00110(13) 55208952. 0.001092 0.001094
56297. 1.16615 0.00107(13) 58524856. 0.001092 0.001094
56303. 1.16626 0.00119(14) 51792148. 0.001092 0.001094
56308. 1.16638 0.00126(14) 48941100. 0.001092 0.001094
56314. 1.16650 0.00119(14) 52712868. 0.001092 0.001094
56320. 1.16661 0.00116(14) 51983476. 0.001092 0.001094
56325. 1.16673 0.00115(14) 52337924. 0.001092 0.001094
56331. 1.16685 0.00113(13) 56915620. 0.001092 0.001094
56337. 1.16697 0.00126(14) 50887480. 0.001092 0.001094
56342. 1.16708 0.00123(14) 50876348. 0.001092 0.001094
56348. 1.16720 0.00121(14) 52119740. 0.001092 0.001094
56353. 1.16732 0.00122(14) 52112072. 0.001092 0.001094
56359. 1.16743 0.00130(14) 48342548. 0.001092 0.001094
56365. 1.16755 0.00125(14) 50723932. 0.001092 0.001093
56370. 1.16767 0.00120(14) 53745844. 0.001092 0.001093
56376. 1.16778 0.00109(13) 57885300. 0.001092 0.001093
56382. 1.16790 0.00098(13) 61863844. 0.001092 0.001093
56387. 1.16802 0.00118(14) 51742800. 0.001092 0.001093
56393. 1.16813 0.00128(14) 49503748. 0.001092 0.001093
56399. 1.16825 0.00122(14) 49906176. 0.001092 0.001093
56404. 1.16837 0.00111(13) 56032724. 0.001092 0.001093
56410. 1.16848 0.00107(13) 57964680. 0.001092 0.001093
56415. 1.16860 0.00118(14) 53068736. 0.001092 0.001093
56421. 1.16872 0.00125(14) 49120292. 0.001092 0.001093
56427. 1.16883 0.00117(14) 50566452. 0.001091 0.001093
56432. 1.16895 0.00099(13) 62892536. 0.001091 0.001093
56438. 1.16907 0.00100(13) 61183808. 0.001091 0.001093
56444. 1.16918 0.00110(14) 53907000. 0.001091 0.001093
56449. 1.16930 0.00113(14) 52387332. 0.001091 0.001093
56455. 1.16942 0.00114(14) 53168772. 0.001091 0.001093
56461. 1.16954 0.00124(14) 49023492. 0.001091 0.001091
56466. 1.16965 0.00124(14) 50368068. 0.001091 0.001091
56472. 1.16977 0.00122(14) 49060500. 0.001091 0.001091
56478. 1.16989 0.00105(13) 60171784. 0.001091 0.001091
56483. 1.17000 0.00103(13) 62883480. 0.001091 0.001091
56489. 1.17012 0.00106(13) 59343552. 0.001091 0.001091
56495. 1.17024 0.00110(14) 54045632. 0.001091 0.001091
56500. 1.17035 0.00101(13) 58051836. 0.001091 0.001091
56506. 1.17047 0.00104(13) 58116416. 0.001091 0.001091
56511. 1.17059 0.00095(12) 66934636. 0.001091 0.001091
56517. 1.17070 0.00085(12) 72222824. 0.001091 0.001091
56523. 1.17082 0.00090(12) 68889720. 0.001091 0.001091
56528. 1.17094 0.00106(13) 57953704. 0.001091 0.001091
56534. 1.17106 0.00107(13) 59587668. 0.001091 0.001091
56540. 1.17118 0.00104(13) 60197356. 0.001091 0.001091
56545. 1.17129 0.00100(13) 63234408. 0.001091 0.001091
56551. 1.17141 0.00105(13) 59523416. 0.001091 0.001091
56557. 1.17153 0.00116(14) 52162556. 0.001091 0.001091
56562. 1.17164 0.00105(13) 61030268. 0.001091 0.001091
56568. 1.17176 0.00093(12) 69732752. 0.001091 0.001091
56574. 1.17188 0.00104(13) 58417188. 0.001091 0.001091
56579. 1.17200 0.00119(14) 50011892. 0.001091 0.001091
56585. 1.17211 0.00114(14) 54641048. 0.001091 0.001091
56591. 1.17223 0.00103(12) 64466712. 0.001091 0.001091
56596. 1.17235 0.00131(15) 46919080. 0.001091 0.001091
56602. 1.17246 0.00133(15) 46665376. 0.001090 0.001090
56608. 1.17258 0.00116(14) 53648156. 0.001090 0.001090
56613. 1.17270 0.00104(13) 58099340. 0.001090 0.001090
56619. 1.17282 0.00103(13) 58637760. 0.001090 0.001090
56625. 1.17293 0.00121(14) 48827108. 0.001090 0.001090
56630. 1.17305 0.00117(14) 52135732. 0.001090 0.001090
56636. 1.17317 0.00097(13) 62510996. 0.001090 0.001090
56642. 1.17329 0.00081(11) 79905240. 0.001090 0.001090
56647. 1.17340 0.00098(13) 63525572. 0.001090 0.001090
56653. 1.17352 0.00100(13) 60787652. 0.001090 0.001090
56659. 1.17364 0.00099(13) 61241384. 0.001090 0.001090
56664. 1.17375 0.00103(13) 61159732. 0.001090 0.001090
56670. 1.17387 0.00120(14) 50131792. 0.001090 0.001090
56676. 1.17399 0.00114(14) 52198208. 0.001090 0.001090
56681. 1.17411 0.00101(13) 60279308. 0.001090 0.001090
56687. 1.17423 0.00094(12) 65368388. 0.001090 0.001090
56693. 1.17434 0.00102(13) 61047780. 0.001090 0.001090
56698. 1.17446 0.00104(13) 59836548. 0.001090 0.001090
56704. 1.17458 0.00104(13) 58240916. 0.001090 0.001090
56710. 1.17470 0.00099(12) 64084184. 0.001090 0.001090
56715. 1.17481 0.00107(13) 58231236. 0.001090 0.001090
56721. 1.17493 0.00112(14) 52383220. 0.001090 0.001090
56727. 1.17505 0.00105(13) 56755000. 0.001090 0.001090
56732. 1.17517 0.00084(12) 74179040. 0.001090 0.001090
56738. 1.17528 0.00088(12) 66544324. 0.001090 0.001090
56744. 1.17540 0.00089(12) 67347672. 0.001090 0.001090
56749. 1.17552 0.00100(13) 60167456. 0.001090 0.001090
56755. 1.17564 0.00112(14) 54216112. 0.001090 0.001090
56761. 1.17575 0.00114(14) 51331024. 0.001089 0.001089
56766. 1.17587 0.00103(13) 55900160. 0.001089 0.001089
56772. 1.17599 0.00096(13) 63884100. 0.001089 0.001089
56778. 1.17611 0.00100(13) 60956192. 0.001089 0.001089
56783. 1.17622 0.00105(13) 59578888. 0.001089 0.001089
56789. 1.17634 0.00128(14) 49287392. 0.001089 0.001089
56795. 1.17646 0.00133(15) 46793480. 0.001089 0.001089
56800. 1.17658 0.00130(14) 47818232. 0.001089 0.001089
56806. 1.17669 0.00129(14) 47665568. 0.001089 0.001089
56812. 1.17681 0.00104(13) 59239308. 0.001089 0.001089
56818. 1.17693 0.00100(13) 59572900. 0.001089 0.001089
56823. 1.17705 0.00108(13) 58207696. 0.001089 0.001089
56829. 1.17717 0.00107(13) 59656836. 0.001089 0.001089
56835. 1.17728 0.00122(14) 50892120. 0.001089 0.001089
56840. 1.17740 0.00140(15) 42538656. 0.001089 0.001089
56846. 1.17752 0.00122(14) 50267912. 0.001089 0.001089
56852. 1.17764 0.00114(14) 53492440. 0.001089 0.001089
56857. 1.17775 0.00099(12) 66479856. 0.001089 0.001089
56863. 1.17787 0.00111(13) 55309460. 0.001089 0.001089
56869. 1.17799 0.00117(14) 51125324. 0.001089 0.001089
56874. 1.17811 0.00108(13) 56007092. 0.001089 0.001089
56880. 1.17823 0.00098(12) 65259148. 0.001089 0.001089
56886. 1.17834 0.00096(12) 69827336. 0.001089 0.001089
56891. 1.17846 0.00110(13) 58414824. 0.001089 0.001090
56897. 1.17858 0.00116(14) 52832984. 0.001089 0.001089
56903. 1.17870 0.00117(14) 52077100. 0.001089 0.001089
56909. 1.17882 0.00117(14) 53479004. 0.001088 0.001089
56914. 1.17893 0.00108(13) 58575552. 0.001088 0.001089
56920. 1.17905 0.00121(14) 49727848. 0.001088 0.001089
56926. 1.17917 0.00127(14) 49089480. 0.001088 0.001089
56931. 1.17929 0.00123(14) 49150392. 0.001088 0.001089
56937. 1.17941 0.00106(13) 59120200. 0.001088 0.001089
56943. 1.17952 0.00104(13) 60204012. 0.001088 0.001089
56948. 1.17964 0.00098(13) 63593120. 0.001088 0.001089
56954. 1.17976 0.00096(12) 64786376. 0.001088 0.001089
56960. 1.17988 0.00100(13) 61457460. 0.001088 0.001089
56965. 1.18000 0.00105(13) 59501104. 0.001088 0.001089
56971. 1.18011 0.00107(13) 58658228. 0.001088 0.001089
56977. 1.18023 0.00115(14) 54072980. 0.001088 0.001089
56983. 1.18035 0.00101(12) 65110260. 0.001088 0.001089
56988. 1.18047 0.00100(13) 63153984. 0.001088 0.001089
56994. 1.18059 0.00115(14) 52509292. 0.001088 0.001089
57000. 1.18070 0.00112(14) 54040492. 0.001088 0.001089
57005. 1.18082 0.00100(13) 61014416. 0.001088 0.001089
57011. 1.18094 0.00099(13) 62545924. 0.001088 0.001089
57017. 1.18106 0.00105(13) 59910280. 0.001088 0.001089
57022. 1.18118 0.00104(13) 61266268. 0.001088 0.001089
57028. 1.18129 0.00107(13) 59119980. 0.001088 0.001089
57034. 1.18141 0.00117(14) 51777560. 0.001088 0.001089
57040. 1.18153 0.00114(14) 53103252. 0.001088 0.001089
57045. 1.18165 0.00114(14) 53710772. 0.001088 0.001090
57051. 1.18177 0.00116(14) 52769972. 0.001087 0.001090
57057. 1.18189 0.00116(14) 52176056. 0.001087 0.001090
57062. 1.18200 0.00115(14) 53934540. 0.001087 0.001090
57068. 1.18212 0.00121(14) 49083076. 0.001087 0.001090
57074. 1.18224 0.00117(14) 51246368. 0.001087 0.001090
57079. 1.18236 0.00121(14) 48768772. 0.001087 0.001090
57085. 1.18248 0.00115(14) 51451576. 0.001087 0.001090
57091. 1.18260 0.00128(15) 46063208. 0.001087 0.001090
57097. 1.18271 0.00130(15) 45066932. 0.001087 0.001090
57102. 1.18283 0.00107(13) 57708228. 0.001087 0.001090
57108. 1.18295 0.00106(13) 58912784. 0.001087 0.001090
57114. 1.18307 0.00105(13) 60619420. 0.001087 0.001090
57119. 1.18319 0.00108(13) 55115032. 0.001087 0.001090
57125. 1.18330 0.00109(13) 55268656. 0.001087 0.001090
57131. 1.18342 0.00115(14) 52825828. 0.001087 0.001090
57137. 1.18354 0.00106(13) 57773208. 0.001087 0.001090
57142. 1.18366 0.00096(12) 64106536. 0.001087 0.001090
57148. 1.18378 0.00098(13) 62792820. 0.001087 0.001090
57154. 1.18390 0.00107(13) 56336916. 0.001087 0.001090
57159. 1.18402 0.00110(14) 53882132. 0.001087 0.001090
57165. 1.18413 0.00116(13) 55376580. 0.001087 0.001090
57171. 1.18425 0.00130(14) 50765568. 0.001087 0.001090
57177. 1.18437 0.00136(15) 46028672. 0.001087 0.001090
57182. 1.18449 0.00130(14) 47947632. 0.001086 0.001091
57188. 1.18461 0.00126(14) 49747360. 0.001086 0.001091
57194. 1.18473 0.00123(14) 51175212. 0.001086 0.001091
57199. 1.18484 0.00108(13) 58287816. 0.001086 0.001091
57205. 1.18496 0.00113(14) 53885220. 0.001086 0.001091
57211. 1.18508 0.00112(13) 55611584. 0.001086 0.001091
57217. 1.18520 0.00099(13) 63479252. 0.001086 0.001091
57222. 1.18532 0.00105(13) 56627164. 0.001086 0.001092
57228. 1.18544 0.00125(15) 46672744. 0.001086 0.001092
57234. 1.18556 0.00113(14) 54343660. 0.001086 0.001092
57240. 1.18567 0.00122(14) 48449408. 0.001086 0.001092
57245. 1.18579 0.00117(14) 53152604. 0.001086 0.001092
57251. 1.18591 0.00114(14) 53929792. 0.001086 0.001093
57257. 1.18603 0.00104(13) 59344312. 0.001086 0.001093
57262. 1.18615 0.00108(13) 59533700. 0.001086 0.001093
57268. 1.18627 0.00130(15) 46965348. 0.001086 0.001093
57274. 1.18639 0.00133(15) 46058264. 0.001086 0.001094
57280. 1.18651 0.00124(14) 48766448. 0.001086 0.001094
57285. 1.18662 0.00099(13) 61739668. 0.001086 0.001095
57291. 1.18674 0.00102(13) 59153868. 0.001086 0.001095
57297. 1.18686 0.00119(14) 48893660. 0.001086 0.001096
57303. 1.18698 0.00118(14) 50558024. 0.001086 0.001096
57308. 1.18710 0.00107(13) 55555080. 0.001085 0.001097
57314. 1.18722 0.00094(12) 65952228. 0.001085 0.001097
57320. 1.18734 0.00103(13) 59865320. 0.001085 0.001098
57325. 1.18745 0.00111(13) 57536652. 0.001085 0.001099
57331. 1.18757 0.00118(14) 53890900. 0.001085 0.001100
57337. 1.18769 0.00116(14) 51054780. 0.001085 0.001101
57343. 1.18781 0.00101(13) 61583320. 0.001085 0.001102
57348. 1.18793 0.00108(13) 57895244. 0.001085 0.001104
57354. 1.18805 0.00115(14) 52633476. 0.001085 0.001106
57360. 1.18817 0.00120(14) 53236032. 0.001085 0.001108
57366. 1.18829 0.00129(14) 49654064. 0.001085 0.001112
57371. 1.18841 0.00109(13) 58328592. 0.001085 0.001116
57377. 1.18853 0.00095(12) 68988152. 0.001085 0.001123
57383. 1.18864 0.00101(13) 61815076. 0.001085 0.001132
57389. 1.18876 0.00105(13) 58436268. 0.001085 0.001145
57394. 1.18888 0.00118(14) 51379220. 0.001085 0.001163
57400. 1.18900 0.00110(13) 57896944. 0.001085 0.001189
57406. 1.18912 0.00117(14) 53216336. 0.001085 0.001222
57412. 1.18924 0.00112(13) 56234836. 0.001085 0.001266
57417. 1.18936 0.00120(14) 48784780. 0.001085 0.001320
57423. 1.18948 0.00120(14) 49781492. 0.001085 0.001387
57429. 1.18959 0.00139(15) 43407936. 0.001084 0.001464
57435. 1.18972 0.00144(16) 41444200. 0.001084 0.001551
57440. 1.18983 0.00139(15) 44134772. 0.001084 0.001644
57446. 1.18995 0.00163(16) 37381700. 0.001084 0.001738
57452. 1.19007 0.00175(17) 36630656. 0.001084 0.001828
57458. 1.19019 0.00201(18) 29407386. 0.001084 0.001908
57463. 1.19031 0.00215(19) 27472798. 0.001084 0.001969
57469. 1.19043 0.00217(19) 28954772. 0.001084 0.002006
57475. 1.19055 0.00212(18) 29742520. 0.001084 0.002013
57481. 1.19067 0.00200(18) 31993220. 0.001084 0.001988
57486. 1.19079 0.00186(17) 34142064. 0.001084 0.001934
57492. 1.19091 0.00163(16) 37833088. 0.001084 0.001855
57498. 1.19102 0.00166(16) 37296808. 0.001084 0.001762
57504. 1.19114 0.00150(16) 41217812. 0.001084 0.001663
57509. 1.19126 0.00129(15) 46662644. 0.001084 0.001566
57515. 1.19138 0.00126(14) 48491132. 0.001084 0.001477
57521. 1.19150 0.00144(16) 41503876. 0.001084 0.001396
57527. 1.19162 0.00141(15) 41878344. 0.001084 0.001329
57532. 1.19174 0.00136(15) 43715568. 0.001084 0.001274
57538. 1.19186 0.00148(16) 39764900. 0.001084 0.001231
57544. 1.19198 0.00146(15) 41886228. 0.001083 0.001199
57550. 1.19210 0.00149(16) 40351152. 0.001083 0.001175
57555. 1.19222 0.00122(14) 50343748. 0.001083 0.001158
57561. 1.19234 0.00102(13) 62048464. 0.001083 0.001146
57567. 1.19246 0.00102(13) 60886896. 0.001083 0.001138
57573. 1.19257 0.00103(13) 60672492. 0.001083 0.001132
57578. 1.19269 0.00107(13) 56884080. 0.001083 0.001130
57584. 1.19281 0.00107(13) 56889220. 0.001083 0.001129
57590. 1.19293 0.00108(13) 57472504. 0.001083 0.001130
57596. 1.19305 0.00110(13) 55997424. 0.001083 0.001134
57601. 1.19317 0.00114(14) 53139892. 0.001083 0.001140
57607. 1.19329 0.00126(15) 47164788. 0.001083 0.001150
57613. 1.19341 0.00120(14) 51382864. 0.001083 0.001163
57619. 1.19353 0.00123(14) 49826832. 0.001083 0.001180
57624. 1.19365 0.00123(14) 49330492. 0.001083 0.001202
57630. 1.19377 0.00124(14) 49190736. 0.001083 0.001228
57636. 1.19389 0.00127(14) 49451016. 0.001083 0.001259
57642. 1.19401 0.00130(14) 47743736. 0.001083 0.001301
57647. 1.19413 0.00130(14) 48006628. 0.001083 0.001337
57653. 1.19425 0.00134(15) 44334564. 0.001082 0.001372
57659. 1.19436 0.00136(15) 44502604. 0.001082 0.001405
57665. 1.19448 0.00155(16) 38881592. 0.001082 0.001433
57671. 1.19460 0.00157(16) 37834628. 0.001082 0.001454
57676. 1.19473 0.00142(15) 43291528. 0.001082 0.001464
57682. 1.19484 0.00139(15) 45305688. 0.001082 0.001463
57688. 1.19496 0.00127(14) 48021536. 0.001082 0.001449
57694. 1.19508 0.00123(14) 48820244. 0.001082 0.001425
57699. 1.19520 0.00132(15) 47162124. 0.001082 0.001393
57705. 1.19532 0.00139(15) 42659172. 0.001082 0.001356
57711. 1.19544 0.00129(15) 46849736. 0.001082 0.001317
57717. 1.19556 0.00130(15) 47052300. 0.001082 0.001281
57722. 1.19568 0.00123(14) 49385468. 0.001082 0.001247
57728. 1.19580 0.00111(14) 52450320. 0.001082 0.001218
57734. 1.19592 0.00105(13) 57511400. 0.001082 0.001193
57740. 1.19604 0.00110(13) 56596776. 0.001082 0.001173
57746. 1.19616 0.00115(14) 51846216. 0.001082 0.001157
57751. 1.19628 0.00098(12) 64881400. 0.001082 0.001145
57757. 1.19640 0.00102(13) 59827092. 0.001082 0.001136
57763. 1.19652 0.00106(13) 55874268. 0.001081 0.001130
57769. 1.19664 0.00110(13) 55071560. 0.001081 0.001126
57774. 1.19676 0.00121(14) 49979940. 0.001081 0.001122
57780. 1.19688 0.00115(14) 51511844. 0.001081 0.001120
57786. 1.19700 0.00101(13) 59089012. 0.001081 0.001119
57792. 1.19712 0.00100(13) 59860020. 0.001081 0.001118
57798. 1.19724 0.00114(14) 51872984. 0.001081 0.001117
57803. 1.19736 0.00113(14) 53539584. 0.001081 0.001117
57809. 1.19748 0.00107(13) 56540288. 0.001081 0.001116
57815. 1.19760 0.00121(15) 46697156. 0.001081 0.001116
57821. 1.19772 0.00120(15) 47316832. 0.001081 0.001116
57826. 1.19784 0.00105(13) 59589868. 0.001081 0.001116
57832. 1.19796 0.00096(12) 68601752. 0.001081 0.001117
57838. 1.19808 0.00109(14) 54086912. 0.001081 0.001117
57844. 1.19820 0.00106(13) 54889568. 0.001081 0.001117
57850. 1.19832 0.00107(13) 58583184. 0.001081 0.001118
57855. 1.19844 0.00125(14) 47918128. 0.001081 0.001118
57861. 1.19856 0.00114(14) 53618912. 0.001081 0.001119
57867. 1.19868 0.00114(14) 53344516. 0.001080 0.001120
57873. 1.19879 0.00116(14) 52589864. 0.001080 0.001121
57879. 1.19891 0.00117(14) 52403792. 0.001080 0.001122
57884. 1.19903 0.00110(13) 55284104. 0.001080 0.001123
57890. 1.19915 0.00112(14) 53528432. 0.001080 0.001124
57896. 1.19928 0.00112(14) 53440984. 0.001080 0.001125
57902. 1.19940 0.00104(13) 58096664. 0.001080 0.001126
57908. 1.19952 0.00112(14) 53307932. 0.001080 0.001128
57913. 1.19964 0.00121(14) 49742500. 0.001080 0.001130
57919. 1.19975 0.00114(14) 54761360. 0.001080 0.001131
57925. 1.19987 0.00116(14) 51552976. 0.001080 0.001133
57931. 1.19999 0.00106(13) 57062092. 0.001080 0.001135
57936. 1.20011 0.00098(13) 63760320. 0.001080 0.001138
57942. 1.20023 0.00112(14) 54376816. 0.001080 0.001140
57948. 1.20035 0.00122(14) 48771400. 0.001080 0.001143
57954. 1.20047 0.00102(12) 64376124. 0.001080 0.001146
57960. 1.20060 0.00106(13) 56861344. 0.001080 0.001149
57965. 1.20072 0.00108(13) 55241576. 0.001080 0.001153
57971. 1.20084 0.00126(15) 46317040. 0.001079 0.001158
57977. 1.20096 0.00121(14) 48624184. 0.001079 0.001163
57983. 1.20108 0.00110(14) 54252848. 0.001079 0.001170
57989. 1.20120 0.00114(14) 50390464. 0.001079 0.001179
57994. 1.20132 0.00104(13) 56869024. 0.001079 0.001191
58000. 1.20144 0.00116(14) 50709536. 0.001079 0.001206
58006. 1.20156 0.00107(13) 55227812. 0.001079 0.001227
58012. 1.20168 0.00115(14) 49263692. 0.001079 0.001255
58018. 1.20180 0.00124(14) 48024404. 0.001079 0.001293
58023. 1.20192 0.00130(15) 46564848. 0.001079 0.001343
58029. 1.20204 0.00142(15) 41929996. 0.001079 0.001408
58035. 1.20216 0.00149(16) 40715372. 0.001079 0.001490
58041. 1.20228 0.00159(16) 38860116. 0.001079 0.001590
58047. 1.20240 0.00170(16) 37253872. 0.001079 0.001708
58053. 1.20252 0.00183(17) 32971410. 0.001079 0.001843
58058. 1.20264 0.00204(18) 30575258. 0.001079 0.001989
58064. 1.20276 0.00235(19) 26489164. 0.001079 0.002143
58070. 1.20288 0.00239(20) 25514230. 0.001078 0.002299
58076. 1.20300 0.00239(20) 25400302. 0.001078 0.002446
58082. 1.20312 0.00274(21) 21718882. 0.001078 0.002572
58087. 1.20324 0.00277(21) 21734858. 0.001078 0.002668
58093. 1.20336 0.00261(21) 23478368. 0.001078 0.002723
58099. 1.20348 0.00269(21) 22440020. 0.001078 0.002729
58105. 1.20360 0.00269(21) 22609814. 0.001078 0.002684
58111. 1.20372 0.00266(21) 23013468. 0.001078 0.002593
58116. 1.20384 0.00267(21) 22003136. 0.001078 0.002469
58122. 1.20396 0.00223(19) 27196846. 0.001078 0.002323
58128. 1.20408 0.00210(19) 28131404. 0.001078 0.002173
58134. 1.20420 0.00198(18) 29702748. 0.001078 0.002027
58140. 1.20432 0.00186(18) 32453612. 0.001078 0.001895
58145. 1.20444 0.00190(17) 32725200. 0.001078 0.001782
58151. 1.20456 0.00195(18) 30913916. 0.001078 0.001692
58157. 1.20469 0.00162(17) 36596504. 0.001078 0.001625
58163. 1.20481 0.00151(16) 39853444. 0.001077 0.001583
58169. 1.20493 0.00164(17) 36431284. 0.001077 0.001568
58175. 1.20505 0.00173(17) 33941196. 0.001077 0.001580
58180. 1.20517 0.00168(17) 34924524. 0.001077 0.001623
58186. 1.20529 0.00161(16) 37012884. 0.001077 0.001704
58192. 1.20541 0.00161(16) 36822968. 0.001077 0.001832
58198. 1.20553 0.00178(17) 34216012. 0.001077 0.002019
58204. 1.20565 0.00196(18) 31763014. 0.001077 0.002282
58209. 1.20577 0.00249(20) 24113546. 0.001077 0.002630
58215. 1.20589 0.00269(21) 21939146. 0.001077 0.003085
58221. 1.20601 0.00291(22) 20034076. 0.001077 0.003653
58227. 1.20613 0.00394(26) 14665039. 0.001077 0.004330
58233. 1.20625 0.00468(28) 12744149. 0.001077 0.005114
58239. 1.20637 0.00595(32) 9839865. 0.001077 0.005984
58244. 1.20649 0.00705(34) 8555567. 0.001077 0.006918
58250. 1.20662 0.0088(4) 6816462. 0.00108 0.00786
58256. 1.20674 0.0100(4) 6050435. 0.00108 0.00875
58262. 1.20686 0.0112(4) 5356208. 0.00108 0.00954
58268. 1.20698 0.0118(4) 4983258. 0.00108 0.01014
58274. 1.20710 0.0113(4) 5242901. 0.00108 0.01050
58279. 1.20722 0.0109(4) 5339813. 0.00108 0.01055
58285. 1.20734 0.0097(4) 6171271. 0.00108 0.01029
58291. 1.20746 0.0093(4) 6459319. 0.00108 0.00973
58297. 1.20758 0.0090(4) 6594335. 0.00108 0.00893
58303. 1.20770 0.0078(4) 7709392. 0.00108 0.00799
58309. 1.20782 0.00686(34) 8533043. 0.001076 0.006987
58314. 1.20794 0.00592(31) 10118345. 0.001076 0.006022
58320. 1.20806 0.00514(29) 11803053. 0.001076 0.005103
58326. 1.20819 0.00444(27) 13259980. 0.001076 0.004292
58332. 1.20831 0.00392(26) 14947634. 0.001076 0.003608
58338. 1.20843 0.00338(24) 17835568. 0.001076 0.003043
58344. 1.20855 0.00320(23) 18317288. 0.001076 0.002596
58349. 1.20867 0.00289(22) 20332048. 0.001075 0.002254
58355. 1.20879 0.00247(20) 24188490. 0.001075 0.001994
58361. 1.20891 0.00209(19) 28771196. 0.001075 0.001803
58367. 1.20903 0.00196(18) 32622256. 0.001075 0.001663
58373. 1.20915 0.00215(19) 28283394. 0.001075 0.001561
58379. 1.20927 0.00203(19) 29157224. 0.001075 0.001487
58384. 1.20939 0.00181(17) 32897452. 0.001075 0.001431
58390. 1.20952 0.00149(16) 40707568. 0.001075 0.001388
58396. 1.20964 0.00145(15) 43554860. 0.001075 0.001355
58402. 1.20976 0.00170(17) 35423648. 0.001075 0.001328
58408. 1.20988 0.00154(16) 39897464. 0.001075 0.001306
58414. 1.21000 0.00144(15) 42802224. 0.001075 0.001287
58419. 1.21012 0.00139(15) 42283968. 0.001075 0.001270
58425. 1.21024 0.00136(15) 43264900. 0.001075 0.001255
58431. 1.21036 0.00140(15) 43398420. 0.001075 0.001242
58437. 1.21048 0.00136(15) 42600292. 0.001075 0.001231
58443. 1.21060 0.00132(15) 45784136. 0.001074 0.001220
58449. 1.21073 0.00158(16) 37057032. 0.001074 0.001211
58454. 1.21085 0.00129(14) 47910720. 0.001074 0.001202
58460. 1.21097 0.00117(14) 53689196. 0.001074 0.001194
58466. 1.21109 0.00125(14) 48130744. 0.001074 0.001187
58472. 1.21121 0.00112(14) 53699808. 0.001074 0.001180
58478. 1.21133 0.00112(14) 54166876. 0.001074 0.001174
58484. 1.21145 0.00126(14) 49013260. 0.001074 0.001169
58490. 1.21157 0.00133(15) 45019064. 0.001074 0.001164
58495. 1.21170 0.00132(15) 44345644. 0.001074 0.001159
58501. 1.21182 0.00133(15) 44936636. 0.001074 0.001155
58507. 1.21194 0.00126(15) 47338056. 0.001074 0.001151
58513. 1.21206 0.00106(13) 58037072. 0.001074 0.001147
58519. 1.21218 0.00098(13) 63727576. 0.001074 0.001143
58525. 1.21230 0.00110(13) 54965876. 0.001074 0.001140
58531. 1.21242 0.00108(14) 54484572. 0.001073 0.001137
58536. 1.21254 0.00121(14) 48552900. 0.001073 0.001134
58542. 1.21267 0.00128(15) 46600268. 0.001073 0.001132
58548. 1.21279 0.00123(15) 47406288. 0.001073 0.001129
58554. 1.21291 0.00106(13) 57471032. 0.001073 0.001127
58560. 1.21303 0.00094(12) 67091060. 0.001073 0.001125
58566. 1.21315 0.00105(13) 57190808. 0.001073 0.001122
58572. 1.21327 0.00123(15) 47289612. 0.001073 0.001121
58577. 1.21339 0.00124(15) 47406688. 0.001073 0.001119
58583. 1.21352 0.00106(13) 57286668. 0.001073 0.001117
58589. 1.21364 0.00101(13) 61475384. 0.001073 0.001115
58595. 1.21376 0.00110(13) 56025456. 0.001073 0.001114
58601. 1.21388 0.00111(13) 55597996. 0.001073 0.001112
58607. 1.21400 0.00107(13) 57119644. 0.001073 0.001111
58613. 1.21412 0.00114(14) 51572188. 0.001073 0.001109
58618. 1.21425 0.00115(14) 50063932. 0.001072 0.001108
58624. 1.21437 0.00108(13) 55370404. 0.001072 0.001107
58630. 1.21449 0.00108(13) 58055552. 0.001072 0.001106
58636. 1.21461 0.00113(13) 54933368. 0.001072 0.001104
58642. 1.21473 0.00119(14) 50541224. 0.001072 0.001103
58648. 1.21485 0.00111(14) 53279224. 0.001072 0.001102
58654. 1.21497 0.00107(14) 53889024. 0.001072 0.001101
58659. 1.21509 0.00089(12) 68096352. 0.001072 0.001100
58665. 1.21522 0.00091(12) 64369956. 0.001072 0.001100
58671. 1.21534 0.00106(14) 54677908. 0.001072 0.001099
58677. 1.21546 0.00107(13) 56374324. 0.001072 0.001098
58683. 1.21558 0.00102(13) 61500140. 0.001072 0.001097
58689. 1.21570 0.00110(13) 56502400. 0.001072 0.001096
58695. 1.21583 0.00132(15) 45280920. 0.001072 0.001096
58701. 1.21595 0.00124(15) 47130408. 0.001072 0.001095
58706. 1.21607 0.00108(13) 55017608. 0.001071 0.001094
58712. 1.21619 0.00126(15) 46940224. 0.001071 0.001093
58718. 1.21631 0.00121(14) 48653152. 0.001071 0.001093
58724. 1.21643 0.00116(14) 51680556. 0.001071 0.001092
58730. 1.21656 0.00129(15) 45074572. 0.001071 0.001092
58736. 1.21668 0.00124(15) 45744352. 0.001071 0.001091
58742. 1.21680 0.00106(13) 55743320. 0.001071 0.001090
58748. 1.21692 0.00117(14) 49201944. 0.001071 0.001090
58753. 1.21704 0.00112(14) 54159904. 0.001071 0.001089
58759. 1.21716 0.00122(14) 51145768. 0.001071 0.001089
58765. 1.21728 0.00123(14) 49365336. 0.001071 0.001088
58771. 1.21741 0.00094(12) 65372308. 0.001071 0.001088
58777. 1.21753 0.00107(14) 53981136. 0.001071 0.001087
58783. 1.21765 0.00106(13) 56721764. 0.001071 0.001087
58789. 1.21777 0.00096(13) 63581368. 0.001070 0.001085
58795. 1.21789 0.00106(14) 54518600. 0.001070 0.001085
58800. 1.21802 0.00092(12) 66931644. 0.001070 0.001084
58806. 1.21814 0.00092(12) 64697148. 0.001070 0.001084
58812. 1.21826 0.00091(13) 63142856. 0.001070 0.001084
58818. 1.21838 0.00092(12) 64922404. 0.001070 0.001083
58824. 1.21850 0.00092(12) 67052768. 0.001070 0.001083
58830. 1.21863 0.00100(13) 58705760. 0.001070 0.001083
58836. 1.21875 0.00108(14) 53461656. 0.001070 0.001082
58842. 1.21887 0.00111(13) 55151048. 0.001070 0.001082
58847. 1.21899 0.00135(15) 43611048. 0.001070 0.001082
58853. 1.21911 0.00128(15) 46049976. 0.001070 0.001081
58859. 1.21923 0.00109(14) 53567192. 0.001070 0.001081
58865. 1.21936 0.00105(13) 57653524. 0.001070 0.001081
58871. 1.21948 0.00120(14) 51623020. 0.001070 0.001080
58877. 1.21960 0.00111(13) 55159776. 0.001069 0.001080
58883. 1.21972 0.00095(13) 61412956. 0.001069 0.001080
58889. 1.21984 0.00101(13) 59763476. 0.001069 0.001080
58895. 1.21997 0.00117(14) 49217296. 0.001069 0.001079
58900. 1.22009 0.00111(14) 52802876. 0.001069 0.001079
58906. 1.22021 0.00122(14) 47875780. 0.001069 0.001079
58912. 1.22033 0.00122(15) 47384028. 0.001069 0.001078
58918. 1.22045 0.00109(14) 54535496. 0.001069 0.001078
58924. 1.22058 0.00106(13) 56895096. 0.001069 0.001078
58930. 1.22070 0.00111(14) 53340876. 0.001069 0.001078
58936. 1.22082 0.00109(13) 55492064. 0.001069 0.001078
58942. 1.22094 0.00125(15) 46279860. 0.001069 0.001077
58948. 1.22107 0.00121(14) 49594016. 0.001069 0.001077
58954. 1.22119 0.00115(14) 52954600. 0.001069 0.001077
58959. 1.22131 0.00127(14) 47938484. 0.001068 0.001077
58965. 1.22143 0.00130(15) 45099436. 0.001068 0.001076
58971. 1.22155 0.00107(14) 53248448. 0.001068 0.001068
58977. 1.22168 0.00112(14) 53403064. 0.001068 0.001068
58983. 1.22180 0.00140(16) 40335616. 0.001068 0.001068
58989. 1.22192 0.00129(15) 44071180. 0.001068 0.001068
58995. 1.22204 0.00102(13) 59012992. 0.001068 0.001068
59001. 1.22217 0.00104(13) 56469276. 0.001068 0.001068
59007. 1.22229 0.00105(14) 53248964. 0.001068 0.001068
59013. 1.22241 0.00100(13) 58868880. 0.001068 0.001068
59018. 1.22253 0.00111(14) 51908376. 0.001068 0.001068
59024. 1.22266 0.00100(13) 60153096. 0.001068 0.001068
59030. 1.22278 0.00108(13) 55219796. 0.001068 0.001068
59036. 1.22290 0.00110(14) 53989328. 0.001068 0.001067
59042. 1.22302 0.00104(13) 56876508. 0.001067 0.001067
59048. 1.22314 0.00096(13) 62409004. 0.001067 0.001067
59054. 1.22327 0.00106(13) 55687716. 0.001067 0.001067
59060. 1.22339 0.00106(13) 57787536. 0.001067 0.001067
59066. 1.22351 0.00112(14) 52121776. 0.001067 0.001067
59072. 1.22363 0.00109(14) 54472272. 0.001067 0.001067
59077. 1.22376 0.00097(12) 64292528. 0.001067 0.001067
59083. 1.22388 0.00094(12) 66023312. 0.001067 0.001067
59089. 1.22400 0.00093(12) 65100260. 0.001067 0.001067
59095. 1.22412 0.00099(13) 58861948. 0.001067 0.001067
59101. 1.22425 0.00109(14) 54074140. 0.001067 0.001067
59107. 1.22437 0.00116(14) 51678528. 0.001067 0.001067
59113. 1.22449 0.00111(13) 56403692. 0.001067 0.001067
59119. 1.22461 0.00115(14) 52433508. 0.001066 0.001066
59125. 1.22474 0.00110(13) 55067960. 0.001066 0.001066
59131. 1.22486 0.00111(14) 53790664. 0.001066 0.001066
59137. 1.22498 0.00114(14) 50742272. 0.001066 0.001066
59143. 1.22510 0.00109(14) 54294948. 0.001066 0.001066
59148. 1.22523 0.00116(14) 50277600. 0.001066 0.001066
59154. 1.22535 0.00128(15) 45325572. 0.001066 0.001066
59160. 1.22547 0.00131(15) 45447396. 0.001066 0.001066
59166. 1.22559 0.00130(15) 45144756. 0.001066 0.001066
59172. 1.22572 0.00110(14) 54524388. 0.001066 0.001066
59178. 1.22584 0.00104(13) 56723136. 0.001066 0.001066
59184. 1.22596 0.00119(14) 49383564. 0.001066 0.001066
59190. 1.22608 0.00118(14) 49746192. 0.001066 0.001066
59196. 1.22621 0.00095(12) 65595660. 0.001066 0.001066
59202. 1.22633 0.00112(14) 53823168. 0.001065 0.001065
59208. 1.22645 0.00115(14) 53696044. 0.001065 0.001065
59214. 1.22658 0.00116(14) 51585492. 0.001065 0.001065
59219. 1.22670 0.00141(16) 40567996. 0.001065 0.001065
59225. 1.22682 0.00124(14) 49405072. 0.001065 0.001065
59231. 1.22694 0.00101(13) 63032832. 0.001065 0.001065
59237. 1.22707 0.00103(13) 62431508. 0.001065 0.001065
59243. 1.22719 0.00111(13) 55155304. 0.001065 0.001065
59249. 1.22731 0.00107(14) 54388436. 0.001065 0.001065
59255. 1.22744 0.00101(13) 58263552. 0.001065 0.001065
59261. 1.22756 0.00096(13) 62541960. 0.001065 0.001065
59267. 1.22768 0.00085(12) 72810376. 0.001065 0.001065
59273. 1.22780 0.00082(11) 77756840. 0.001065 0.001065
59279. 1.22793 0.00109(13) 55157592. 0.001064 0.001064
59285. 1.22805 0.00123(14) 48636472. 0.001064 0.001064
59291. 1.22817 0.00111(14) 53323252. 0.001064 0.001064
59297. 1.22830 0.00099(13) 61615060. 0.001064 0.001064
59302. 1.22842 0.00110(14) 52841100. 0.001064 0.001064
59308. 1.22854 0.00117(14) 50887528. 0.001064 0.001064
59314. 1.22866 0.00120(14) 52865248. 0.001064 0.001064
59320. 1.22879 0.00126(14) 47594936. 0.001064 0.001064
59326. 1.22891 0.00120(14) 50708328. 0.001064 0.001064
59332. 1.22903 0.00115(14) 50703088. 0.001064 0.001064
59338. 1.22916 0.00091(12) 65366584. 0.001064 0.001064
59344. 1.22928 0.00092(13) 62982236. 0.001064 0.001064
59350. 1.22940 0.00098(13) 62188320. 0.001064 0.001064
59356. 1.22952 0.00108(13) 56160872. 0.001064 0.001063
59362. 1.22965 0.00108(13) 55032032. 0.001063 0.001063
59368. 1.22977 0.00111(14) 52101204. 0.001063 0.001063
59374. 1.22989 0.00113(14) 52623780. 0.001063 0.001063
59380. 1.23002 0.00108(13) 56646964. 0.001063 0.001063
59386. 1.23014 0.00106(13) 58603456. 0.001063 0.001063
59392. 1.23026 0.00118(14) 49780044. 0.001063 0.001063
59397. 1.23038 0.00114(13) 54925276. 0.001063 0.001063
59403. 1.23051 0.00106(13) 58652508. 0.001063 0.001063
59409. 1.23063 0.00101(13) 61952088. 0.001063 0.001063
59415. 1.23075 0.00118(14) 50278328. 0.001063 0.001063
59421. 1.23088 0.00128(15) 45395548. 0.001063 0.001063
59427. 1.23100 0.00130(15) 43895948. 0.001063 0.001063
59433. 1.23112 0.00127(15) 45736740. 0.001063 0.001063
59439. 1.23125 0.00111(14) 53018060. 0.001062 0.001062
59445. 1.23137 0.00101(13) 57870936. 0.001062 0.001062
59451. 1.23149 0.00112(14) 50017140. 0.001062 0.001062
59457. 1.23162 0.00113(14) 51469556. 0.001062 0.001062
59463. 1.23174 0.00103(13) 58304512. 0.001062 0.001062
59469. 1.23186 0.00112(14) 51880396. 0.001062 0.001062
59475. 1.23199 0.00121(14) 47821080. 0.001062 0.001062
59481. 1.23211 0.00112(13) 54910252. 0.001062 0.001062
59487. 1.23223 0.00134(16) 41098316. 0.001062 0.001062
59493. 1.23236 0.00136(16) 41398272. 0.001062 0.001062
59498. 1.23248 0.00139(15) 41851536. 0.001062 0.001062
59504. 1.23260 0.00134(15) 42880624. 0.001062 0.001062
59510. 1.23273 0.00127(15) 45283956. 0.001062 0.001062
59516. 1.23285 0.00122(14) 47756972. 0.001061 0.001061
59522. 1.23297 0.00134(15) 42538688. 0.001061 0.001061
59528. 1.23310 0.00146(16) 40958140. 0.001061 0.001061
59534. 1.23322 0.00146(16) 41277000. 0.001061 0.001061
59540. 1.23334 0.00138(15) 42920880. 0.001061 0.001061
59546. 1.23347 0.00143(16) 38568628. 0.001061 0.001061
59552. 1.23359 0.00147(16) 37688320. 0.001061 0.001061
59558. 1.23371 0.00143(16) 39759900. 0.001061 0.001061
59564. 1.23384 0.00150(16) 37465036. 0.001061 0.001061
59570. 1.23396 0.00149(17) 36725380. 0.001061 0.001061
59576. 1.23408 0.00133(16) 41443148. 0.001061 0.001061
59582. 1.23421 0.00134(15) 44460624. 0.001061 0.001061
59588. 1.23433 0.00158(17) 36684124. 0.001061 0.001061
59594. 1.23445 0.00140(16) 41311012. 0.001060 0.001060
59600. 1.23458 0.00130(15) 43791300. 0.001060 0.001060
59606. 1.23470 0.00137(16) 40864272. 0.001060 0.001060
59612. 1.23482 0.00144(16) 38987880. 0.001060 0.001060
59618. 1.23495 0.00142(15) 42651800. 0.001060 0.001068
59624. 1.23507 0.00150(16) 39161440. 0.001060 0.001068
59630. 1.23519 0.00151(17) 36002128. 0.001060 0.001068
59635. 1.23532 0.00138(16) 40116076. 0.001060 0.001068
59641. 1.23544 0.00156(17) 35497468. 0.001060 0.001068
59647. 1.23557 0.00145(16) 38683736. 0.001060 0.001068
59653. 1.23569 0.00132(16) 41434620. 0.001060 0.001068
59659. 1.23581 0.00127(15) 43624296. 0.001060 0.001068
59665. 1.23594 0.00118(15) 45802028. 0.001060 0.001068
59671. 1.23606 0.00113(14) 47619012. 0.001059 0.001068
59677. 1.23619 0.00116(15) 46427720. 0.001059 0.001068
59683. 1.23631 0.00120(15) 46324280. 0.001059 0.001068
59689. 1.23643 0.00149(17) 35691040. 0.001059 0.001068
59695. 1.23655 0.00140(16) 37658648. 0.001059 0.001068
59701. 1.23668 0.00091(13) 61600412. 0.001059 0.001068
59707. 1.23680 0.00097(13) 57217640. 0.001059 0.001069
59713. 1.23693 0.00118(14) 48131852. 0.001059 0.001069
59719. 1.23705 0.00133(15) 41950828. 0.001059 0.001069
59725. 1.23717 0.00118(15) 46529484. 0.001059 0.001069
59731. 1.23730 0.00105(14) 52420048. 0.001059 0.001069
59737. 1.23742 0.00106(14) 52762404. 0.001059 0.001069
59743. 1.23754 0.00113(14) 48872844. 0.001058 0.001069
59749. 1.23767 0.00120(15) 46225588. 0.001058 0.001069
59755. 1.23779 0.00110(14) 50115580. 0.001058 0.001069
59761. 1.23792 0.00098(13) 57006864. 0.001058 0.001070
59767. 1.23804 0.00104(14) 53341200. 0.001058 0.001070
59773. 1.23816 0.00106(14) 51703956. 0.001058 0.001070
59779. 1.23829 0.00116(14) 47883652. 0.001058 0.001070
59785. 1.23841 0.00134(16) 39463336. 0.001058 0.001070
59791. 1.23853 0.00114(15) 46235852. 0.001058 0.001070
59797. 1.23866 0.00094(13) 56601232. 0.001058 0.001071
59803. 1.23878 0.00093(13) 58081040. 0.001058 0.001071
59809. 1.23891 0.00105(14) 51114984. 0.001058 0.001071
59815. 1.23903 0.00130(16) 39564980. 0.001058 0.001071
59821. 1.23915 0.00138(16) 38247148. 0.001057 0.001071
59827. 1.23928 0.00121(15) 44758040. 0.001057 0.001072
59833. 1.23940 0.00113(15) 45973512. 0.001057 0.001072
59839. 1.23953 0.00101(14) 51182116. 0.001057 0.001072
59845. 1.23965 0.00096(14) 53869596. 0.001057 0.001072
59851. 1.23978 0.00092(13) 57443048. 0.001057 0.001073
59857. 1.23990 0.00116(15) 44889588. 0.001057 0.001073
59863. 1.24002 0.00123(15) 42653100. 0.001057 0.001073
59869. 1.24015 0.00114(15) 45200172. 0.001057 0.001073
59875. 1.24027 0.00111(15) 47356488. 0.001057 0.001074
59881. 1.24040 0.00099(13) 55724536. 0.001057 0.001074
59887. 1.24052 0.00099(14) 52808028. 0.001057 0.001074
59893. 1.24064 0.00090(13) 58524576. 0.001057 0.001075
59899. 1.24077 0.00094(13) 55818272. 0.001056 0.001075
59905. 1.24089 0.00095(13) 54927284. 0.001056 0.001076
59911. 1.24102 0.00115(15) 43992800. 0.001056 0.001076
59916. 1.24114 0.00122(15) 44993136. 0.001056 0.001076
59922. 1.24126 0.00128(15) 41863604. 0.001056 0.001077
59928. 1.24139 0.00108(14) 49839124. 0.001056 0.001077
59934. 1.24151 0.00107(14) 48697436. 0.001056 0.001078
59940. 1.24164 0.00095(13) 55577576. 0.001056 0.001078
59946. 1.24176 0.00086(13) 61812420. 0.001056 0.001079
59952. 1.24189 0.00088(13) 59709348. 0.001056 0.001079
59958. 1.24201 0.00117(16) 41577088. 0.001056 0.001080
59964. 1.24213 0.00130(16) 37499568. 0.001056 0.001081
59970. 1.24226 0.00127(16) 40525016. 0.001056 0.001081
59976. 1.24238 0.00104(14) 50932368. 0.001055 0.001090
59982. 1.24251 0.00086(13) 60487536. 0.001055 0.001091
59988. 1.24263 0.00098(14) 50887028. 0.001055 0.001092
59994. 1.24276 0.00107(15) 46499132. 0.001055 0.001093
60000. 1.24288 0.00101(14) 50999492. 0.001055 0.001094
60006. 1.24300 0.00118(15) 42668372. 0.001055 0.001095
60012. 1.24313 0.00118(15) 45079764. 0.001055 0.001096
60018. 1.24325 0.00114(15) 45359144. 0.001055 0.001097
60024. 1.24338 0.00112(15) 46514628. 0.001055 0.001098
60030. 1.24350 0.00126(16) 39363384. 0.001055 0.001099
60036. 1.24363 0.00117(16) 41383160. 0.001055 0.001101
60042. 1.24375 0.00097(14) 53502028. 0.001055 0.001102
60049. 1.24388 0.00100(14) 50957824. 0.001054 0.001104
60055. 1.24400 0.00095(14) 54240896. 0.001054 0.001105
60060. 1.24412 0.00104(14) 49783512. 0.001054 0.001107
60066. 1.24425 0.00123(15) 41877684. 0.001054 0.001108
60073. 1.24437 0.00121(15) 42082296. 0.001054 0.001110
60079. 1.24450 0.00094(13) 55063920. 0.001054 0.001112
60085. 1.24462 0.00091(14) 53517628. 0.001054 0.001114
60091. 1.24475 0.00095(14) 51318708. 0.001054 0.001117
60097. 1.24487 0.00124(16) 36906816. 0.001054 0.001119
60103. 1.24500 0.00122(16) 39173512. 0.001054 0.001121
60109. 1.24512 0.00112(15) 44433836. 0.001054 0.001124
60115. 1.24524 0.00110(15) 43775608. 0.001054 0.001127
60121. 1.24537 0.00093(14) 52672064. 0.001054 0.001130
60127. 1.24549 0.00094(14) 53405136. 0.001053 0.001133
60133. 1.24562 0.00103(14) 49531428. 0.001053 0.001137
60139. 1.24574 0.00103(15) 47492440. 0.001053 0.001140
60145. 1.24587 0.00109(15) 44374032. 0.001053 0.001144
60151. 1.24599 0.00127(16) 37850596. 0.001053 0.001149
60157. 1.24612 0.00125(16) 38588684. 0.001053 0.001153
60163. 1.24624 0.00116(15) 42465140. 0.001053 0.001158
60169. 1.24637 0.00125(16) 38407156. 0.001053 0.001164
60175. 1.24649 0.00119(16) 39630128. 0.001053 0.001170
60181. 1.24662 0.00121(16) 39010916. 0.001053 0.001176
60187. 1.24674 0.00130(16) 37128792. 0.001053 0.001183
60193. 1.24687 0.00135(17) 35722644. 0.001053 0.001191
60199. 1.24699 0.00123(16) 40855136. 0.001052 0.001199
60205. 1.24712 0.00128(17) 36577864. 0.001052 0.001209
60211. 1.24724 0.00111(15) 42458008. 0.001052 0.001219
60217. 1.24736 0.00103(15) 46827824. 0.001052 0.001231
60223. 1.24749 0.00118(16) 41029528. 0.001052 0.001244
60229. 1.24761 0.00135(17) 36494604. 0.001052 0.001259
60235. 1.24774 0.00138(17) 35311104. 0.001052 0.001277
60241. 1.24787 0.00126(16) 37162256. 0.001052 0.001298
60247. 1.24799 0.00124(16) 38492232. 0.001052 0.001325
60253. 1.24811 0.00119(15) 41674580. 0.001052 0.001360
60259. 1.24824 0.00134(17) 36497336. 0.001052 0.001406
60265. 1.24836 0.00135(16) 37058568. 0.001052 0.001469
60271. 1.24849 0.00157(18) 29613922. 0.001052 0.001555
60277. 1.24861 0.00158(18) 29907758. 0.001051 0.001671
60283. 1.24874 0.00148(17) 32701396. 0.001051 0.001831
60289. 1.24886 0.00182(20) 24309036. 0.001051 0.002046
60295. 1.24899 0.00165(19) 27703632. 0.001051 0.002326
60301. 1.24911 0.00215(22) 21202036. 0.001051 0.002685
60307. 1.24924 0.00287(25) 16284854. 0.001051 0.003135
60313. 1.24936 0.00347(28) 12838588. 0.001051 0.003680
60319. 1.24949 0.00373(29) 12277201. 0.001051 0.004318
60325. 1.24961 0.00472(32) 9660455. 0.001051 0.005037
60331. 1.24974 0.0059(4) 7803464. 0.00105 0.00581
60337. 1.24986 0.0070(4) 6450014. 0.00105 0.00661
60343. 1.24999 0.0070(4) 6716958. 0.00105 0.00741
60350. 1.25011 0.0083(4) 5500929. 0.00105 0.00815
60356. 1.25024 0.0090(4) 5131843. 0.00105 0.00877
60362. 1.25036 0.0099(5) 4519625. 0.00105 0.00922
60368. 1.25049 0.0098(5) 4624412. 0.00105 0.00943
60374. 1.25061 0.0097(5) 4682448. 0.00105 0.00938
60380. 1.25074 0.0085(4) 5410664. 0.00105 0.00906
60386. 1.25086 0.0074(4) 6399530. 0.00105 0.00850
60392. 1.25099 0.0073(4) 6485638. 0.00105 0.00779
60398. 1.25111 0.0071(4) 6585309. 0.00105 0.00695
60404. 1.25124 0.0060(4) 7850570. 0.00105 0.00609
60410. 1.25136 0.00515(34) 8822571. 0.001050 0.005261
60416. 1.25149 0.00451(31) 10129057. 0.001050 0.004500
60422. 1.25162 0.00428(31) 10483214. 0.001050 0.003832
60428. 1.25174 0.00332(26) 14301141. 0.001049 0.003268
60434. 1.25187 0.00324(27) 14098206. 0.001049 0.002806
60440. 1.25199 0.00290(25) 15516489. 0.001049 0.002442
60446. 1.25211 0.00222(22) 21108440. 0.001049 0.002157
60452. 1.25224 0.00203(21) 23472254. 0.001049 0.001942
60458. 1.25237 0.00192(20) 25071322. 0.001049 0.001781
60464. 1.25249 0.00193(21) 23311122. 0.001049 0.001662
60470. 1.25262 0.00177(19) 26714378. 0.001049 0.001575
60476. 1.25274 0.00169(19) 28435842. 0.001049 0.001511
60482. 1.25287 0.00164(19) 27686236. 0.001049 0.001463
60488. 1.25299 0.00139(17) 33332896. 0.001049 0.001427
60495. 1.25312 0.00132(17) 36096856. 0.001049 0.001399
60501. 1.25324 0.00140(18) 32553590. 0.001048 0.001377
60507. 1.25337 0.00124(16) 38465192. 0.001048 0.001359
60513. 1.25349 0.00136(17) 33457850. 0.001048 0.001345
60519. 1.25362 0.00134(17) 35189340. 0.001048 0.001334
60525. 1.25375 0.00145(18) 31921872. 0.001048 0.001324
60531. 1.25387 0.00118(16) 40008188. 0.001048 0.001318
60537. 1.25400 0.00102(14) 48141992. 0.001048 0.001312
60543. 1.25412 0.00111(15) 44373132. 0.001048 0.001309
60549. 1.25425 0.00109(15) 44352308. 0.001048 0.001307
60555. 1.25437 0.00107(15) 42703844. 0.001048 0.001307
60561. 1.25450 0.00109(15) 43550464. 0.001048 0.001309
60567. 1.25462 0.00133(17) 33938872. 0.001048 0.001312
60573. 1.25475 0.00125(17) 36675192. 0.001048 0.001317
60579. 1.25487 0.00121(16) 37181752. 0.001047 0.001324
60585. 1.25500 0.00109(15) 44276404. 0.001047 0.001333
60591. 1.25513 0.00118(16) 40418028. 0.001047 0.001346
60598. 1.25525 0.00130(17) 35050560. 0.001047 0.001363
60604. 1.25538 0.00111(15) 43398220. 0.001047 0.001385
60610. 1.25550 0.00116(16) 40135572. 0.001047 0.001415
60616. 1.25563 0.00131(17) 35609844. 0.001047 0.001456
60622. 1.25575 0.00141(17) 33410108. 0.001047 0.001514
60628. 1.25588 0.00143(17) 32952472. 0.001047 0.001595
60634. 1.25600 0.00147(17) 33193958. 0.001047 0.001708
60640. 1.25613 0.00161(18) 29879052. 0.001047 0.001865
60646. 1.25626 0.00172(19) 26502870. 0.001047 0.002077
60652. 1.25638 0.00160(18) 29929558. 0.001046 0.002358
60658. 1.25651 0.00198(21) 23042252. 0.001046 0.002725
60664. 1.25663 0.00213(21) 22829766. 0.001046 0.003187
60670. 1.25676 0.00268(23) 18234700. 0.001046 0.003746
60676. 1.25688 0.00346(26) 14783632. 0.001046 0.004398
60682. 1.25701 0.00481(31) 10282127. 0.001046 0.005144
60688. 1.25714 0.00553(33) 9175733. 0.001046 0.005967
60695. 1.25726 0.0072(4) 6722074. 0.00105 0.00683
60701. 1.25739 0.0084(4) 5850466. 0.00105 0.00768
60707. 1.25751 0.0093(4) 5171815. 0.00105 0.00848
60713. 1.25764 0.0104(5) 4566350. 0.00105 0.00916
60719. 1.25777 0.0110(5) 4300170. 0.00105 0.00966
60725. 1.25789 0.0108(5) 4373805. 0.00105 0.00992
60731. 1.25802 0.0107(5) 4450384. 0.00105 0.00990
60737. 1.25814 0.0101(5) 4773222. 0.00105 0.00959
60743. 1.25827 0.0092(4) 5256497. 0.00105 0.00902
60749. 1.25839 0.0082(4) 6013685. 0.00105 0.00827
60755. 1.25852 0.0072(4) 6643458. 0.00105 0.00739
60761. 1.25865 0.0063(4) 7960799. 0.00105 0.00647
60767. 1.25877 0.00576(34) 8745011. 0.001045 0.005583
60773. 1.25890 0.00468(30) 10938402. 0.001045 0.004763
60780. 1.25902 0.00401(28) 12587486. 0.001045 0.004035
60786. 1.25915 0.00348(26) 14629564. 0.001045 0.003417
60792. 1.25928 0.00319(25) 16329431. 0.001045 0.002911
60798. 1.25940 0.00307(24) 17030616. 0.001045 0.002508
60804. 1.25953 0.00279(23) 18902810. 0.001044 0.002195
60810. 1.25965 0.00267(23) 19304362. 0.001044 0.001958
60816. 1.25978 0.00251(22) 20293464. 0.001044 0.001781
60822. 1.25991 0.00223(21) 23645740. 0.001044 0.001650
60828. 1.26003 0.00198(19) 27622396. 0.001044 0.001553
60834. 1.26016 0.00189(18) 29306542. 0.001044 0.001480
60840. 1.26028 0.00184(18) 29671378. 0.001044 0.001425
60847. 1.26041 0.00166(17) 33534100. 0.001044 0.001382
60853. 1.26054 0.00144(16) 38621212. 0.001044 0.001348
60859. 1.26066 0.00128(15) 42678592. 0.001044 0.001321
60865. 1.26079 0.00117(15) 47516908. 0.001044 0.001297
60871. 1.26091 0.00123(15) 46369064. 0.001044 0.001277
60877. 1.26104 0.00130(16) 41253180. 0.001044 0.001260
60883. 1.26117 0.00126(15) 43146884. 0.001043 0.001244
60889. 1.26129 0.00133(15) 42057468. 0.001043 0.001230
60895. 1.26142 0.00123(15) 45923456. 0.001043 0.001218
60901. 1.26155 0.00119(15) 47119504. 0.001043 0.001207
60907. 1.26167 0.00110(14) 51185364. 0.001043 0.001197
60914. 1.26180 0.00114(14) 48107036. 0.001043 0.001188
60920. 1.26192 0.00120(15) 46409764. 0.001043 0.001179
60926. 1.26205 0.00110(14) 53531512. 0.001043 0.001172
60932. 1.26218 0.00108(13) 56003296. 0.001043 0.001165
60938. 1.26230 0.00115(14) 53139584. 0.001043 0.001158
60944. 1.26243 0.00122(14) 49972356. 0.001043 0.001152
60950. 1.26256 0.00114(14) 52011128. 0.001043 0.001147
60956. 1.26268 0.00107(13) 56381684. 0.001043 0.001142
60962. 1.26281 0.00113(14) 52813648. 0.001042 0.001137
60968. 1.26293 0.00113(14) 53158024. 0.001042 0.001132
60974. 1.26306 0.00123(14) 48510864. 0.001042 0.001128
60981. 1.26319 0.00121(14) 49897940. 0.001042 0.001124
60987. 1.26331 0.00112(14) 54219180. 0.001042 0.001121
60993. 1.26344 0.00102(13) 57886440. 0.001042 0.001118
60999. 1.26357 0.00103(13) 58466972. 0.001042 0.001114
61005. 1.26369 0.00110(13) 55107060. 0.001042 0.001111
61011. 1.26382 0.00110(14) 52931772. 0.001042 0.001109
61017. 1.26395 0.00104(13) 56207424. 0.001042 0.001106
61023. 1.26407 0.00104(13) 58809432. 0.001042 0.001104
61029. 1.26420 0.00103(13) 59289196. 0.001042 0.001101
61035. 1.26432 0.00104(13) 56105596. 0.001041 0.001099
61042. 1.26445 0.00096(12) 64547964. 0.001041 0.001097
61048. 1.26458 0.00111(14) 52762784. 0.001041 0.001095
61054. 1.26470 0.00104(13) 56418248. 0.001041 0.001093
61060. 1.26483 0.00112(14) 50188528. 0.001041 0.001091
61066. 1.26496 0.00122(15) 46355504. 0.001041 0.001090
61072. 1.26508 0.00108(14) 54018432. 0.001041 0.001088
61078. 1.26521 0.00097(13) 60727180. 0.001041 0.001086
61084. 1.26534 0.00097(13) 60035220. 0.001041 0.001085
61090. 1.26546 0.00102(13) 57410780. 0.001041 0.001083
61097. 1.26559 0.00121(15) 47388748. 0.001041 0.001082
61103. 1.26572 0.00125(15) 46612216. 0.001041 0.001081
61109. 1.26584 0.00112(14) 52429660. 0.001041 0.001080
61115. 1.26597 0.00096(13) 61564248. 0.001040 0.001078
61121. 1.26610 0.00096(13) 59347924. 0.001040 0.001070
61127. 1.26622 0.00102(13) 58902984. 0.001040 0.001069
61133. 1.26635 0.00109(14) 54137556. 0.001040 0.001068
61139. 1.26648 0.00097(13) 61542188. 0.001040 0.001067
61145. 1.26660 0.00096(13) 59856488. 0.001040 0.001066
61152. 1.26673 0.00087(12) 67013312. 0.001040 0.001065
61158. 1.26686 0.00086(12) 73595448. 0.001040 0.001064
61164. 1.26698 0.00113(14) 53072060. 0.001040 0.001064
61170. 1.26711 0.00125(14) 47658568. 0.001040 0.001063
61176. 1.26724 0.00131(15) 44433452. 0.001040 0.001062
61182. 1.26736 0.00139(16) 40343552. 0.001040 0.001062
61188. 1.26749 0.00119(14) 48726848. 0.001040 0.001061
61194. 1.26762 0.00103(13) 59857060. 0.001039 0.001060
61201. 1.26775 0.00112(14) 51814796. 0.001039 0.001060
61207. 1.26787 0.00105(13) 55525336. 0.001039 0.001059
61213. 1.26800 0.00105(13) 55156224. 0.001039 0.001058
61219. 1.26812 0.00103(13) 57452104. 0.001039 0.001058
61225. 1.26825 0.00105(13) 56893384. 0.001039 0.001057
61231. 1.26838 0.00106(14) 54201448. 0.001039 0.001057
61237. 1.26851 0.00089(12) 68653464. 0.001039 0.001056
61243. 1.26863 0.00097(13) 62925280. 0.001039 0.001056
61250. 1.26876 0.00113(14) 52216308. 0.001039 0.001055
61256. 1.26889 0.00097(12) 64770320. 0.001039 0.001055
61262. 1.26901 0.00102(13) 59466248. 0.001039 0.001054
61268. 1.26914 0.00112(14) 53785012. 0.001039 0.001054
61274. 1.26927 0.00103(13) 56489036. 0.001038 0.001054
61280. 1.26940 0.00090(12) 64505192. 0.001038 0.001053
61286. 1.26952 0.00098(13) 59438120. 0.001038 0.001053
61292. 1.26965 0.00126(15) 45186056. 0.001038 0.001052
61299. 1.26978 0.00128(15) 46617712. 0.001038 0.001052
61305. 1.26990 0.00123(15) 46767736. 0.001038 0.001052
61311. 1.27003 0.00103(13) 56046300. 0.001038 0.001051
61317. 1.27016 0.00111(13) 55000956. 0.001038 0.001051
61323. 1.27028 0.00139(16) 41237432. 0.001038 0.001051
61329. 1.27041 0.00120(14) 48670412. 0.001038 0.001050
61335. 1.27054 0.00100(13) 57668224. 0.001038 0.001050
61341. 1.27067 0.00109(14) 50784360. 0.001038 0.001050
61348. 1.27079 0.00100(13) 59362700. 0.001038 0.001049
61354. 1.27092 0.00100(13) 58592276. 0.001037 0.001049
61360. 1.27105 0.00092(13) 60676528. 0.001037 0.001049
61366. 1.27117 0.00090(13) 63215564. 0.001037 0.001048
61372. 1.27130 0.00102(13) 56636080. 0.001037 0.001048
61378. 1.27143 0.00118(14) 51630624. 0.001037 0.001048
61384. 1.27156 0.00117(14) 50631100. 0.001037 0.001048
61391. 1.27168 0.00100(13) 59066172. 0.001037 0.001047
61397. 1.27181 0.00104(14) 53639660. 0.001037 0.001047
61403. 1.27194 0.00098(13) 60938016. 0.001037 0.001047
61409. 1.27206 0.00099(13) 58132744. 0.001037 0.001047
61415. 1.27219 0.00091(13) 61701380. 0.001037 0.001046
61421. 1.27232 0.00081(12) 72299840. 0.001037 0.001046
61427. 1.27245 0.00089(12) 69993536. 0.001037 0.001046
61434. 1.27257 0.00106(13) 56481264. 0.001036 0.001046
61440. 1.27270 0.00097(13) 63832208. 0.001036 0.001045
61446. 1.27283 0.00100(13) 58999836. 0.001036 0.001045
61452. 1.27295 0.00097(13) 60817080. 0.001036 0.001045
61458. 1.27308 0.00095(13) 60104524. 0.001036 0.001045
61464. 1.27321 0.00082(12) 70872456. 0.001036 0.001044
61470. 1.27334 0.00083(12) 68608416. 0.001036 0.001044
61477. 1.27346 0.00086(12) 66762764. 0.001036 0.001044
61483. 1.27359 0.00081(11) 76473680. 0.001036 0.001036
61489. 1.27372 0.00096(12) 65919816. 0.001036 0.001036
61495. 1.27385 0.00104(13) 57213036. 0.001036 0.001036
61501. 1.27397 0.00117(15) 47201596. 0.001036 0.001036
61507. 1.27410 0.00110(14) 53810880. 0.001036 0.001036
61513. 1.27423 0.00114(14) 53298244. 0.001036 0.001036
61520. 1.27436 0.00127(15) 45001304. 0.001035 0.001035
61526. 1.27448 0.00103(13) 57518364. 0.001035 0.001035
61532. 1.27461 0.00103(13) 56066972. 0.001035 0.001035
61538. 1.27474 0.00122(14) 48348524. 0.001035 0.001035
61544. 1.27487 0.00137(16) 41243336. 0.001035 0.001035
61550. 1.27499 0.00116(14) 49855176. 0.001035 0.001035
61557. 1.27512 0.00102(13) 56558700. 0.001035 0.001035
61563. 1.27525 0.00102(13) 57640280. 0.001035 0.001035
61569. 1.27538 0.00120(15) 47284760. 0.001035 0.001035
61575. 1.27551 0.00112(14) 50203144. 0.001035 0.001035
61581. 1.27563 0.00107(14) 53051132. 0.001035 0.001035
61587. 1.27576 0.00101(13) 58798084. 0.001035 0.001035
61594. 1.27589 0.00108(14) 53036112. 0.001035 0.001035
61600. 1.27602 0.00092(12) 65190016. 0.001034 0.001034
61606. 1.27614 0.00092(12) 68353064. 0.001034 0.001034
61612. 1.27627 0.00114(14) 54157892. 0.001034 0.001034
61618. 1.27640 0.00105(13) 57141304. 0.001034 0.001034
61624. 1.27653 0.00096(13) 59845376. 0.001034 0.001034
61630. 1.27665 0.00096(13) 62736820. 0.001034 0.001034
61637. 1.27678 0.00111(14) 53146352. 0.001034 0.001034
61643. 1.27691 0.00115(14) 51375340. 0.001034 0.001034
61649. 1.27704 0.00116(14) 51747528. 0.001034 0.001034
61655. 1.27717 0.00110(14) 54509568. 0.001034 0.001034
61661. 1.27729 0.00102(13) 56938660. 0.001034 0.001034
61667. 1.27742 0.00104(14) 54740848. 0.001034 0.001034
61674. 1.27755 0.00107(13) 55692188. 0.001034 0.001034
61680. 1.27768 0.00106(13) 57598072. 0.001034 0.001034
61686. 1.27780 0.00104(13) 57225464. 0.001033 0.001033
61692. 1.27793 0.00099(13) 58786128. 0.001033 0.001033
61698. 1.27806 0.00110(14) 53457936. 0.001033 0.001033
61704. 1.27819 0.00110(13) 55048232. 0.001033 0.001033
61711. 1.27832 0.00095(13) 63505608. 0.001033 0.001033
61717. 1.27844 0.00100(13) 59132524. 0.001033 0.001033
61723. 1.27857 0.00122(15) 47105392. 0.001033 0.001033
61729. 1.27870 0.00126(15) 45129368. 0.001033 0.001033
61735. 1.27883 0.00113(14) 50279876. 0.001033 0.001033
61741. 1.27895 0.00101(13) 60669620. 0.001033 0.001033
61748. 1.27908 0.00106(13) 55866764. 0.001033 0.001033
61754. 1.27921 0.00101(13) 58377512. 0.001033 0.001033
61760. 1.27934 0.00110(14) 52906176. 0.001033 0.001033
61766. 1.27947 0.00103(13) 58014452. 0.001033 0.001033
61772. 1.27960 0.00109(14) 53086008. 0.001032 0.001032
61779. 1.27972 0.00120(14) 48960088. 0.001032 0.001032
61785. 1.27985 0.00105(13) 56653904. 0.001032 0.001032
61791. 1.27998 0.00086(12) 69275664. 0.001032 0.001032
61797. 1.28011 0.00091(13) 62019616. 0.001032 0.001032
61803. 1.28023 0.00099(13) 57140248. 0.001032 0.001032
61809. 1.28036 0.00094(13) 61471996. 0.001032 0.001032
61816. 1.28049 0.00100(13) 57883468. 0.001032 0.001032
61822. 1.28062 0.00109(14) 53835916. 0.001032 0.001032
61828. 1.28075 0.00111(14) 51784468. 0.001032 0.001032
61834. 1.28088 0.00085(12) 70262976. 0.001032 0.001032
61840. 1.28100 0.00083(12) 69610016. 0.001032 0.001032
61847. 1.28113 0.00095(13) 59989188. 0.001032 0.001032
61853. 1.28126 0.00089(13) 63491768. 0.001032 0.001032
61859. 1.28139 0.00087(12) 64337924. 0.001031 0.001031
61865. 1.28152 0.00091(13) 61425584. 0.001031 0.001031
61871. 1.28164 0.00094(13) 61176048. 0.001031 0.001031
61878. 1.28177 0.00116(14) 49323136. 0.001031 0.001031
61884. 1.28190 0.00113(14) 51635764. 0.001031 0.001031
61890. 1.28203 0.00085(11) 77212136. 0.001031 0.001031
61896. 1.28216 0.00106(13) 57484100. 0.001031 0.001031
61902. 1.28228 0.00132(15) 45482320. 0.001031 0.001031
61908. 1.28241 0.00140(15) 42249032. 0.001031 0.001031
61915. 1.28254 0.00130(15) 46762932. 0.001031 0.001031
61921. 1.28267 0.00121(14) 49106832. 0.001031 0.001031
61927. 1.28280 0.00098(13) 63100036. 0.001031 0.001031
61933. 1.28293 0.00106(13) 55001740. 0.001031 0.001031
61939. 1.28306 0.00101(13) 58620244. 0.001031 0.001031
61946. 1.28318 0.00110(14) 50217700. 0.001030 0.001030
61952. 1.28331 0.00099(13) 57581588. 0.001030 0.001030
61958. 1.28344 0.00097(13) 61359108. 0.001030 0.001030
61964. 1.28357 0.00102(13) 59825508. 0.001030 0.001030
61970. 1.28370 0.00100(13) 62929440. 0.001030 0.001030
61977. 1.28383 0.00095(12) 65226856. 0.001030 0.001030
61983. 1.28395 0.00110(14) 53373924. 0.001030 0.001030
61989. 1.28408 0.00112(14) 53882072. 0.001030 0.001030
61995. 1.28421 0.00117(14) 50261852. 0.001030 0.001030
62001. 1.28434 0.00126(15) 45140540. 0.001030 0.001030
62008. 1.28447 0.00106(13) 55497048. 0.001030 0.001030
62014. 1.28460 0.00095(13) 61235440. 0.001030 0.001030
62020. 1.28473 0.00084(12) 68647944. 0.001030 0.001030
62026. 1.28485 0.00096(13) 58924648. 0.001030 0.001030
62032. 1.28498 0.00110(14) 50588284. 0.001029 0.001029
62039. 1.28511 0.00093(12) 65442860. 0.001029 0.001029
62045. 1.28524 0.00099(13) 58864072. 0.001029 0.001029
62051. 1.28537 0.00097(13) 60539044. 0.001029 0.001029
62057. 1.28550 0.00102(13) 56907124. 0.001029 0.001029
62063. 1.28563 0.00107(14) 53423508. 0.001029 0.001029
62070. 1.28575 0.00102(13) 56202184. 0.001029 0.001029
62076. 1.28588 0.00106(13) 55236380. 0.001029 0.001029
62082. 1.28601 0.00114(14) 52156336. 0.001029 0.001029
62088. 1.28614 0.00118(15) 47399432. 0.001029 0.001029
62094. 1.28627 0.00110(14) 52334504. 0.001029 0.001029
62101. 1.28640 0.00121(14) 48108352. 0.001029 0.001029
62107. 1.28653 0.00116(14) 50793428. 0.001029 0.001029
62113. 1.28665 0.00107(14) 53973840. 0.001029 0.001029
62119. 1.28678 0.00107(14) 54076284. 0.001029 0.001029
62126. 1.28691 0.00103(13) 55216284. 0.001028 0.001028
62132. 1.28704 0.00107(14) 54249732. 0.001028 0.001028
62138. 1.28717 0.00117(14) 50216088. 0.001028 0.001028
62144. 1.28730 0.00102(13) 58279592. 0.001028 0.001028
62150. 1.28743 0.00099(13) 59653216. 0.001028 0.001028
62157. 1.28756 0.00110(14) 52573780. 0.001028 0.001028
62163. 1.28768 0.00110(14) 52691588. 0.001028 0.001028
62169. 1.28781 0.00095(12) 64025216. 0.001028 0.001028
62175. 1.28794 0.00094(12) 64083296. 0.001028 0.001028
62181. 1.28807 0.00114(14) 49260880. 0.001028 0.001028
62188. 1.28820 0.00105(13) 55509372. 0.001028 0.001028
62194. 1.28833 0.00116(14) 50100200. 0.001028 0.001028
62200. 1.28846 0.00115(14) 50720540. 0.001028 0.001028
62206. 1.28859 0.00108(14) 52830812. 0.001028 0.001028
62213. 1.28872 0.00099(13) 56184768. 0.001028 0.001028
62219. 1.28884 0.00097(13) 60446128. 0.001027 0.001027
62225. 1.28897 0.00111(14) 49744004. 0.001027 0.001027
62231. 1.28910 0.00100(13) 57553040. 0.001027 0.001027
62237. 1.28923 0.00090(12) 68230112. 0.001027 0.001027
62244. 1.28936 0.00088(12) 66206560. 0.001027 0.001027
62250. 1.28949 0.00090(13) 61972036. 0.001027 0.001027
62256. 1.28962 0.00087(12) 66485876. 0.001027 0.001027
62262. 1.28975 0.00082(12) 74877416. 0.001027 0.001027
62269. 1.28988 0.00093(13) 62541704. 0.001027 0.001027
62275. 1.29001 0.00108(14) 53274592. 0.001027 0.001027
62281. 1.29013 0.00111(14) 54623680. 0.001027 0.001027
62287. 1.29026 0.00109(14) 53883196. 0.001027 0.001027
62294. 1.29039 0.00105(14) 53934272. 0.001027 0.001027
62300. 1.29052 0.00114(14) 51273412. 0.001027 0.001027
62306. 1.29065 0.00119(14) 48068544. 0.001027 0.001027
62312. 1.29078 0.00109(14) 51526404. 0.001026 0.001026
62318. 1.29091 0.00090(12) 64106492. 0.001026 0.001026
62325. 1.29104 0.00095(13) 61876740. 0.001026 0.001026
62331. 1.29117 0.00112(14) 52163828. 0.001026 0.001026
62337. 1.29130 0.00109(14) 53131188. 0.001026 0.001026
62343. 1.29143 0.00106(14) 53252756. 0.001026 0.001026
62350. 1.29156 0.00115(14) 48449372. 0.001026 0.001026
62356. 1.29168 0.00110(14) 53059896. 0.001026 0.001026
62362. 1.29181 0.00101(13) 56592504. 0.001026 0.001026
62368. 1.29194 0.00099(13) 56803328. 0.001026 0.001026
62375. 1.29207 0.00091(12) 64482424. 0.001026 0.001026
62381. 1.29220 0.00095(13) 59424172. 0.001026 0.001026
62387. 1.29233 0.00098(13) 58259228. 0.001026 0.001026
62393. 1.29246 0.00123(15) 44488248. 0.001026 0.001026
62400. 1.29259 0.00119(14) 49141296. 0.001026 0.001026
62406. 1.29272 0.00125(15) 45911320. 0.001026 0.001026
62412. 1.29285 0.00117(14) 52785044. 0.001025 0.001025
62418. 1.29298 0.00128(15) 46849844. 0.001025 0.001025
62424. 1.29311 0.00113(14) 50047080. 0.001025 0.001025
62431. 1.29324 0.00093(13) 61205568. 0.001025 0.001025
62437. 1.29336 0.00106(13) 55389352. 0.001025 0.001025
62443. 1.29349 0.00113(14) 51622488. 0.001025 0.001025
62450. 1.29362 0.00103(13) 56287104. 0.001025 0.001025
62456. 1.29375 0.00098(13) 59616796. 0.001025 0.001025
62462. 1.29388 0.00098(13) 57486872. 0.001025 0.001025
62468. 1.29401 0.00100(13) 56032808. 0.001025 0.001025
62475. 1.29414 0.00104(14) 54202096. 0.001025 0.001025
62481. 1.29427 0.00104(13) 56495040. 0.001025 0.001025
62487. 1.29440 0.00112(14) 52380648. 0.001025 0.001025
62493. 1.29453 0.00112(14) 51237544. 0.001025 0.001025
62499. 1.29466 0.00109(14) 51928740. 0.001025 0.001025
62506. 1.29479 0.00099(13) 57814136. 0.001025 0.001025
62512. 1.29492 0.00105(14) 51606820. 0.001024 0.001024
62518. 1.29505 0.00108(14) 51530884. 0.001024 0.001024
62524. 1.29518 0.00106(13) 55751636. 0.001024 0.001024
62531. 1.29531 0.00111(14) 50038500. 0.001024 0.001024
62537. 1.29544 0.00107(14) 51022656. 0.001024 0.001024
62543. 1.29557 0.00105(14) 53992544. 0.001024 0.001024
62550. 1.29570 0.00104(14) 52802504. 0.001024 0.001024
62556. 1.29583 0.00102(14) 54786168. 0.001024 0.001024
62562. 1.29596 0.00114(14) 49148028. 0.001024 0.001024
62568. 1.29609 0.00106(14) 53948256. 0.001024 0.001024
62575. 1.29622 0.00095(13) 60041148. 0.001024 0.001024
62581. 1.29634 0.00101(14) 54023804. 0.001024 0.001024
62587. 1.29647 0.00101(14) 54137852. 0.001024 0.001024
62593. 1.29660 0.00103(14) 53428340. 0.001024 0.001024
62600. 1.29673 0.00111(14) 51460832. 0.001024 0.001024
62606. 1.29686 0.00108(13) 55892628. 0.001024 0.001024
62612. 1.29699 0.00108(14) 53223060. 0.001024 0.001024
62618. 1.29712 0.00106(14) 52369044. 0.001023 0.001023
62625. 1.29725 0.00095(13) 59294360. 0.001023 0.001023
62631. 1.29738 0.00092(13) 61807324. 0.001023 0.001023
62637. 1.29751 0.00101(13) 57231024. 0.001023 0.001023
62643. 1.29764 0.00105(13) 55300048. 0.001023 0.001023
62650. 1.29777 0.00102(13) 55920312. 0.001023 0.001023
62656. 1.29790 0.00116(14) 48179824. 0.001023 0.001023
62662. 1.29803 0.00110(14) 53992692. 0.001023 0.001023
62669. 1.29816 0.00108(14) 51472836. 0.001023 0.001023
62675. 1.29829 0.00109(14) 51579732. 0.001023 0.001023
62681. 1.29842 0.00119(15) 46389664. 0.001023 0.001023
62687. 1.29855 0.00103(13) 55260656. 0.001023 0.001023
62694. 1.29868 0.00092(13) 61212940. 0.001023 0.001023
62700. 1.29881 0.00103(14) 54453508. 0.001023 0.001023
62706. 1.29894 0.00108(14) 54468536. 0.001023 0.001023
62712. 1.29907 0.00106(13) 55618732. 0.001023 0.001023
62719. 1.29920 0.00117(14) 48607816. 0.001023 0.001023
62725. 1.29933 0.00136(16) 40744372. 0.001022 0.001022
62731. 1.29946 0.00127(15) 43620864. 0.001022 0.001022
62737. 1.29959 0.00094(12) 65102604. 0.001022 0.001022
62744. 1.29972 0.00105(14) 54070672. 0.001022 0.001022
62750. 1.29985 0.00098(13) 57409224. 0.001022 0.001022
62756. 1.29998 0.00096(13) 58276060. 0.001022 0.001022
62763. 1.30011 0.00102(13) 57189088. 0.001022 0.001022
62769. 1.30024 0.00107(13) 55659432. 0.001022 0.001022
62775. 1.30037 0.00100(13) 58926248. 0.001022 0.001022
62781. 1.30050 0.00097(13) 61722524. 0.001022 0.001022
62788. 1.30063 0.00112(14) 50814392. 0.001022 0.001022
62794. 1.30076 0.00114(14) 49551608. 0.001022 0.001029
62800. 1.30089 0.00112(14) 50824620. 0.001022 0.001029
62807. 1.30102 0.00103(13) 55971292. 0.001022 0.001029
62813. 1.30115 0.00093(12) 65096580. 0.001022 0.001029
62819. 1.30128 0.00113(14) 48258932. 0.001022 0.001029
62825. 1.30141 0.00112(14) 49420504. 0.001022 0.001029
62832. 1.30154 0.00101(13) 54877024. 0.001022 0.001029
62838. 1.30167 0.00099(13) 56601924. 0.001021 0.001029
62844. 1.30180 0.00114(14) 49735552. 0.001021 0.001029
62851. 1.30193 0.00115(14) 51166864. 0.001021 0.001029
62857. 1.30206 0.00116(14) 49170288. 0.001021 0.001029
62863. 1.30219 0.00099(13) 56746632. 0.001021 0.001029
62869. 1.30232 0.00087(12) 66964892. 0.001021 0.001029
62876. 1.30245 0.00093(13) 59203244. 0.001021 0.001030
62882. 1.30258 0.00103(14) 52992108. 0.001021 0.001030
62888. 1.30271 0.00110(14) 50975372. 0.001021 0.001030
62895. 1.30285 0.00106(14) 52846020. 0.001021 0.001030
62901. 1.30298 0.00101(14) 54857088. 0.001021 0.001030
62907. 1.30311 0.00102(13) 55431040. 0.001021 0.001030
62913. 1.30324 0.00107(14) 51118920. 0.001021 0.001030
62920. 1.30337 0.00097(13) 56354944. 0.001021 0.001030
62926. 1.30350 0.00091(13) 63078600. 0.001021 0.001031
62932. 1.30363 0.00101(13) 55828048. 0.001021 0.001031
62939. 1.30376 0.00104(13) 55149960. 0.001021 0.001031
62945. 1.30389 0.00102(13) 57029384. 0.001021 0.001031
62951. 1.30402 0.00096(13) 61198000. 0.001020 0.001031
62957. 1.30415 0.00097(13) 60585332. 0.001020 0.001031
62964. 1.30428 0.00113(14) 48039508. 0.001020 0.001032
62970. 1.30441 0.00101(13) 55380088. 0.001020 0.001032
62976. 1.30454 0.00094(13) 59214244. 0.001020 0.001032
62983. 1.30467 0.00092(13) 60569924. 0.001020 0.001032
62989. 1.30480 0.00102(13) 55040460. 0.001020 0.001032
62995. 1.30493 0.00122(15) 44767116. 0.001020 0.001033
63002. 1.30506 0.00136(16) 40627076. 0.001020 0.001033
63008. 1.30519 0.00140(16) 38652680. 0.001020 0.001033
63014. 1.30532 0.00115(15) 47538776. 0.001020 0.001033
63020. 1.30545 0.00107(14) 51896228. 0.001020 0.001034
63027. 1.30558 0.00105(14) 51275224. 0.001020 0.001034
63033. 1.30572 0.00097(13) 57700108. 0.001020 0.001034
63039. 1.30585 0.00094(13) 62071816. 0.001020 0.001034
63046. 1.30598 0.00096(13) 61532956. 0.001020 0.001035
63052. 1.30611 0.00116(14) 49050320. 0.001020 0.001035
63058. 1.30624 0.00114(14) 48020088. 0.001020 0.001035
63065. 1.30637 0.00095(13) 58245720. 0.001020 0.001036
63071. 1.30650 0.00102(13) 54969552. 0.001019 0.001039
63077. 1.30663 0.00113(14) 48930808. 0.001019 0.001039
63084. 1.30676 0.00110(14) 50215168. 0.001019 0.001040
63090. 1.30689 0.00106(14) 53375040. 0.001019 0.001040
63096. 1.30702 0.00097(13) 63414868. 0.001019 0.001041
63102. 1.30715 0.00110(14) 52882284. 0.001019 0.001041
63109. 1.30728 0.00113(14) 51212812. 0.001019 0.001042
63115. 1.30742 0.00104(13) 56296708. 0.001019 0.001043
63121. 1.30754 0.00111(14) 49687376. 0.001019 0.001043
63128. 1.30768 0.00106(14) 51041936. 0.001019 0.001044
63134. 1.30781 0.00094(13) 59287152. 0.001019 0.001044
63140. 1.30794 0.00100(13) 56196904. 0.001019 0.001045
63147. 1.30807 0.00115(14) 49659084. 0.001019 0.001046
63153. 1.30820 0.00121(15) 47139364. 0.001019 0.001047
63159. 1.30833 0.00113(14) 49589696. 0.001019 0.001047
63166. 1.30846 0.00111(14) 49824588. 0.001019 0.001048
63172. 1.30859 0.00096(13) 58928096. 0.001019 0.001049
63178. 1.30872 0.00098(13) 57123376. 0.001019 0.001050
63185. 1.30885 0.00106(14) 51691216. 0.001019 0.001051
63191. 1.30898 0.00101(14) 54096196. 0.001019 0.001052
63197. 1.30912 0.00100(14) 53410408. 0.001018 0.001053
63204. 1.30925 0.00097(13) 56204300. 0.001018 0.001054
63210. 1.30938 0.00105(14) 51512824. 0.001018 0.001056
63216. 1.30951 0.00093(13) 60028836. 0.001018 0.001057
63222. 1.30964 0.00083(12) 68375880. 0.001018 0.001058
63229. 1.30977 0.00090(12) 65479252. 0.001018 0.001060
63235. 1.30990 0.00102(13) 57200676. 0.001018 0.001061
63241. 1.31003 0.00124(15) 44314892. 0.001018 0.001065
63248. 1.31016 0.00136(16) 40214036. 0.001018 0.001067
63254. 1.31030 0.00122(15) 44973664. 0.001018 0.001069
63260. 1.31043 0.00096(13) 59498940. 0.001018 0.001071
63267. 1.31056 0.00109(15) 47101044. 0.001018 0.001073
63273. 1.31069 0.00114(15) 46780468. 0.001018 0.001075
63279. 1.31082 0.00101(13) 56804920. 0.001018 0.001078
63286. 1.31095 0.00103(13) 55821136. 0.001018 0.001080
63292. 1.31108 0.00098(13) 57862756. 0.001018 0.001083
63298. 1.31121 0.00094(13) 57918628. 0.001018 0.001086
63305. 1.31134 0.00110(14) 49078844. 0.001018 0.001089
63311. 1.31148 0.00106(14) 54481296. 0.001018 0.001093
63317. 1.31161 0.00110(14) 50707120. 0.001018 0.001097
63324. 1.31174 0.00119(15) 43521744. 0.001018 0.001101
63330. 1.31187 0.00092(13) 63846796. 0.001017 0.001105
63336. 1.31200 0.00084(12) 69564136. 0.001017 0.001110
63343. 1.31213 0.00090(13) 63977620. 0.001017 0.001115
63349. 1.31226 0.00112(14) 53406656. 0.001017 0.001120
63355. 1.31240 0.00120(15) 47432116. 0.001017 0.001127
63362. 1.31253 0.00101(13) 58759608. 0.001017 0.001133
63368. 1.31266 0.00112(14) 52259932. 0.001017 0.001141
63374. 1.31279 0.00137(16) 40384748. 0.001017 0.001149
63381. 1.31292 0.00113(14) 51402832. 0.001017 0.001158
63387. 1.31305 0.00099(13) 55114148. 0.001017 0.001168
63393. 1.31318 0.00092(13) 63914732. 0.001017 0.001180
63400. 1.31332 0.00102(13) 55095984. 0.001017 0.001193
63406. 1.31345 0.00091(13) 61060816. 0.001017 0.001209
63412. 1.31358 0.00111(14) 51057048. 0.001017 0.001228
63419. 1.31371 0.00131(15) 43129764. 0.001017 0.001253
63425. 1.31384 0.00131(15) 42504316. 0.001017 0.001286
63431. 1.31397 0.00117(14) 51334388. 0.001017 0.001329
63438. 1.31410 0.00130(15) 43043780. 0.001017 0.001390
63444. 1.31423 0.00150(16) 37131660. 0.001017 0.001473
63451. 1.31437 0.00166(18) 32249624. 0.001017 0.001589
63457. 1.31450 0.00150(16) 37145060. 0.001017 0.001749
63463. 1.31463 0.00174(18) 30828464. 0.001017 0.001963
63470. 1.31476 0.00190(19) 29164314. 0.001017 0.002246
63476. 1.31489 0.00221(20) 24180058. 0.001016 0.002609
63482. 1.31502 0.00255(22) 20900996. 0.001016 0.003059
63489. 1.31516 0.00313(24) 17458370. 0.001016 0.003601
63495. 1.31529 0.00418(27) 13351255. 0.001016 0.004228
63501. 1.31542 0.00496(30) 11195943. 0.001016 0.004927
63508. 1.31555 0.00618(34) 8736482. 0.001016 0.005673
63514. 1.31568 0.0073(4) 7198934. 0.00102 0.00643
63520. 1.31581 0.0077(4) 7018516. 0.00102 0.00716
63527. 1.31594 0.0084(4) 6414619. 0.00102 0.00780
63533. 1.31608 0.0089(4) 6234573. 0.00102 0.00831
63539. 1.31621 0.0093(4) 6013018. 0.00102 0.00861
63546. 1.31634 0.0092(4) 5936547. 0.00102 0.00868
63552. 1.31647 0.0083(4) 6786393. 0.00102 0.00849
63559. 1.31660 0.0081(4) 6769970. 0.00102 0.00807
63565. 1.31673 0.0071(4) 7737259. 0.00102 0.00745
63571. 1.31686 0.00622(33) 9016832. 0.001016 0.006697
63578. 1.31700 0.00576(32) 9527278. 0.001016 0.005891
63584. 1.31713 0.00491(30) 11272846. 0.001016 0.005096
63590. 1.31726 0.00469(29) 11594299. 0.001016 0.004362
63597. 1.31739 0.00398(27) 14198789. 0.001016 0.003711
63603. 1.31753 0.00322(24) 17664032. 0.001016 0.003152
63609. 1.31766 0.00265(22) 21151452. 0.001016 0.002698
63616. 1.31779 0.00224(20) 24838426. 0.001016 0.002338
63622. 1.31792 0.00216(20) 25477146. 0.001016 0.002058
63628. 1.31805 0.00218(20) 25435698. 0.001016 0.001846
63635. 1.31818 0.00220(20) 25114910. 0.001015 0.001689
63641. 1.31832 0.00191(19) 28506056. 0.001015 0.001577
63648. 1.31845 0.00168(17) 33551372. 0.001015 0.001496
63654. 1.31858 0.00181(18) 30331142. 0.001015 0.001438
63660. 1.31871 0.00166(18) 32314754. 0.001015 0.001397
63667. 1.31884 0.00144(16) 38588304. 0.001015 0.001380
63673. 1.31898 0.00155(17) 36509432. 0.001015 0.001360
63679. 1.31911 0.00175(18) 31125626. 0.001015 0.001346
63686. 1.31924 0.00140(16) 40197100. 0.001015 0.001337
63692. 1.31937 0.00126(15) 45729968. 0.001015 0.001346
63699. 1.31950 0.00149(17) 36722468. 0.001015 0.001350
63705. 1.31964 0.00134(15) 41628588. 0.001015 0.001361
63711. 1.31977 0.00117(14) 48757768. 0.001015 0.001382
63718. 1.31990 0.00128(16) 41210880. 0.001015 0.001418
63724. 1.32003 0.00132(16) 40184808. 0.001015 0.001473
63730. 1.32016 0.00147(17) 35743320. 0.001015 0.001556
63737. 1.32030 0.00156(17) 33725184. 0.001015 0.001677
63743. 1.32043 0.00169(18) 32436060. 0.001015 0.001845
63750. 1.32056 0.00201(20) 26198020. 0.001015 0.002069
63756. 1.32069 0.00197(19) 27735854. 0.001015 0.002361
63762. 1.32082 0.00240(21) 22050962. 0.001015 0.002727
63769. 1.32095 0.00284(23) 19302000. 0.001015 0.003169
63775. 1.32109 0.00321(24) 17450734. 0.001015 0.003685
63781. 1.32122 0.00372(26) 14941908. 0.001015 0.004256
63788. 1.32135 0.00466(29) 11781644. 0.001015 0.004859
63794. 1.32149 0.00555(32) 9842681. 0.001015 0.005462
63801. 1.32162 0.00589(33) 9331006. 0.001014 0.006023
63807. 1.32175 0.00605(32) 9551445. 0.001014 0.006495
63813. 1.32188 0.0070(4) 7994758. 0.00101 0.00683
63820. 1.32202 0.00639(34) 8722071. 0.001014 0.006993
63826. 1.32215 0.00626(34) 8899584. 0.001014 0.006950
63832. 1.32228 0.00622(33) 9064893. 0.001014 0.006709
63839. 1.32241 0.00592(32) 9489822. 0.001014 0.006279
63845. 1.32254 0.00520(30) 10799943. 0.001014 0.005726
63852. 1.32268 0.00488(30) 11162922. 0.001014 0.005102
63858. 1.32281 0.00418(28) 13205877. 0.001014 0.004463
63864. 1.32294 0.00370(26) 14688246. 0.001014 0.003850
63871. 1.32307 0.00338(25) 16294176. 0.001014 0.003297
63877. 1.32321 0.00319(24) 17208376. 0.001014 0.002820
63884. 1.32334 0.00277(22) 19862072. 0.001014 0.002425
63890. 1.32347 0.00221(20) 25792000. 0.001014 0.002111
63896. 1.32360 0.00206(19) 27604772. 0.001014 0.001868
63903. 1.32374 0.00216(20) 25068800. 0.001014 0.001686
63909. 1.32387 0.00178(18) 31490364. 0.001014 0.001552
63916. 1.32400 0.00166(18) 32064324. 0.001014 0.001456
63922. 1.32413 0.00143(16) 38259992. 0.001014 0.001388
63928. 1.32426 0.00133(15) 42046500. 0.001014 0.001338
63935. 1.32440 0.00141(16) 39880556. 0.001014 0.001303
63941. 1.32453 0.00147(16) 37588812. 0.001014 0.001276
63947. 1.32466 0.00122(15) 46567432. 0.001014 0.001257
63954. 1.32479 0.00136(16) 39586752. 0.001014 0.001241
63960. 1.32493 0.00139(16) 39649704. 0.001014 0.001229
63967. 1.32506 0.00140(16) 38425472. 0.001014 0.001219
63973. 1.32519 0.00133(16) 39956776. 0.001014 0.001210
63979. 1.32532 0.00126(15) 43092460. 0.001014 0.001203
63986. 1.32546 0.00140(16) 37904924. 0.001014 0.001197
63992. 1.32559 0.00132(16) 40493268. 0.001014 0.001192
63999. 1.32572 0.00119(15) 45839036. 0.001013 0.001188
64005. 1.32586 0.00113(14) 48496920. 0.001013 0.001184
64011. 1.32599 0.00102(14) 54023704. 0.001013 0.001181
64018. 1.32612 0.00104(14) 53066720. 0.001013 0.001179
64024. 1.32625 0.00111(14) 49274028. 0.001013 0.001177
64031. 1.32639 0.00119(15) 43783956. 0.001013 0.001176
64037. 1.32652 0.00115(15) 46989876. 0.001013 0.001175
64043. 1.32665 0.00108(14) 51404344. 0.001013 0.001175
64050. 1.32678 0.00105(14) 51926708. 0.001013 0.001175
64056. 1.32692 0.00111(14) 48387912. 0.001013 0.001176
64063. 1.32705 0.00103(14) 54084688. 0.001013 0.001177
64069. 1.32718 0.00106(14) 52550036. 0.001013 0.001178
64075. 1.32731 0.00117(14) 48064796. 0.001013 0.001180
64082. 1.32745 0.00124(15) 46125752. 0.001013 0.001182
64088. 1.32758 0.00122(15) 45740712. 0.001013 0.001184
64095. 1.32771 0.00123(15) 45213116. 0.001013 0.001187
64101. 1.32785 0.00120(14) 47919224. 0.001013 0.001191
64108. 1.32798 0.00115(14) 49841932. 0.001013 0.001195
64114. 1.32811 0.00110(14) 53063132. 0.001013 0.001199
64120. 1.32825 0.00127(16) 41484356. 0.001013 0.001204
64127. 1.32838 0.00113(14) 48985748. 0.001013 0.001209
64133. 1.32851 0.00102(14) 54670308. 0.001013 0.001215
64140. 1.32864 0.00100(13) 55072420. 0.001013 0.001222
64146. 1.32878 0.00110(14) 49285128. 0.001013 0.001229
64152. 1.32891 0.00096(13) 61226048. 0.001013 0.001236
64159. 1.32904 0.00112(14) 52037872. 0.001013 0.001245
64165. 1.32918 0.00129(15) 43591948. 0.001013 0.001259
64172. 1.32931 0.00132(16) 41236288. 0.001013 0.001269
64178. 1.32944 0.00152(17) 33562388. 0.001013 0.001280
64185. 1.32957 0.00134(16) 38641700. 0.001013 0.001293
64191. 1.32971 0.00115(15) 46059964. 0.001013 0.001306
64197. 1.32984 0.00119(15) 44559408. 0.001013 0.001321
64204. 1.32997 0.00131(16) 40939968. 0.001013 0.001337
64210. 1.33011 0.00128(15) 43237916. 0.001013 0.001355
64217. 1.33024 0.00114(14) 47876348. 0.001013 0.001375
64223. 1.33037 0.00098(13) 58111088. 0.001012 0.001397
64229. 1.33050 0.00111(14) 48683780. 0.001012 0.001421
64236. 1.33064 0.00116(15) 46064808. 0.001012 0.001449
64242. 1.33077 0.00133(16) 39923696. 0.001012 0.001480
64249. 1.33090 0.00158(17) 35057192. 0.001012 0.001517
64255. 1.33104 0.00162(17) 34553840. 0.001012 0.001560
64262. 1.33117 0.00152(17) 36378976. 0.001012 0.001613
64268. 1.33130 0.00156(17) 34731436. 0.001012 0.001680
64275. 1.33144 0.00150(17) 34513284. 0.001012 0.001768
64281. 1.33157 0.00147(17) 36346876. 0.001012 0.001887
64287. 1.33170 0.00177(18) 29373200. 0.001012 0.002051
64294. 1.33184 0.00191(19) 27774106. 0.001012 0.002280
64300. 1.33197 0.00202(19) 27306124. 0.001012 0.002593
64307. 1.33210 0.00265(22) 19996548. 0.001012 0.003036
64313. 1.33224 0.00306(24) 18005468. 0.001012 0.003636
64320. 1.33237 0.00383(27) 13942974. 0.001012 0.004424
64326. 1.33250 0.00470(29) 11495499. 0.001012 0.005440
64332. 1.33264 0.00574(32) 9470117. 0.001012 0.006720
64339. 1.33277 0.0072(4) 7563260. 0.00101 0.00827
64345. 1.33290 0.0091(4) 5958900. 0.00101 0.01009
64352. 1.33304 0.0116(5) 4725380. 0.00101 0.01214
64358. 1.33317 0.0144(5) 3738670. 0.00101 0.01436
64365. 1.33330 0.0169(6) 3182798. 0.00101 0.01665
64371. 1.33344 0.0208(6) 2528717. 0.00101 0.01891
64377. 1.33357 0.0226(7) 2362485. 0.00101 0.02102
64384. 1.33370 0.0247(7) 2100593. 0.00101 0.02281
64390. 1.33384 0.0255(7) 2075143. 0.00101 0.02414
64397. 1.33397 0.0261(7) 2001286. 0.00101 0.02490
64403. 1.33410 0.0256(7) 2074508. 0.00101 0.02509
64410. 1.33424 0.0252(7) 2069598. 0.00101 0.02463
64416. 1.33437 0.0230(7) 2323623. 0.00101 0.02362
64423. 1.33451 0.0212(6) 2493283. 0.00101 0.02217
64429. 1.33464 0.0200(6) 2610380. 0.00101 0.02031
64435. 1.33477 0.0176(6) 3073273. 0.00101 0.01818
64442. 1.33491 0.0159(5) 3337257. 0.00101 0.01592
64448. 1.33504 0.0128(5) 4230937. 0.00101 0.01370
64455. 1.33517 0.0112(5) 4815131. 0.00101 0.01161
64461. 1.33531 0.0103(4) 5213774. 0.00101 0.00973
64468. 1.33544 0.0091(4) 5890809. 0.00101 0.00810
64474. 1.33557 0.0083(4) 6492351. 0.00101 0.00674
64480. 1.33571 0.0072(4) 7475951. 0.00101 0.00562
64487. 1.33584 0.00592(33) 9142015. 0.001012 0.004715
64493. 1.33597 0.00517(31) 10420328. 0.001012 0.004008
64500. 1.33611 0.00451(29) 12278968. 0.001012 0.003458
64506. 1.33624 0.00406(27) 13252566. 0.001011 0.003030
64513. 1.33637 0.00352(26) 15240136. 0.001011 0.002697
64519. 1.33651 0.00338(25) 16030641. 0.001011 0.002438
64526. 1.33664 0.00324(24) 17121014. 0.001011 0.002235
64532. 1.33677 0.00321(24) 16790546. 0.001011 0.002072
64539. 1.33691 0.00281(23) 18825222. 0.001011 0.001941
64545. 1.33704 0.00239(21) 22096898. 0.001011 0.001835
64551. 1.33718 0.00207(19) 26658732. 0.001011 0.001748
64558. 1.33731 0.00193(19) 28507840. 0.001011 0.001676
64564. 1.33745 0.00202(20) 25936948. 0.001011 0.001616
64571. 1.33758 0.00177(18) 31339902. 0.001011 0.001566
64577. 1.33771 0.00184(18) 30125728. 0.001011 0.001519
64584. 1.33785 0.00185(18) 30605300. 0.001011 0.001482
64590. 1.33798 0.00197(19) 27054046. 0.001011 0.001451
64597. 1.33811 0.00179(18) 30353440. 0.001011 0.001424
64603. 1.33825 0.00180(18) 29723676. 0.001011 0.001400
64610. 1.33838 0.00196(19) 27270086. 0.001011 0.001379
64616. 1.33852 0.00194(19) 27840308. 0.001011 0.001361
64623. 1.33865 0.00157(17) 36304880. 0.001011 0.001344
64629. 1.33878 0.00136(15) 41930252. 0.001011 0.001330
64635. 1.33892 0.00139(16) 39106028. 0.001011 0.001317
64642. 1.33905 0.00139(16) 38467192. 0.001011 0.001305
64648. 1.33918 0.00138(16) 39135528. 0.001011 0.001295
64655. 1.33932 0.00141(16) 38125796. 0.001011 0.001287
64661. 1.33945 0.00145(17) 36213028. 0.001011 0.001279
64668. 1.33959 0.00139(16) 37146188. 0.001011 0.001272
64674. 1.33972 0.00124(15) 43632908. 0.001011 0.001267
64681. 1.33986 0.00131(16) 40564712. 0.001011 0.001262
64687. 1.33999 0.00113(14) 48086104. 0.001011 0.001259
64694. 1.34012 0.00089(12) 64952584. 0.001011 0.001257
64700. 1.34026 0.00107(14) 51048112. 0.001011 0.001256
64707. 1.34039 0.00122(15) 45038120. 0.001011 0.001256
64713. 1.34053 0.00146(16) 37295096. 0.001011 0.001258
64720. 1.34066 0.00147(16) 36815456. 0.001011 0.001262
64726. 1.34079 0.00134(15) 41656756. 0.001011 0.001269
64733. 1.34093 0.00152(17) 34628544. 0.001011 0.001281
64739. 1.34106 0.00142(16) 37016756. 0.001011 0.001298
64745. 1.34120 0.00126(15) 42317136. 0.001011 0.001324
64752. 1.34133 0.00126(15) 43865672. 0.001011 0.001362
64758. 1.34147 0.00133(16) 40912588. 0.001011 0.001418
64765. 1.34160 0.00154(17) 33751684. 0.001011 0.001498
64771. 1.34173 0.00151(17) 36075488. 0.001011 0.001608
64778. 1.34187 0.00169(18) 31701428. 0.001011 0.001758
64784. 1.34200 0.00197(19) 27074474. 0.001011 0.001953
64791. 1.34213 0.00223(20) 23915746. 0.001011 0.002204
64797. 1.34227 0.00264(23) 19638012. 0.001011 0.002510
64804. 1.34240 0.00274(23) 19414446. 0.001011 0.002872
64810. 1.34254 0.00321(25) 16479157. 0.001011 0.003281
64817. 1.34267 0.00397(27) 13304833. 0.001011 0.003723
64823. 1.34281 0.00414(28) 13143055. 0.001011 0.004178
64830. 1.34294 0.00465(30) 11230753. 0.001011 0.004616
64836. 1.34308 0.00516(31) 10341677. 0.001011 0.005010
64843. 1.34321 0.00584(33) 9106126. 0.001011 0.005327
64849. 1.34335 0.00605(34) 8702167. 0.001011 0.005530
64856. 1.34348 0.00564(33) 9425983. 0.001011 0.005589
64862. 1.34361 0.00525(31) 10257034. 0.001011 0.005490
64869. 1.34375 0.00484(30) 11365318. 0.001011 0.005256
64875. 1.34388 0.00444(28) 12375028. 0.001011 0.004887
64882. 1.34402 0.00425(28) 12584252. 0.001011 0.004444
64888. 1.34415 0.00381(26) 14515557. 0.001011 0.003968
64895. 1.34429 0.00354(26) 15233904. 0.001011 0.003492
64901. 1.34442 0.00329(25) 16306117. 0.001011 0.003048
64908. 1.34456 0.00302(24) 17793208. 0.001011 0.002654
64914. 1.34469 0.00265(22) 20168150. 0.001011 0.002319
64921. 1.34482 0.00216(20) 25407892. 0.001011 0.002045
64927. 1.34496 0.00222(21) 23511498. 0.001011 0.001829
64934. 1.34509 0.00222(21) 22932524. 0.001011 0.001665
64940. 1.34523 0.00195(19) 27435216. 0.001011 0.001542
64946. 1.34536 0.00180(18) 29657098. 0.001011 0.001452
64953. 1.34550 0.00178(18) 29502914. 0.001011 0.001387
64960. 1.34563 0.00171(18) 30870508. 0.001011 0.001342
64966. 1.34577 0.00149(17) 35786412. 0.001011 0.001310
64973. 1.34590 0.00112(14) 50371076. 0.001011 0.001288
64979. 1.34604 0.00114(15) 47423492. 0.001011 0.001273
64986. 1.34617 0.00135(16) 38965960. 0.001011 0.001264
64992. 1.34630 0.00128(15) 43647740. 0.001010 0.001257
64998. 1.34644 0.00124(15) 44402800. 0.001010 0.001254
65005. 1.34657 0.00126(15) 43017596. 0.001010 0.001254
65012. 1.34671 0.00141(16) 37730944. 0.001010 0.001257
65018. 1.34684 0.00143(16) 38667400. 0.001010 0.001264
65025. 1.34698 0.00126(15) 43907164. 0.001010 0.001275
65031. 1.34711 0.00119(15) 44917628. 0.001010 0.001294
65038. 1.34725 0.00134(16) 39102648. 0.001010 0.001321
65044. 1.34738 0.00168(18) 31330282. 0.001010 0.001363
65051. 1.34752 0.00196(19) 26401980. 0.001010 0.001426
65057. 1.34765 0.00164(17) 32702592. 0.001010 0.001515
65064. 1.34779 0.00160(18) 32649282. 0.001010 0.001641
65070. 1.34792 0.00187(19) 28702922. 0.001010 0.001815
65077. 1.34806 0.00216(20) 24659912. 0.001010 0.002046
65083. 1.34819 0.00240(21) 22199462. 0.001010 0.002347
65090. 1.34833 0.00264(23) 19739814. 0.001010 0.002721
65096. 1.34846 0.00299(24) 17391462. 0.001010 0.003165
65103. 1.34860 0.00352(26) 15075824. 0.001010 0.003685
65109. 1.34873 0.00428(28) 12538858. 0.001010 0.004261
65116. 1.34887 0.00534(32) 9887445. 0.001010 0.004863
65122. 1.34900 0.00610(34) 8635401. 0.001010 0.005463
65129. 1.34914 0.00627(34) 8511857. 0.001010 0.006022
65135. 1.34927 0.0070(4) 7581197. 0.00101 0.00650
65142. 1.34941 0.0076(4) 6991504. 0.00101 0.00684
65148. 1.34954 0.0077(4) 6947372. 0.00101 0.00700
65155. 1.34968 0.0075(4) 7073423. 0.00101 0.00696
65161. 1.34981 0.0073(4) 7083301. 0.00101 0.00673
65168. 1.34995 0.00595(34) 8861431. 0.001010 0.006304
65174. 1.35008 0.00501(31) 10636136. 0.001010 0.005746
65181. 1.35022 0.00500(31) 10578253. 0.001010 0.005115
65187. 1.35035 0.00437(29) 11875967. 0.001010 0.004468
65194. 1.35049 0.00358(26) 15130050. 0.001010 0.003855
65200. 1.35062 0.00365(26) 14624734. 0.001010 0.003301
65207. 1.35076 0.00329(25) 15978158. 0.001010 0.002821
65213. 1.35089 0.00270(22) 20162156. 0.001010 0.002420
65220. 1.35103 0.00256(22) 21219628. 0.001010 0.002098
65226. 1.35116 0.00242(21) 21946898. 0.001010 0.001851
65233. 1.35130 0.00218(20) 24240912. 0.001010 0.001643
65240. 1.35143 0.00206(20) 24620028. 0.001010 0.001505
65246. 1.35157 0.00176(18) 30514184. 0.001010 0.001405
65253. 1.35170 0.00161(17) 33606596. 0.001010 0.001332
65259. 1.35184 0.00172(18) 30388760. 0.001010 0.001280
65266. 1.35197 0.00170(18) 31862576. 0.001010 0.001241
65272. 1.35211 0.00156(17) 34621628. 0.001010 0.001212
65279. 1.35224 0.00140(16) 38356012. 0.001010 0.001190
65285. 1.35238 0.00138(16) 39422228. 0.001010 0.001173
65292. 1.35252 0.00151(17) 34182296. 0.001010 0.001158
65298. 1.35265 0.00131(16) 40475148. 0.001010 0.001146
65305. 1.35279 0.00106(14) 52008232. 0.001010 0.001136
65311. 1.35292 0.00100(14) 54558596. 0.001010 0.001126
65318. 1.35306 0.00096(13) 55648396. 0.001010 0.001118
65324. 1.35319 0.00092(13) 59190972. 0.001010 0.001111
65331. 1.35333 0.00110(14) 49630740. 0.001010 0.001104
65337. 1.35346 0.00120(15) 45883528. 0.001010 0.001098
65344. 1.35360 0.00105(14) 51702904. 0.001010 0.001093
65350. 1.35373 0.00103(14) 51217028. 0.001010 0.001088
65357. 1.35387 0.00105(14) 50381980. 0.001010 0.001084
65364. 1.35400 0.00105(14) 50605564. 0.001010 0.001079
65370. 1.35414 0.00101(14) 51418040. 0.001010 0.001076
65377. 1.35428 0.00087(13) 61356436. 0.001010 0.001072
65383. 1.35441 0.00099(13) 55186708. 0.001010 0.001069
65390. 1.35455 0.00111(14) 48652068. 0.001010 0.001066
65396. 1.35468 0.00107(14) 49210912. 0.001010 0.001064
65403. 1.35482 0.00116(15) 44041168. 0.001010 0.001061
65409. 1.35495 0.00115(15) 46089464. 0.001010 0.001059
65416. 1.35509 0.00116(15) 46969428. 0.001010 0.001056
65422. 1.35522 0.00118(15) 44875160. 0.001010 0.001054
65429. 1.35536 0.00116(15) 46622052. 0.001010 0.001053
65436. 1.35550 0.00112(15) 47529348. 0.001010 0.001051
65442. 1.35563 0.00109(14) 48503468. 0.001010 0.001049
65449. 1.35577 0.00116(15) 42960484. 0.001010 0.001048
65455. 1.35590 0.00096(14) 53962696. 0.001010 0.001046
65462. 1.35604 0.00082(12) 67285344. 0.001010 0.001045
65468. 1.35617 0.00092(14) 54852908. 0.001010 0.001044
65475. 1.35631 0.00086(13) 62809552. 0.001010 0.001042
65481. 1.35644 0.00093(13) 60205028. 0.001010 0.001041
65488. 1.35658 0.00100(14) 53727924. 0.001010 0.001040
65494. 1.35672 0.00093(13) 59122356. 0.001010 0.001039
65501. 1.35685 0.00112(15) 47036028. 0.001010 0.001038
65508. 1.35699 0.00121(15) 43638736. 0.001010 0.001037
65514. 1.35712 0.00106(14) 52727612. 0.001010 0.001036
65521. 1.35726 0.00107(14) 50093764. 0.001010 0.001035
65527. 1.35740 0.00104(14) 49002204. 0.001010 0.001035
65534. 1.35753 0.00090(13) 58494756. 0.001010 0.001034
65540. 1.35767 0.00085(13) 61336532. 0.001010 0.001033
65547. 1.35780 0.00080(12) 68695016. 0.001010 0.001028
65553. 1.35794 0.00101(14) 52117356. 0.001010 0.001027
65560. 1.35807 0.00097(13) 55435660. 0.001010 0.001027
65567. 1.35821 0.00089(13) 57856496. 0.001010 0.001026
65573. 1.35834 0.00102(14) 50384856. 0.001010 0.001026
65580. 1.35848 0.00108(14) 48848560. 0.001010 0.001025
65586. 1.35862 0.00102(14) 52935988. 0.001010 0.001025
65593. 1.35875 0.00109(14) 49856384. 0.001010 0.001025
65599. 1.35889 0.00118(15) 43531828. 0.001010 0.001024
65606. 1.35902 0.00121(15) 41831860. 0.001010 0.001024
65612. 1.35916 0.00096(13) 57382224. 0.001010 0.001023
65619. 1.35930 0.00120(15) 41905652. 0.001010 0.001023
65626. 1.35943 0.00117(15) 45157352. 0.001010 0.001023
65632. 1.35957 0.00105(14) 50174124. 0.001010 0.001022
65639. 1.35971 0.00101(14) 53046512. 0.001010 0.001022
65645. 1.35984 0.00097(13) 57704496. 0.001010 0.001022
65652. 1.35998 0.00103(14) 51168116. 0.001010 0.001021
65658. 1.36011 0.00106(14) 48419452. 0.001010 0.001021
65665. 1.36025 0.00100(14) 53080140. 0.001010 0.001021
65672. 1.36039 0.00091(13) 58543572. 0.001010 0.001021
65678. 1.36052 0.00087(13) 58488764. 0.001010 0.001020
65685. 1.36066 0.00096(14) 53310164. 0.001010 0.001020
65691. 1.36079 0.00112(15) 45856772. 0.001010 0.001020
65698. 1.36093 0.00104(14) 51125608. 0.001011 0.001020
65704. 1.36107 0.00100(14) 52072264. 0.001011 0.001020
65711. 1.36120 0.00096(13) 55105684. 0.001011 0.001019
65718. 1.36134 0.00090(13) 59037000. 0.001011 0.001019
65724. 1.36148 0.00090(13) 57592380. 0.001011 0.001019
65731. 1.36161 0.00093(13) 58440384. 0.001011 0.001019
65737. 1.36175 0.00095(13) 61093180. 0.001011 0.001019
65744. 1.36188 0.00109(14) 50089664. 0.001011 0.001018
65750. 1.36202 0.00115(15) 46804692. 0.001011 0.001018
65757. 1.36216 0.00105(14) 51940636. 0.001011 0.001018
65764. 1.36229 0.00094(13) 56803312. 0.001011 0.001018
65770. 1.36243 0.00085(13) 63247652. 0.001011 0.001018
65777. 1.36257 0.00103(14) 51666748. 0.001011 0.001018
65783. 1.36270 0.00120(15) 42756840. 0.001011 0.001018
65790. 1.36284 0.00100(14) 53718464. 0.001011 0.001017
65796. 1.36297 0.00090(13) 59980228. 0.001011 0.001017
65803. 1.36311 0.00085(13) 62846392. 0.001011 0.001017
65810. 1.36325 0.00098(14) 53199996. 0.001011 0.001017
65816. 1.36338 0.00116(15) 44282436. 0.001011 0.001017
65823. 1.36352 0.00108(14) 50110988. 0.001011 0.001017
65829. 1.36366 0.00104(14) 52584844. 0.001011 0.001017
65836. 1.36379 0.00109(15) 47505208. 0.001011 0.001017
65843. 1.36393 0.00112(15) 44775088. 0.001011 0.001011
65849. 1.36407 0.00102(14) 53173748. 0.001011 0.001011
65856. 1.36420 0.00106(14) 51496324. 0.001011 0.001011
65862. 1.36434 0.00100(14) 51026080. 0.001011 0.001011
65869. 1.36447 0.00089(13) 57056264. 0.001011 0.001011
65875. 1.36461 0.00090(13) 57846492. 0.001011 0.001011
65882. 1.36475 0.00089(13) 60406608. 0.001011 0.001011
65889. 1.36488 0.00096(14) 54428176. 0.001011 0.001011
65895. 1.36502 0.00091(13) 58057152. 0.001011 0.001011
65902. 1.36516 0.00088(13) 58954564. 0.001011 0.001011
65908. 1.36529 0.00096(14) 53999820. 0.001011 0.001011
65915. 1.36543 0.00108(14) 48850344. 0.001011 0.001011
65922. 1.36557 0.00115(15) 44807764. 0.001011 0.001011
65928. 1.36570 0.00105(14) 48952952. 0.001011 0.001011
65935. 1.36584 0.00095(14) 54202984. 0.001011 0.001011
65941. 1.36598 0.00091(13) 58650904. 0.001011 0.001011
65948. 1.36611 0.00099(14) 54100816. 0.001011 0.001011
65955. 1.36625 0.00108(14) 48838660. 0.001011 0.001011
65961. 1.36639 0.00111(14) 49053148. 0.001011 0.001011
65968. 1.36652 0.00123(15) 42353428. 0.001011 0.001011
65974. 1.36666 0.00118(15) 44814100. 0.001011 0.001011
65981. 1.36680 0.00110(15) 47344672. 0.001011 0.001011
65988. 1.36693 0.00087(13) 60742008. 0.001011 0.001011
65994. 1.36707 0.00097(14) 51633744. 0.001011 0.001011
66001. 1.36721 0.00093(13) 56573448. 0.001011 0.001011
66007. 1.36734 0.00097(13) 55580920. 0.001011 0.001011
66014. 1.36748 0.00099(14) 54243824. 0.001011 0.001011
66021. 1.36762 0.00098(14) 52340604. 0.001011 0.001011
66027. 1.36775 0.00103(14) 50766796. 0.001011 0.001011
66034. 1.36789 0.00102(14) 52903464. 0.001011 0.001011
66040. 1.36803 0.00130(16) 38123636. 0.001011 0.001011
66047. 1.36817 0.00121(15) 43137864. 0.001011 0.001011
66054. 1.36830 0.00108(14) 49896240. 0.001011 0.001011
66060. 1.36844 0.00110(14) 48021120. 0.001011 0.001011
66067. 1.36858 0.00103(14) 52274368. 0.001011 0.001011
66073. 1.36871 0.00112(15) 46797872. 0.001011 0.001011
66080. 1.36885 0.00124(16) 38359464. 0.001011 0.001011
66087. 1.36899 0.00110(15) 45160624. 0.001011 0.001011
66093. 1.36912 0.00101(14) 51815252. 0.001011 0.001011
66100. 1.36926 0.00084(13) 63938700. 0.001011 0.001011
66106. 1.36940 0.00087(13) 62278008. 0.001011 0.001011
66113. 1.36954 0.00101(14) 52400920. 0.001011 0.001011
66120. 1.36967 0.00100(14) 51219652. 0.001011 0.001011
66126. 1.36981 0.00098(14) 54613608. 0.001011 0.001011
66133. 1.36995 0.00099(13) 56616624. 0.001011 0.001011
66140. 1.37008 0.00102(14) 51354616. 0.001011 0.001011
66146. 1.37022 0.00105(14) 48186240. 0.001011 0.001011
66153. 1.37036 0.00110(15) 45444524. 0.001011 0.001011
66159. 1.37049 0.00113(15) 44833716. 0.001011 0.001011
66166. 1.37063 0.00103(14) 49754196. 0.001011 0.001011
66173. 1.37077 0.00101(14) 49467964. 0.001011 0.001011
66179. 1.37091 0.00105(14) 48222160. 0.001011 0.001011
66186. 1.37104 0.00101(14) 51307020. 0.001011 0.001011
66192. 1.37118 0.00114(15) 43434104. 0.001011 0.001011
66199. 1.37132 0.00109(15) 47062192. 0.001011 0.001011
66206. 1.37145 0.00096(14) 53692464. 0.001011 0.001011
66212. 1.37159 0.00100(14) 51873736. 0.001011 0.001011
66219. 1.37173 0.00102(14) 52731988. 0.001012 0.001012
66226. 1.37187 0.00098(14) 51318824. 0.001012 0.001012
66232. 1.37200 0.00090(13) 59627740. 0.001012 0.001012
66239. 1.37214 0.00109(14) 49505276. 0.001012 0.001012
66245. 1.37228 0.00117(15) 46549464. 0.001012 0.001012
66252. 1.37241 0.00123(15) 43778248. 0.001012 0.001012
66259. 1.37255 0.00122(15) 43783876. 0.001012 0.001012
66265. 1.37269 0.00110(14) 48205100. 0.001012 0.001012
66272. 1.37283 0.00100(14) 51325556. 0.001012 0.001012
66279. 1.37296 0.00101(14) 50834520. 0.001012 0.001012
66285. 1.37310 0.00095(13) 56803456. 0.001012 0.001012
66292. 1.37324 0.00088(13) 60834928. 0.001012 0.001012
66298. 1.37337 0.00085(12) 64824224. 0.001012 0.001012
66305. 1.37351 0.00084(12) 64518380. 0.001012 0.001012
66312. 1.37365 0.00087(13) 61036276. 0.001012 0.001012
66318. 1.37379 0.00093(13) 55601392. 0.001012 0.001012
66325. 1.37393 0.00097(14) 52618104. 0.001012 0.001012
66332. 1.37406 0.00106(14) 49018452. 0.001012 0.001012
66338. 1.37420 0.00114(15) 47080432. 0.001012 0.001012
66345. 1.37434 0.00103(14) 53059832. 0.001012 0.001012
66352. 1.37448 0.00087(13) 62917392. 0.001012 0.001012
66358. 1.37461 0.00093(13) 56354600. 0.001012 0.001012
66365. 1.37475 0.00105(14) 49585792. 0.001012 0.001012
66371. 1.37489 0.00113(15) 46112836. 0.001012 0.001012
66378. 1.37503 0.00119(15) 42307880. 0.001012 0.001012
66385. 1.37516 0.00120(15) 42657208. 0.001012 0.001012
66391. 1.37530 0.00115(15) 45002512. 0.001012 0.001012
66398. 1.37544 0.00106(14) 48740696. 0.001012 0.001012
66405. 1.37558 0.00099(14) 52097704. 0.001012 0.001012
66411. 1.37571 0.00088(13) 59419568. 0.001012 0.001012
66418. 1.37585 0.00088(13) 58638544. 0.001012 0.001012
66425. 1.37599 0.00089(14) 54102568. 0.001012 0.001012
66431. 1.37613 0.00090(13) 57066200. 0.001012 0.001012
66438. 1.37627 0.00102(14) 52826744. 0.001012 0.001012
66445. 1.37640 0.00110(15) 47034132. 0.001012 0.001012
66451. 1.37654 0.00114(15) 44909660. 0.001012 0.001012
66458. 1.37668 0.00103(14) 50474828. 0.001012 0.001012
66464. 1.37681 0.00097(14) 54766260. 0.001012 0.001012
66471. 1.37695 0.00105(14) 49138328. 0.001012 0.001012
66478. 1.37709 0.00097(14) 53653848. 0.001012 0.001012
66484. 1.37723 0.00099(14) 51552084. 0.001012 0.001012
66491. 1.37737 0.00102(14) 50402928. 0.001012 0.001012
66498. 1.37750 0.00094(14) 54029592. 0.001012 0.001012
66504. 1.37764 0.00097(14) 50634864. 0.001012 0.001012
66511. 1.37778 0.00097(14) 52595176. 0.001012 0.001012
66518. 1.37792 0.00094(13) 55681492. 0.001012 0.001012
66524. 1.37806 0.00110(15) 45414208. 0.001012 0.001012
66531. 1.37819 0.00113(15) 44370640. 0.001012 0.001012
66538. 1.37833 0.00096(13) 55598984. 0.001013 0.001013
66544. 1.37847 0.00097(14) 53369652. 0.001013 0.001013
66551. 1.37861 0.00091(13) 54944288. 0.001013 0.001013
66558. 1.37874 0.00109(15) 47360864. 0.001013 0.001013
66564. 1.37888 0.00131(16) 38376420. 0.001013 0.001013
66571. 1.37902 0.00127(16) 39008552. 0.001013 0.001013
66578. 1.37916 0.00131(16) 38616644. 0.001013 0.001013
66584. 1.37930 0.00133(16) 36796168. 0.001013 0.001013
66591. 1.37944 0.00110(15) 44805492. 0.001013 0.001013
66598. 1.37957 0.00091(13) 57434284. 0.001013 0.001013
66604. 1.37971 0.00091(13) 60198268. 0.001013 0.001013
66611. 1.37985 0.00111(15) 44771380. 0.001013 0.001038
66618. 1.37999 0.00113(15) 43413136. 0.001013 0.001038
66624. 1.38012 0.00115(15) 43865176. 0.001013 0.001039
66631. 1.38026 0.00115(15) 42789452. 0.001013 0.001039
66638. 1.38040 0.00108(15) 45588836. 0.001013 0.001040
66644. 1.38054 0.00096(14) 53069284. 0.001013 0.001040
66651. 1.38068 0.00095(14) 54509192. 0.001013 0.001041
66658. 1.38082 0.00096(14) 53995988. 0.001013 0.001041
66664. 1.38095 0.00083(13) 62429672. 0.001013 0.001042
66671. 1.38109 0.00084(13) 59632564. 0.001013 0.001043
66678. 1.38123 0.00085(13) 60395060. 0.001013 0.001043
66684. 1.38137 0.00091(13) 56053980. 0.001013 0.001044
66691. 1.38151 0.00108(15) 45842888. 0.001013 0.001044
66698. 1.38164 0.00104(14) 47998384. 0.001013 0.001045
66704. 1.38178 0.00088(13) 58907600. 0.001013 0.001046
66711. 1.38192 0.00090(13) 60527872. 0.001013 0.001046
66718. 1.38206 0.00119(15) 42741044. 0.001013 0.001047
66724. 1.38220 0.00108(14) 48190564. 0.001013 0.001048
66731. 1.38234 0.00110(15) 46801728. 0.001013 0.001049
66738. 1.38247 0.00118(15) 44131760. 0.001013 0.001049
66744. 1.38261 0.00109(15) 47542952. 0.001013 0.001050
66751. 1.38275 0.00096(14) 52797300. 0.001013 0.001051
66758. 1.38289 0.00095(14) 52327708. 0.001013 0.001052
66764. 1.38303 0.00100(14) 50702996. 0.001013 0.001053
66771. 1.38317 0.00112(15) 43413540. 0.001013 0.001054
66778. 1.38330 0.00109(15) 45516232. 0.001013 0.001055
66784. 1.38344 0.00112(15) 45856844. 0.001013 0.001056
66791. 1.38358 0.00111(15) 44810608. 0.001013 0.001057
66798. 1.38372 0.00079(12) 69731072. 0.001013 0.001058
66804. 1.38386 0.00089(13) 56721660. 0.001014 0.001059
66811. 1.38400 0.00083(13) 62254012. 0.001014 0.001060
66818. 1.38414 0.00090(14) 54850016. 0.001014 0.001061
66824. 1.38427 0.00100(14) 51771968. 0.001014 0.001062
66831. 1.38441 0.00098(14) 54645488. 0.001014 0.001063
66838. 1.38455 0.00098(14) 53070524. 0.001014 0.001065
66844. 1.38469 0.00100(14) 49766784. 0.001014 0.001066
66851. 1.38483 0.00093(14) 52502312. 0.001014 0.001067
66858. 1.38497 0.00097(14) 49385968. 0.001014 0.001069
66864. 1.38510 0.00101(14) 52962396. 0.001014 0.001070
66871. 1.38524 0.00122(15) 42740772. 0.001014 0.001072
66878. 1.38538 0.00123(15) 42366988. 0.001014 0.001073
66885. 1.38552 0.00113(15) 45062568. 0.001014 0.001075
66891. 1.38566 0.00097(14) 52538612. 0.001014 0.001077
66898. 1.38580 0.00096(14) 54480420. 0.001014 0.001079
66905. 1.38594 0.00105(14) 49179992. 0.001014 0.001081
66911. 1.38607 0.00114(15) 44651896. 0.001014 0.001083
66918. 1.38621 0.00112(15) 45825312. 0.001014 0.001085
66925. 1.38635 0.00104(14) 52062496. 0.001014 0.001087
66931. 1.38649 0.00122(16) 40488308. 0.001014 0.001089
66938. 1.38663 0.00112(15) 42858844. 0.001014 0.001092
66945. 1.38677 0.00096(14) 52069556. 0.001014 0.001094
66952. 1.38691 0.00116(15) 42805784. 0.001014 0.001097
66958. 1.38705 0.00128(16) 39002684. 0.001014 0.001099
66965. 1.38719 0.00110(15) 44957464. 0.001014 0.001102
66972. 1.38732 0.00089(13) 56798944. 0.001014 0.001105
66978. 1.38746 0.00087(13) 56925468. 0.001014 0.001108
66985. 1.38760 0.00087(13) 56158116. 0.001014 0.001112
66992. 1.38774 0.00105(14) 48993388. 0.001014 0.001115
66998. 1.38788 0.00109(14) 47936780. 0.001014 0.001119
67005. 1.38802 0.00109(15) 47317344. 0.001014 0.001123
67012. 1.38816 0.00119(15) 41863016. 0.001014 0.001127
67018. 1.38829 0.00103(14) 50525620. 0.001014 0.001131
67025. 1.38843 0.00113(15) 43070792. 0.001014 0.001136
67032. 1.38857 0.00110(15) 46184352. 0.001015 0.001141
67039. 1.38871 0.00107(15) 47167916. 0.001015 0.001146
67045. 1.38885 0.00112(15) 45418208. 0.001015 0.001151
67052. 1.38899 0.00113(15) 46317320. 0.001015 0.001157
67059. 1.38913 0.00120(15) 42674020. 0.001015 0.001163
67065. 1.38927 0.00127(16) 40544904. 0.001015 0.001170
67072. 1.38941 0.00122(16) 41052388. 0.001015 0.001177
67079. 1.38955 0.00125(16) 39024288. 0.001015 0.001184
67086. 1.38968 0.00116(15) 43251460. 0.001015 0.001192
67092. 1.38982 0.00094(14) 53660772. 0.001015 0.001201
67099. 1.38996 0.00100(14) 47643956. 0.001015 0.001210
67106. 1.39010 0.00102(14) 48208532. 0.001015 0.001220
67112. 1.39024 0.00089(13) 58355304. 0.001015 0.001231
67119. 1.39038 0.00094(14) 52987680. 0.001015 0.001242
67126. 1.39052 0.00101(14) 51366808. 0.001015 0.001255
67133. 1.39066 0.00101(14) 51525528. 0.001015 0.001268
67139. 1.39080 0.00112(15) 43398240. 0.001015 0.001283
67146. 1.39094 0.00110(15) 44466628. 0.001015 0.001299
67153. 1.39107 0.00110(15) 45924432. 0.001015 0.001317
67159. 1.39122 0.00107(14) 47797324. 0.001015 0.001336
67166. 1.39135 0.00112(15) 46854164. 0.001015 0.001357
67173. 1.39149 0.00121(15) 45716632. 0.001015 0.001380
67180. 1.39163 0.00137(17) 36546508. 0.001015 0.001405
67186. 1.39177 0.00127(16) 38624620. 0.001015 0.001433
67193. 1.39191 0.00132(16) 36777576. 0.001015 0.001465
67200. 1.39205 0.00136(17) 36695948. 0.001015 0.001501
67206. 1.39219 0.00135(16) 36928840. 0.001015 0.001543
67213. 1.39233 0.00130(16) 37186848. 0.001015 0.001591
67220. 1.39247 0.00123(16) 40398060. 0.001015 0.001651
67227. 1.39261 0.00125(16) 39937160. 0.001015 0.001725
67233. 1.39275 0.00122(16) 40388876. 0.001015 0.001821
67240. 1.39289 0.00124(16) 39108504. 0.001015 0.001949
67247. 1.39302 0.00134(16) 36755268. 0.001016 0.002127
67254. 1.39316 0.00152(18) 31477760. 0.001016 0.002376
67260. 1.39330 0.00181(19) 26338524. 0.001016 0.002720
67267. 1.39344 0.00228(22) 21313006. 0.001016 0.003200
67274. 1.39358 0.00295(25) 15883563. 0.001016 0.003857
67280. 1.39372 0.00379(28) 12418711. 0.001016 0.004728
67287. 1.39386 0.00479(32) 10039137. 0.001016 0.005859
67294. 1.39400 0.0063(4) 7775118. 0.00102 0.00730
67301. 1.39414 0.0078(4) 6312236. 0.00102 0.00905
67307. 1.39428 0.0104(5) 4643297. 0.00102 0.01111
67314. 1.39442 0.0136(5) 3620190. 0.00102 0.01345
67321. 1.39456 0.0174(6) 2763615. 0.00102 0.01599
67328. 1.39470 0.0203(6) 2388436. 0.00102 0.01861
67334. 1.39484 0.0243(7) 1926508. 0.00102 0.02116
67341. 1.39498 0.0262(7) 1842975. 0.00102 0.02348
67348. 1.39512 0.0286(8) 1665847. 0.00102 0.02539
67354. 1.39526 0.0298(8) 1643706. 0.00102 0.02674
67361. 1.39540 0.0319(8) 1490345. 0.00102 0.02720
67368. 1.39554 0.0295(8) 1634341. 0.00102 0.02675
67375. 1.39568 0.0269(8) 1776668. 0.00102 0.02542
67381. 1.39582 0.0238(7) 2030676. 0.00102 0.02337
67388. 1.39596 0.0209(7) 2262576. 0.00102 0.02087
67395. 1.39609 0.0176(6) 2818076. 0.00102 0.01815
67402. 1.39623 0.0162(6) 3021939. 0.00102 0.01540
67408. 1.39637 0.0136(5) 3653152. 0.00102 0.01280
67415. 1.39651 0.0119(5) 4145596. 0.00102 0.01048
67422. 1.39665 0.0099(4) 5035522. 0.00102 0.00849
67429. 1.39679 0.0080(4) 6184153. 0.00102 0.00685
67435. 1.39693 0.0069(4) 7184227. 0.00102 0.00553
67442. 1.39707 0.00600(35) 8268628. 0.001017 0.004509
67449. 1.39721 0.00509(32) 9733501. 0.001017 0.003741
67456. 1.39735 0.00430(30) 11427936. 0.001017 0.003167
67462. 1.39749 0.00373(28) 12968276. 0.001017 0.002744
67469. 1.39763 0.00358(27) 13357415. 0.001017 0.002439
67476. 1.39777 0.00309(25) 16007277. 0.001017 0.002216
67483. 1.39791 0.00258(23) 19168300. 0.001017 0.002052
67489. 1.39805 0.00212(21) 22949032. 0.001017 0.001928
67496. 1.39819 0.00198(20) 24662300. 0.001017 0.001831
67503. 1.39833 0.00203(20) 24284060. 0.001017 0.001753
67510. 1.39847 0.00195(20) 25831718. 0.001017 0.001688
67516. 1.39861 0.00171(18) 29533850. 0.001017 0.001633
67523. 1.39875 0.00152(17) 32724504. 0.001017 0.001586
67530. 1.39889 0.00150(18) 32605014. 0.001017 0.001545
67537. 1.39903 0.00150(18) 31808478. 0.001017 0.001509
67543. 1.39917 0.00139(17) 35128372. 0.001017 0.001477
67550. 1.39931 0.00152(18) 31283966. 0.001017 0.001448
67557. 1.39945 0.00139(16) 38095040. 0.001017 0.001422
67564. 1.39959 0.00131(16) 40672704. 0.001017 0.001398
67570. 1.39973 0.00140(17) 36222240. 0.001017 0.001377
67577. 1.39987 0.00135(16) 37726392. 0.001017 0.001358
67584. 1.40001 0.00130(16) 38987964. 0.001017 0.001341
67591. 1.40015 0.00134(16) 36967736. 0.001017 0.001325
67597. 1.40029 0.00137(17) 35999376. 0.001017 0.001311
67604. 1.40043 0.00143(17) 35075260. 0.001017 0.001298
67611. 1.40057 0.00142(17) 35898132. 0.001017 0.001286
67618. 1.40071 0.00131(16) 37421452. 0.001017 0.001275
67624. 1.40085 0.00118(16) 41009436. 0.001017 0.001265
67631. 1.40099 0.00118(16) 41352164. 0.001018 0.001256
67638. 1.40113 0.00115(15) 41820556. 0.001018 0.001248
67645. 1.40127 0.00112(15) 44832404. 0.001018 0.001241
67652. 1.40141 0.00124(16) 39600556. 0.001018 0.001234
67658. 1.40155 0.00118(15) 41797672. 0.001018 0.001228
67665. 1.40169 0.00114(15) 44905616. 0.001018 0.001222
67672. 1.40183 0.00116(15) 45082152. 0.001018 0.001217
67679. 1.40197 0.00121(16) 39928780. 0.001018 0.001213
67685. 1.40211 0.00108(15) 47232716. 0.001018 0.001209
67692. 1.40225 0.00116(15) 44809928. 0.001018 0.001205
67699. 1.40239 0.00130(16) 37233168. 0.001018 0.001202
67706. 1.40253 0.00121(16) 39601472. 0.001018 0.001200
67712. 1.40267 0.00109(15) 45174952. 0.001018 0.001198
67719. 1.40281 0.00111(15) 43113432. 0.001018 0.001196
67726. 1.40295 0.00120(16) 40429860. 0.001018 0.001194
67733. 1.40309 0.00129(16) 37136808. 0.001018 0.001194
67740. 1.40324 0.00123(16) 37702068. 0.001018 0.001193
67746. 1.40338 0.00125(16) 37594696. 0.001018 0.001193
67753. 1.40352 0.00119(15) 42058272. 0.001018 0.001193
67760. 1.40366 0.00112(15) 42553284. 0.001018 0.001194
67767. 1.40380 0.00100(14) 49148652. 0.001018 0.001195
67773. 1.40394 0.00103(14) 47704216. 0.001018 0.001197
67780. 1.40408 0.00110(15) 43862904. 0.001018 0.001199
67787. 1.40422 0.00111(15) 43927620. 0.001018 0.001202
67794. 1.40436 0.00112(15) 41650636. 0.001018 0.001205
67801. 1.40450 0.00108(15) 45811184. 0.001018 0.001209
67807. 1.40464 0.00127(16) 39528800. 0.001018 0.001213
67814. 1.40478 0.00126(16) 39975900. 0.001019 0.001219
67821. 1.40492 0.00102(14) 51543512. 0.001019 0.001225
67828. 1.40506 0.00107(15) 45682872. 0.001019 0.001232
67834. 1.40520 0.00109(15) 44002064. 0.001019 0.001239
67841. 1.40534 0.00115(15) 41985640. 0.001019 0.001248
67848. 1.40548 0.00128(16) 36863656. 0.001019 0.001258
67855. 1.40562 0.00121(16) 38854204. 0.001019 0.001270
67862. 1.40577 0.00111(15) 43452628. 0.001019 0.001283
67868. 1.40591 0.00106(15) 46590244. 0.001019 0.001298
67875. 1.40604 0.00110(15) 44297080. 0.001019 0.001316
67882. 1.40619 0.00099(14) 48257848. 0.001019 0.001338
67889. 1.40633 0.00085(13) 56987732. 0.001019 0.001365
67896. 1.40647 0.00101(14) 47685248. 0.001019 0.001400
67902. 1.40661 0.00114(15) 43377296. 0.001019 0.001447
67909. 1.40675 0.00135(17) 36484024. 0.001019 0.001513
67916. 1.40689 0.00155(18) 31129240. 0.001019 0.001608
67923. 1.40703 0.00155(18) 30466550. 0.001019 0.001747
67930. 1.40717 0.00141(17) 35761964. 0.001019 0.001949
67936. 1.40731 0.00161(18) 32280854. 0.001019 0.002238
67943. 1.40745 0.00200(20) 24711130. 0.001019 0.002646
67950. 1.40759 0.00247(23) 19210784. 0.001019 0.003204
67957. 1.40774 0.00335(27) 13687915. 0.001019 0.003946
67964. 1.40788 0.00437(31) 10715450. 0.001019 0.004896
67970. 1.40802 0.0059(4) 8051974. 0.00102 0.00606
67977. 1.40816 0.0077(4) 6110485. 0.00102 0.00743
67984. 1.40830 0.0092(4) 5106071. 0.00102 0.00898
67991. 1.40844 0.0106(5) 4521558. 0.00102 0.01066
67997. 1.40858 0.0125(5) 3927854. 0.00102 0.01238
68004. 1.40872 0.0151(6) 3198650. 0.00102 0.01401
68011. 1.40886 0.0163(6) 2942764. 0.00102 0.01541
68018. 1.40900 0.0168(6) 2846104. 0.00102 0.01646
68025. 1.40914 0.0162(6) 2959237. 0.00102 0.01702
68032. 1.40929 0.0157(6) 3029110. 0.00102 0.01702
68038. 1.40942 0.0153(6) 3173047. 0.00102 0.01647
68045. 1.40957 0.0148(6) 3218448. 0.00102 0.01534
68052. 1.40971 0.0131(5) 3684935. 0.00102 0.01382
68059. 1.40985 0.0112(5) 4290542. 0.00102 0.01209
68066. 1.40999 0.0096(4) 5052711. 0.00102 0.01029
68072. 1.41013 0.0085(4) 5714452. 0.00102 0.00858
68079. 1.41027 0.0074(4) 6513498. 0.00102 0.00702
68086. 1.41041 0.0061(4) 7786302. 0.00102 0.00569
68093. 1.41055 0.00493(33) 9431891. 0.001020 0.004583
68100. 1.41069 0.00415(29) 11658518. 0.001020 0.003709
68106. 1.41084 0.00391(28) 12558524. 0.001020 0.003036
68113. 1.41098 0.00366(28) 13017400. 0.001020 0.002537
68120. 1.41112 0.00284(24) 17381336. 0.001020 0.002154
68127. 1.41126 0.00233(22) 21288876. 0.001020 0.001901
68134. 1.41140 0.00204(20) 24421054. 0.001020 0.001723
68140. 1.41154 0.00184(19) 27891854. 0.001020 0.001598
68147. 1.41168 0.00190(20) 25599320. 0.001020 0.001508
68154. 1.41182 0.00167(19) 28638558. 0.001020 0.001443
68161. 1.41197 0.00153(18) 31199782. 0.001020 0.001393
68168. 1.41211 0.00173(19) 28250674. 0.001021 0.001354
68175. 1.41225 0.00167(18) 30029090. 0.001021 0.001323
68181. 1.41239 0.00140(17) 35429988. 0.001021 0.001296
68188. 1.41253 0.00134(17) 35217732. 0.001021 0.001274
68195. 1.41267 0.00131(16) 37381836. 0.001021 0.001254
68202. 1.41281 0.00144(17) 34126776. 0.001021 0.001236
68209. 1.41296 0.00157(18) 31229254. 0.001021 0.001221
68215. 1.41310 0.00147(17) 34491760. 0.001021 0.001207
68222. 1.41324 0.00151(18) 31353108. 0.001021 0.001194
68229. 1.41338 0.00129(17) 36594004. 0.001021 0.001183
68236. 1.41352 0.00127(16) 37868088. 0.001021 0.001172
68243. 1.41366 0.00153(18) 30156386. 0.001021 0.001163
68250. 1.41380 0.00131(16) 37165356. 0.001021 0.001155
68256. 1.41395 0.00112(15) 42618704. 0.001021 0.001147
68263. 1.41409 0.00100(14) 48618200. 0.001021 0.001140
68270. 1.41423 0.00113(15) 44617352. 0.001021 0.001133
68277. 1.41437 0.00123(16) 39995700. 0.001021 0.001127
68284. 1.41451 0.00117(16) 41330508. 0.001021 0.001122
68291. 1.41465 0.00117(16) 40242052. 0.001021 0.001117
68297. 1.41480 0.00118(16) 36886712. 0.001021 0.001112
68304. 1.41493 0.00109(15) 44054228. 0.001021 0.001108
68311. 1.41508 0.00119(15) 41918180. 0.001021 0.001104
68318. 1.41522 0.00115(16) 41455712. 0.001021 0.001100
68325. 1.41536 0.00111(15) 42502144. 0.001021 0.001096
68332. 1.41550 0.00117(15) 42947128. 0.001021 0.001093
68338. 1.41564 0.00137(17) 34063472. 0.001022 0.001090
68345. 1.41579 0.00119(16) 40327928. 0.001022 0.001087
68352. 1.41593 0.00098(14) 49707896. 0.001022 0.001084
68359. 1.41607 0.00080(13) 63928048. 0.001022 0.001082
68366. 1.41621 0.00090(14) 53513084. 0.001022 0.001079
68373. 1.41635 0.00106(15) 45117804. 0.001022 0.001077
68379. 1.41649 0.00124(16) 38661416. 0.001022 0.001075
68386. 1.41664 0.00119(16) 41402720. 0.001022 0.001073
68393. 1.41678 0.00104(15) 45939772. 0.001022 0.001071
68400. 1.41692 0.00085(13) 56735440. 0.001022 0.001069
68407. 1.41706 0.00086(14) 53954828. 0.001022 0.001068
68414. 1.41720 0.00095(14) 49263956. 0.001022 0.001066
68420. 1.41734 0.00088(13) 55059408. 0.001022 0.001065
68427. 1.41748 0.00084(13) 60925564. 0.001022 0.001063
68434. 1.41763 0.00105(15) 47409372. 0.001022 0.001062
68441. 1.41777 0.00123(16) 39359052. 0.001022 0.001061
68448. 1.41791 0.00134(17) 34536468. 0.001022 0.001059
68455. 1.41805 0.00126(16) 38424248. 0.001022 0.001058
68461. 1.41819 0.00109(15) 45589092. 0.001022 0.001057
68468. 1.41834 0.00105(15) 47329200. 0.001022 0.001056
68475. 1.41848 0.00111(15) 44094316. 0.001022 0.001055
68482. 1.41862 0.00096(14) 49435828. 0.001022 0.001054
68489. 1.41876 0.00087(14) 54799388. 0.001022 0.001053
68496. 1.41890 0.00100(14) 47899484. 0.001022 0.001052
68503. 1.41905 0.00117(15) 41664688. 0.001022 0.001052
68510. 1.41919 0.00132(17) 36130180. 0.001023 0.001051
68516. 1.41933 0.00125(16) 39434724. 0.001023 0.001050
68523. 1.41947 0.00115(15) 43816192. 0.001023 0.001049
68530. 1.41961 0.00115(15) 42077216. 0.001023 0.001049
68537. 1.41976 0.00109(15) 46637996. 0.001023 0.001048
68544. 1.41990 0.00121(16) 39500360. 0.001023 0.001047
68551. 1.42004 0.00120(16) 39045760. 0.001023 0.001047
68557. 1.42018 0.00109(15) 44434900. 0.001023 0.001046
68564. 1.42033 0.00104(15) 46959808. 0.001023 0.001046
68571. 1.42047 0.00103(14) 48918048. 0.001023 0.001045
68578. 1.42061 0.00096(14) 53119456. 0.001023 0.001045
68585. 1.42075 0.00096(14) 49876052. 0.001023 0.001044
68592. 1.42089 0.00096(14) 50627752. 0.001023 0.001044
68599. 1.42104 0.00108(15) 44822612. 0.001023 0.001043
68605. 1.42118 0.00115(15) 41816356. 0.001023 0.001043
68612. 1.42132 0.00111(15) 43936544. 0.001023 0.001042
68619. 1.42146 0.00095(14) 52968080. 0.001023 0.001042
68626. 1.42160 0.00097(14) 49722772. 0.001023 0.001042
68633. 1.42174 0.00122(16) 36732832. 0.001023 0.001041
68640. 1.42189 0.00128(17) 34711528. 0.001023 0.001041
68647. 1.42203 0.00118(16) 37296880. 0.001023 0.001040
68654. 1.42217 0.00096(14) 48866320. 0.001023 0.001040
68660. 1.42231 0.00095(14) 51718724. 0.001023 0.001040
68667. 1.42246 0.00117(16) 38864588. 0.001023 0.001039
68674. 1.42260 0.00121(16) 36903212. 0.001023 0.001039
68681. 1.42274 0.00097(14) 48149616. 0.001023 0.001039
68688. 1.42288 0.00090(14) 53083156. 0.001024 0.001039
68695. 1.42303 0.00106(15) 44771456. 0.001024 0.001038
68702. 1.42317 0.00108(15) 43011680. 0.001024 0.001038
68708. 1.42331 0.00104(15) 45479064. 0.001024 0.001038
68715. 1.42345 0.00102(14) 49064208. 0.001024 0.001038
68722. 1.42360 0.00094(14) 53953876. 0.001024 0.001024
68729. 1.42374 0.00092(14) 51779244. 0.001024 0.001024
68736. 1.42388 0.00089(14) 53759668. 0.001024 0.001024
68743. 1.42402 0.00084(13) 56211140. 0.001024 0.001024
68750. 1.42417 0.00079(13) 62074244. 0.001024 0.001024
68757. 1.42431 0.00089(13) 54975008. 0.001024 0.001024
68763. 1.42445 0.00109(15) 44261364. 0.001024 0.001024
68770. 1.42459 0.00109(15) 45013132. 0.001024 0.001024
68777. 1.42474 0.00093(14) 54844468. 0.001024 0.001024
68784. 1.42488 0.00095(14) 51007012. 0.001024 0.001024
68791. 1.42502 0.00108(15) 42841616. 0.001024 0.001024
68798. 1.42516 0.00112(16) 41437496. 0.001024 0.001024
68805. 1.42531 0.00106(15) 44406728. 0.001024 0.001024
68812. 1.42545 0.00097(14) 49545792. 0.001024 0.001024
68819. 1.42559 0.00094(14) 52242192. 0.001024 0.001024
68825. 1.42574 0.00105(15) 46132704. 0.001024 0.001024
68832. 1.42588 0.00108(15) 42167596. 0.001024 0.001024
68839. 1.42602 0.00091(14) 51202280. 0.001024 0.001024
68846. 1.42616 0.00080(13) 62698892. 0.001024 0.001024
68853. 1.42631 0.00092(14) 54344604. 0.001024 0.001024
68860. 1.42645 0.00104(14) 47957820. 0.001025 0.001025
68867. 1.42659 0.00105(15) 45361544. 0.001025 0.001025
68874. 1.42673 0.00100(15) 45857572. 0.001025 0.001025
68880. 1.42688 0.00076(13) 63594016. 0.001025 0.001025
68887. 1.42702 0.00086(13) 57010848. 0.001025 0.001025
68894. 1.42716 0.00108(15) 42557808. 0.001025 0.001025
68901. 1.42730 0.00090(14) 49190560. 0.001025 0.001025
68908. 1.42745 0.00068(12) 74504136. 0.001025 0.001025
68915. 1.42759 0.00093(14) 53430920. 0.001025 0.001025
68922. 1.42773 0.00114(15) 41914796. 0.001025 0.001025
68929. 1.42788 0.00116(16) 40726328. 0.001025 0.001025
68936. 1.42802 0.00104(15) 45942420. 0.001025 0.001025
68943. 1.42816 0.00102(15) 47268596. 0.001025 0.001025
68949. 1.42830 0.00117(16) 40953924. 0.001025 0.001025
68956. 1.42845 0.00116(15) 41666336. 0.001025 0.001025
68963. 1.42859 0.00106(15) 46119968. 0.001025 0.001025
68970. 1.42873 0.00120(16) 38367524. 0.001025 0.001025
68977. 1.42887 0.00117(16) 41389400. 0.001025 0.001025
68984. 1.42902 0.00111(15) 42173456. 0.001025 0.001025
68991. 1.42916 0.00097(15) 47478248. 0.001025 0.001025
68998. 1.42931 0.00084(13) 56555284. 0.001025 0.001025
69005. 1.42945 0.00098(15) 45998504. 0.001025 0.001025
69011. 1.42959 0.00108(15) 43085016. 0.001025 0.001025
69018. 1.42973 0.00110(15) 45338100. 0.001025 0.001025
69025. 1.42988 0.00120(16) 40044664. 0.001025 0.001025
69032. 1.43002 0.00124(16) 37333340. 0.001025 0.001025
69039. 1.43016 0.00112(15) 42097432. 0.001026 0.001026
69046. 1.43031 0.00095(14) 53699576. 0.001026 0.001026
69053. 1.43045 0.00098(14) 51013380. 0.001026 0.001026
69060. 1.43059 0.00110(15) 43054516. 0.001026 0.001026
69067. 1.43074 0.00109(15) 42455648. 0.001026 0.001026
69074. 1.43088 0.00096(14) 48820076. 0.001026 0.001026
69081. 1.43102 0.00104(15) 42940976. 0.001026 0.001026
69087. 1.43116 0.00114(16) 39923080. 0.001026 0.001026
69094. 1.43131 0.00123(16) 38654164. 0.001026 0.001026
69101. 1.43145 0.00123(16) 38206200. 0.001026 0.001026
69108. 1.43160 0.00113(16) 40769432. 0.001026 0.001026
69115. 1.43174 0.00096(14) 49342312. 0.001026 0.001026
69122. 1.43188 0.00092(14) 54298728. 0.001026 0.001026
69129. 1.43202 0.00115(16) 39939344. 0.001026 0.001026
69136. 1.43217 0.00112(16) 39683788. 0.001026 0.001026
69143. 1.43231 0.00092(14) 50139404. 0.001026 0.001026
69150. 1.43245 0.00089(14) 53932928. 0.001026 0.001026
69157. 1.43260 0.00087(14) 53782244. 0.001026 0.001026
69164. 1.43274 0.00090(14) 49686500. 0.001026 0.001026
69170. 1.43288 0.00094(14) 48402716. 0.001026 0.001026
69177. 1.43303 0.00091(14) 52204144. 0.001026 0.001026
69184. 1.43317 0.00095(14) 50945564. 0.001026 0.001026
69191. 1.43331 0.00089(14) 53554316. 0.001026 0.001026
69198. 1.43346 0.00080(13) 58648776. 0.001026 0.001026
69205. 1.43360 0.00084(13) 55713612. 0.001026 0.001026
69212. 1.43374 0.00086(13) 57161948. 0.001026 0.001026
69219. 1.43389 0.00093(14) 51101856. 0.001027 0.001027
69226. 1.43403 0.00095(14) 49962444. 0.001027 0.001027
69233. 1.43417 0.00100(15) 46758544. 0.001027 0.001027
69240. 1.43432 0.00108(15) 43980556. 0.001027 0.001027
69247. 1.43446 0.00114(15) 41987012. 0.001027 0.001027
69253. 1.43460 0.00103(15) 46231816. 0.001027 0.001027
69260. 1.43475 0.00082(13) 59673296. 0.001027 0.001027
69267. 1.43489 0.00102(15) 46933468. 0.001027 0.001027
69274. 1.43504 0.00131(17) 34609264. 0.001027 0.001027
69281. 1.43518 0.00115(16) 41284236. 0.001027 0.001027
69288. 1.43532 0.00106(15) 43716688. 0.001027 0.001027
69295. 1.43547 0.00112(16) 41173744. 0.001027 0.001027
69302. 1.43561 0.00113(16) 40768960. 0.001027 0.001027
69309. 1.43575 0.00105(15) 43473444. 0.001027 0.001027
69316. 1.43590 0.00091(14) 52946784. 0.001027 0.001027
69323. 1.43604 0.00091(14) 51519696. 0.001027 0.001027
69330. 1.43619 0.00092(14) 51067584. 0.001027 0.001027
69337. 1.43633 0.00096(14) 47692836. 0.001027 0.001027
69344. 1.43647 0.00098(15) 46756140. 0.001027 0.001027
69351. 1.43662 0.00109(15) 41971172. 0.001027 0.001027
69357. 1.43676 0.00111(15) 42091572. 0.001027 0.001027
69364. 1.43690 0.00111(15) 42334464. 0.001027 0.001027
69371. 1.43705 0.00111(15) 42561944. 0.001027 0.001027
69378. 1.43719 0.00106(15) 44071908. 0.001027 0.001027
69385. 1.43734 0.00113(16) 41384868. 0.001027 0.001027
69392. 1.43748 0.00116(16) 39294108. 0.001027 0.001027
69399. 1.43762 0.00102(15) 47120048. 0.001027 0.001027
69406. 1.43777 0.00102(15) 44968720. 0.001027 0.001027
69413. 1.43791 0.00103(15) 44781880. 0.001028 0.001028
69420. 1.43805 0.00114(16) 41398056. 0.001028 0.001028
69427. 1.43820 0.00112(15) 43555444. 0.001028 0.001028
69434. 1.43834 0.00118(16) 40080308. 0.001028 0.001028
69441. 1.43849 0.00122(16) 37417160. 0.001028 0.001028
69448. 1.43863 0.00114(16) 40261024. 0.001028 0.001028
69455. 1.43877 0.00107(15) 42772164. 0.001028 0.001028
69462. 1.43892 0.00096(14) 49321400. 0.001028 0.001028
69469. 1.43906 0.00094(14) 49853088. 0.001028 0.001028
69476. 1.43921 0.00100(15) 45394928. 0.001028 0.001028
69482. 1.43935 0.00103(15) 45463348. 0.001028 0.001028
69489. 1.43949 0.00110(15) 42779136. 0.001028 0.001028
69496. 1.43964 0.00108(15) 44615092. 0.001028 0.001028
69503. 1.43978 0.00104(15) 46238280. 0.001028 0.001028
69510. 1.43993 0.00114(16) 38748672. 0.001028 0.001028
69517. 1.44007 0.00114(16) 37788252. 0.001028 0.001028
69524. 1.44021 0.00102(15) 44610580. 0.001028 0.001028
69531. 1.44036 0.00103(15) 44360948. 0.001028 0.001028
69538. 1.44050 0.00095(14) 49898872. 0.001028 0.001028
69545. 1.44065 0.00107(15) 42655988. 0.001028 0.001028
69552. 1.44079 0.00114(16) 40754192. 0.001028 0.001028
69559. 1.44093 0.00123(17) 36441076. 0.001028 0.001028
69566. 1.44108 0.00130(17) 34111460. 0.001028 0.001028
69573. 1.44122 0.00107(15) 43854644. 0.001028 0.001028
69580. 1.44137 0.00104(15) 44289976. 0.001028 0.001028
69587. 1.44151 0.00112(16) 41508976. 0.001028 0.001028
69594. 1.44166 0.00119(16) 38407348. 0.001028 0.001028
69601. 1.44180 0.00107(15) 44322840. 0.001028 0.001028
69608. 1.44194 0.00105(15) 45675580. 0.001029 0.001029
69615. 1.44209 0.00116(16) 41509596. 0.001029 0.001029
69622. 1.44223 0.00138(18) 32580958. 0.001029 0.001029
69629. 1.44238 0.00122(16) 36976364. 0.001029 0.001029
69636. 1.44252 0.00102(15) 46785320. 0.001029 0.001029
69642. 1.44266 0.00112(15) 41797296. 0.001029 0.001029
69649. 1.44281 0.00100(15) 45789108. 0.001029 0.001029
69656. 1.44295 0.00086(14) 54551444. 0.001029 0.001029
69663. 1.44310 0.00114(16) 39275260. 0.001029 0.001029
69670. 1.44324 0.00116(16) 39067952. 0.001029 0.001029
69677. 1.44339 0.00101(15) 46228432. 0.001029 0.001029
69684. 1.44353 0.00104(15) 43394104. 0.001029 0.001029
69691. 1.44368 0.00105(15) 42622088. 0.001029 0.001029
69698. 1.44382 0.00099(15) 45885452. 0.001029 0.001029
69705. 1.44396 0.00105(15) 43231096. 0.001029 0.001029
69712. 1.44411 0.00093(14) 48847864. 0.001029 0.001029
69719. 1.44425 0.00085(13) 55416812. 0.001029 0.001029
69726. 1.44440 0.00090(13) 55286872. 0.001029 0.001029
69733. 1.44454 0.00104(15) 44773260. 0.001029 0.001029
69740. 1.44469 0.00093(14) 49933488. 0.001029 0.001029
69747. 1.44483 0.00081(13) 58257732. 0.001029 0.001029
69754. 1.44498 0.00076(13) 62342304. 0.001029 0.001029
69761. 1.44512 0.00101(15) 44945636. 0.001029 0.001029
69768. 1.44526 0.00123(16) 36970980. 0.001029 0.001029
69775. 1.44541 0.00125(16) 36856384. 0.001029 0.001029
69782. 1.44555 0.00105(15) 46179292. 0.001029 0.001029
69789. 1.44570 0.00091(14) 54021972. 0.001029 0.001029
69796. 1.44584 0.00097(14) 48553568. 0.001029 0.001029
69803. 1.44599 0.00102(15) 45323868. 0.001029 0.001029
69810. 1.44613 0.00123(17) 35948788. 0.001029 0.001029
69817. 1.44628 0.00122(16) 38633760. 0.001029 0.001029
69824. 1.44642 0.00099(14) 48839360. 0.001030 0.001030
69831. 1.44657 0.00089(13) 55791628. 0.001030 0.001030
69838. 1.44671 0.00098(14) 48993072. 0.001030 0.001030
69845. 1.44686 0.00096(14) 48743092. 0.001030 0.001030
69852. 1.44700 0.00111(16) 41038640. 0.001030 0.001030
69859. 1.44715 0.00124(16) 37195192. 0.001030 0.001030
69866. 1.44729 0.00122(16) 38504024. 0.001030 0.001030
69873. 1.44744 0.00115(16) 41383748. 0.001030 0.001030
69880. 1.44758 0.00097(14) 48747092. 0.001030 0.001030
69887. 1.44772 0.00099(15) 45933180. 0.001030 0.001030
69894. 1.44787 0.00102(15) 46229612. 0.001030 0.001030
69901. 1.44801 0.00099(14) 48301944. 0.001030 0.001030
69908. 1.44816 0.00112(16) 39586488. 0.001030 0.001030
69915. 1.44830 0.00105(15) 42094088. 0.001030 0.001030
69922. 1.44845 0.00086(13) 55108660. 0.001030 0.001030
69929. 1.44859 0.00105(15) 43278124. 0.001030 0.001030
69936. 1.44874 0.00125(16) 36806084. 0.001030 0.001030
69943. 1.44888 0.00126(17) 36116940. 0.001030 0.001030
69950. 1.44903 0.00120(16) 36967052. 0.001030 0.001030
69957. 1.44917 0.00094(14) 47912044. 0.001030 0.001030
69964. 1.44932 0.00092(14) 51017520. 0.001030 0.001030
69971. 1.44946 0.00111(15) 42917684. 0.001030 0.001030
69978. 1.44961 0.00123(16) 37608828. 0.001030 0.001030
69985. 1.44975 0.00115(16) 40492144. 0.001030 0.001030
69992. 1.44990 0.00109(15) 43010996. 0.001030 0.001030
69999. 1.45004 0.00115(16) 41521636. 0.001030 0.001030
70006. 1.45019 0.00114(15) 43030772. 0.001030 0.001030
70013. 1.45033 0.00096(14) 52257028. 0.001030 0.001030
70020. 1.45048 0.00097(14) 47677384. 0.001030 0.001030
70027. 1.45063 0.00101(15) 47362856. 0.001030 0.001030
70034. 1.45077 0.00113(15) 44128456. 0.001030 0.001030
70041. 1.45092 0.00119(16) 40113988. 0.001030 0.001030
70048. 1.45106 0.00111(15) 43226304. 0.001030 0.001030
70055. 1.45121 0.00113(15) 41894400. 0.001031 0.001031
70062. 1.45135 0.00105(15) 42021120. 0.001031 0.001031
70069. 1.45150 0.00085(14) 51466128. 0.001031 0.001031
70076. 1.45164 0.00102(15) 42733672. 0.001031 0.001031
70083. 1.45179 0.00112(16) 40114584. 0.001031 0.001031
70090. 1.45193 0.00104(15) 46734220. 0.001031 0.001031
70097. 1.45208 0.00106(15) 43656400. 0.001031 0.001031
70104. 1.45222 0.00098(14) 47834772. 0.001031 0.001031
70111. 1.45237 0.00111(16) 40901436. 0.001031 0.001031
70118. 1.45251 0.00109(15) 41712048. 0.001031 0.001031
70125. 1.45266 0.00100(15) 46371276. 0.001031 0.001031
70132. 1.45280 0.00097(14) 51557296. 0.001031 0.001031
70139. 1.45295 0.00118(16) 37770812. 0.001031 0.001031
70146. 1.45309 0.00109(16) 39741192. 0.001031 0.001031
70153. 1.45324 0.00099(15) 45857864. 0.001031 0.001031
70160. 1.45338 0.00108(15) 42624632. 0.001031 0.001031
70167. 1.45353 0.00108(15) 41662832. 0.001031 0.001031
70174. 1.45368 0.00106(15) 45169664. 0.001031 0.001031
70181. 1.45382 0.00127(17) 36611328. 0.001031 0.001031
70188. 1.45397 0.00135(17) 34122900. 0.001031 0.001031
70195. 1.45411 0.00144(17) 32834138. 0.001031 0.001031
70202. 1.45426 0.00143(17) 32767048. 0.001031 0.001031
70209. 1.45440 0.00110(15) 43769988. 0.001031 0.001031
70216. 1.45455 0.00102(15) 46054532. 0.001031 0.001031
70223. 1.45469 0.00111(15) 42588380. 0.001031 0.001031
70230. 1.45484 0.00128(16) 37232056. 0.001031 0.001031
70237. 1.45498 0.00135(16) 36993440. 0.001031 0.001031
70244. 1.45513 0.00138(17) 34876308. 0.001031 0.001031
70251. 1.45528 0.00129(17) 36223468. 0.001031 0.001031
70258. 1.45542 0.00123(16) 37539232. 0.001031 0.001031
70265. 1.45557 0.00125(17) 35067548. 0.001031 0.001031
70272. 1.45571 0.00100(15) 45273428. 0.001031 0.001031
70279. 1.45586 0.00092(14) 50861524. 0.001031 0.001031
70286. 1.45600 0.00101(15) 45337008. 0.001031 0.001031
70293. 1.45615 0.00104(15) 46381848. 0.001031 0.001031
70300. 1.45629 0.00117(15) 44673808. 0.001031 0.001031
70307. 1.45644 0.00128(16) 38320236. 0.001031 0.001031
70314. 1.45659 0.00101(15) 47500088. 0.001032 0.001032
70321. 1.45673 0.00098(15) 46431984. 0.001032 0.001032
70328. 1.45688 0.00113(16) 40700836. 0.001032 0.001032
70335. 1.45702 0.00123(16) 38403572. 0.001032 0.001032
70342. 1.45717 0.00121(16) 38385372. 0.001032 0.001032
70350. 1.45732 0.00099(15) 45963920. 0.001032 0.001032
70357. 1.45746 0.00092(14) 50357976. 0.001032 0.001032
70364. 1.45761 0.00093(14) 50228012. 0.001032 0.001032
70371. 1.45775 0.00095(14) 49119568. 0.001032 0.001032
70378. 1.45790 0.00098(14) 48443664. 0.001032 0.001032
70385. 1.45804 0.00096(14) 49743652. 0.001032 0.001032
70392. 1.45819 0.00105(15) 44532080. 0.001032 0.001032
70399. 1.45834 0.00123(16) 37958368. 0.001032 0.001032
70406. 1.45848 0.00114(16) 40981396. 0.001032 0.001032
70413. 1.45863 0.00097(14) 49999636. 0.001032 0.001032
70420. 1.45877 0.00099(15) 47259260. 0.001032 0.001032
70427. 1.45892 0.00101(15) 45271424. 0.001032 0.001032
70434. 1.45906 0.00087(13) 57973144. 0.001032 0.001032
70441. 1.45921 0.00095(14) 48707368. 0.001032 0.001032
70448. 1.45936 0.00102(15) 44303172. 0.001032 0.001032
70455. 1.45950 0.00102(15) 43148712. 0.001032 0.001032
70462. 1.45965 0.00081(13) 59137140. 0.001032 0.001032
70469. 1.45980 0.00098(15) 46018260. 0.001032 0.001032
70476. 1.45994 0.00128(17) 34045620. 0.001032 0.001032
70483. 1.46009 0.00121(16) 37857756. 0.001032 0.001032
70490. 1.46024 0.00115(16) 40455260. 0.001032 0.001032
70497. 1.46038 0.00118(16) 39835000. 0.001032 0.001032
70504. 1.46053 0.00105(15) 47534660. 0.001032 0.001032
70512. 1.46067 0.00102(15) 46398864. 0.001032 0.001032
70519. 1.46082 0.00098(14) 48380412. 0.001032 0.001032
70526. 1.46096 0.00099(14) 48821936. 0.001032 0.001032
70533. 1.46111 0.00114(16) 39821616. 0.001032 0.001032
70540. 1.46126 0.00123(17) 35746560. 0.001032 0.001032
70547. 1.46140 0.00099(14) 49475668. 0.001032 0.001032
70554. 1.46155 0.00095(14) 51014728. 0.001032 0.001032
70561. 1.46170 0.00093(14) 50134076. 0.001032 0.001032
70568. 1.46184 0.00081(13) 59654948. 0.001032 0.001032
70575. 1.46199 0.00077(13) 63910600. 0.001032 0.001032
70582. 1.46214 0.00091(14) 52112420. 0.001032 0.001032
70589. 1.46228 0.00096(14) 48949020. 0.001032 0.001032
70596. 1.46243 0.00094(15) 47278492. 0.001032 0.001032
70603. 1.46257 0.00104(16) 41067496. 0.001032 0.001032
70610. 1.46272 0.00110(16) 40066656. 0.001032 0.001032
70617. 1.46286 0.00100(15) 46106644. 0.001032 0.001032
70624. 1.46301 0.00087(14) 54473164. 0.001032 0.001032
70632. 1.46316 0.00085(14) 54202680. 0.001033 0.001033
70639. 1.46330 0.00093(14) 48344244. 0.001033 0.001033
70646. 1.46345 0.00091(14) 49404336. 0.001033 0.001033
70653. 1.46360 0.00098(15) 45080600. 0.001033 0.001033
70660. 1.46374 0.00116(16) 38504016. 0.001033 0.001033
70667. 1.46389 0.00124(17) 35434672. 0.001033 0.001033
70674. 1.46404 0.00110(16) 39758668. 0.001033 0.001033
70681. 1.46418 0.00103(15) 44661060. 0.001033 0.001033
70688. 1.46433 0.00094(14) 51103396. 0.001033 0.001033
70695. 1.46448 0.00092(14) 50882672. 0.001033 0.001033
70702. 1.46462 0.00103(15) 46603872. 0.001033 0.001033
70709. 1.46477 0.00098(14) 49553652. 0.001033 0.001033
70716. 1.46492 0.00080(13) 59387636. 0.001033 0.001033
70723. 1.46506 0.00081(13) 58510908. 0.001033 0.001033
70730. 1.46521 0.00091(14) 54396804. 0.001033 0.001033
70738. 1.46536 0.00096(14) 50236548. 0.001033 0.001033
70745. 1.46550 0.00092(14) 52496784. 0.001033 0.001033
70752. 1.46565 0.00102(15) 46197144. 0.001033 0.001033
70759. 1.46580 0.00109(15) 43199236. 0.001033 0.001033
70766. 1.46594 0.00112(16) 41308900. 0.001033 0.001033
70773. 1.46609 0.00111(15) 41971764. 0.001033 0.001033
70780. 1.46624 0.00109(15) 43126356. 0.001033 0.001033
70787. 1.46638 0.00103(15) 45949708. 0.001033 0.001033
70794. 1.46653 0.00091(14) 51037356. 0.001033 0.001033
70801. 1.46668 0.00102(15) 45448824. 0.001033 0.001033
70808. 1.46682 0.00107(15) 43069628. 0.001033 0.001033
70815. 1.46697 0.00108(16) 40416920. 0.001033 0.001033
70823. 1.46712 0.00111(16) 39581820. 0.001033 0.001033
70830. 1.46726 0.00104(15) 47335632. 0.001033 0.001033
70837. 1.46741 0.00104(15) 47060328. 0.001033 0.001033
70844. 1.46756 0.00114(15) 41753628. 0.001033 0.001033
70851. 1.46770 0.00126(16) 38517072. 0.001033 0.001033
70858. 1.46785 0.00123(16) 37521248. 0.001033 0.001033
70865. 1.46800 0.00106(15) 43062232. 0.001033 0.001033
70872. 1.46814 0.00108(15) 43148932. 0.001033 0.001033
70879. 1.46829 0.00117(16) 37423248. 0.001033 0.001033
70886. 1.46844 0.00095(15) 46119096. 0.001033 0.001033
70893. 1.46858 0.00086(14) 51423076. 0.001033 0.001033
70900. 1.46873 0.00087(14) 51582128. 0.001033 0.001033
70908. 1.46888 0.00081(13) 60546048. 0.001033 0.001033
70915. 1.46903 0.00103(15) 45814272. 0.001033 0.001033
70922. 1.46917 0.00108(15) 42289316. 0.001033 0.001033
70929. 1.46932 0.00089(14) 50383404. 0.001033 0.001033
70936. 1.46947 0.00087(14) 53480588. 0.001033 0.001033
70943. 1.46961 0.00104(15) 46730972. 0.001033 0.001033
70950. 1.46976 0.00114(16) 41428632. 0.001033 0.001033
70957. 1.46991 0.00113(16) 40458328. 0.001033 0.001033
70964. 1.47006 0.00114(16) 39544760. 0.001033 0.001033
70971. 1.47020 0.00105(15) 45839428. 0.001033 0.001033
70979. 1.47035 0.00102(14) 48592404. 0.001033 0.001033
70986. 1.47050 0.00099(14) 47727104. 0.001033 0.001033
70993. 1.47064 0.00086(14) 53930644. 0.001033 0.001033
71000. 1.47079 0.00100(15) 46282796. 0.001033 0.001033
71007. 1.47094 0.00102(15) 45891328. 0.001033 0.001033
71014. 1.47108 0.00089(13) 55866100. 0.001033 0.001033
71021. 1.47123 0.00092(14) 52433080. 0.001033 0.001033
71028. 1.47138 0.00100(15) 47258732. 0.001033 0.001033
71035. 1.47153 0.00107(15) 43878908. 0.001033 0.001033
71042. 1.47167 0.00117(16) 39259740. 0.001033 0.001033
71050. 1.47182 0.00131(17) 35168244. 0.001033 0.001033
71057. 1.47197 0.00125(16) 37126540. 0.001033 0.001033
71064. 1.47211 0.00104(15) 43370856. 0.001033 0.001033
71071. 1.47226 0.00087(14) 51807168. 0.001033 0.001033
71078. 1.47241 0.00085(13) 55087544. 0.001033 0.001033
71085. 1.47256 0.00095(14) 49827144. 0.001033 0.001033
71092. 1.47271 0.00115(16) 40049940. 0.001034 0.001034
71099. 1.47285 0.00123(17) 34965912. 0.001034 0.001034
71106. 1.47300 0.00093(14) 48254644. 0.001034 0.001034
71114. 1.47315 0.00091(14) 49532600. 0.001034 0.001034
71121. 1.47329 0.00090(14) 52765452. 0.001034 0.001034
71128. 1.47344 0.00080(13) 58737396. 0.001034 0.001034
71135. 1.47359 0.00086(14) 51247360. 0.001034 0.001034
71142. 1.47374 0.00089(14) 52040900. 0.001034 0.001034
71149. 1.47388 0.00096(14) 47772568. 0.001034 0.001034
71156. 1.47403 0.00109(15) 43018444. 0.001034 0.001034
71163. 1.47418 0.00144(18) 30203988. 0.001034 0.001034
71170. 1.47433 0.00143(18) 29865558. 0.001034 0.001034
71178. 1.47447 0.00104(15) 44447436. 0.001034 0.001034
71185. 1.47462 0.00104(15) 44962560. 0.001034 0.001034
71192. 1.47477 0.00119(17) 36629392. 0.001034 0.001034
71199. 1.47492 0.00112(16) 39532868. 0.001034 0.001034
71206. 1.47506 0.00114(16) 38213832. 0.001034 0.001034
71213. 1.47521 0.00103(15) 41764340. 0.001034 0.001034
71220. 1.47536 0.00089(14) 50609632. 0.001034 0.001034
71227. 1.47550 0.00094(14) 48849060. 0.001034 0.001034
71235. 1.47565 0.00110(16) 40365048. 0.001034 0.001034
71242. 1.47580 0.00116(16) 38582304. 0.001034 0.001034
71249. 1.47595 0.00103(15) 44783708. 0.001034 0.001034
71256. 1.47610 0.00092(14) 48534884. 0.001034 0.001034
71263. 1.47624 0.00086(14) 52192760. 0.001034 0.001034
71270. 1.47639 0.00104(15) 42775940. 0.001034 0.001034
71277. 1.47654 0.00135(17) 34751440. 0.001034 0.001034
71284. 1.47669 0.00133(17) 36304392. 0.001034 0.001034
71292. 1.47683 0.00120(16) 37733192. 0.001034 0.001034
71299. 1.47698 0.00115(16) 38664284. 0.001034 0.001034
71306. 1.47713 0.00104(15) 43410872. 0.001034 0.001034
71313. 1.47728 0.00088(14) 51673796. 0.001034 0.001034
71320. 1.47743 0.00094(15) 47299960. 0.001034 0.001034
71327. 1.47757 0.00102(15) 42848120. 0.001034 0.001034
71334. 1.47772 0.00084(14) 52666528. 0.001034 0.001034
71341. 1.47787 0.00086(13) 54874084. 0.001034 0.001034
71349. 1.47802 0.00096(14) 51937188. 0.001034 0.001034
71356. 1.47817 0.00090(13) 55134504. 0.001034 0.001034
71363. 1.47831 0.00093(14) 48878216. 0.001034 0.001034
71370. 1.47846 0.00092(14) 48885892. 0.001034 0.001034
71377. 1.47861 0.00078(13) 59704024. 0.001034 0.001034
71384. 1.47876 0.00082(14) 54062832. 0.001034 0.001034
71391. 1.47890 0.00101(15) 44208536. 0.001034 0.001034
71399. 1.47905 0.00106(15) 42654896. 0.001034 0.001034
71406. 1.47920 0.00095(15) 44585592. 0.001034 0.001034
71413. 1.47935 0.00075(13) 59334844. 0.001034 0.001034
71420. 1.47950 0.00081(13) 59377816. 0.001034 0.001034
71427. 1.47964 0.00095(14) 50004248. 0.001034 0.001034
71434. 1.47979 0.00094(15) 47269380. 0.001034 0.001034
71441. 1.47994 0.00088(14) 50149356. 0.001034 0.001034
71449. 1.48009 0.00085(14) 51756552. 0.001034 0.001034
71456. 1.48024 0.00077(13) 55910672. 0.001034 0.001034
71463. 1.48038 0.00072(13) 63169768. 0.001034 0.001034
71470. 1.48053 0.00082(13) 57219428. 0.001034 0.001034
71477. 1.48068 0.00090(14) 53050940. 0.001034 0.001034
71484. 1.48083 0.00098(14) 48562796. 0.001034 0.001034
71492. 1.48098 0.00102(15) 44798840. 0.001034 0.001034
71499. 1.48113 0.00104(15) 42956252. 0.001034 0.001034
71506. 1.48127 0.00118(16) 38944256. 0.001034 0.001034
71513. 1.48142 0.00126(17) 36021552. 0.001034 0.001034
71520. 1.48157 0.00112(16) 39398828. 0.001034 0.001034
71527. 1.48172 0.00096(15) 47343896. 0.001034 0.001034
71534. 1.48187 0.00105(15) 43908120. 0.001034 0.001034
71542. 1.48202 0.00107(15) 43050900. 0.001034 0.001034
71549. 1.48216 0.00100(15) 45109300. 0.001034 0.001034
71556. 1.48231 0.00093(15) 47034624. 0.001034 0.001034
71563. 1.48246 0.00092(14) 47926476. 0.001034 0.001034
71570. 1.48261 0.00093(14) 48063456. 0.001034 0.001034
71577. 1.48276 0.00100(15) 43212984. 0.001034 0.001034
71584. 1.48290 0.00108(16) 40843128. 0.001034 0.001034
71592. 1.48305 0.00097(14) 49175124. 0.001034 0.001034
71599. 1.48320 0.00107(15) 43275568. 0.001034 0.001034
71606. 1.48335 0.00137(18) 30857936. 0.001034 0.001034
71613. 1.48350 0.00129(17) 33640120. 0.001034 0.001034
71620. 1.48365 0.00122(16) 38541796. 0.001034 0.001034
71627. 1.48379 0.00115(15) 42099120. 0.001034 0.001034
71635. 1.48394 0.00097(14) 49447836. 0.001034 0.001034
71642. 1.48409 0.00096(15) 46653816. 0.001034 0.001034
71649. 1.48424 0.00096(14) 48302712. 0.001034 0.001034
71656. 1.48439 0.00105(15) 42948148. 0.001034 0.001034
71663. 1.48454 0.00107(15) 41913356. 0.001034 0.001034
71670. 1.48469 0.00095(15) 47032772. 0.001034 0.001034
71678. 1.48484 0.00084(14) 53944712. 0.001034 0.001034
71685. 1.48498 0.00094(14) 49084652. 0.001034 0.001034
71692. 1.48513 0.00109(16) 40472604. 0.001034 0.001034
71699. 1.48528 0.00097(15) 46901296. 0.001034 0.001034
71706. 1.48543 0.00115(16) 38213996. 0.001034 0.001034
71714. 1.48558 0.00125(17) 34773640. 0.001034 0.001034
71721. 1.48573 0.00111(16) 40543948. 0.001034 0.001034
71728. 1.48588 0.00124(17) 34609260. 0.001034 0.001034
71735. 1.48602 0.00128(17) 33583660. 0.001034 0.001034
71742. 1.48617 0.00100(15) 43261624. 0.001034 0.001034
71749. 1.48632 0.00076(13) 59570016. 0.001034 0.001034
71757. 1.48647 0.00094(14) 48277156. 0.001034 0.001034
71764. 1.48662 0.00109(16) 40371616. 0.001034 0.001034
71771. 1.48677 0.00107(16) 40342776. 0.001034 0.001034
71778. 1.48692 0.00111(16) 38365032. 0.001034 0.001034
71785. 1.48706 0.00097(15) 45738232. 0.001034 0.001034
71792. 1.48721 0.00099(15) 44922348. 0.001034 0.001034
71800. 1.48736 0.00114(16) 38277472. 0.001034 0.001034
71807. 1.48751 0.00107(15) 42244036. 0.001034 0.001034
71814. 1.48766 0.00109(15) 43317992. 0.001034 0.001034
71821. 1.48781 0.00116(16) 38865572. 0.001034 0.001034
71828. 1.48796 0.00108(16) 41224252. 0.001034 0.001034
71836. 1.48811 0.00111(16) 39697536. 0.001034 0.001034
71843. 1.48825 0.00090(14) 52564596. 0.001034 0.001034
71850. 1.48840 0.00091(14) 50192148. 0.001034 0.001034
71857. 1.48855 0.00108(15) 41906432. 0.001034 0.001034
71864. 1.48870 0.00122(16) 37826516. 0.001034 0.001034
71871. 1.48885 0.00119(16) 39684028. 0.001034 0.001034
71879. 1.48900 0.00109(15) 42315580. 0.001034 0.001034
71886. 1.48915 0.00102(15) 42944428. 0.001034 0.001034
71893. 1.48930 0.00091(14) 48895464. 0.001034 0.001034
71900. 1.48945 0.00095(14) 48074828. 0.001034 0.001034
71907. 1.48959 0.00102(15) 44239012. 0.001034 0.001034
71915. 1.48974 0.00118(17) 35646864. 0.001034 0.001034
71922. 1.48989 0.00119(17) 36377896. 0.001034 0.001034
71929. 1.49004 0.00113(16) 38713480. 0.001034 0.001034
71936. 1.49019 0.00095(14) 48266032. 0.001034 0.001034
71943. 1.49034 0.00096(15) 46693280. 0.001034 0.001034
71951. 1.49049 0.00112(16) 39651192. 0.001034 0.001034
71958. 1.49064 0.00118(16) 37603084. 0.001034 0.001034
71965. 1.49079 0.00110(16) 41080832. 0.001034 0.001034
71972. 1.49094 0.00105(15) 43694256. 0.001034 0.001034
71979. 1.49109 0.00106(16) 41465256. 0.001034 0.001034
71987. 1.49124 0.00101(15) 43048844. 0.001034 0.001034
71994. 1.49139 0.00091(14) 50096920. 0.001034 0.001034
72001. 1.49153 0.00101(15) 47068420. 0.001034 0.001034
72008. 1.49168 0.00121(17) 36454020. 0.001034 0.001034
72015. 1.49183 0.00102(15) 44469132. 0.001034 0.001034
72023. 1.49198 0.00096(15) 46884964. 0.001034 0.001034
72030. 1.49213 0.00097(15) 44484916. 0.001034 0.001034
72037. 1.49228 0.00090(14) 48778568. 0.001034 0.001034
72044. 1.49243 0.00098(15) 45924204. 0.001034 0.001034
72051. 1.49258 0.00113(16) 39408868. 0.001034 0.001034
72059. 1.49273 0.00114(16) 38728788. 0.001034 0.001034
72066. 1.49288 0.00107(16) 39754620. 0.001034 0.001034
72073. 1.49303 0.00091(14) 48660672. 0.001034 0.001034
72080. 1.49318 0.00085(13) 55329044. 0.001034 0.001034
72087. 1.49333 0.00092(14) 50448888. 0.001033 0.001033
72095. 1.49348 0.00088(14) 52815100. 0.001033 0.001033
72102. 1.49363 0.00074(13) 62403332. 0.001033 0.001033
72109. 1.49377 0.00068(12) 66326304. 0.001033 0.001033
72116. 1.49393 0.00078(13) 58304168. 0.001033 0.001033
72123. 1.49407 0.00103(15) 43696848. 0.001033 0.001033
72131. 1.49422 0.00107(15) 42704548. 0.001033 0.001033
72138. 1.49437 0.00106(15) 42498080. 0.001033 0.001033
72145. 1.49452 0.00107(16) 40822644. 0.001033 0.001033
72152. 1.49467 0.00103(15) 42213660. 0.001033 0.001033
72160. 1.49482 0.00104(15) 42068924. 0.001033 0.001033
72167. 1.49497 0.00109(16) 39947184. 0.001033 0.001033
72174. 1.49512 0.00114(17) 36661984. 0.001033 0.001033
72181. 1.49527 0.00094(14) 49983636. 0.001033 0.001033
72188. 1.49542 0.00103(15) 44267192. 0.001033 0.001033
72196. 1.49557 0.00117(16) 36883632. 0.001033 0.001033
72203. 1.49572 0.00105(16) 41490408. 0.001033 0.001033
72210. 1.49587 0.00090(14) 51958124. 0.001033 0.001033
72217. 1.49602 0.00097(15) 46578364. 0.001033 0.001033
72225. 1.49617 0.00100(15) 44340548. 0.001033 0.001033
72232. 1.49632 0.00106(15) 41709144. 0.001033 0.001033
72239. 1.49647 0.00109(16) 40290052. 0.001033 0.001033
72246. 1.49662 0.00110(16) 40512044. 0.001033 0.001033
72253. 1.49677 0.00122(17) 35571184. 0.001033 0.001033
72261. 1.49692 0.00110(16) 39740444. 0.001033 0.001033
72268. 1.49707 0.00096(15) 44674836. 0.001033 0.001033
72275. 1.49722 0.00091(14) 49370060. 0.001033 0.001033
72282. 1.49737 0.00093(14) 48827652. 0.001033 0.001033
72290. 1.49752 0.00083(14) 51362356. 0.001033 0.001033
72297. 1.49766 0.00074(13) 61359752. 0.001033 0.001033
72304. 1.49781 0.00095(15) 46287064. 0.001033 0.001033
72311. 1.49796 0.00109(15) 41905540. 0.001033 0.001033
72319. 1.49812 0.00104(15) 44011952. 0.001033 0.001033
72326. 1.49826 0.00100(15) 43298816. 0.001033 0.001033
72333. 1.49841 0.00095(15) 47111844. 0.001033 0.001033
72340. 1.49856 0.00100(15) 46310800. 0.001033 0.001033
72347. 1.49871 0.00110(16) 40435524. 0.001033 0.001033
72355. 1.49886 0.00113(16) 38708316. 0.001033 0.001033
72362. 1.49901 0.00107(16) 40548908. 0.001033 0.001033
72369. 1.49916 0.00102(15) 43662048. 0.001033 0.001033
72376. 1.49931 0.00106(15) 42447700. 0.001033 0.001033
72384. 1.49946 0.00104(16) 40496832. 0.001033 0.001033
72391. 1.49961 0.00102(15) 43999144. 0.001033 0.001033
72398. 1.49976 0.00110(16) 40718004. 0.001033 0.001033
72405. 1.49991 0.00117(17) 35808848. 0.001033 0.001033
72413. 1.50006 0.00105(15) 42308724. 0.001033 0.001033
72420. 1.50021 0.00096(14) 47799068. 0.001033 0.001033
72427. 1.50036 0.00107(16) 40774816. 0.001033 0.001033
72434. 1.50051 0.00115(16) 38185552. 0.001033 0.001033
72442. 1.50066 0.00111(16) 39749896. 0.001033 0.001033
72449. 1.50082 0.00112(16) 40106676. 0.001033 0.001033
72456. 1.50096 0.00140(18) 30504198. 0.001033 0.001033
72463. 1.50111 0.00113(16) 38889216. 0.001033 0.001033
72471. 1.50126 0.00080(13) 56566492. 0.001033 0.001033
72478. 1.50141 0.00081(13) 55747416. 0.001033 0.001033
72485. 1.50157 0.00095(14) 47774480. 0.001033 0.001033
72492. 1.50172 0.00123(17) 34736476. 0.001033 0.001033
72500. 1.50187 0.00126(17) 34984572. 0.001033 0.001033
72507. 1.50202 0.00128(18) 32610598. 0.001033 0.001033
72514. 1.50217 0.00106(16) 38159536. 0.001033 0.001033
72521. 1.50232 0.00100(16) 40138720. 0.001032 0.001032
72529. 1.50247 0.00099(15) 43065108. 0.001032 0.001032
72536. 1.50262 0.00090(14) 47981376. 0.001032 0.001032
72543. 1.50277 0.00093(15) 46037336. 0.001032 0.001032
72550. 1.50292 0.00098(15) 44462788. 0.001032 0.001032
72558. 1.50307 0.00113(16) 40208184. 0.001032 0.001032
72565. 1.50322 0.00114(16) 39107808. 0.001032 0.001032
72572. 1.50337 0.00094(15) 46620132. 0.001032 0.001032
72579. 1.50352 0.00101(15) 44704168. 0.001032 0.001032
72587. 1.50367 0.00120(16) 37246676. 0.001032 0.001032
72594. 1.50382 0.00116(16) 37082616. 0.001032 0.001032
72601. 1.50397 0.00102(15) 42904728. 0.001032 0.001032
72608. 1.50412 0.00105(16) 41315552. 0.001032 0.001032
72616. 1.50427 0.00096(15) 46949388. 0.001032 0.001032
72623. 1.50442 0.00081(13) 57141340. 0.001032 0.001032
72630. 1.50457 0.00093(15) 45711220. 0.001032 0.001032
72637. 1.50472 0.00103(16) 39053604. 0.001032 0.001032
72645. 1.50487 0.00082(14) 51217824. 0.001032 0.001032
72652. 1.50502 0.00060(12) 74861232. 0.001032 0.001032
72659. 1.50517 0.00066(12) 65304092. 0.001032 0.001032
72667. 1.50533 0.00078(13) 55882004. 0.001032 0.001032
72674. 1.50548 0.00090(14) 49995696. 0.001032 0.001032
72681. 1.50563 0.00108(15) 42109332. 0.001032 0.001032
72688. 1.50578 0.00120(17) 34861572. 0.001032 0.001032
72696. 1.50593 0.00102(16) 41601956. 0.001032 0.001032
72703. 1.50608 0.00102(15) 43163652. 0.001032 0.001032
72710. 1.50623 0.00112(16) 39455356. 0.001032 0.001032
72717. 1.50638 0.00100(15) 45696188. 0.001032 0.001032
72725. 1.50653 0.00100(15) 42963892. 0.001032 0.001032
72732. 1.50668 0.00092(15) 46293316. 0.001032 0.001032
72739. 1.50683 0.00076(13) 58596904. 0.001032 0.001032
72747. 1.50698 0.00080(13) 56201432. 0.001032 0.001032
72754. 1.50713 0.00093(14) 49497608. 0.001032 0.001032
72761. 1.50728 0.00114(16) 39669532. 0.001032 0.001032
72768. 1.50744 0.00121(17) 36615600. 0.001032 0.001032
72776. 1.50759 0.00107(15) 42803588. 0.001032 0.001032
72783. 1.50774 0.00105(15) 42908528. 0.001032 0.001032
72790. 1.50789 0.00098(15) 44715864. 0.001032 0.001038
72797. 1.50804 0.00084(14) 54497416. 0.001032 0.001038
72805. 1.50819 0.00082(13) 55731636. 0.001032 0.001038
72812. 1.50834 0.00085(14) 51126260. 0.001031 0.001038
72819. 1.50849 0.00089(14) 49736616. 0.001031 0.001038
72827. 1.50864 0.00101(15) 45261276. 0.001031 0.001038
72834. 1.50879 0.00107(15) 42138964. 0.001031 0.001038
72841. 1.50894 0.00117(16) 38176000. 0.001031 0.001038
72848. 1.50910 0.00132(18) 32550676. 0.001031 0.001038
72856. 1.50925 0.00109(15) 41882416. 0.001031 0.001038
72863. 1.50940 0.00104(15) 42294312. 0.001031 0.001039
72870. 1.50955 0.00100(15) 44438252. 0.001031 0.001039
72878. 1.50970 0.00101(15) 44428104. 0.001031 0.001039
72885. 1.50985 0.00097(15) 46656584. 0.001031 0.001039
72892. 1.51000 0.00091(14) 48615584. 0.001031 0.001039
72899. 1.51015 0.00084(14) 54365608. 0.001031 0.001039
72907. 1.51030 0.00106(16) 39621932. 0.001031 0.001039
72914. 1.51045 0.00099(15) 42462376. 0.001031 0.001039
72921. 1.51061 0.00099(15) 44328140. 0.001031 0.001039
72929. 1.51076 0.00117(16) 37566508. 0.001031 0.001040
72936. 1.51091 0.00111(16) 39824976. 0.001031 0.001040
72943. 1.51106 0.00100(15) 43937864. 0.001031 0.001040
72951. 1.51121 0.00104(15) 44766980. 0.001031 0.001040
72958. 1.51136 0.00118(16) 38220116. 0.001031 0.001040
72965. 1.51151 0.00112(16) 39063688. 0.001031 0.001040
72972. 1.51166 0.00114(16) 37366272. 0.001031 0.001041
72980. 1.51181 0.00116(16) 37402488. 0.001031 0.001041
72987. 1.51197 0.00115(16) 38700408. 0.001031 0.001041
72994. 1.51212 0.00105(15) 41922616. 0.001031 0.001041
73002. 1.51227 0.00093(15) 46089672. 0.001031 0.001041
73009. 1.51242 0.00088(14) 50519388. 0.001031 0.001041
73016. 1.51257 0.00087(14) 52985576. 0.001031 0.001042
73024. 1.51272 0.00082(13) 56479068. 0.001031 0.001042
73031. 1.51287 0.00091(14) 51191988. 0.001031 0.001042
73038. 1.51303 0.00102(15) 44661800. 0.001031 0.001042
73045. 1.51318 0.00092(14) 50557208. 0.001030 0.001043
73053. 1.51333 0.00104(15) 44046008. 0.001030 0.001043
73060. 1.51348 0.00126(17) 34637408. 0.001030 0.001043
73067. 1.51363 0.00117(16) 38473396. 0.001030 0.001043
73075. 1.51378 0.00117(16) 38401792. 0.001030 0.001044
73082. 1.51393 0.00104(15) 43336012. 0.001030 0.001044
73089. 1.51409 0.00103(16) 40485124. 0.001030 0.001044
73097. 1.51424 0.00104(16) 40141132. 0.001030 0.001045
73104. 1.51439 0.00089(14) 50995320. 0.001030 0.001045
73111. 1.51454 0.00091(14) 52774196. 0.001030 0.001045
73119. 1.51469 0.00102(15) 45667036. 0.001030 0.001046
73126. 1.51484 0.00093(14) 49369384. 0.001030 0.001046
73133. 1.51499 0.00088(14) 49503732. 0.001030 0.001046
73140. 1.51515 0.00092(15) 47478472. 0.001030 0.001047
73148. 1.51530 0.00095(15) 45719080. 0.001030 0.001047
73155. 1.51545 0.00103(15) 42154464. 0.001030 0.001048
73162. 1.51560 0.00103(15) 43170480. 0.001030 0.001048
73170. 1.51575 0.00101(15) 44745104. 0.001030 0.001049
73177. 1.51590 0.00111(16) 39660604. 0.001030 0.001049
73184. 1.51606 0.00111(16) 40620972. 0.001030 0.001050
73192. 1.51621 0.00095(14) 48662248. 0.001030 0.001050
73199. 1.51636 0.00076(13) 60961216. 0.001030 0.001051
73206. 1.51651 0.00083(14) 53504516. 0.001030 0.001052
73214. 1.51666 0.00098(15) 45333328. 0.001030 0.001052
73221. 1.51681 0.00101(15) 44985812. 0.001030 0.001053
73228. 1.51697 0.00104(15) 44490788. 0.001030 0.001054
73236. 1.51712 0.00121(16) 37231868. 0.001030 0.001054
73243. 1.51727 0.00130(17) 33737644. 0.001029 0.001055
73250. 1.51742 0.00113(16) 40307552. 0.001029 0.001056
73258. 1.51757 0.00114(16) 37387796. 0.001029 0.001057
73265. 1.51773 0.00120(17) 36203728. 0.001029 0.001058
73272. 1.51788 0.00132(17) 33239248. 0.001029 0.001059
73280. 1.51803 0.00134(18) 31846004. 0.001029 0.001060
73287. 1.51818 0.00127(17) 35093636. 0.001029 0.001061
73294. 1.51833 0.00131(17) 35070236. 0.001029 0.001062
73302. 1.51848 0.00139(18) 31664196. 0.001029 0.001064
73309. 1.51864 0.00141(18) 31169634. 0.001029 0.001065
73316. 1.51879 0.00149(19) 29166578. 0.001029 0.001066
73324. 1.51894 0.00145(18) 29900050. 0.001029 0.001068
73331. 1.51909 0.00137(18) 32076990. 0.001029 0.001069
73338. 1.51924 0.00151(19) 28253068. 0.001029 0.001071
73346. 1.51940 0.00151(18) 29452870. 0.001029 0.001073
73353. 1.51955 0.00144(18) 32086420. 0.001029 0.001075
73360. 1.51970 0.00149(18) 29684318. 0.001029 0.001077
73368. 1.51985 0.00135(18) 31498522. 0.001029 0.001079
73375. 1.52000 0.00135(17) 32769498. 0.001029 0.001082
73382. 1.52016 0.00146(18) 30352786. 0.001029 0.001084
73390. 1.52031 0.00131(17) 33572348. 0.001029 0.001087
73397. 1.52046 0.00129(17) 35308648. 0.001029 0.001090
73404. 1.52061 0.00152(18) 30120054. 0.001029 0.001094
73412. 1.52077 0.00161(19) 27406244. 0.001029 0.001097
73419. 1.52092 0.00141(18) 32097320. 0.001029 0.001101
73426. 1.52107 0.00154(19) 27926276. 0.001028 0.001105
73434. 1.52122 0.00148(18) 29761830. 0.001028 0.001110
73441. 1.52137 0.00144(18) 30559044. 0.001028 0.001115
73448. 1.52153 0.00156(19) 27477336. 0.001028 0.001120
73456. 1.52168 0.00155(19) 28226682. 0.001028 0.001126
73463. 1.52183 0.00151(19) 28436236. 0.001028 0.001133
73470. 1.52198 0.00151(19) 29177380. 0.001028 0.001140
73478. 1.52214 0.00181(20) 24119354. 0.001028 0.001149
73485. 1.52229 0.00186(20) 24579614. 0.001028 0.001158
73492. 1.52244 0.00181(21) 23492210. 0.001028 0.001169
73500. 1.52259 0.00148(19) 28859028. 0.001028 0.001181
73507. 1.52274 0.00164(20) 25827004. 0.001028 0.001196
73514. 1.52290 0.00218(23) 18763652. 0.001028 0.001213
73522. 1.52305 0.00224(23) 18490014. 0.001028 0.001236
73529. 1.52320 0.00212(22) 19997970. 0.001028 0.001265
73537. 1.52335 0.00209(22) 19953206. 0.001028 0.001305
73544. 1.52351 0.00205(22) 20612830. 0.001028 0.001358
73551. 1.52366 0.00223(23) 19010996. 0.001028 0.001432
73559. 1.52381 0.00233(24) 17679846. 0.001028 0.001533
73566. 1.52396 0.00238(24) 17426872. 0.001028 0.001671
73573. 1.52412 0.00265(25) 15873037. 0.001028 0.001856
73581. 1.52427 0.00289(26) 14754304. 0.001028 0.002097
73588. 1.52442 0.00328(28) 12645041. 0.001027 0.002407
73595. 1.52457 0.00358(29) 11601102. 0.001027 0.002788
73603. 1.52473 0.00384(30) 11124231. 0.001027 0.003244
73610. 1.52488 0.00454(33) 9163864. 0.001027 0.003770
73617. 1.52503 0.00489(34) 8680282. 0.001027 0.004354
73625. 1.52518 0.0055(4) 7591083. 0.00103 0.00499
73632. 1.52534 0.0058(4) 7234732. 0.00103 0.00563
73640. 1.52549 0.0063(4) 6605633. 0.00103 0.00623
73647. 1.52564 0.0071(4) 5821052. 0.00103 0.00676
73654. 1.52579 0.0073(4) 5743734. 0.00103 0.00717
73662. 1.52595 0.0068(4) 6175708. 0.00103 0.00740
73669. 1.52610 0.0064(4) 6541661. 0.00103 0.00743
73676. 1.52625 0.0065(4) 6532106. 0.00103 0.00723
73684. 1.52640 0.0064(4) 6600223. 0.00103 0.00683
73691. 1.52656 0.0059(4) 7199291. 0.00103 0.00628
73699. 1.52671 0.0055(4) 7608361. 0.00103 0.00564
73706. 1.52686 0.0054(4) 7572387. 0.00103 0.00498
73713. 1.52701 0.00484(34) 8533848. 0.001027 0.004328
73721. 1.52717 0.00432(32) 9525326. 0.001027 0.003724
73728. 1.52732 0.00363(30) 11290366. 0.001027 0.003194
73735. 1.52747 0.00318(27) 13328124. 0.001027 0.002745
73743. 1.52763 0.00306(27) 13596536. 0.001026 0.002373
73750. 1.52778 0.00255(24) 16994752. 0.001026 0.002077
73758. 1.52793 0.00261(25) 16496470. 0.001026 0.001848
73765. 1.52809 0.00272(26) 14988913. 0.001026 0.001676
73772. 1.52824 0.00251(25) 16197869. 0.001026 0.001546
73780. 1.52839 0.00239(24) 17360398. 0.001026 0.001451
73787. 1.52854 0.00224(23) 18624760. 0.001026 0.001380
73794. 1.52870 0.00197(22) 21519184. 0.001026 0.001328
73802. 1.52885 0.00186(21) 22218732. 0.001026 0.001289
73809. 1.52900 0.00177(21) 22613400. 0.001026 0.001258
73817. 1.52916 0.00153(19) 26635466. 0.001026 0.001234
73824. 1.52931 0.00160(20) 25731106. 0.001026 0.001214
73831. 1.52946 0.00168(20) 24851830. 0.001026 0.001197
73839. 1.52962 0.00142(18) 30139812. 0.001026 0.001183
73846. 1.52977 0.00114(16) 38739780. 0.001026 0.001171
73853. 1.52992 0.00113(16) 38944804. 0.001026 0.001160
73861. 1.53007 0.00126(17) 33553992. 0.001026 0.001150
73868. 1.53023 0.00132(18) 31590360. 0.001026 0.001141
73876. 1.53038 0.00123(17) 33937116. 0.001026 0.001134
73883. 1.53053 0.00116(17) 35977820. 0.001025 0.001126
73890. 1.53069 0.00127(17) 33502170. 0.001025 0.001120
73898. 1.53084 0.00136(18) 31181744. 0.001025 0.001114
73905. 1.53099 0.00123(17) 33904404. 0.001025 0.001109
73913. 1.53114 0.00112(16) 37502152. 0.001025 0.001104
73920. 1.53130 0.00119(17) 34999644. 0.001025 0.001099
73927. 1.53145 0.00135(18) 30247792. 0.001025 0.001095
73935. 1.53160 0.00134(18) 30785236. 0.001025 0.001092
73942. 1.53176 0.00120(17) 36086948. 0.001025 0.001088
73950. 1.53191 0.00120(17) 35760256. 0.001025 0.001085
73957. 1.53206 0.00135(18) 29432924. 0.001025 0.001082
73964. 1.53222 0.00131(18) 30218564. 0.001025 0.001079
73972. 1.53237 0.00106(16) 37954768. 0.001025 0.001076
73979. 1.53252 0.00107(16) 37882604. 0.001025 0.001074
73987. 1.53268 0.00135(19) 28969098. 0.001025 0.001072
73994. 1.53283 0.00154(20) 25221648. 0.001025 0.001069
74001. 1.53298 0.00147(19) 28787592. 0.001025 0.001067
74009. 1.53314 0.00146(18) 30423978. 0.001025 0.001066
74016. 1.53329 0.00150(19) 28401246. 0.001025 0.001064
74024. 1.53344 0.00148(19) 28283846. 0.001024 0.001062
74031. 1.53360 0.00155(20) 25855322. 0.001024 0.001061
74038. 1.53375 0.00147(19) 27136592. 0.001024 0.001059
74046. 1.53390 0.00138(18) 30793516. 0.001024 0.001058
74053. 1.53406 0.00144(18) 29579840. 0.001024 0.001056
74061. 1.53421 0.00138(19) 28993424. 0.001024 0.001055
74068. 1.53437 0.00117(17) 35977392. 0.001024 0.001054
74075. 1.53452 0.00126(17) 33227030. 0.001024 0.001053
74083. 1.53467 0.00129(18) 32268412. 0.001024 0.001052
74090. 1.53482 0.00129(18) 32030686. 0.001024 0.001051
74098. 1.53498 0.00132(18) 30662674. 0.001024 0.001050
74105. 1.53513 0.00141(19) 29122552. 0.001024 0.001049
74112. 1.53529 0.00142(19) 28294504. 0.001024 0.001048
74120. 1.53544 0.00116(17) 36539488. 0.001024 0.001047
74127. 1.53560 0.00110(16) 38711764. 0.001024 0.001046
74135. 1.53575 0.00110(16) 38523944. 0.001024 0.001046
74142. 1.53590 0.00107(16) 39586076. 0.001024 0.001045
74150. 1.53606 0.00106(16) 37558804. 0.001023 0.001044
74157. 1.53621 0.00099(16) 39469260. 0.001023 0.001043
74164. 1.53636 0.00110(17) 36209580. 0.001023 0.001043
74172. 1.53652 0.00118(17) 35409196. 0.001023 0.001042
74179. 1.53667 0.00114(17) 35920944. 0.001023 0.001042
74187. 1.53682 0.00103(16) 37516300. 0.001023 0.001041
74194. 1.53698 0.00085(15) 46966044. 0.001023 0.001040
74201. 1.53713 0.00092(15) 43384320. 0.001023 0.001040
74209. 1.53728 0.00092(16) 41378740. 0.001023 0.001039
74216. 1.53744 0.00082(14) 49829636. 0.001023 0.001039
74224. 1.53759 0.00094(15) 44642900. 0.001023 0.001038
74231. 1.53775 0.00107(16) 39290680. 0.001023 0.001038
74239. 1.53790 0.00116(17) 34584028. 0.001023 0.001037
74246. 1.53805 0.00098(15) 42066488. 0.001023 0.001037
74253. 1.53821 0.00093(15) 45355412. 0.001023 0.001037
74261. 1.53836 0.00102(16) 38281812. 0.001023 0.001036
74268. 1.53851 0.00089(15) 43809004. 0.001023 0.001036
74276. 1.53867 0.00087(15) 47394576. 0.001022 0.001035
74283. 1.53882 0.00100(16) 41446288. 0.001022 0.001035
74291. 1.53898 0.00095(15) 43369980. 0.001022 0.001035
74298. 1.53913 0.00096(15) 42188396. 0.001022 0.001034
74305. 1.53929 0.00111(16) 37341156. 0.001022 0.001034
74313. 1.53944 0.00111(16) 38087492. 0.001022 0.001034
74320. 1.53959 0.00099(15) 41823472. 0.001022 0.001033
74328. 1.53975 0.00106(16) 37486868. 0.001022 0.001033
74335. 1.53990 0.00124(17) 33057156. 0.001022 0.001033
74343. 1.54005 0.00127(17) 33144708. 0.001022 0.001032
74350. 1.54021 0.00126(17) 33328082. 0.001022 0.001032
74357. 1.54036 0.00109(16) 39127948. 0.001022 0.001032
74365. 1.54052 0.00109(16) 36793952. 0.001022 0.001032
74372. 1.54067 0.00129(18) 31263816. 0.001022 0.001031
74380. 1.54083 0.00127(17) 34683108. 0.001022 0.001031
74387. 1.54098 0.00124(17) 34365036. 0.001022 0.001031
74395. 1.54113 0.00114(16) 36830824. 0.001022 0.001031
74402. 1.54129 0.00100(15) 42499300. 0.001021 0.001030
74410. 1.54144 0.00120(17) 33820816. 0.001021 0.001030
74417. 1.54160 0.00137(18) 29547578. 0.001021 0.001030
74424. 1.54175 0.00129(17) 33356954. 0.001021 0.001030
74432. 1.54191 0.00121(17) 33972108. 0.001021 0.001029
74439. 1.54206 0.00095(15) 43233780. 0.001021 0.001029
74447. 1.54221 0.00105(16) 38211752. 0.001021 0.001029
74454. 1.54237 0.00145(19) 26338806. 0.001021 0.001029
74462. 1.54252 0.00138(19) 28746348. 0.001021 0.001029
74469. 1.54268 0.00124(18) 31915488. 0.001021 0.001028
74477. 1.54283 0.00121(18) 31687078. 0.001021 0.001028
74484. 1.54299 0.00111(17) 35243848. 0.001021 0.001028
74491. 1.54314 0.00105(16) 39022700. 0.001021 0.001028
74499. 1.54329 0.00096(15) 45180852. 0.001021 0.001028
74506. 1.54345 0.00098(15) 43749696. 0.001021 0.001027
74514. 1.54360 0.00111(17) 35504372. 0.001020 0.001027
74521. 1.54376 0.00108(17) 36146832. 0.001020 0.001027
74529. 1.54391 0.00093(15) 43018844. 0.001020 0.001027
74536. 1.54407 0.00104(16) 39111676. 0.001020 0.001027
74544. 1.54422 0.00128(18) 29508934. 0.001020 0.001026
74551. 1.54437 0.00113(17) 34646500. 0.001020 0.001020
74559. 1.54453 0.00101(16) 39061172. 0.001020 0.001020
74566. 1.54468 0.00089(15) 47070380. 0.001020 0.001020
74573. 1.54484 0.00108(16) 39497708. 0.001020 0.001020
74581. 1.54499 0.00122(17) 34634744. 0.001020 0.001020
74588. 1.54515 0.00097(15) 43970136. 0.001020 0.001020
74596. 1.54530 0.00081(14) 52515680. 0.001020 0.001020
74603. 1.54546 0.00099(16) 39717800. 0.001020 0.001020
74611. 1.54561 0.00107(17) 36608432. 0.001020 0.001020
74618. 1.54577 0.00116(17) 33568248. 0.001020 0.001020
74626. 1.54592 0.00123(18) 30954454. 0.001020 0.001020
74633. 1.54608 0.00116(17) 34717148. 0.001019 0.001019
74641. 1.54623 0.00110(16) 37093100. 0.001019 0.001019
74648. 1.54638 0.00108(16) 37828912. 0.001019 0.001019
74656. 1.54654 0.00104(16) 40618376. 0.001019 0.001019
74663. 1.54670 0.00126(18) 31258524. 0.001019 0.001019
74670. 1.54685 0.00121(17) 33101548. 0.001019 0.001019
74678. 1.54700 0.00096(15) 44877572. 0.001019 0.001019
74685. 1.54716 0.00104(16) 40003216. 0.001019 0.001019
74693. 1.54731 0.00114(17) 34473448. 0.001019 0.001019
74700. 1.54747 0.00110(17) 34453752. 0.001019 0.001019
74708. 1.54762 0.00109(17) 34058604. 0.001019 0.001019
74715. 1.54778 0.00102(16) 38220924. 0.001019 0.001019
74723. 1.54793 0.00101(16) 40939488. 0.001019 0.001019
74730. 1.54809 0.00095(15) 45454624. 0.001019 0.001019
74738. 1.54824 0.00110(16) 38234084. 0.001019 0.001019
74745. 1.54840 0.00122(18) 32069176. 0.001018 0.001018
74753. 1.54855 0.00108(16) 36822424. 0.001018 0.001018
74760. 1.54871 0.00101(16) 40650868. 0.001018 0.001018
74768. 1.54886 0.00098(15) 42071812. 0.001018 0.001018
74775. 1.54902 0.00105(16) 37278952. 0.001018 0.001018
74783. 1.54917 0.00104(16) 37948568. 0.001018 0.001018
74790. 1.54933 0.00100(16) 40674464. 0.001018 0.001018
74798. 1.54948 0.00098(16) 40046684. 0.001018 0.001018
74805. 1.54964 0.00100(16) 38579792. 0.001018 0.001018
74813. 1.54979 0.00101(16) 38861140. 0.001018 0.001018
74820. 1.54995 0.00090(15) 46711276. 0.001018 0.001018
74827. 1.55010 0.00077(14) 52915896. 0.001018 0.001018
74835. 1.55026 0.00074(14) 54459104. 0.001018 0.001018
74842. 1.55041 0.00097(16) 41332112. 0.001018 0.001018
74850. 1.55057 0.00121(18) 31796740. 0.001017 0.001017
74857. 1.55072 0.00117(18) 32197646. 0.001017 0.001017
74865. 1.55088 0.00100(16) 39294016. 0.001017 0.001017
74872. 1.55103 0.00100(16) 41091540. 0.001017 0.001017
74880. 1.55119 0.00101(16) 38570732. 0.001017 0.001017
74887. 1.55134 0.00095(16) 37873216. 0.001017 0.001017
74895. 1.55150 0.00072(14) 53088388. 0.001017 0.001017
74902. 1.55165 0.00073(14) 54091860. 0.001017 0.001017
74910. 1.55181 0.00093(16) 41498036. 0.001017 0.001017
74917. 1.55196 0.00094(15) 41949544. 0.001017 0.001017
74925. 1.55212 0.00089(15) 46251612. 0.001017 0.001017
74932. 1.55228 0.00096(15) 43135056. 0.001017 0.001017
74940. 1.55243 0.00103(16) 38940216. 0.001017 0.001017
74947. 1.55259 0.00104(16) 36821812. 0.001017 0.001017
74955. 1.55274 0.00118(18) 32162040. 0.001016 0.001016
74962. 1.55290 0.00114(17) 34786816. 0.001016 0.001016
74970. 1.55305 0.00109(16) 38210608. 0.001016 0.001016
74977. 1.55321 0.00118(17) 34446284. 0.001016 0.001016
74985. 1.55336 0.00110(16) 37653680. 0.001016 0.001016
74992. 1.55352 0.00096(15) 43362056. 0.001016 0.001016
75000. 1.55367 0.00093(15) 44780596. 0.001016 0.001016
75007. 1.55383 0.00099(15) 41776656. 0.001016 0.001016
75015. 1.55399 0.00100(16) 40355036. 0.001016 0.001016
75022. 1.55414 0.00096(15) 42014232. 0.001016 0.001016
75030. 1.55429 0.00102(16) 39130656. 0.001016 0.001016
75037. 1.55445 0.00096(16) 41288496. 0.001016 0.001016
75045. 1.55461 0.00091(15) 44614688. 0.001016 0.001016
75052. 1.55476 0.00107(16) 36949016. 0.001016 0.001016
75060. 1.55492 0.00115(17) 34626052. 0.001015 0.001015
75067. 1.55507 0.00108(16) 38004300. 0.001015 0.001015
75075. 1.55523 0.00103(16) 39694572. 0.001015 0.001015
75082. 1.55538 0.00107(17) 36497888. 0.001015 0.001015
75090. 1.55554 0.00102(16) 39950396. 0.001015 0.001015
75097. 1.55569 0.00101(16) 41438404. 0.001015 0.001015
75105. 1.55585 0.00104(16) 40338716. 0.001015 0.001015
75112. 1.55601 0.00116(17) 33603488. 0.001015 0.001015
75120. 1.55616 0.00121(18) 30491092. 0.001015 0.001015
75127. 1.55632 0.00104(16) 37002496. 0.001015 0.001015
75135. 1.55647 0.00098(16) 39852444. 0.001015 0.001015
75142. 1.55663 0.00115(17) 33099146. 0.001015 0.001015
75150. 1.55678 0.00112(17) 35476220. 0.001015 0.001015
75157. 1.55694 0.00107(17) 35482976. 0.001015 0.001015
75165. 1.55710 0.00103(16) 37292060. 0.001014 0.001014
75173. 1.55725 0.00104(16) 40031768. 0.001014 0.001014
75180. 1.55741 0.00097(15) 42408656. 0.001014 0.001014
75188. 1.55756 0.00085(15) 44296992. 0.001014 0.001014
75195. 1.55772 0.00091(16) 39822548. 0.001014 0.001014
75203. 1.55787 0.00098(16) 40536180. 0.001014 0.001014
75210. 1.55803 0.00092(15) 45896712. 0.001014 0.001014
75218. 1.55819 0.00085(14) 50450620. 0.001014 0.001014
75225. 1.55834 0.00099(15) 42227852. 0.001014 0.001014
75233. 1.55850 0.00117(17) 34585920. 0.001014 0.001014
75240. 1.55866 0.00115(17) 36708096. 0.001014 0.001014
75248. 1.55881 0.00103(15) 43109560. 0.001014 0.001014
75255. 1.55897 0.00101(16) 40204020. 0.001014 0.001014
75263. 1.55912 0.00099(15) 42288252. 0.001014 0.001014
75270. 1.55928 0.00099(16) 40723780. 0.001013 0.001013
75278. 1.55944 0.00083(14) 47948400. 0.001013 0.001013
75285. 1.55959 0.00089(15) 45594980. 0.001013 0.001013
75293. 1.55975 0.00103(16) 38118592. 0.001013 0.001013
75300. 1.55990 0.00101(16) 39125848. 0.001013 0.001013
75308. 1.56006 0.00120(17) 33543424. 0.001013 0.001013
75316. 1.56022 0.00137(19) 28324412. 0.001013 0.001013
75323. 1.56037 0.00131(18) 29855524. 0.001013 0.001013
75331. 1.56053 0.00127(18) 31785404. 0.001013 0.001013
75338. 1.56068 0.00126(18) 31426020. 0.001013 0.001013
75346. 1.56084 0.00129(19) 28237680. 0.001013 0.001013
75353. 1.56100 0.00115(17) 33150662. 0.001013 0.001013
75361. 1.56115 0.00112(17) 34891684. 0.001013 0.001013
75368. 1.56131 0.00122(17) 32980124. 0.001012 0.001012
75376. 1.56147 0.00126(17) 32893362. 0.001012 0.001012
75383. 1.56162 0.00134(19) 28890248. 0.001012 0.001012
75391. 1.56178 0.00124(18) 31510458. 0.001012 0.001012
75398. 1.56193 0.00117(17) 33598500. 0.001012 0.001012
75406. 1.56209 0.00113(17) 34332340. 0.001012 0.001012
75414. 1.56225 0.00106(17) 36234148. 0.001012 0.001012
75421. 1.56240 0.00098(16) 39896256. 0.001012 0.001012
75429. 1.56256 0.00095(15) 41668176. 0.001012 0.001012
75436. 1.56272 0.00096(15) 42678956. 0.001012 0.001012
75444. 1.56287 0.00094(16) 41269480. 0.001012 0.001012
75451. 1.56303 0.00089(15) 41949240. 0.001012 0.001012
75459. 1.56318 0.00091(15) 43341984. 0.001012 0.001012
75466. 1.56334 0.00108(16) 37535980. 0.001011 0.001011
75474. 1.56350 0.00121(18) 32341788. 0.001011 0.001011
75481. 1.56365 0.00104(16) 37239168. 0.001011 0.001011
75489. 1.56381 0.00081(14) 53623136. 0.001011 0.001011
75497. 1.56397 0.00077(14) 54433820. 0.001011 0.001011
75504. 1.56412 0.00077(13) 55799584. 0.001011 0.001011
75512. 1.56428 0.00103(16) 41160128. 0.001011 0.001011
75519. 1.56443 0.00122(17) 33615476. 0.001011 0.001011
75527. 1.56459 0.00111(17) 36485532. 0.001011 0.001011
75534. 1.56475 0.00094(16) 41525120. 0.001011 0.001011
75542. 1.56491 0.00081(14) 48244520. 0.001011 0.001011
75549. 1.56506 0.00102(16) 40344304. 0.001011 0.001011
75557. 1.56522 0.00128(18) 32016602. 0.001011 0.001011
75564. 1.56537 0.00109(17) 35831700. 0.001010 0.001010
75572. 1.56553 0.00096(16) 39712788. 0.001010 0.001010
75580. 1.56569 0.00102(16) 36861116. 0.001010 0.001010
75587. 1.56584 0.00085(15) 45451648. 0.001010 0.001010
75595. 1.56600 0.00082(14) 47916944. 0.001010 0.001010
75602. 1.56616 0.00099(16) 39601388. 0.001010 0.001010
75610. 1.56631 0.00093(15) 42286032. 0.001010 0.001010
75617. 1.56647 0.00093(15) 42191488. 0.001010 0.001010
75625. 1.56663 0.00124(18) 31272936. 0.001010 0.001010
75633. 1.56678 0.00127(18) 31984536. 0.001010 0.001010
75640. 1.56694 0.00105(16) 37930780. 0.001010 0.001010
75648. 1.56710 0.00088(15) 43539308. 0.001010 0.001010
75655. 1.56726 0.00095(16) 41401464. 0.001010 0.001010
75663. 1.56741 0.00103(16) 37645568. 0.001009 0.001009
75670. 1.56757 0.00092(15) 44214652. 0.001009 0.001009
75678. 1.56773 0.00089(14) 47840296. 0.001009 0.001009
75685. 1.56788 0.00091(15) 44011144. 0.001009 0.001009
75693. 1.56804 0.00092(15) 43696736. 0.001009 0.001009
75701. 1.56820 0.00098(16) 41351472. 0.001009 0.001009
75708. 1.56835 0.00094(15) 42983804. 0.001009 0.001009
75716. 1.56851 0.00089(15) 46830584. 0.001009 0.001009
75723. 1.56867 0.00108(17) 36566960. 0.001009 0.001009
75731. 1.56882 0.00118(17) 33088598. 0.001009 0.001009
75738. 1.56898 0.00092(15) 46601372. 0.001009 0.001009
75746. 1.56914 0.00090(14) 48650088. 0.001009 0.001009
75754. 1.56929 0.00129(18) 31628332. 0.001009 0.001009
75761. 1.56945 0.00142(19) 27827864. 0.001008 0.001008
75769. 1.56961 0.00117(17) 33315806. 0.001008 0.001008
75776. 1.56977 0.00094(16) 40912380. 0.001008 0.001008
75784. 1.56992 0.00094(15) 41994684. 0.001008 0.001008
75792. 1.57008 0.00115(17) 35678300. 0.001008 0.001008
75799. 1.57024 0.00135(19) 28355110. 0.001008 0.001008
75807. 1.57039 0.00118(18) 32041338. 0.001008 0.001008
75814. 1.57055 0.00097(16) 40332508. 0.001008 0.001008
75822. 1.57071 0.00100(16) 38805728. 0.001008 0.001008
75829. 1.57086 0.00098(16) 39818236. 0.001008 0.001008
75837. 1.57102 0.00095(16) 40656696. 0.001008 0.001008
75845. 1.57118 0.00089(15) 44700120. 0.001008 0.001008
75852. 1.57134 0.00089(15) 45927360. 0.001008 0.001008
75860. 1.57149 0.00101(16) 37823184. 0.001007 0.001007
75867. 1.57165 0.00095(16) 40257564. 0.001007 0.001007
75875. 1.57181 0.00087(15) 43919232. 0.001007 0.001007
75883. 1.57196 0.00106(17) 33769064. 0.001007 0.001007
75890. 1.57212 0.00112(18) 31718528. 0.001007 0.001007
75898. 1.57228 0.00098(16) 38591300. 0.001007 0.001007
75905. 1.57244 0.00092(15) 42925944. 0.001007 0.001007
75913. 1.57259 0.00094(15) 42230640. 0.001007 0.001007
75921. 1.57275 0.00096(16) 40803612. 0.001007 0.001007
75928. 1.57291 0.00103(16) 37245928. 0.001007 0.001007
75936. 1.57307 0.00104(17) 35827620. 0.001007 0.001007
75943. 1.57322 0.00100(16) 38911480. 0.001007 0.001007
75951. 1.57338 0.00111(17) 36683988. 0.001006 0.001006
75959. 1.57354 0.00127(18) 31045968. 0.001006 0.001006
75966. 1.57370 0.00108(16) 37619068. 0.001006 0.001006
75974. 1.57385 0.00095(15) 44608964. 0.001006 0.001006
75981. 1.57401 0.00093(15) 46169572. 0.001006 0.001006
75989. 1.57417 0.00095(16) 41429668. 0.001006 0.001006
75996. 1.57433 0.00109(17) 35421292. 0.001006 0.001006
76004. 1.57448 0.00115(17) 36069216. 0.001006 0.001006
76012. 1.57464 0.00115(17) 36057876. 0.001006 0.001006
76019. 1.57480 0.00117(17) 32879226. 0.001006 0.001006
76027. 1.57496 0.00108(17) 35255520. 0.001006 0.001006
76035. 1.57511 0.00102(16) 37377704. 0.001006 0.001006
76042. 1.57527 0.00092(15) 41850172. 0.001006 0.001006
76050. 1.57543 0.00092(16) 41139468. 0.001005 0.001005
76057. 1.57559 0.00109(17) 33354618. 0.001005 0.001005
76065. 1.57574 0.00116(18) 31030514. 0.001005 0.001005
76073. 1.57590 0.00095(16) 39339832. 0.001005 0.001005
76080. 1.57606 0.00078(14) 50055100. 0.001005 0.001005
76088. 1.57622 0.00099(16) 38002000. 0.001005 0.001005
76095. 1.57638 0.00096(16) 40479528. 0.001005 0.001005
76103. 1.57653 0.00082(15) 47496296. 0.001005 0.001005
76111. 1.57669 0.00097(16) 38801888. 0.001005 0.001005
76118. 1.57685 0.00113(17) 34341692. 0.001005 0.001005
76126. 1.57701 0.00120(18) 31708694. 0.001005 0.001005
76133. 1.57716 0.00098(16) 39964420. 0.001005 0.001005
76141. 1.57732 0.00084(15) 47064344. 0.001004 0.001004
76149. 1.57748 0.00085(15) 45276984. 0.001004 0.001004
76156. 1.57764 0.00079(14) 49009036. 0.001004 0.001004
76164. 1.57779 0.00088(15) 43526492. 0.001004 0.001004
76172. 1.57795 0.00104(16) 36790528. 0.001004 0.001004
76179. 1.57811 0.00100(16) 38330788. 0.001004 0.001004
76187. 1.57827 0.00096(15) 41766904. 0.001004 0.001004
76194. 1.57843 0.00099(16) 40947216. 0.001004 0.001004
76202. 1.57859 0.00120(18) 31368000. 0.001004 0.001004
76210. 1.57874 0.00136(19) 26803904. 0.001004 0.001004
76217. 1.57890 0.00115(17) 33085580. 0.001004 0.001004
76225. 1.57906 0.00105(16) 37488248. 0.001004 0.001004
76232. 1.57922 0.00114(17) 33605956. 0.001004 0.001004
76240. 1.57937 0.00124(19) 29103118. 0.001003 0.001003
76248. 1.57953 0.00125(18) 30517938. 0.001003 0.001003
76255. 1.57969 0.00119(17) 33130704. 0.001003 0.001003
76263. 1.57985 0.00103(17) 36613064. 0.001003 0.001003
76271. 1.58001 0.00097(16) 36962324. 0.001003 0.001003
76278. 1.58016 0.00092(16) 39614136. 0.001003 0.001003
76286. 1.58032 0.00093(16) 41127632. 0.001003 0.001003
76294. 1.58048 0.00116(18) 32584308. 0.001003 0.001003
76301. 1.58064 0.00112(17) 35317744. 0.001003 0.001003
76309. 1.58080 0.00090(15) 43210220. 0.001003 0.001003
76316. 1.58096 0.00084(15) 45671120. 0.001003 0.001003
76324. 1.58111 0.00090(15) 42733300. 0.001003 0.001003
76332. 1.58127 0.00094(16) 37459848. 0.001002 0.001002
76339. 1.58143 0.00097(17) 36327364. 0.001002 0.001002
76347. 1.58159 0.00091(16) 40855408. 0.001002 0.001002
76355. 1.58175 0.00081(14) 48507664. 0.001002 0.001002
76362. 1.58190 0.00103(17) 35897184. 0.001002 0.001002
76370. 1.58206 0.00112(17) 34008820. 0.001002 0.001002
76378. 1.58222 0.00106(17) 34813700. 0.001002 0.001002
76385. 1.58238 0.00082(14) 47870460. 0.001002 0.001002
76393. 1.58254 0.00089(15) 44644112. 0.001002 0.001002
76400. 1.58269 0.00112(17) 35231176. 0.001002 0.001002
76408. 1.58285 0.00118(18) 31840352. 0.001002 0.001002
76416. 1.58301 0.00124(19) 29173666. 0.001002 0.001002
76423. 1.58317 0.00121(18) 30201122. 0.001002 0.001002
76431. 1.58333 0.00107(17) 36298780. 0.001001 0.001001
76439. 1.58349 0.00102(16) 37854856. 0.001001 0.001001
76446. 1.58365 0.00095(16) 39856512. 0.001001 0.001001
76454. 1.58380 0.00097(16) 40481108. 0.001001 0.001001
76462. 1.58396 0.00109(17) 35498188. 0.001001 0.001001
76469. 1.58412 0.00103(17) 35602176. 0.001001 0.001001
76477. 1.58428 0.00098(16) 38397700. 0.001001 0.001001
76485. 1.58444 0.00110(17) 35089900. 0.001001 0.001001
76492. 1.58460 0.00123(18) 30498060. 0.001001 0.001001
76500. 1.58476 0.00126(19) 28477956. 0.001001 0.001001
76507. 1.58491 0.00101(17) 36207644. 0.001001 0.001001
76515. 1.58507 0.00084(15) 45038580. 0.001001 0.001001
76523. 1.58523 0.00092(15) 42263632. 0.001001 0.001001
76530. 1.58539 0.00099(16) 39017128. 0.001000 0.001000
76538. 1.58555 0.00093(15) 43006784. 0.001000 0.001000
76546. 1.58571 0.00100(16) 38781356. 0.001000 0.001000
76553. 1.58587 0.00126(19) 28860784. 0.001000 0.001000
76561. 1.58602 0.00110(17) 33995444. 0.001000 0.001000
76569. 1.58618 0.00086(14) 48252760. 0.001000 0.001000
76576. 1.58634 0.00109(17) 35228220. 0.001000 0.001000
76584. 1.58650 0.00113(18) 32141368. 0.001000 0.001000
76592. 1.58666 0.00108(17) 33706324. 0.001000 0.001000
76599. 1.58682 0.00104(16) 37915720. 0.001000 0.001000
76607. 1.58698 0.00102(16) 37027024. 0.001000 0.001000
76615. 1.58713 0.00107(17) 33946956. 0.001000 0.001000
76622. 1.58729 0.00107(17) 33554736. 0.000999 0.000999
76630. 1.58745 0.00120(18) 32026460. 0.000999 0.000999
76638. 1.58761 0.00135(18) 29644072. 0.000999 0.000999
76645. 1.58777 0.00127(18) 31115200. 0.000999 0.000999
76653. 1.58793 0.00111(17) 33947892. 0.000999 0.000999
76661. 1.58809 0.00096(16) 40709228. 0.000999 0.000999
76668. 1.58825 0.00102(16) 38427776. 0.000999 0.000999
76676. 1.58841 0.00129(19) 28266462. 0.000999 0.000999
76684. 1.58856 0.00124(18) 30943642. 0.000999 0.000999
76691. 1.58872 0.00109(17) 35740148. 0.000999 0.000999
76699. 1.58888 0.00105(17) 36204408. 0.000999 0.000999
76707. 1.58904 0.00106(17) 34959448. 0.000999 0.000999
76714. 1.58920 0.00099(16) 37440144. 0.000999 0.000999
76722. 1.58936 0.00092(16) 41267720. 0.000998 0.000998
76730. 1.58952 0.00094(16) 41015716. 0.000998 0.000998
76737. 1.58968 0.00094(16) 41178340. 0.000998 0.000998
76745. 1.58984 0.00093(16) 40234892. 0.000998 0.000998
76753. 1.59000 0.00105(17) 34141716. 0.000998 0.000998
76760. 1.59016 0.00104(17) 33539084. 0.000998 0.000998
76768. 1.59031 0.00086(16) 39649180. 0.000998 0.000998
76776. 1.59047 0.00081(15) 44973352. 0.000998 0.000998
76783. 1.59063 0.00122(18) 30667160. 0.000998 0.000998
76791. 1.59079 0.00144(20) 25287436. 0.000998 0.000998
76799. 1.59095 0.00117(18) 32101900. 0.000998 0.000998
76807. 1.59111 0.00108(17) 36470420. 0.000998 0.000998
76814. 1.59127 0.00110(17) 36177360. 0.000998 0.000998
76822. 1.59143 0.00109(17) 34897052. 0.000997 0.000997
76830. 1.59159 0.00125(19) 28823102. 0.000997 0.000997
76837. 1.59175 0.00128(19) 29018858. 0.000997 0.000997
76845. 1.59190 0.00104(16) 37653220. 0.000997 0.000997
76853. 1.59206 0.00103(17) 36447944. 0.000997 0.000997
76860. 1.59222 0.00102(17) 36130080. 0.000997 0.000997
76868. 1.59238 0.00101(17) 36358664. 0.000997 0.000997
76876. 1.59254 0.00116(18) 32507678. 0.000997 0.000997
76883. 1.59270 0.00131(19) 29191802. 0.000997 0.000997
76891. 1.59286 0.00126(18) 32139378. 0.000997 0.000997
76899. 1.59302 0.00121(17) 34512604. 0.000997 0.000997
76906. 1.59318 0.00135(19) 27817840. 0.000997 0.000997
76914. 1.59334 0.00122(18) 30753732. 0.000996 0.000996
76922. 1.59350 0.00104(17) 35511260. 0.000996 0.000996
76930. 1.59366 0.00098(16) 37034484. 0.000996 0.000996
76937. 1.59382 0.00092(16) 38790952. 0.000996 0.000996
76945. 1.59398 0.00082(15) 44909340. 0.000996 0.000996
76953. 1.59414 0.00099(16) 38146876. 0.000996 0.000996
76960. 1.59430 0.00104(16) 36862348. 0.000996 0.000996
76968. 1.59446 0.00093(16) 40918000. 0.000996 0.000996
76976. 1.59462 0.00097(16) 38015540. 0.000996 0.000996
76983. 1.59477 0.00088(15) 44367676. 0.000996 0.000996
76991. 1.59493 0.00100(16) 39054364. 0.000996 0.000996
76999. 1.59510 0.00140(20) 25461440. 0.000996 0.000996
77006. 1.59525 0.00126(19) 29030840. 0.000996 0.000996
77014. 1.59541 0.00113(17) 32968702. 0.000995 0.000995
77022. 1.59557 0.00123(19) 29203818. 0.000995 0.000995
77030. 1.59573 0.00123(18) 30998842. 0.000995 0.001020
77037. 1.59589 0.00129(18) 30103544. 0.000995 0.001021
77045. 1.59605 0.00134(19) 28162398. 0.000995 0.001021
77053. 1.59621 0.00134(19) 28053564. 0.000995 0.001022
77060. 1.59637 0.00124(18) 29486608. 0.000995 0.001022
77068. 1.59653 0.00102(17) 34928448. 0.000995 0.001023
77076. 1.59669 0.00102(17) 36524400. 0.000995 0.001023
77084. 1.59685 0.00128(19) 28764890. 0.000995 0.001024
77091. 1.59701 0.00127(19) 29079054. 0.000995 0.001024
77099. 1.59717 0.00123(18) 29438208. 0.000995 0.001025
77107. 1.59733 0.00124(19) 28379286. 0.000995 0.001026
77114. 1.59749 0.00108(17) 33975396. 0.000995 0.001026
77122. 1.59765 0.00112(18) 32156754. 0.000994 0.001027
77130. 1.59781 0.00125(19) 28518228. 0.000994 0.001028
77137. 1.59797 0.00096(16) 39077516. 0.000994 0.001028
77145. 1.59813 0.00070(13) 57180296. 0.000994 0.001029
77153. 1.59829 0.00102(17) 35286848. 0.000994 0.001064
77161. 1.59845 0.00126(19) 28494478. 0.000994 0.001065
77168. 1.59861 0.00122(18) 32600124. 0.000994 0.001066
77176. 1.59877 0.00139(19) 26364810. 0.000994 0.001068
77184. 1.59893 0.00145(20) 24581932. 0.000994 0.001069
77192. 1.59909 0.00130(19) 28233016. 0.000994 0.001071
77199. 1.59925 0.00112(17) 32987062. 0.000994 0.001073
77207. 1.59941 0.00114(18) 31949080. 0.000994 0.001074
77215. 1.59957 0.00107(17) 34523428. 0.000994 0.001076
77222. 1.59973 0.00092(15) 42081052. 0.000993 0.001078
77230. 1.59989 0.00101(16) 38135904. 0.000993 0.001080
77238. 1.60005 0.00116(18) 32366218. 0.000993 0.001082
77246. 1.60021 0.00126(18) 30108990. 0.000993 0.001084
77253. 1.60037 0.00133(19) 27157168. 0.000993 0.001086
77261. 1.60053 0.00113(18) 31413794. 0.000993 0.001089
77269. 1.60069 0.00093(15) 41673356. 0.000993 0.001091
77277. 1.60085 0.00091(16) 41591884. 0.000993 0.001093
77284. 1.60101 0.00083(15) 42918264. 0.000993 0.001096
77292. 1.60117 0.00089(16) 38802324. 0.000993 0.001099
77300. 1.60133 0.00090(16) 38892084. 0.000993 0.001101
77307. 1.60149 0.00101(17) 35810988. 0.000993 0.001104
77315. 1.60165 0.00118(18) 30504670. 0.000993 0.001107
77323. 1.60181 0.00113(17) 33438124. 0.000992 0.001111
77331. 1.60197 0.00108(17) 34910024. 0.000992 0.001114
77338. 1.60213 0.00106(17) 33814248. 0.000992 0.001117
77346. 1.60229 0.00106(17) 33177468. 0.000992 0.001121
77354. 1.60245 0.00103(17) 34764752. 0.000992 0.001125
77362. 1.60261 0.00105(17) 33811184. 0.000992 0.001129
77369. 1.60277 0.00103(17) 36335460. 0.000992 0.001133
77377. 1.60293 0.00115(17) 33469272. 0.000992 0.001137
77385. 1.60309 0.00121(18) 31300298. 0.000992 0.001142
77393. 1.60325 0.00116(18) 31650548. 0.000992 0.001147
77400. 1.60341 0.00107(17) 35065340. 0.000992 0.001152
77408. 1.60358 0.00122(18) 30118488. 0.000992 0.001157
77416. 1.60373 0.00109(17) 34409896. 0.000992 0.001163
77424. 1.60390 0.00082(15) 44826172. 0.000992 0.001169
77431. 1.60405 0.00089(16) 41320368. 0.000991 0.001176
77439. 1.60422 0.00117(17) 33338486. 0.000991 0.001182
77447. 1.60438 0.00125(18) 30805254. 0.000991 0.001190
77454. 1.60454 0.00113(17) 32904562. 0.000991 0.001197
77462. 1.60470 0.00113(18) 31901822. 0.000991 0.001205
77470. 1.60486 0.00126(19) 28518130. 0.000991 0.001214
77478. 1.60502 0.00124(19) 28714034. 0.000991 0.001223
77485. 1.60518 0.00099(16) 37362232. 0.000991 0.001233
77493. 1.60534 0.00097(16) 38487468. 0.000991 0.001244
77501. 1.60550 0.00115(17) 33442376. 0.000991 0.001255
77509. 1.60566 0.00108(16) 37263408. 0.000991 0.001267
77516. 1.60582 0.00097(16) 39298600. 0.000991 0.001280
77524. 1.60598 0.00116(18) 30402192. 0.000991 0.001295
77532. 1.60614 0.00134(19) 27145490. 0.000991 0.001310
77540. 1.60630 0.00133(19) 28123056. 0.000990 0.001327
77548. 1.60647 0.00115(17) 32856858. 0.000990 0.001345
77555. 1.60663 0.00094(16) 40619328. 0.000990 0.001364
77563. 1.60678 0.00108(17) 35039808. 0.000990 0.001385
77571. 1.60695 0.00129(19) 28948092. 0.000990 0.001409
77579. 1.60711 0.00134(19) 26450140. 0.000990 0.001435
77586. 1.60727 0.00116(18) 31676842. 0.000990 0.001463
77594. 1.60743 0.00113(17) 33197102. 0.000990 0.001496
77602. 1.60759 0.00131(19) 28091202. 0.000990 0.001532
77610. 1.60775 0.00143(20) 25314272. 0.000990 0.001573
77617. 1.60791 0.00131(19) 27223302. 0.000990 0.001622
77625. 1.60807 0.00116(18) 31232730. 0.000990 0.001683
77633. 1.60823 0.00120(18) 30764828. 0.000990 0.001760
77641. 1.60839 0.00121(18) 30524840. 0.000990 0.001861
77648. 1.60855 0.00127(18) 29232424. 0.000989 0.002001
77656. 1.60872 0.00150(21) 23445268. 0.000989 0.002200
77664. 1.60888 0.00170(22) 20874428. 0.000989 0.002485
77672. 1.60904 0.00226(25) 15723627. 0.000989 0.002890
77679. 1.60920 0.00328(30) 10768894. 0.000989 0.003457
77687. 1.60936 0.00419(35) 8370461. 0.000989 0.004242
77695. 1.60952 0.0050(4) 6968990. 0.00099 0.00530
77703. 1.60968 0.0059(4) 5976401. 0.00099 0.00669
77711. 1.60984 0.0073(5) 4837771. 0.00099 0.00842
77718. 1.61001 0.0096(5) 3679627. 0.00099 0.01050
77726. 1.61016 0.0124(6) 2853736. 0.00099 0.01289
77734. 1.61033 0.0155(7) 2239384. 0.00099 0.01552
77742. 1.61049 0.0175(7) 2019799. 0.00099 0.01832
77749. 1.61065 0.0204(8) 1741873. 0.00099 0.02104
77757. 1.61081 0.0240(8) 1471761. 0.00099 0.02349
77765. 1.61097 0.0258(9) 1363792. 0.00099 0.02545
77773. 1.61113 0.0260(9) 1366194. 0.00099 0.02669
77781. 1.61129 0.0260(9) 1367533. 0.00099 0.02702
77788. 1.61146 0.0255(9) 1362478. 0.00099 0.02638
77796. 1.61162 0.0229(8) 1544836. 0.00099 0.02484
77804. 1.61178 0.0206(8) 1712535. 0.00099 0.02259
77812. 1.61194 0.0182(7) 1950896. 0.00099 0.01991
77819. 1.61210 0.0156(7) 2288358. 0.00099 0.01709
77827. 1.61226 0.0126(6) 2884355. 0.00099 0.01434
77835. 1.61242 0.0097(5) 3803098. 0.00099 0.01181
77843. 1.61258 0.0077(5) 4790953. 0.00099 0.00962
77851. 1.61274 0.0068(4) 5335080. 0.00099 0.00781
77858. 1.61291 0.0063(4) 5721713. 0.00099 0.00638
77866. 1.61307 0.0056(4) 6533567. 0.00099 0.00531
77874. 1.61323 0.0046(4) 7901541. 0.00099 0.00453
77882. 1.61339 0.00377(32) 9514819. 0.000987 0.004014
77889. 1.61355 0.00348(31) 10291943. 0.000987 0.003709
77897. 1.61371 0.00322(30) 10929733. 0.000987 0.003589
77905. 1.61387 0.00288(28) 12819409. 0.000987 0.003637
77913. 1.61404 0.00339(31) 10441108. 0.000987 0.003856
77921. 1.61420 0.00381(33) 9179034. 0.000987 0.004268
77928. 1.61436 0.00394(33) 8938969. 0.000987 0.004918
77936. 1.61452 0.0046(4) 7625380. 0.00099 0.00588
77944. 1.61468 0.0058(4) 5912648. 0.00099 0.00717
77952. 1.61484 0.0074(5) 4531662. 0.00099 0.00888
77960. 1.61501 0.0092(5) 3702644. 0.00099 0.01105
77967. 1.61517 0.0118(6) 2939401. 0.00099 0.01370
77975. 1.61533 0.0157(7) 2148928. 0.00099 0.01683
77983. 1.61549 0.0192(7) 1811737. 0.00099 0.02034
77991. 1.61565 0.0241(8) 1422900. 0.00099 0.02412
77999. 1.61581 0.0293(9) 1156920. 0.00099 0.02795
78006. 1.61597 0.0343(10) 972767. 0.00099 0.03160
78014. 1.61614 0.0376(11) 883714. 0.00099 0.03478
78022. 1.61630 0.0391(11) 861575. 0.00099 0.03718
78030. 1.61646 0.0397(11) 847701. 0.00099 0.03849
78038. 1.61662 0.0376(11) 895138. 0.00099 0.03849
78045. 1.61678 0.0350(10) 969258. 0.00099 0.03714
78053. 1.61694 0.0319(10) 1060884. 0.00099 0.03460
78061. 1.61711 0.0272(9) 1246043. 0.00099 0.03118
78069. 1.61727 0.0234(8) 1463774. 0.00099 0.02727
78077. 1.61743 0.0198(7) 1779253. 0.00099 0.02321
78085. 1.61759 0.0172(7) 2038591. 0.00099 0.01930
78092. 1.61775 0.0146(6) 2408146. 0.00099 0.01577
78100. 1.61792 0.0118(6) 2987508. 0.00099 0.01272
78108. 1.61808 0.0099(5) 3678677. 0.00099 0.01015
78116. 1.61824 0.0086(5) 4144225. 0.00099 0.00807
78124. 1.61840 0.0069(4) 5208652. 0.00099 0.00646
78131. 1.61856 0.0059(4) 6127639. 0.00099 0.00524
78139. 1.61872 0.0048(4) 7542303. 0.00099 0.00433
78147. 1.61889 0.00394(33) 9168720. 0.000985 0.003660
78155. 1.61905 0.00345(31) 10500766. 0.000985 0.003182
78163. 1.61921 0.00321(30) 10952491. 0.000985 0.002834
78170. 1.61937 0.00298(30) 11452780. 0.000985 0.002579
78178. 1.61953 0.00257(27) 13569472. 0.000985 0.002387
78186. 1.61970 0.00205(24) 17520646. 0.000985 0.002239
78194. 1.61986 0.00185(23) 19079076. 0.000985 0.002120
78202. 1.62002 0.00182(23) 19273620. 0.000985 0.002022
78210. 1.62018 0.00169(21) 22171908. 0.000985 0.001940
78217. 1.62034 0.00170(21) 21791220. 0.000985 0.001869
78225. 1.62051 0.00178(23) 19103448. 0.000985 0.001807
78233. 1.62067 0.00168(22) 20810710. 0.000985 0.001753
78241. 1.62083 0.00171(22) 19782782. 0.000985 0.001704
78249. 1.62099 0.00153(21) 22741070. 0.000985 0.001660
78256. 1.62116 0.00143(20) 26287062. 0.000984 0.001620
78264. 1.62132 0.00146(20) 24902936. 0.000984 0.001585
78272. 1.62148 0.00127(19) 28328010. 0.000984 0.001552
78280. 1.62164 0.00123(19) 28116282. 0.000984 0.001523
78288. 1.62181 0.00128(19) 27542198. 0.000984 0.001497
78296. 1.62197 0.00133(19) 26680088. 0.000984 0.001473
78303. 1.62213 0.00126(19) 28360388. 0.000984 0.001451
78311. 1.62229 0.00117(18) 31441164. 0.000984 0.001430
78319. 1.62245 0.00121(18) 29384168. 0.000984 0.001412
78327. 1.62262 0.00115(18) 31120704. 0.000984 0.001395
78335. 1.62278 0.00111(18) 32457092. 0.000984 0.001380
78343. 1.62294 0.00114(18) 31069088. 0.000984 0.001365
78350. 1.62310 0.00109(17) 32970324. 0.000984 0.001353
78358. 1.62326 0.00134(20) 26253646. 0.000984 0.001341
78366. 1.62343 0.00148(21) 23243974. 0.000984 0.001330
78374. 1.62359 0.00123(19) 29152882. 0.000984 0.001320
78382. 1.62375 0.00117(18) 29927928. 0.000984 0.001311
78390. 1.62392 0.00122(18) 30448954. 0.000983 0.001303
78398. 1.62408 0.00147(20) 24496630. 0.000983 0.001295
78405. 1.62424 0.00136(20) 26088852. 0.000983 0.001289
78413. 1.62440 0.00133(20) 25871754. 0.000983 0.001283
78421. 1.62457 0.00154(21) 22185344. 0.000983 0.001277
78429. 1.62473 0.00145(21) 23779910. 0.000983 0.001273
78437. 1.62489 0.00138(20) 23910124. 0.000983 0.001269
78445. 1.62505 0.00118(19) 28274036. 0.000983 0.001265
78452. 1.62522 0.00089(16) 39673688. 0.000983 0.001262
78460. 1.62538 0.00092(16) 39295128. 0.000983 0.001260
78468. 1.62554 0.00113(18) 31038018. 0.000983 0.001259
78476. 1.62570 0.00108(18) 31719050. 0.000983 0.001257
78484. 1.62587 0.00105(17) 33759096. 0.000983 0.001257
78492. 1.62603 0.00120(18) 29620832. 0.000983 0.001257
78499. 1.62619 0.00132(19) 26543250. 0.000983 0.001258
78507. 1.62635 0.00140(20) 24398060. 0.000983 0.001260
78515. 1.62652 0.00123(19) 28164122. 0.000983 0.001262
78523. 1.62668 0.00119(18) 29447954. 0.000983 0.001265
78531. 1.62684 0.00126(19) 27229686. 0.000983 0.001268
78539. 1.62700 0.00111(17) 32860176. 0.000982 0.001273
78547. 1.62717 0.00106(17) 36478264. 0.000982 0.001278
78554. 1.62733 0.00120(18) 29883432. 0.000982 0.001285
78562. 1.62749 0.00116(18) 29943432. 0.000982 0.001292
78570. 1.62766 0.00114(17) 33040432. 0.000982 0.001300
78578. 1.62782 0.00111(17) 33413820. 0.000982 0.001310
78586. 1.62798 0.00085(15) 42728268. 0.000982 0.001322
78594. 1.62815 0.00088(16) 39956380. 0.000982 0.001334
78602. 1.62831 0.00106(17) 34852100. 0.000982 0.001327
78609. 1.62847 0.00118(18) 29710810. 0.000982 0.001344
78617. 1.62863 0.00107(17) 32988562. 0.000982 0.001364
78625. 1.62880 0.00121(19) 29206674. 0.000982 0.001386
78633. 1.62896 0.00134(20) 25693400. 0.000982 0.001412
78641. 1.62912 0.00122(19) 28650826. 0.000982 0.001443
78649. 1.62929 0.00117(18) 30353594. 0.000982 0.001481
78657. 1.62945 0.00109(17) 32669582. 0.000982 0.001529
78665. 1.62961 0.00116(18) 31058804. 0.000982 0.001591
78672. 1.62977 0.00128(19) 27900226. 0.000982 0.001675
78680. 1.62994 0.00143(21) 23551714. 0.000982 0.001791
78688. 1.63010 0.00155(21) 22289874. 0.000982 0.001954
78696. 1.63026 0.00192(24) 17496014. 0.000981 0.002184
78704. 1.63043 0.00220(26) 14866227. 0.000981 0.002501
78712. 1.63059 0.00230(26) 15295337. 0.000981 0.002938
78720. 1.63075 0.00338(32) 9840027. 0.000981 0.003521
78727. 1.63091 0.0043(4) 7782910. 0.00098 0.00428
78735. 1.63108 0.0049(4) 6870091. 0.00098 0.00526
78743. 1.63124 0.0059(4) 5738722. 0.00098 0.00644
78751. 1.63141 0.0076(5) 4511893. 0.00098 0.00786
78759. 1.63157 0.0094(5) 3728611. 0.00098 0.00946
78767. 1.63173 0.0112(6) 3153688. 0.00098 0.01116
78775. 1.63190 0.0140(6) 2461857. 0.00098 0.01293
78783. 1.63206 0.0168(7) 1995336. 0.00098 0.01463
78790. 1.63222 0.0181(7) 1911952. 0.00098 0.01615
78798. 1.63238 0.0193(8) 1768761. 0.00098 0.01735
78806. 1.63255 0.0196(8) 1720741. 0.00098 0.01809
78814. 1.63271 0.0182(7) 1882244. 0.00098 0.01823
78822. 1.63288 0.0167(7) 2081400. 0.00098 0.01775
78830. 1.63304 0.0161(7) 2134433. 0.00098 0.01669
78838. 1.63320 0.0151(7) 2237847. 0.00098 0.01520
78846. 1.63337 0.0135(6) 2454162. 0.00098 0.01345
78854. 1.63353 0.0110(6) 3098421. 0.00098 0.01161
78861. 1.63369 0.0090(5) 3810582. 0.00098 0.00980
78869. 1.63386 0.0080(5) 4251794. 0.00098 0.00814
78877. 1.63402 0.0069(4) 5016354. 0.00098 0.00667
78885. 1.63418 0.0058(4) 6143873. 0.00098 0.00544
78893. 1.63435 0.0047(4) 7459670. 0.00098 0.00444
78901. 1.63451 0.00397(34) 8456347. 0.000980 0.003655
78909. 1.63467 0.00325(31) 10600880. 0.000980 0.003054
78917. 1.63484 0.00303(30) 11292178. 0.000980 0.002569
78925. 1.63500 0.00286(30) 11473421. 0.000980 0.002238
78932. 1.63516 0.00259(28) 12715747. 0.000980 0.001998
78940. 1.63533 0.00236(26) 14592555. 0.000980 0.001824
78948. 1.63549 0.00201(24) 17389270. 0.000980 0.001696
78956. 1.63566 0.00186(23) 18205262. 0.000980 0.001602
78964. 1.63582 0.00174(23) 19748610. 0.000980 0.001529
78972. 1.63598 0.00168(22) 20161294. 0.000980 0.001472
78980. 1.63615 0.00153(21) 21835094. 0.000980 0.001426
78988. 1.63631 0.00133(20) 24999818. 0.000980 0.001386
78996. 1.63647 0.00140(20) 24181794. 0.000980 0.001353
79004. 1.63664 0.00144(20) 24047140. 0.000980 0.001323
79011. 1.63680 0.00126(19) 27631680. 0.000980 0.001297
79019. 1.63697 0.00115(18) 29654692. 0.000980 0.001274
79027. 1.63713 0.00115(19) 29133536. 0.000980 0.001253
79035. 1.63729 0.00111(18) 30617400. 0.000980 0.001235
79043. 1.63745 0.00106(17) 33988864. 0.000980 0.001218
79051. 1.63762 0.00106(17) 34669564. 0.000979 0.001203
79059. 1.63778 0.00102(17) 34856152. 0.000979 0.001189
79067. 1.63795 0.00100(17) 33978080. 0.000979 0.001177
79075. 1.63811 0.00115(19) 28561364. 0.000979 0.001165
79083. 1.63828 0.00118(18) 29297382. 0.000979 0.001154
79091. 1.63844 0.00109(17) 32812656. 0.000979 0.001145
79098. 1.63860 0.00093(16) 37342144. 0.000979 0.001136
79106. 1.63877 0.00087(16) 39352368. 0.000979 0.001128
79114. 1.63893 0.00108(18) 31085314. 0.000979 0.001120
79122. 1.63909 0.00123(19) 27013116. 0.000979 0.001113
79130. 1.63926 0.00116(19) 29186054. 0.000979 0.001106
79138. 1.63942 0.00105(17) 34353056. 0.000979 0.001100
79146. 1.63959 0.00102(17) 34477548. 0.000979 0.001095
79154. 1.63975 0.00114(18) 30268282. 0.000979 0.001089
79162. 1.63991 0.00126(19) 28384958. 0.000979 0.001084
79170. 1.64008 0.00120(18) 29635846. 0.000979 0.001080
79178. 1.64024 0.00109(18) 31784102. 0.000979 0.001075
79186. 1.64041 0.00108(18) 31575024. 0.000979 0.001071
79193. 1.64057 0.00106(17) 33433442. 0.000979 0.001068
79201. 1.64073 0.00107(17) 32977552. 0.000979 0.001064
79209. 1.64090 0.00100(17) 33074612. 0.000979 0.001061
79217. 1.64106 0.00075(15) 46484092. 0.000979 0.001057
79225. 1.64123 0.00079(14) 47687620. 0.000979 0.001054
79233. 1.64139 0.00106(18) 31084542. 0.000979 0.001052
79241. 1.64156 0.00107(18) 31967836. 0.000979 0.001049
79249. 1.64172 0.00122(19) 28748532. 0.000979 0.001046
79257. 1.64188 0.00119(19) 28720632. 0.000979 0.001044
79265. 1.64205 0.00096(16) 38121292. 0.000979 0.001042
79273. 1.64221 0.00108(17) 32761030. 0.000978 0.001039
79281. 1.64238 0.00108(18) 32016058. 0.000978 0.001037
79289. 1.64254 0.00101(17) 33057304. 0.000978 0.001035
79296. 1.64271 0.00103(17) 33558932. 0.000978 0.001033
79304. 1.64287 0.00116(19) 29123646. 0.000978 0.001032
79312. 1.64303 0.00138(21) 23195124. 0.000978 0.001030
79320. 1.64320 0.00127(19) 26879416. 0.000978 0.001028
79328. 1.64336 0.00098(17) 36524536. 0.000978 0.001027
79336. 1.64353 0.00102(17) 35502080. 0.000978 0.001025
79344. 1.64369 0.00114(18) 30761616. 0.000978 0.001024
79352. 1.64386 0.00106(17) 32897806. 0.000978 0.001023
79360. 1.64402 0.00103(17) 33978608. 0.000978 0.001021
79368. 1.64419 0.00097(16) 37065768. 0.000978 0.001020
79376. 1.64435 0.00087(16) 40914884. 0.000978 0.001019
79384. 1.64451 0.00086(15) 42397380. 0.000978 0.001018
79392. 1.64468 0.00095(16) 36902292. 0.000978 0.001016
79400. 1.64484 0.00095(16) 36763268. 0.000978 0.001015
79408. 1.64501 0.00109(18) 30604800. 0.000978 0.001014
79415. 1.64517 0.00116(18) 29913214. 0.000978 0.001013
79423. 1.64534 0.00112(18) 30694884. 0.000978 0.001012
79431. 1.64550 0.00102(17) 34074552. 0.000978 0.001012
79439. 1.64567 0.00106(17) 32920488. 0.000978 0.001011
79447. 1.64583 0.00122(19) 27730068. 0.000978 0.001010
79455. 1.64600 0.00112(18) 30699528. 0.000978 0.001009
79463. 1.64616 0.00092(17) 34919972. 0.000978 0.001008
79471. 1.64633 0.00072(15) 45402604. 0.000978 0.001007
79479. 1.64649 0.00083(16) 40985872. 0.000978 0.001007
79487. 1.64665 0.00115(19) 27684456. 0.000978 0.001006
79495. 1.64682 0.00110(18) 31214532. 0.000978 0.001005
79503. 1.64698 0.00117(18) 31527156. 0.000978 0.001005
79511. 1.64715 0.00136(20) 25118152. 0.000978 0.001004
79519. 1.64731 0.00129(20) 25575286. 0.000978 0.001003
79527. 1.64748 0.00123(19) 27167352. 0.000978 0.001003
79535. 1.64765 0.00109(18) 30596542. 0.000978 0.001002
79543. 1.64781 0.00096(17) 34984176. 0.000977 0.001002
79551. 1.64797 0.00093(17) 36068216. 0.000977 0.001001
79559. 1.64814 0.00079(15) 45736476. 0.000977 0.001001
79567. 1.64830 0.00088(16) 41477264. 0.000977 0.001000
79575. 1.64847 0.00105(17) 33635996. 0.000977 0.001000
79583. 1.64863 0.00099(17) 35127756. 0.000977 0.000999
79590. 1.64880 0.00088(16) 38944596. 0.000977 0.000999
79598. 1.64896 0.00084(15) 42337392. 0.000977 0.000998
79606. 1.64913 0.00104(17) 32800944. 0.000977 0.000998
79614. 1.64929 0.00116(18) 30106774. 0.000977 0.000997
79622. 1.64946 0.00117(19) 29074080. 0.000977 0.000997
79630. 1.64962 0.00108(18) 30066318. 0.000977 0.000997
79638. 1.64979 0.00095(17) 34271076. 0.000977 0.000996
79646. 1.64995 0.00097(17) 34916872. 0.000977 0.000996
79654. 1.65012 0.00106(18) 32373204. 0.000977 0.000995
79662. 1.65028 0.00115(19) 28867392. 0.000977 0.000995
79670. 1.65045 0.00112(19) 28964550. 0.000977 0.000995
79678. 1.65061 0.00111(19) 28831792. 0.000977 0.000994
79686. 1.65078 0.00112(18) 29978380. 0.000977 0.000994
79694. 1.65094 0.00120(19) 26718378. 0.000977 0.000977
79702. 1.65111 0.00115(19) 27437470. 0.000977 0.000977
79710. 1.65127 0.00107(18) 29733418. 0.000977 0.000977
79718. 1.65144 0.00115(20) 26253204. 0.000977 0.000977
79726. 1.65160 0.00103(18) 31232948. 0.000977 0.000977
79734. 1.65177 0.00074(14) 47793040. 0.000977 0.000977
79742. 1.65193 0.00076(15) 42979352. 0.000977 0.000977
79750. 1.65210 0.00092(17) 33050018. 0.000977 0.000977
79758. 1.65227 0.00096(18) 31533524. 0.000977 0.000977
79766. 1.65243 0.00101(19) 28885428. 0.000977 0.000977
79774. 1.65260 0.00084(17) 35467500. 0.000977 0.000977
79782. 1.65276 0.00076(16) 38980376. 0.000977 0.000977
79790. 1.65293 0.00087(17) 34946384. 0.000977 0.000977
79798. 1.65309 0.00104(18) 29617132. 0.000977 0.000977
79806. 1.65326 0.00111(19) 26828258. 0.000977 0.000977
79814. 1.65342 0.00099(18) 30493434. 0.000977 0.000977
79822. 1.65359 0.00100(18) 30445826. 0.000977 0.000977
79830. 1.65375 0.00108(20) 26093420. 0.000977 0.000977
79838. 1.65392 0.00086(17) 33075060. 0.000977 0.000977
79846. 1.65409 0.00070(15) 43384004. 0.000977 0.000977
79854. 1.65425 0.00091(18) 30651776. 0.000977 0.000977
79862. 1.65442 0.00110(20) 25235410. 0.000977 0.000977
79870. 1.65458 0.00113(20) 24792148. 0.000977 0.000977
79878. 1.65475 0.00098(19) 28883032. 0.000977 0.000977
79886. 1.65491 0.00090(18) 31725100. 0.000977 0.000977
79894. 1.65508 0.00099(19) 28141268. 0.000977 0.000977
79902. 1.65524 0.00092(18) 31305100. 0.000977 0.000977
79910. 1.65541 0.00093(18) 32008296. 0.000977 0.000977
79917. 1.65557 0.00113(20) 26154046. 0.000977 0.000977
79925. 1.65574 0.00121(21) 23205182. 0.000977 0.000977
79933. 1.65591 0.00081(17) 35660392. 0.000977 0.000977
79941. 1.65607 0.00073(16) 39316396. 0.000977 0.000977
79949. 1.65624 0.00106(20) 25681538. 0.000977 0.000977
79957. 1.65640 0.00100(19) 28581064. 0.000977 0.000977
79966. 1.65657 0.00096(18) 29966182. 0.000977 0.000977
79974. 1.65674 0.00091(18) 30840276. 0.000977 0.000977
79981. 1.65690 0.00074(16) 38841272. 0.000977 0.000977
79989. 1.65707 0.00088(18) 32433646. 0.000977 0.000977
79997. 1.65723 0.00092(18) 31074166. 0.000976 0.000976
80005. 1.65740 0.00105(20) 25482252. 0.000976 0.000976
80013. 1.65756 0.00116(21) 22312830. 0.000976 0.000976
80021. 1.65773 0.00096(19) 28740938. 0.000976 0.000976
80030. 1.65790 0.00101(19) 26847214. 0.000976 0.000976
80037. 1.65806 0.00108(20) 24895690. 0.000976 0.000976
80045. 1.65823 0.00103(20) 26121686. 0.000976 0.000976
80053. 1.65839 0.00097(19) 28220484. 0.000976 0.000976
80061. 1.65856 0.00100(19) 27407978. 0.000976 0.000976
80070. 1.65873 0.00114(20) 24092056. 0.000976 0.000976
80078. 1.65889 0.00121(21) 22361902. 0.000976 0.000976
80086. 1.65906 0.00101(19) 26346624. 0.000976 0.000976
80094. 1.65922 0.00094(19) 28023578. 0.000976 0.000976
80102. 1.65939 0.00103(19) 26617614. 0.000976 0.000976
80110. 1.65955 0.00106(20) 26009862. 0.000976 0.000976
80118. 1.65972 0.00118(20) 23839356. 0.000976 0.000976
80126. 1.65989 0.00117(20) 24655460. 0.000976 0.000976
80134. 1.66005 0.00077(17) 36706680. 0.000976 0.000976
80142. 1.66022 0.00055(14) 50045024. 0.000976 0.000976
80150. 1.66039 0.00060(14) 47909748. 0.000976 0.000976
80158. 1.66055 0.00069(16) 41050232. 0.000976 0.000976
80166. 1.66072 0.00064(15) 46241412. 0.000976 0.000976
80174. 1.66088 0.00065(14) 47630968. 0.000976 0.000976
80182. 1.66105 0.00084(17) 33466642. 0.000976 0.000976
80190. 1.66122 0.00092(19) 28969448. 0.000976 0.000976
80198. 1.66138 0.00077(17) 36396448. 0.000976 0.000976
80206. 1.66155 0.00079(17) 35258712. 0.000976 0.000976
80214. 1.66172 0.00085(18) 31894032. 0.000976 0.000976
80222. 1.66188 0.00117(21) 21778660. 0.000976 0.000976
80230. 1.66205 0.00131(22) 19850554. 0.000976 0.000976
80238. 1.66221 0.00101(19) 28244322. 0.000976 0.000976
80246. 1.66238 0.00091(17) 33254824. 0.000976 0.000976
80254. 1.66255 0.00102(19) 28948684. 0.000976 0.000976
80262. 1.66271 0.00120(21) 22967368. 0.000976 0.000976
80270. 1.66288 0.00119(21) 22694446. 0.000976 0.000976
80278. 1.66305 0.00117(21) 22097832. 0.000976 0.000976
80286. 1.66321 0.00101(20) 25962476. 0.000976 0.000976
80294. 1.66338 0.00087(18) 32051652. 0.000976 0.000976
80302. 1.66354 0.00113(20) 24201698. 0.000976 0.000976
80310. 1.66371 0.00118(21) 23551094. 0.000976 0.000976
80318. 1.66388 0.00137(23) 19631798. 0.000976 0.000976
80326. 1.66404 0.00148(23) 18350304. 0.000976 0.000976
80334. 1.66421 0.00131(22) 20202968. 0.000976 0.000976
80342. 1.66438 0.00116(22) 21264644. 0.000976 0.000976
80350. 1.66454 0.00093(20) 26046860. 0.000976 0.000976
80358. 1.66471 0.00114(20) 23906664. 0.000976 0.000976
80366. 1.66488 0.00166(26) 15351122. 0.000976 0.000976
80374. 1.66504 0.00152(25) 15890495. 0.000976 0.000976
80382. 1.66521 0.00105(21) 23451734. 0.000976 0.000976
80390. 1.66537 0.00090(19) 27874616. 0.000976 0.000976
80399. 1.66554 0.00097(20) 26273432. 0.000976 0.000976
80407. 1.66571 0.00106(20) 25500558. 0.000976 0.000976
80415. 1.66588 0.00094(19) 28931344. 0.000976 0.000976
80423. 1.66604 0.00074(17) 35929972. 0.000976 0.000976
80431. 1.66621 0.00080(17) 33069748. 0.000976 0.000976
80439. 1.66638 0.00091(19) 28436992. 0.000976 0.000976
80447. 1.66654 0.00095(19) 27241540. 0.000976 0.000976
80455. 1.66671 0.00103(20) 25029674. 0.000976 0.000976
80463. 1.66688 0.00101(20) 25889760. 0.000976 0.000976
80471. 1.66704 0.00098(19) 26821320. 0.000976 0.000976
80479. 1.66721 0.00108(20) 24018562. 0.000976 0.000976
80487. 1.66737 0.00130(22) 21186384. 0.000976 0.000976
80495. 1.66754 0.00143(23) 18895154. 0.000976 0.000976
80503. 1.66771 0.00124(22) 19788346. 0.000976 0.000976
80511. 1.66788 0.00087(19) 27888588. 0.000976 0.000976
80519. 1.66804 0.00069(16) 39297264. 0.000976 0.000976
80527. 1.66821 0.00101(20) 24895944. 0.000976 0.000976
80535. 1.66838 0.00113(21) 22643540. 0.000976 0.000976
80543. 1.66855 0.00116(21) 21876372. 0.000976 0.000976
80551. 1.66871 0.00135(24) 17624940. 0.000976 0.000976
80559. 1.66888 0.00119(22) 20888474. 0.000976 0.000976
80568. 1.66904 0.00093(19) 28189814. 0.000976 0.000976
80576. 1.66921 0.00117(21) 21932622. 0.000976 0.000976
80584. 1.66938 0.00135(23) 19264752. 0.000976 0.000976
80592. 1.66955 0.00114(21) 22624270. 0.000976 0.000976
80600. 1.66971 0.00119(22) 20475808. 0.000976 0.000976
80608. 1.66988 0.00117(21) 21654624. 0.000976 0.000976
80616. 1.67005 0.00092(19) 27863240. 0.000976 0.000976
80624. 1.67021 0.00074(17) 35373796. 0.000976 0.000976
80632. 1.67038 0.00096(19) 26851694. 0.000977 0.000977
80640. 1.67055 0.00119(22) 20495836. 0.000977 0.000977
80648. 1.67071 0.00127(23) 18920552. 0.000977 0.000977
80656. 1.67088 0.00138(24) 17656832. 0.000977 0.000977
80664. 1.67105 0.00144(25) 16489697. 0.000977 0.000977
80672. 1.67122 0.00128(23) 18558638. 0.000977 0.000977
80680. 1.67138 0.00102(20) 24848024. 0.000977 0.000977
80688. 1.67155 0.00103(20) 24548004. 0.000977 0.000977
80697. 1.67172 0.00098(19) 27026680. 0.000977 0.000977
80705. 1.67189 0.00091(19) 28702488. 0.000977 0.000977
80713. 1.67205 0.00105(20) 24398212. 0.000977 0.000977
80721. 1.67222 0.00114(20) 23938358. 0.000977 0.000977
80729. 1.67239 0.00125(22) 21348104. 0.000977 0.000977
80737. 1.67255 0.00146(25) 16466979. 0.000977 0.000977
80745. 1.67272 0.00118(22) 20305864. 0.000977 0.000977
80753. 1.67289 0.00088(18) 29625914. 0.000977 0.000977
80761. 1.67306 0.00105(21) 23545814. 0.000977 0.000977
80769. 1.67322 0.00112(21) 23125128. 0.000977 0.000977
80777. 1.67339 0.00138(24) 17906744. 0.000977 0.000977
80785. 1.67356 0.00133(24) 18011678. 0.000977 0.000977
80794. 1.67373 0.00106(21) 23235624. 0.000977 0.000977
80802. 1.67389 0.00119(22) 21202772. 0.000977 0.000977
80810. 1.67406 0.00125(22) 20240218. 0.000977 0.000977
80818. 1.67423 0.00107(20) 24189836. 0.000977 0.000977
80826. 1.67440 0.00091(18) 30820930. 0.000977 0.000977
80834. 1.67456 0.00099(19) 27074294. 0.000977 0.000977
80842. 1.67473 0.00105(20) 24012236. 0.000977 0.000977
80850. 1.67490 0.00095(19) 28016238. 0.000977 0.000977
80858. 1.67507 0.00094(19) 28340616. 0.000977 0.000977
80866. 1.67523 0.00090(18) 29292354. 0.000977 0.000977
80874. 1.67540 0.00082(18) 32501552. 0.000977 0.000977
80882. 1.67557 0.00071(15) 41744324. 0.000977 0.000977
80891. 1.67574 0.00070(15) 42513784. 0.000977 0.000977
80899. 1.67591 0.00100(19) 26882164. 0.000977 0.000977
80907. 1.67607 0.00132(22) 20121988. 0.000977 0.000977
80915. 1.67624 0.00121(21) 22310670. 0.000977 0.000977
80923. 1.67641 0.00108(21) 23665462. 0.000977 0.000977
80931. 1.67657 0.00094(19) 27154524. 0.000977 0.000977
80939. 1.67674 0.00076(17) 34022148. 0.000977 0.000977
80947. 1.67691 0.00082(18) 30629114. 0.000977 0.000977
80955. 1.67708 0.00086(18) 30866010. 0.000977 0.000977
80963. 1.67725 0.00085(17) 32818866. 0.000977 0.000977
80971. 1.67741 0.00083(18) 32085988. 0.000977 0.000977
80980. 1.67758 0.00086(18) 30791994. 0.000977 0.000977
80988. 1.67775 0.00104(20) 25268492. 0.000977 0.000977
80996. 1.67792 0.00116(21) 23411544. 0.000977 0.000977
81004. 1.67809 0.00116(21) 23386084. 0.000977 0.000977
81012. 1.67825 0.00113(20) 24332106. 0.000977 0.000977
81020. 1.67842 0.00112(20) 25223028. 0.000977 0.000977
81028. 1.67859 0.00100(18) 29825312. 0.000977 0.000977
81036. 1.67876 0.00102(19) 27488844. 0.000977 0.000977
81044. 1.67893 0.00110(20) 24491356. 0.000977 0.000977
81053. 1.67909 0.00121(21) 23178134. 0.000977 0.000977
81061. 1.67926 0.00126(21) 23635596. 0.000977 0.000977
81069. 1.67943 0.00113(20) 25812668. 0.000977 0.000977
81077. 1.67960 0.00102(19) 27544808. 0.000978 0.000978
81085. 1.67977 0.00087(17) 33564372. 0.000978 0.000978
81093. 1.67993 0.00084(17) 34929576. 0.000978 0.000978
81101. 1.68010 0.00088(17) 32961514. 0.000978 0.000978
81109. 1.68027 0.00091(18) 32482880. 0.000978 0.000978
81117. 1.68044 0.00098(18) 29784278. 0.000978 0.000978
81125. 1.68061 0.00090(18) 31414850. 0.000978 0.000978
81134. 1.68077 0.00062(15) 46192036. 0.000978 0.000978
81142. 1.68094 0.00057(14) 49275076. 0.000978 0.000978
81150. 1.68111 0.00059(14) 47795748. 0.000978 0.000978
81158. 1.68128 0.00069(15) 43905560. 0.000978 0.000978
81166. 1.68145 0.00091(18) 32217366. 0.000978 0.000978
81174. 1.68162 0.00097(18) 30023952. 0.000978 0.000978
81182. 1.68178 0.00098(18) 32207056. 0.000978 0.000978
81190. 1.68195 0.00104(18) 31360570. 0.000978 0.000978
81199. 1.68212 0.00092(17) 36236780. 0.000978 0.000978
81207. 1.68229 0.00082(16) 41355832. 0.000978 0.000978
81215. 1.68246 0.00092(17) 35731180. 0.000978 0.000978
81223. 1.68263 0.00089(16) 37276288. 0.000978 0.000978
81231. 1.68279 0.00097(18) 32477078. 0.000978 0.000978
81239. 1.68296 0.00115(19) 27306454. 0.000978 0.000978
81247. 1.68313 0.00111(19) 28337352. 0.000978 0.000978
81255. 1.68330 0.00085(16) 36917572. 0.000978 0.000978
81264. 1.68347 0.00073(15) 43673612. 0.000978 0.000978
81272. 1.68363 0.00084(16) 39855192. 0.000978 0.000978
81280. 1.68380 0.00094(17) 36006192. 0.000978 0.000978
81288. 1.68397 0.00125(20) 24168496. 0.000978 0.000978
81296. 1.68414 0.00134(21) 22574844. 0.000978 0.000978
81304. 1.68431 0.00120(19) 26474554. 0.000978 0.000978
81312. 1.68448 0.00110(18) 29635314. 0.000978 0.000978
81320. 1.68465 0.00098(17) 32829274. 0.000978 0.000978
81329. 1.68481 0.00073(15) 45063596. 0.000978 0.000978
81337. 1.68498 0.00084(16) 39286796. 0.000978 0.000978
81345. 1.68515 0.00116(19) 26438692. 0.000979 0.000979
81353. 1.68532 0.00103(19) 28805364. 0.000979 0.000979
81361. 1.68549 0.00076(15) 41708696. 0.000979 0.000979
81369. 1.68566 0.00086(16) 37729600. 0.000979 0.000979
81377. 1.68582 0.00094(17) 33505516. 0.000979 0.000979
81386. 1.68599 0.00089(17) 33617284. 0.000979 0.000979
81394. 1.68616 0.00090(17) 34311692. 0.000979 0.000979
81402. 1.68633 0.00107(19) 28055386. 0.000979 0.000979
81410. 1.68650 0.00097(18) 32216396. 0.000979 0.000979
81418. 1.68667 0.00095(18) 32371424. 0.000979 0.000979
81426. 1.68684 0.00091(17) 34987892. 0.000979 0.000979
81434. 1.68701 0.00090(17) 35774620. 0.000979 0.000979
81443. 1.68718 0.00089(17) 36571728. 0.000979 0.000979
81451. 1.68734 0.00087(16) 38186768. 0.000979 0.000979
81459. 1.68751 0.00100(18) 32511302. 0.000979 0.000979
81467. 1.68768 0.00100(17) 33068470. 0.000979 0.000979
81475. 1.68785 0.00116(19) 26708920. 0.000979 0.000979
81483. 1.68802 0.00130(21) 23788590. 0.000979 0.000979
81491. 1.68819 0.00125(20) 25491008. 0.000979 0.000979
81500. 1.68836 0.00127(20) 23983378. 0.000979 0.000979
81508. 1.68852 0.00120(19) 26802212. 0.000979 0.000979
81516. 1.68869 0.00107(18) 30559448. 0.000979 0.000979
81524. 1.68886 0.00110(19) 27572804. 0.000979 0.000979
81532. 1.68903 0.00108(19) 28123036. 0.000979 0.000979
81540. 1.68920 0.00097(18) 32324992. 0.000979 0.000979
81549. 1.68937 0.00096(17) 34388500. 0.000979 0.000979
81557. 1.68954 0.00100(18) 31879082. 0.000980 0.000980
81565. 1.68971 0.00095(18) 31338042. 0.000980 0.000980
81573. 1.68988 0.00103(19) 29161540. 0.000980 0.000980
81581. 1.69005 0.00123(20) 25039816. 0.000980 0.000980
81589. 1.69022 0.00109(18) 30368986. 0.000980 0.000980
81597. 1.69039 0.00107(18) 29749346. 0.000980 0.000980
81606. 1.69056 0.00135(21) 21759396. 0.000980 0.000980
81614. 1.69072 0.00135(21) 22763068. 0.000980 0.000980
81622. 1.69089 0.00115(19) 28126810. 0.000980 0.000980
81630. 1.69106 0.00104(18) 30578146. 0.000980 0.000980
81638. 1.69123 0.00097(17) 33610836. 0.000980 0.000980
81646. 1.69140 0.00088(16) 38345760. 0.000980 0.000980
81655. 1.69157 0.00088(17) 36184852. 0.000980 0.000980
81663. 1.69174 0.00107(19) 28860784. 0.000980 0.000980
81671. 1.69191 0.00116(19) 28169200. 0.000980 0.000980
81679. 1.69208 0.00115(18) 30161874. 0.000980 0.000980
81687. 1.69225 0.00123(19) 27152654. 0.000980 0.000980
81695. 1.69242 0.00123(20) 25946462. 0.000980 0.000980
81704. 1.69258 0.00110(19) 28348828. 0.000980 0.000980
81712. 1.69275 0.00102(18) 30955806. 0.000980 0.000980
81720. 1.69292 0.00105(18) 31845856. 0.000980 0.000980
81728. 1.69309 0.00107(18) 30413330. 0.000980 0.000980
81736. 1.69326 0.00109(18) 30015386. 0.000980 0.000980
81744. 1.69343 0.00113(18) 30774568. 0.000981 0.000981
81753. 1.69360 0.00115(19) 29123736. 0.000981 0.000981
81761. 1.69377 0.00108(18) 29531952. 0.000981 0.000981
81769. 1.69394 0.00108(19) 28970388. 0.000981 0.000981
81777. 1.69411 0.00104(18) 30049342. 0.000981 0.000981
81785. 1.69428 0.00102(18) 31845588. 0.000981 0.000981
81794. 1.69445 0.00115(19) 27422766. 0.000981 0.000981
81802. 1.69462 0.00120(20) 26287890. 0.000981 0.000981
81810. 1.69479 0.00134(21) 23640022. 0.000981 0.000981
81818. 1.69496 0.00140(21) 21664800. 0.000981 0.000981
81826. 1.69513 0.00125(20) 23942756. 0.000981 0.000981
81834. 1.69530 0.00127(20) 23853474. 0.000981 0.000981
81843. 1.69547 0.00134(21) 22152076. 0.000981 0.000981
81851. 1.69564 0.00118(19) 26336246. 0.000981 0.000981
81859. 1.69581 0.00118(19) 26537160. 0.000981 0.000981
81867. 1.69598 0.00132(21) 23076396. 0.000981 0.000981
81875. 1.69615 0.00138(21) 21985844. 0.000981 0.000981
81884. 1.69632 0.00123(20) 24933592. 0.000981 0.000981
81892. 1.69648 0.00097(17) 35185500. 0.000981 0.000981
81900. 1.69665 0.00127(20) 24225094. 0.000981 0.000981
81908. 1.69682 0.00151(23) 19666790. 0.000982 0.000982
81916. 1.69699 0.00126(20) 24636938. 0.000982 0.000982
81925. 1.69716 0.00092(17) 35533084. 0.000982 0.000982
81933. 1.69733 0.00084(16) 36764180. 0.000982 0.000982
81941. 1.69750 0.00094(18) 31841738. 0.000982 0.000982
81949. 1.69767 0.00104(19) 28238834. 0.000982 0.000982
81957. 1.69784 0.00098(18) 30672724. 0.000982 0.000982
81965. 1.69801 0.00092(17) 33148808. 0.000982 0.000982
81974. 1.69818 0.00101(19) 28519852. 0.000982 0.000982
81982. 1.69835 0.00110(19) 26423000. 0.000982 0.000982
81990. 1.69852 0.00109(19) 27407572. 0.000982 0.000982
81998. 1.69869 0.00112(19) 26509040. 0.000982 0.000982
82007. 1.69886 0.00121(20) 25756490. 0.000982 0.000982
82015. 1.69903 0.00122(20) 24678646. 0.000982 0.000982
82023. 1.69920 0.00099(18) 30402568. 0.000982 0.000982
82031. 1.69937 0.00081(16) 38483004. 0.000982 0.000982
82039. 1.69954 0.00093(17) 34659908. 0.000982 0.000982
82048. 1.69971 0.00107(18) 29811164. 0.000982 0.000982
82056. 1.69988 0.00111(19) 27927268. 0.000983 0.000983
82064. 1.70005 0.00101(18) 31203518. 0.000983 0.000983
82072. 1.70022 0.00077(15) 42916792. 0.000983 0.000983
82080. 1.70039 0.00076(16) 41275028. 0.000983 0.000983
82089. 1.70056 0.00093(17) 33606360. 0.000983 0.000983
82097. 1.70073 0.00098(17) 32831254. 0.000983 0.000983
82105. 1.70090 0.00089(17) 35377120. 0.000983 0.000983
82113. 1.70107 0.00072(16) 41343440. 0.000983 0.000983
82121. 1.70124 0.00096(18) 30371600. 0.000983 0.000983
82130. 1.70141 0.00130(21) 23161146. 0.000983 0.000983
82138. 1.70158 0.00128(20) 24947008. 0.000983 0.000983
82146. 1.70176 0.00119(19) 28206054. 0.000983 0.000983
82154. 1.70192 0.00111(18) 29780430. 0.000983 0.000983
82162. 1.70209 0.00110(19) 27906716. 0.000983 0.000983
82171. 1.70227 0.00100(18) 32377964. 0.000983 0.000983
82179. 1.70244 0.00109(19) 28893344. 0.000983 0.000983
82187. 1.70261 0.00107(19) 28587448. 0.000983 0.000983
82195. 1.70278 0.00082(16) 38630856. 0.000984 0.000984
82204. 1.70295 0.00082(17) 36215312. 0.000984 0.000984
82212. 1.70312 0.00081(16) 40538628. 0.000984 0.000984
82220. 1.70329 0.00099(17) 33806792. 0.000984 0.000984
82228. 1.70346 0.00105(18) 29609676. 0.000984 0.000984
82236. 1.70363 0.00088(17) 35429140. 0.000984 0.000984
82245. 1.70380 0.00088(17) 34311288. 0.000984 0.000984
82253. 1.70397 0.00095(18) 32233440. 0.000984 0.000984
82261. 1.70414 0.00107(18) 30453696. 0.000984 0.000984
82269. 1.70431 0.00109(18) 29523372. 0.000984 0.000984
82278. 1.70448 0.00095(18) 32348630. 0.000984 0.000984
82286. 1.70465 0.00089(17) 33885396. 0.000984 0.000984
82294. 1.70482 0.00095(18) 31858608. 0.000984 0.000984
82302. 1.70499 0.00100(18) 29408594. 0.000984 0.000984
82311. 1.70516 0.00104(18) 29762718. 0.000984 0.000984
82319. 1.70533 0.00109(19) 28759424. 0.000984 0.000984
82327. 1.70550 0.00111(19) 26601568. 0.000985 0.000985
82335. 1.70567 0.00105(19) 27007864. 0.000985 0.000985
82343. 1.70584 0.00091(17) 32771184. 0.000985 0.000985
82352. 1.70601 0.00085(16) 37327724. 0.000985 0.000985
82360. 1.70619 0.00102(18) 31399524. 0.000985 0.000985
82368. 1.70636 0.00111(18) 29611352. 0.000985 0.000985
82376. 1.70653 0.00121(20) 25867780. 0.000985 0.000985
82385. 1.70670 0.00109(19) 28695902. 0.000985 0.000985
82393. 1.70687 0.00092(17) 32793730. 0.000985 0.000985
82401. 1.70704 0.00083(17) 36563576. 0.000985 0.000985
82409. 1.70721 0.00083(16) 37294964. 0.000985 0.000985
82418. 1.70738 0.00092(17) 33270082. 0.000985 0.000985
82426. 1.70755 0.00094(17) 32955304. 0.000985 0.000985
82434. 1.70772 0.00095(18) 31449142. 0.000985 0.000985
82442. 1.70789 0.00092(17) 33101980. 0.000985 0.000985
82451. 1.70807 0.00081(16) 39190984. 0.000986 0.000986
82459. 1.70824 0.00083(16) 37459120. 0.000986 0.000986
82467. 1.70841 0.00099(18) 30700864. 0.000986 0.000986
82475. 1.70858 0.00110(19) 29073372. 0.000986 0.000986
82484. 1.70875 0.00127(20) 24695760. 0.000986 0.000986
82492. 1.70892 0.00101(18) 30633312. 0.000986 0.000986
82500. 1.70909 0.00072(16) 41069476. 0.000986 0.000986
82508. 1.70926 0.00071(15) 41658004. 0.000986 0.000986
82517. 1.70943 0.00086(17) 33785264. 0.000986 0.000986
82525. 1.70960 0.00105(19) 28119864. 0.000986 0.000986
82533. 1.70978 0.00116(20) 25989702. 0.000986 0.000986
82541. 1.70994 0.00119(20) 24842688. 0.000986 0.000986
82550. 1.71012 0.00100(18) 30670396. 0.000986 0.000986
82558. 1.71029 0.00098(18) 31541742. 0.000986 0.000986
82566. 1.71046 0.00110(19) 27380694. 0.000987 0.000987
82574. 1.71063 0.00108(19) 28853698. 0.000987 0.000987
82583. 1.71080 0.00109(19) 27780538. 0.000987 0.000987
82591. 1.71097 0.00106(18) 29324308. 0.000987 0.000987
82599. 1.71114 0.00108(19) 29154222. 0.000987 0.000987
82607. 1.71131 0.00120(20) 24765734. 0.000987 0.000987
82616. 1.71148 0.00124(20) 24267154. 0.000987 0.000987
82624. 1.71166 0.00130(20) 24324562. 0.000987 0.000987
82632. 1.71183 0.00116(19) 27901548. 0.000987 0.000987
82641. 1.71200 0.00101(18) 30743574. 0.000987 0.000987
82649. 1.71217 0.00096(18) 31849672. 0.000987 0.000987
82657. 1.71234 0.00090(17) 34108904. 0.000987 0.000987
82665. 1.71251 0.00082(16) 38255984. 0.000987 0.000987
82674. 1.71268 0.00078(16) 39667584. 0.000987 0.000987
82682. 1.71286 0.00092(17) 33721852. 0.000988 0.000988
82690. 1.71303 0.00104(18) 31049238. 0.000988 0.000988
82698. 1.71320 0.00097(17) 33796104. 0.000988 0.000988
82707. 1.71337 0.00090(17) 35879956. 0.000988 0.000988
82715. 1.71354 0.00090(17) 33296814. 0.000988 0.000988
82723. 1.71371 0.00093(17) 33847664. 0.000988 0.000988
82732. 1.71389 0.00126(21) 23563856. 0.000988 0.000988
82740. 1.71406 0.00119(20) 24359954. 0.000988 0.000988
82748. 1.71423 0.00105(18) 30295914. 0.000988 0.000988
82756. 1.71440 0.00119(20) 25364876. 0.000988 0.000988
82765. 1.71457 0.00112(20) 25603340. 0.000988 0.000988
82773. 1.71474 0.00106(19) 28368176. 0.000988 0.000988
82781. 1.71491 0.00101(18) 30763772. 0.000988 0.000988
82789. 1.71509 0.00089(17) 32697864. 0.000989 0.000989
82798. 1.71526 0.00075(16) 39367128. 0.000989 0.000989
82806. 1.71543 0.00076(16) 40905636. 0.000989 0.000989
82814. 1.71560 0.00092(17) 33607392. 0.000989 0.000989
82823. 1.71577 0.00097(18) 32242368. 0.000989 0.000989
82831. 1.71594 0.00094(17) 33222422. 0.000989 0.000989
82839. 1.71612 0.00085(17) 36190904. 0.000989 0.000989
82847. 1.71629 0.00091(18) 32582358. 0.000989 0.000989
82856. 1.71646 0.00098(18) 30332826. 0.000989 0.000989
82864. 1.71663 0.00114(20) 25559924. 0.000989 0.000989
82872. 1.71680 0.00114(20) 25671436. 0.000989 0.000989
82881. 1.71697 0.00082(16) 39150112. 0.000989 0.000989
82889. 1.71715 0.00083(16) 40048912. 0.000989 0.000989
82897. 1.71732 0.00089(16) 37244528. 0.000990 0.000990
82905. 1.71749 0.00095(18) 32426998. 0.000990 0.000990
82914. 1.71766 0.00097(18) 31372230. 0.000990 0.000990
82922. 1.71783 0.00089(17) 35297292. 0.000990 0.000990
82930. 1.71800 0.00106(19) 27886822. 0.000990 0.000990
82939. 1.71818 0.00105(19) 29047494. 0.000990 0.000990
82947. 1.71835 0.00084(16) 41557996. 0.000990 0.000990
82955. 1.71852 0.00105(19) 29009866. 0.000990 0.000990
82963. 1.71869 0.00089(17) 33096610. 0.000990 0.000990
82972. 1.71886 0.00076(16) 40134780. 0.000990 0.000990
82980. 1.71904 0.00108(19) 27875764. 0.000990 0.000990
82988. 1.71921 0.00111(19) 28027696. 0.000990 0.000990
82997. 1.71938 0.00103(18) 29357134. 0.000991 0.000991
83005. 1.71955 0.00112(19) 26857564. 0.000991 0.000991
83013. 1.71972 0.00126(21) 23735408. 0.000991 0.000991
83022. 1.71990 0.00112(19) 26657046. 0.000991 0.000991
83030. 1.72007 0.00092(17) 33293500. 0.000991 0.000991
83038. 1.72024 0.00091(17) 33778696. 0.000991 0.000991
83047. 1.72041 0.00085(17) 36369620. 0.000991 0.000991
83055. 1.72059 0.00090(17) 33666284. 0.000991 0.000991
83063. 1.72076 0.00105(19) 28583318. 0.000991 0.000991
83071. 1.72093 0.00096(18) 31861716. 0.000991 0.000991
83080. 1.72110 0.00087(17) 35790388. 0.000991 0.000991
83088. 1.72127 0.00095(17) 33405278. 0.000991 0.000991
83096. 1.72145 0.00106(19) 28062640. 0.000992 0.000992
83105. 1.72162 0.00095(18) 30170574. 0.000992 0.000992
83113. 1.72179 0.00085(17) 33761024. 0.000992 0.000992
83121. 1.72196 0.00081(17) 35939112. 0.000992 0.000992
83130. 1.72213 0.00080(16) 38997784. 0.000992 0.000992
83138. 1.72231 0.00103(18) 29279760. 0.000992 0.000992
83146. 1.72248 0.00116(20) 25158746. 0.000992 0.000992
83155. 1.72265 0.00115(20) 25113302. 0.000992 0.000992
83163. 1.72282 0.00104(19) 27659588. 0.000992 0.000992
83171. 1.72300 0.00083(16) 37812644. 0.000992 0.000992
83180. 1.72317 0.00115(20) 25742620. 0.000992 0.000992
83188. 1.72334 0.00142(22) 19836906. 0.000992 0.000992
83196. 1.72351 0.00109(19) 27067578. 0.000993 0.000993
83204. 1.72369 0.00088(18) 31879362. 0.000993 0.000993
83213. 1.72386 0.00100(20) 26233946. 0.000993 0.000993
83221. 1.72403 0.00093(18) 30153324. 0.000993 0.000993
83229. 1.72420 0.00073(16) 41377184. 0.000993 0.000993
83238. 1.72438 0.00070(15) 43558140. 0.000993 0.000993
83246. 1.72455 0.00071(15) 42498856. 0.000993 0.000993
83254. 1.72472 0.00088(17) 33035014. 0.000993 0.000993
83263. 1.72489 0.00098(18) 31507432. 0.000993 0.000993
83271. 1.72507 0.00107(19) 26986708. 0.000993 0.000993
83279. 1.72524 0.00123(21) 21979358. 0.000993 0.000993
83288. 1.72541 0.00113(20) 25487332. 0.000993 0.000993
83296. 1.72558 0.00092(17) 34573096. 0.000994 0.000994
83304. 1.72576 0.00091(17) 34917652. 0.000994 0.000994
83313. 1.72593 0.00094(17) 32661784. 0.000994 0.000994
83321. 1.72610 0.00089(17) 34035172. 0.000994 0.000994
83329. 1.72627 0.00084(16) 37507768. 0.000994 0.000994
83338. 1.72645 0.00096(17) 33060748. 0.000994 0.000994
83346. 1.72662 0.00100(18) 31468564. 0.000994 0.000994
83354. 1.72679 0.00105(18) 30681962. 0.000994 0.000994
83363. 1.72697 0.00123(20) 24521042. 0.000994 0.000994
83371. 1.72714 0.00113(19) 26624630. 0.000994 0.000994
83379. 1.72731 0.00100(18) 31410744. 0.000994 0.000994
83388. 1.72748 0.00107(18) 29543074. 0.000995 0.000995
83396. 1.72766 0.00129(21) 23004116. 0.000995 0.000995
83404. 1.72783 0.00136(21) 21936908. 0.000995 0.000995
83413. 1.72800 0.00124(20) 23841756. 0.000995 0.000995
83421. 1.72817 0.00109(19) 26551310. 0.000995 0.000995
83429. 1.72835 0.00094(18) 31372926. 0.000995 0.000995
83438. 1.72852 0.00089(17) 33951644. 0.000995 0.000995
83446. 1.72869 0.00094(18) 30930470. 0.000995 0.000995
83455. 1.72887 0.00084(17) 32862286. 0.000995 0.000995
83463. 1.72904 0.00075(17) 36675352. 0.000995 0.000995
83471. 1.72921 0.00084(17) 34221660. 0.000995 0.000995
83480. 1.72939 0.00087(17) 36274088. 0.000996 0.000996
83488. 1.72956 0.00099(18) 30650500. 0.000996 0.000996
83496. 1.72973 0.00112(20) 24396478. 0.000996 0.000996
83505. 1.72990 0.00112(20) 25252510. 0.000996 0.000996
83513. 1.73008 0.00117(20) 25187092. 0.000996 0.000996
83521. 1.73025 0.00109(19) 26967624. 0.000996 0.000996
83530. 1.73042 0.00086(17) 33706496. 0.000996 0.000996
83538. 1.73060 0.00081(17) 36137532. 0.000996 0.000996
83546. 1.73077 0.00087(17) 34570028. 0.000996 0.000996
83555. 1.73094 0.00100(18) 29623978. 0.000996 0.000996
83563. 1.73112 0.00119(21) 23595976. 0.000996 0.000996
83571. 1.73129 0.00102(18) 29292634. 0.000997 0.000997
83580. 1.73146 0.00097(18) 31803458. 0.000997 0.000997
83588. 1.73164 0.00093(18) 32005512. 0.000997 0.000997
83596. 1.73181 0.00094(18) 31197188. 0.000997 0.000997
83605. 1.73198 0.00123(21) 23378522. 0.000997 0.000997
83613. 1.73216 0.00123(21) 23169656. 0.000997 0.000997
83622. 1.73233 0.00108(19) 27034296. 0.000997 0.000997
83630. 1.73250 0.00106(19) 28283072. 0.000997 0.000997
83638. 1.73268 0.00107(19) 28097646. 0.000997 0.000997
83647. 1.73285 0.00102(18) 29655564. 0.000997 0.000997
83655. 1.73302 0.00098(18) 31217564. 0.000997 0.000997
83663. 1.73319 0.00107(19) 26502066. 0.000998 0.000998
83672. 1.73337 0.00108(19) 26998160. 0.000998 0.000998
83680. 1.73354 0.00109(19) 27370448. 0.000998 0.000998
83689. 1.73372 0.00102(18) 29677304. 0.000998 0.000998
83697. 1.73389 0.00087(17) 35592096. 0.000998 0.000998
83705. 1.73406 0.00080(16) 40855736. 0.000998 0.000998
83714. 1.73424 0.00092(17) 34225072. 0.000998 0.000998
83722. 1.73441 0.00106(19) 26826632. 0.000998 0.000998
83730. 1.73458 0.00102(19) 27181426. 0.000998 0.000998
83739. 1.73476 0.00106(19) 26700222. 0.000998 0.000998
83747. 1.73493 0.00129(22) 21493548. 0.000998 0.000998
83756. 1.73511 0.00121(21) 22571564. 0.000999 0.000999
83764. 1.73528 0.00097(19) 28829564. 0.000999 0.000999
83772. 1.73545 0.00087(18) 31708424. 0.000999 0.000999
83781. 1.73563 0.00087(18) 31071064. 0.000999 0.000999
83789. 1.73580 0.00086(17) 33744792. 0.000999 0.000999
83797. 1.73597 0.00095(18) 31308518. 0.000999 0.000999
83806. 1.73615 0.00104(19) 28362150. 0.000999 0.000999
83814. 1.73632 0.00095(18) 31390158. 0.000999 0.000999
83823. 1.73649 0.00091(17) 32783768. 0.000999 0.000999
83831. 1.73667 0.00090(17) 33373350. 0.000999 0.000999
83839. 1.73684 0.00088(17) 34801416. 0.001000 0.001000
83848. 1.73702 0.00111(19) 27049876. 0.001000 0.001000
83856. 1.73719 0.00139(21) 21784506. 0.001000 0.001000
83864. 1.73736 0.00127(20) 24043216. 0.001000 0.001000
83873. 1.73754 0.00113(20) 25625992. 0.001000 0.001000
83881. 1.73771 0.00116(21) 23683484. 0.001000 0.001000
83890. 1.73788 0.00123(21) 22652070. 0.001000 0.001000
83898. 1.73806 0.00124(21) 22630280. 0.001000 0.001000
83906. 1.73823 0.00112(20) 25863708. 0.001000 0.001000
83915. 1.73841 0.00104(19) 28262762. 0.001000 0.001000
83923. 1.73858 0.00098(18) 30228040. 0.001001 0.001001
83932. 1.73875 0.00104(18) 29693712. 0.001001 0.001001
83940. 1.73893 0.00131(21) 22808916. 0.001001 0.001001
83948. 1.73910 0.00130(21) 22689648. 0.001001 0.001001
83957. 1.73927 0.00107(19) 29145518. 0.001001 0.001001
83965. 1.73945 0.00133(21) 22055692. 0.001001 0.001001
83974. 1.73962 0.00146(22) 19754818. 0.001001 0.001001
83982. 1.73980 0.00113(19) 27202834. 0.001001 0.001001
83990. 1.73997 0.00099(18) 30133932. 0.001001 0.001001
83999. 1.74014 0.00112(20) 26097450. 0.001001 0.001001
84007. 1.74032 0.00112(20) 25583740. 0.001001 0.001001
84016. 1.74049 0.00099(19) 27613126. 0.001002 0.001002
84024. 1.74067 0.00101(19) 28850282. 0.001002 0.001002
84032. 1.74084 0.00103(18) 29907932. 0.001002 0.001002
84041. 1.74102 0.00106(19) 27567692. 0.001002 0.001002
84049. 1.74119 0.00107(19) 26888246. 0.001002 0.001002
84058. 1.74136 0.00105(19) 28029214. 0.001002 0.001002
84066. 1.74154 0.00106(19) 26477734. 0.001002 0.001002
84074. 1.74171 0.00098(19) 27837084. 0.001002 0.001002
84083. 1.74189 0.00095(18) 29317250. 0.001002 0.001002
84091. 1.74206 0.00092(18) 31911066. 0.001002 0.001002
84100. 1.74224 0.00099(18) 29296104. 0.001003 0.001003
84108. 1.74241 0.00102(19) 27601720. 0.001003 0.001003
84116. 1.74258 0.00103(19) 26427550. 0.001003 0.001003
84125. 1.74276 0.00109(20) 24892728. 0.001003 0.001003
84133. 1.74293 0.00105(19) 27712424. 0.001003 0.001003
84142. 1.74311 0.00105(19) 28881584. 0.001003 0.001003
84150. 1.74328 0.00110(19) 26418110. 0.001003 0.001003
84159. 1.74346 0.00113(21) 23572174. 0.001003 0.001003
84167. 1.74363 0.00101(19) 27783824. 0.001003 0.001003
84175. 1.74381 0.00090(17) 34514532. 0.001003 0.001003
84184. 1.74398 0.00098(18) 31913642. 0.001004 0.001004
84192. 1.74415 0.00115(19) 26846694. 0.001004 0.001004
84201. 1.74433 0.00123(20) 24419554. 0.001004 0.001004
84209. 1.74450 0.00104(18) 29685770. 0.001004 0.001004
84217. 1.74468 0.00096(18) 32638432. 0.001004 0.001004
84226. 1.74485 0.00115(20) 24349180. 0.001004 0.001004
84234. 1.74503 0.00125(21) 22763442. 0.001004 0.001004
84243. 1.74520 0.00130(21) 22959524. 0.001004 0.001004
84251. 1.74538 0.00121(20) 24755478. 0.001004 0.001004
84260. 1.74555 0.00118(20) 25798732. 0.001004 0.001004
84268. 1.74573 0.00119(20) 24764606. 0.001005 0.001010
84276. 1.74590 0.00107(20) 25762712. 0.001005 0.001010
84285. 1.74608 0.00084(17) 33817316. 0.001005 0.001010
84293. 1.74625 0.00088(17) 33740216. 0.001005 0.001011
84302. 1.74642 0.00103(19) 26977660. 0.001005 0.001011
84310. 1.74660 0.00099(19) 28966594. 0.001005 0.001011
84319. 1.74677 0.00118(20) 24005372. 0.001005 0.001011
84327. 1.74695 0.00132(22) 20290404. 0.001005 0.001011
84335. 1.74712 0.00109(19) 27015582. 0.001005 0.001012
84344. 1.74730 0.00117(20) 24289208. 0.001005 0.001012
84352. 1.74747 0.00136(22) 21292912. 0.001006 0.001012
84361. 1.74765 0.00151(22) 19829614. 0.001006 0.001012
84369. 1.74782 0.00129(21) 23468924. 0.001006 0.001012
84378. 1.74800 0.00107(19) 27063872. 0.001006 0.001013
84386. 1.74817 0.00106(20) 25608396. 0.001006 0.001013
84395. 1.74835 0.00101(19) 27355994. 0.001006 0.001013
84403. 1.74852 0.00104(19) 28341670. 0.001006 0.001013
84411. 1.74870 0.00107(19) 27235098. 0.001006 0.001014
84420. 1.74887 0.00097(18) 30047036. 0.001006 0.001014
84428. 1.74905 0.00088(17) 33162140. 0.001006 0.001014
84437. 1.74922 0.00096(18) 29356410. 0.001007 0.001014
84445. 1.74940 0.00110(20) 24195096. 0.001007 0.001015
84454. 1.74957 0.00101(19) 27690194. 0.001007 0.001015
84462. 1.74975 0.00119(21) 23000628. 0.001007 0.001015
84471. 1.74992 0.00123(21) 22224134. 0.001007 0.001015
84479. 1.75010 0.00112(20) 25511594. 0.001007 0.001016
84487. 1.75027 0.00121(21) 23577034. 0.001007 0.001016
84496. 1.75045 0.00124(21) 22746886. 0.001007 0.001016
84504. 1.75062 0.00127(21) 23277272. 0.001007 0.001017
84513. 1.75080 0.00117(19) 26619790. 0.001007 0.001017
84521. 1.75097 0.00115(20) 25313124. 0.001008 0.001017
84530. 1.75115 0.00119(21) 23693666. 0.001008 0.001017
84538. 1.75132 0.00113(19) 26327326. 0.001008 0.001018
84547. 1.75150 0.00124(20) 23953170. 0.001008 0.001018
84555. 1.75167 0.00122(20) 25327086. 0.001008 0.001018
84564. 1.75185 0.00100(18) 30806792. 0.001008 0.001019
84572. 1.75202 0.00100(19) 28233690. 0.001008 0.001019
84580. 1.75220 0.00107(19) 26907968. 0.001008 0.001020
84589. 1.75237 0.00102(18) 29824408. 0.001008 0.001020
84597. 1.75255 0.00118(20) 24655776. 0.001008 0.001020
84606. 1.75273 0.00123(21) 22701616. 0.001009 0.001021
84614. 1.75290 0.00100(20) 26066476. 0.001009 0.001021
84623. 1.75308 0.00079(17) 33346836. 0.001009 0.001021
84631. 1.75325 0.00088(18) 32527482. 0.001009 0.001022
84640. 1.75343 0.00112(20) 24699642. 0.001009 0.001022
84648. 1.75360 0.00106(20) 25024416. 0.001009 0.001023
84657. 1.75378 0.00083(17) 33090138. 0.001009 0.001023
84665. 1.75395 0.00069(16) 41282384. 0.001009 0.001024
84674. 1.75413 0.00082(18) 32220726. 0.001009 0.001024
84682. 1.75430 0.00098(19) 26765992. 0.001009 0.001025
84691. 1.75448 0.00091(18) 29260856. 0.001010 0.001025
84699. 1.75465 0.00082(17) 33378740. 0.001010 0.001026
84707. 1.75483 0.00084(17) 35208012. 0.001010 0.001026
84716. 1.75500 0.00114(19) 26849100. 0.001010 0.001027
84724. 1.75518 0.00150(23) 19132144. 0.001010 0.001028
84733. 1.75536 0.00148(23) 18276704. 0.001010 0.001028
84741. 1.75553 0.00119(21) 22446114. 0.001010 0.001029
84750. 1.75571 0.00088(18) 31889502. 0.001010 0.001030
84758. 1.75589 0.00090(18) 30668062. 0.001010 0.001030
84767. 1.75606 0.00096(19) 29090144. 0.001010 0.001031
84775. 1.75624 0.00092(18) 31435482. 0.001011 0.001032
84784. 1.75641 0.00094(19) 28472508. 0.001011 0.001033
84792. 1.75659 0.00087(18) 30953602. 0.001011 0.001034
84801. 1.75676 0.00086(18) 32085660. 0.001011 0.001034
84809. 1.75694 0.00077(17) 36102620. 0.001011 0.001035
84818. 1.75711 0.00067(15) 42783112. 0.001011 0.001036
84826. 1.75729 0.00073(16) 39869220. 0.001011 0.001037
84835. 1.75747 0.00096(19) 28303194. 0.001011 0.001038
84843. 1.75764 0.00118(22) 21578310. 0.001011 0.001040
84852. 1.75782 0.00098(19) 26569376. 0.001011 0.001041
84860. 1.75799 0.00091(18) 30699260. 0.001012 0.001042
84869. 1.75817 0.00109(19) 26546840. 0.001012 0.001043
84877. 1.75834 0.00114(20) 25729992. 0.001012 0.001045
84886. 1.75852 0.00106(19) 26752922. 0.001012 0.001046
84894. 1.75870 0.00084(17) 36043628. 0.001012 0.001048
84903. 1.75887 0.00081(16) 36918496. 0.001012 0.001049
84911. 1.75905 0.00094(19) 28389608. 0.001012 0.001051
84920. 1.75923 0.00092(19) 29016146. 0.001012 0.001053
84928. 1.75940 0.00094(18) 29816008. 0.001012 0.001055
84936. 1.75958 0.00104(19) 27295422. 0.001012 0.001057
84945. 1.75975 0.00101(19) 26990440. 0.001013 0.001060
84953. 1.75993 0.00085(17) 32840918. 0.001013 0.001062
84962. 1.76011 0.00089(17) 33193774. 0.001013 0.001065
84971. 1.76028 0.00118(20) 23856276. 0.001013 0.001067
84979. 1.76046 0.00129(22) 20538126. 0.001013 0.001070
84987. 1.76063 0.00113(20) 24618612. 0.001013 0.001074
84996. 1.76081 0.00117(20) 24862864. 0.001013 0.001077
85004. 1.76098 0.00126(21) 22237118. 0.001013 0.001081
85013. 1.76116 0.00103(19) 27811828. 0.001013 0.001085
85021. 1.76134 0.00080(16) 39531932. 0.001013 0.001090
85030. 1.76152 0.00102(19) 28796540. 0.001013 0.001095
85039. 1.76169 0.00129(22) 21454578. 0.001014 0.001100
85047. 1.76187 0.00117(21) 23766624. 0.001014 0.001106
85055. 1.76204 0.00092(18) 30239636. 0.001014 0.001113
85064. 1.76222 0.00095(19) 27445226. 0.001014 0.001120
85073. 1.76240 0.00100(19) 26725970. 0.001014 0.001128
85081. 1.76257 0.00091(18) 29783092. 0.001014 0.001184
85090. 1.76275 0.00099(20) 26050432. 0.001014 0.001195
85098. 1.76292 0.00112(20) 24262880. 0.001014 0.001208
85107. 1.76310 0.00113(20) 25120168. 0.001014 0.001224
85115. 1.76328 0.00126(21) 21880984. 0.001014 0.001243
85124. 1.76345 0.00145(23) 19484600. 0.001015 0.001266
85132. 1.76363 0.00128(21) 23042724. 0.001015 0.001298
85141. 1.76381 0.00104(19) 27775712. 0.001015 0.001339
85149. 1.76398 0.00094(18) 31233148. 0.001015 0.001396
85158. 1.76416 0.00115(20) 24227060. 0.001015 0.001473
85166. 1.76434 0.00149(23) 18654810. 0.001015 0.001580
85175. 1.76451 0.00168(25) 16396894. 0.001015 0.001725
85183. 1.76469 0.00183(26) 14754300. 0.001015 0.001915
85192. 1.76486 0.00218(28) 12754444. 0.001015 0.002166
85200. 1.76504 0.00265(31) 10390660. 0.001015 0.002484
85209. 1.76522 0.00275(32) 9616610. 0.001016 0.002870
85217. 1.76539 0.00277(32) 9846736. 0.001016 0.003329
85226. 1.76557 0.00305(32) 9491323. 0.001016 0.003853
85234. 1.76575 0.0041(4) 6842578. 0.00102 0.00442
85243. 1.76593 0.0056(5) 4725924. 0.00102 0.00502
85251. 1.76610 0.0061(5) 4371905. 0.00102 0.00560
85260. 1.76628 0.0064(5) 4321357. 0.00102 0.00613
85268. 1.76646 0.0075(5) 3659988. 0.00102 0.00656
85277. 1.76663 0.0077(5) 3625499. 0.00102 0.00685
85286. 1.76681 0.0074(5) 3805613. 0.00102 0.00694
85294. 1.76699 0.0069(5) 3995845. 0.00102 0.00682
85303. 1.76716 0.0061(5) 4571376. 0.00102 0.00651
85311. 1.76734 0.0061(5) 4473472. 0.00102 0.00603
85320. 1.76751 0.0055(4) 4998615. 0.00102 0.00546
85328. 1.76769 0.0043(4) 6303679. 0.00102 0.00485
85337. 1.76787 0.0037(4) 7348140. 0.00102 0.00424
85345. 1.76805 0.0035(4) 7798772. 0.00102 0.00367
85354. 1.76822 0.00271(31) 10396864. 0.001017 0.003169
85362. 1.76840 0.00208(27) 13372942. 0.001017 0.002740
85371. 1.76858 0.00169(25) 16506564. 0.001017 0.002389
85379. 1.76876 0.00157(23) 18164092. 0.001017 0.002110
85388. 1.76893 0.00159(24) 18008796. 0.001018 0.001895
85396. 1.76911 0.00143(22) 20498170. 0.001018 0.001734
85405. 1.76928 0.00156(23) 18902002. 0.001018 0.001614
85414. 1.76946 0.00166(24) 16975868. 0.001018 0.001527
85422. 1.76964 0.00145(23) 19349806. 0.001018 0.001464
85431. 1.76982 0.00133(21) 22291272. 0.001018 0.001419
85439. 1.76999 0.00124(21) 23577466. 0.001018 0.001387
85448. 1.77017 0.00130(21) 21847730. 0.001018 0.001363
85456. 1.77035 0.00137(22) 20493330. 0.001018 0.001345
85465. 1.77052 0.00129(22) 20952478. 0.001018 0.001332
85473. 1.77070 0.00098(19) 27866238. 0.001019 0.001322
85482. 1.77088 0.00100(19) 26535450. 0.001019 0.001314
85490. 1.77106 0.00099(19) 27673626. 0.001019 0.001308
85499. 1.77123 0.00093(18) 29347786. 0.001019 0.001304
85508. 1.77141 0.00105(20) 25081180. 0.001019 0.001301
85516. 1.77159 0.00105(20) 25375064. 0.001019 0.001300
85525. 1.77177 0.00116(21) 22290206. 0.001019 0.001300
85533. 1.77194 0.00118(21) 22467506. 0.001019 0.001301
85542. 1.77212 0.00118(21) 22978430. 0.001019 0.001303
85550. 1.77230 0.00107(20) 25791848. 0.001019 0.001305
85559. 1.77248 0.00099(19) 28655170. 0.001019 0.001309
85567. 1.77265 0.00122(21) 22435446. 0.001020 0.001314
85576. 1.77283 0.00114(20) 24592424. 0.001020 0.001320
85585. 1.77301 0.00117(20) 23925624. 0.001020 0.001327
85593. 1.77318 0.00131(22) 20620550. 0.001020 0.001335
85602. 1.77336 0.00115(20) 24130922. 0.001020 0.001343
85610. 1.77354 0.00114(20) 25384586. 0.001020 0.001353
85619. 1.77372 0.00121(21) 21923558. 0.001020 0.001365
85627. 1.77389 0.00115(21) 21717326. 0.001020 0.001377
85636. 1.77407 0.00118(21) 21931238. 0.001020 0.001390
85645. 1.77425 0.00123(21) 22108998. 0.001020 0.001405
85653. 1.77443 0.00121(21) 22774032. 0.001020 0.001422
85662. 1.77460 0.00128(22) 20427234. 0.001021 0.001440
85670. 1.77478 0.00112(20) 25296980. 0.001021 0.001460
85679. 1.77496 0.00112(19) 26374750. 0.001021 0.001482
85687. 1.77514 0.00125(21) 22003144. 0.001021 0.001507
85696. 1.77531 0.00126(22) 21089002. 0.001021 0.001533
85705. 1.77549 0.00125(22) 21398350. 0.001021 0.001563
85713. 1.77567 0.00126(21) 22302816. 0.001021 0.001595
85722. 1.77585 0.00121(21) 22794540. 0.001021 0.001631
85730. 1.77602 0.00097(19) 29097572. 0.001021 0.001671
85739. 1.77620 0.00102(19) 26692334. 0.001021 0.001716
85747. 1.77638 0.00124(22) 21335562. 0.001021 0.001767
85756. 1.77656 0.00131(22) 20512606. 0.001022 0.001824
85765. 1.77674 0.00130(22) 21151254. 0.001022 0.001889
85773. 1.77691 0.00128(21) 21926096. 0.001022 0.001965
85782. 1.77709 0.00157(24) 16709592. 0.001022 0.002056
85790. 1.77727 0.00159(24) 16833876. 0.001022 0.002167
85799. 1.77745 0.00163(25) 15953014. 0.001022 0.002310
85807. 1.77762 0.00193(28) 12989049. 0.001022 0.002501
85816. 1.77780 0.00193(27) 13508438. 0.001022 0.002765
85825. 1.77798 0.00198(27) 13587581. 0.001022 0.003138
85833. 1.77816 0.00241(30) 10865529. 0.001022 0.003670
85842. 1.77834 0.0033(4) 7947839. 0.00102 0.00443
85850. 1.77851 0.0048(4) 5420027. 0.00102 0.00549
85859. 1.77869 0.0064(5) 4012468. 0.00102 0.00693
85867. 1.77887 0.0079(5) 3328610. 0.00102 0.00888
85876. 1.77905 0.0105(6) 2514807. 0.00102 0.01139
85885. 1.77922 0.0139(7) 1868091. 0.00102 0.01453
85893. 1.77940 0.0176(8) 1458216. 0.00102 0.01829
85902. 1.77958 0.0218(9) 1183162. 0.00102 0.02262
85910. 1.77976 0.0268(10) 967611. 0.00102 0.02736
85919. 1.77994 0.0329(11) 768544. 0.00102 0.03230
85928. 1.78012 0.0386(12) 648969. 0.00102 0.03712
85936. 1.78029 0.0436(13) 571467. 0.00102 0.04145
85945. 1.78047 0.0470(14) 528513. 0.00102 0.04487
85953. 1.78065 0.0489(14) 508265. 0.00102 0.04695
85962. 1.78083 0.0490(14) 500807. 0.00102 0.04737
85971. 1.78101 0.0448(13) 553354. 0.00102 0.04599
85979. 1.78118 0.0393(13) 636193. 0.00102 0.04300
85988. 1.78136 0.0342(12) 736785. 0.00102 0.03880
85996. 1.78154 0.0300(11) 841619. 0.00102 0.03392
86005. 1.78172 0.0248(10) 1054294. 0.00102 0.02878
86014. 1.78190 0.0211(9) 1231404. 0.00102 0.02377
86022. 1.78208 0.0173(8) 1503932. 0.00102 0.01924
86031. 1.78225 0.0146(7) 1802918. 0.00102 0.01531
86039. 1.78243 0.0125(7) 2109931. 0.00102 0.01204
86048. 1.78261 0.0105(6) 2492621. 0.00102 0.00942
86057. 1.78279 0.0081(6) 3233490. 0.00102 0.00740
86065. 1.78297 0.0063(5) 4322679. 0.00102 0.00588
86074. 1.78315 0.0056(5) 4901797. 0.00102 0.00477
86082. 1.78332 0.0051(4) 5168882. 0.00102 0.00397
86091. 1.78350 0.0042(4) 6351627. 0.00102 0.00340
86100. 1.78368 0.00331(35) 8382903. 0.001025 0.002995
86108. 1.78386 0.00275(32) 9789516. 0.001025 0.002703
86117. 1.78404 0.00229(29) 11583953. 0.001025 0.002486
86126. 1.78422 0.00218(28) 12393152. 0.001025 0.002320
86134. 1.78439 0.00213(28) 13135049. 0.001025 0.002188
86143. 1.78457 0.00206(28) 13193573. 0.001025 0.002080
86151. 1.78475 0.00197(28) 13136840. 0.001026 0.001988
86160. 1.78493 0.00168(25) 15672169. 0.001026 0.001909
86169. 1.78511 0.00154(24) 17906382. 0.001026 0.001840
86177. 1.78529 0.00180(25) 15484130. 0.001026 0.001780
86186. 1.78547 0.00181(25) 15518888. 0.001026 0.001725
86195. 1.78565 0.00156(24) 17693334. 0.001026 0.001677
86203. 1.78582 0.00147(23) 18784836. 0.001026 0.001634
86212. 1.78600 0.00154(24) 18092500. 0.001026 0.001594
86220. 1.78618 0.00152(24) 17490700. 0.001026 0.001558
86229. 1.78636 0.00125(22) 21483754. 0.001026 0.001526
86238. 1.78654 0.00107(19) 27552294. 0.001026 0.001496
86246. 1.78672 0.00126(21) 22147242. 0.001026 0.001469
86255. 1.78690 0.00132(22) 20486424. 0.001027 0.001444
86263. 1.78707 0.00107(19) 26488826. 0.001027 0.001422
86272. 1.78725 0.00110(20) 24986654. 0.001027 0.001401
86281. 1.78743 0.00126(22) 21114158. 0.001027 0.001382
86289. 1.78761 0.00121(21) 22363500. 0.001027 0.001364
86298. 1.78779 0.00115(20) 24267232. 0.001027 0.001347
86307. 1.78797 0.00125(22) 20813262. 0.001027 0.001326
86315. 1.78815 0.00123(21) 22173872. 0.001027 0.001312
86324. 1.78833 0.00119(21) 22728620. 0.001027 0.001299
86333. 1.78851 0.00098(19) 27228008. 0.001027 0.001287
86341. 1.78868 0.00104(20) 24113580. 0.001027 0.001275
86350. 1.78886 0.00112(21) 22758812. 0.001027 0.001265
86358. 1.78904 0.00106(20) 24340878. 0.001027 0.001255
86367. 1.78922 0.00098(20) 26219872. 0.001028 0.001245
86376. 1.78940 0.00115(21) 22244488. 0.001028 0.001236
86384. 1.78958 0.00115(21) 23082344. 0.001028 0.001228
86393. 1.78976 0.00107(20) 24771386. 0.001028 0.001220
86402. 1.78994 0.00086(17) 32766836. 0.001028 0.001213
86410. 1.79012 0.00082(17) 35178148. 0.001028 0.001206
86419. 1.79029 0.00112(20) 23975578. 0.001028 0.001210
86428. 1.79047 0.00121(22) 21253934. 0.001028 0.001204
86436. 1.79065 0.00100(20) 26026940. 0.001028 0.001198
86445. 1.79083 0.00111(21) 22835372. 0.001028 0.001193
86454. 1.79101 0.00137(23) 18428510. 0.001028 0.001188
86462. 1.79119 0.00131(22) 20116636. 0.001028 0.001183
86471. 1.79137 0.00117(21) 22129130. 0.001028 0.001178
86479. 1.79155 0.00098(20) 25556338. 0.001028 0.001174
86488. 1.79173 0.00084(18) 29825824. 0.001029 0.001170
86497. 1.79191 0.00099(20) 25496172. 0.001029 0.001166
86505. 1.79209 0.00110(21) 22673378. 0.001029 0.001162
86514. 1.79227 0.00094(19) 28117706. 0.001029 0.001159
86523. 1.79245 0.00100(20) 26223968. 0.001029 0.001156
86531. 1.79263 0.00099(20) 26191444. 0.001029 0.001153
86540. 1.79280 0.00084(18) 31927970. 0.001029 0.001150
86549. 1.79298 0.00103(20) 23979334. 0.001029 0.001147
86557. 1.79316 0.00115(21) 22428978. 0.001029 0.001144
86566. 1.79334 0.00110(20) 24573730. 0.001029 0.001142
86575. 1.79352 0.00113(21) 21841552. 0.001029 0.001139
86583. 1.79370 0.00105(21) 23009060. 0.001029 0.001137
86592. 1.79388 0.00105(20) 24196178. 0.001029 0.001135
86601. 1.79406 0.00113(21) 22993360. 0.001029 0.001133
86609. 1.79424 0.00103(20) 25834568. 0.001030 0.001131
86618. 1.79442 0.00085(17) 33646608. 0.001030 0.001129
86627. 1.79460 0.00089(18) 30124148. 0.001030 0.001127
86635. 1.79478 0.00104(20) 24566436. 0.001030 0.001126
86644. 1.79496 0.00097(20) 25188668. 0.001030 0.001124
86653. 1.79514 0.00089(19) 28793656. 0.001030 0.001122
86661. 1.79532 0.00105(20) 25417842. 0.001030 0.001121
86670. 1.79550 0.00099(20) 25587248. 0.001030 0.001120
86679. 1.79568 0.00086(18) 30690196. 0.001030 0.001119
86687. 1.79586 0.00097(19) 28329098. 0.001030 0.001117
86696. 1.79604 0.00111(20) 23802076. 0.001030 0.001116
86705. 1.79621 0.00118(21) 21743526. 0.001030 0.001115
86713. 1.79639 0.00106(20) 26167398. 0.001030 0.001114
86722. 1.79657 0.00109(20) 25507544. 0.001030 0.001113
86731. 1.79676 0.00117(22) 21331648. 0.001031 0.001113
86739. 1.79694 0.00107(20) 24616506. 0.001031 0.001112
86748. 1.79712 0.00113(20) 24513036. 0.001031 0.001111
86757. 1.79729 0.00127(22) 20361044. 0.001031 0.001110
86765. 1.79747 0.00124(23) 19330866. 0.001031 0.001110
86774. 1.79765 0.00095(19) 26491070. 0.001031 0.001109
86783. 1.79783 0.00085(18) 29587668. 0.001031 0.001109
86791. 1.79801 0.00093(19) 28033002. 0.001031 0.001109
86800. 1.79819 0.00114(21) 22810990. 0.001031 0.001108
86809. 1.79837 0.00118(21) 21727254. 0.001031 0.001108
86817. 1.79855 0.00091(19) 29191348. 0.001031 0.001108
86826. 1.79873 0.00086(18) 29446698. 0.001031 0.001108
86835. 1.79891 0.00087(19) 28943362. 0.001031 0.001108
86843. 1.79909 0.00095(19) 27337756. 0.001031 0.001108
86852. 1.79927 0.00104(20) 25628652. 0.001031 0.001108
86861. 1.79945 0.00120(21) 21897330. 0.001031 0.001108
86870. 1.79963 0.00145(24) 17869806. 0.001032 0.001108
86878. 1.79981 0.00151(24) 17759730. 0.001032 0.001108
86887. 1.79999 0.00131(22) 20294604. 0.001032 0.001108
86896. 1.80017 0.00091(18) 29508838. 0.001032 0.001109
86904. 1.80035 0.00079(17) 33776104. 0.001032 0.001109
86913. 1.80053 0.00094(19) 28843876. 0.001032 0.001070
86922. 1.80071 0.00116(21) 22771632. 0.001032 0.001071
86930. 1.80089 0.00121(22) 20876800. 0.001032 0.001073
86939. 1.80107 0.00103(20) 24750512. 0.001032 0.001074
86948. 1.80125 0.00079(17) 33801052. 0.001032 0.001076
86956. 1.80143 0.00077(17) 35929244. 0.001032 0.001077
86965. 1.80161 0.00093(19) 28399552. 0.001032 0.001079
86974. 1.80180 0.00083(18) 31551756. 0.001032 0.001081
86983. 1.80198 0.00074(17) 36121692. 0.001032 0.001083
86991. 1.80216 0.00084(18) 32133790. 0.001032 0.001085
87000. 1.80234 0.00099(20) 26234142. 0.001032 0.001087
87009. 1.80252 0.00105(20) 24704358. 0.001032 0.001089
87017. 1.80270 0.00112(21) 22675494. 0.001033 0.001092
87026. 1.80288 0.00114(21) 22098878. 0.001033 0.001094
87035. 1.80306 0.00111(20) 23803894. 0.001033 0.001097
87043. 1.80324 0.00105(20) 24438770. 0.001033 0.001100
87052. 1.80342 0.00095(19) 28215310. 0.001033 0.001103
87061. 1.80360 0.00091(18) 29989048. 0.001033 0.001106
87070. 1.80378 0.00079(17) 33353474. 0.001033 0.001109
87078. 1.80396 0.00089(18) 30018672. 0.001033 0.001113
87087. 1.80414 0.00107(20) 25469060. 0.001033 0.001117
87096. 1.80432 0.00102(19) 26948024. 0.001033 0.001121
87104. 1.80450 0.00108(21) 23617806. 0.001033 0.001126
87113. 1.80468 0.00140(23) 18267456. 0.001033 0.001131
87122. 1.80486 0.00163(25) 15604812. 0.001033 0.001136
87131. 1.80504 0.00147(24) 17385356. 0.001033 0.001142
87139. 1.80522 0.00140(24) 17839380. 0.001033 0.001148
87148. 1.80540 0.00132(23) 19517326. 0.001033 0.001154
87157. 1.80558 0.00154(24) 17461694. 0.001033 0.001162
87165. 1.80576 0.00193(27) 13984125. 0.001033 0.001170
87174. 1.80595 0.00188(27) 13905551. 0.001033 0.001178
87183. 1.80613 0.00161(25) 15925852. 0.001034 0.001188
87192. 1.80631 0.00179(27) 14099514. 0.001034 0.001199
87200. 1.80649 0.00198(28) 12799557. 0.001034 0.001210
87209. 1.80667 0.00197(27) 13515578. 0.001034 0.001223
87218. 1.80685 0.00221(29) 11704940. 0.001034 0.001238
87227. 1.80703 0.00232(30) 10878198. 0.001034 0.001254
87235. 1.80721 0.00217(29) 12079784. 0.001034 0.001272
87244. 1.80739 0.00239(31) 10627373. 0.001034 0.001293
87253. 1.80757 0.00261(32) 9948650. 0.001034 0.001319
87261. 1.80775 0.00238(29) 11632802. 0.001034 0.001349
87270. 1.80793 0.00235(30) 11083265. 0.001034 0.001388
87279. 1.80812 0.00237(31) 10526963. 0.001034 0.001439
87288. 1.80830 0.00236(30) 10910007. 0.001034 0.001507
87296. 1.80848 0.00279(33) 9403618. 0.001034 0.001600
87305. 1.80866 0.00284(33) 9433846. 0.001034 0.001730
87314. 1.80884 0.00264(32) 9778557. 0.001034 0.001911
87322. 1.80902 0.00251(31) 10247964. 0.001034 0.002163
87331. 1.80920 0.00290(34) 8517703. 0.001034 0.002503
87340. 1.80938 0.0032(4) 7550946. 0.00103 0.00295
87349. 1.80956 0.0038(4) 6511122. 0.00103 0.00353
87357. 1.80974 0.0046(4) 5643111. 0.00103 0.00424
87366. 1.80993 0.0058(5) 4285246. 0.00103 0.00510
87375. 1.81010 0.0067(5) 3730142. 0.00103 0.00608
87384. 1.81029 0.0076(5) 3311827. 0.00103 0.00718
87392. 1.81047 0.0087(6) 2971031. 0.00103 0.00833
87401. 1.81065 0.0104(6) 2441851. 0.00103 0.00948
87410. 1.81083 0.0119(7) 2138886. 0.00103 0.01055
87419. 1.81101 0.0134(7) 1881168. 0.00103 0.01143
87427. 1.81119 0.0145(8) 1729545. 0.00103 0.01204
87436. 1.81137 0.0143(7) 1793086. 0.00103 0.01228
87445. 1.81156 0.0138(7) 1814906. 0.00103 0.01211
87454. 1.81174 0.0127(7) 1970656. 0.00103 0.01154
87462. 1.81192 0.0106(7) 2350531. 0.00103 0.01064
87471. 1.81210 0.0084(6) 3120614. 0.00103 0.00953
87480. 1.81228 0.0077(5) 3378925. 0.00104 0.00833
87489. 1.81246 0.0075(6) 3282153. 0.00104 0.00714
87497. 1.81264 0.0063(5) 4045578. 0.00104 0.00602
87506. 1.81282 0.0058(5) 4524046. 0.00104 0.00502
87515. 1.81301 0.0051(4) 5010086. 0.00104 0.00417
87524. 1.81319 0.0044(4) 5903161. 0.00104 0.00347
87532. 1.81337 0.0040(4) 6237216. 0.00104 0.00292
87541. 1.81355 0.0036(4) 6777664. 0.00104 0.00249
87550. 1.81373 0.0035(4) 7257236. 0.00104 0.00217
87559. 1.81391 0.0033(4) 7867730. 0.00104 0.00193
87567. 1.81410 0.0032(4) 7932892. 0.00104 0.00176
87576. 1.81427 0.00275(33) 9400516. 0.001035 0.001636
87585. 1.81446 0.00252(31) 10165992. 0.001035 0.001544
87594. 1.81464 0.00251(31) 10086860. 0.001035 0.001475
87602. 1.81482 0.00266(32) 9697542. 0.001035 0.001423
87611. 1.81500 0.00296(34) 8793195. 0.001036 0.001382
87620. 1.81518 0.00300(35) 8337727. 0.001036 0.001348
87629. 1.81537 0.00243(31) 10373230. 0.001036 0.001320
87637. 1.81555 0.00230(30) 11372339. 0.001036 0.001297
87646. 1.81573 0.00269(32) 9491957. 0.001036 0.001276
87655. 1.81591 0.00243(30) 10913979. 0.001036 0.001258
87664. 1.81609 0.00226(29) 12179106. 0.001036 0.001241
87673. 1.81627 0.00249(32) 9905588. 0.001036 0.001227
87681. 1.81646 0.00236(32) 9998465. 0.001036 0.001214
87690. 1.81664 0.00215(29) 11827245. 0.001036 0.001202
87699. 1.81682 0.00211(29) 12029777. 0.001036 0.001191
87708. 1.81700 0.00209(29) 11910231. 0.001036 0.001182
87716. 1.81718 0.00198(28) 12943850. 0.001036 0.001173
87725. 1.81736 0.00152(24) 17270212. 0.001036 0.001165
87734. 1.81755 0.00130(23) 18765168. 0.001036 0.001158
87743. 1.81773 0.00118(22) 19989434. 0.001036 0.001151
87751. 1.81791 0.00129(24) 18085452. 0.001036 0.001145
87760. 1.81809 0.00160(26) 14445209. 0.001036 0.001139
87769. 1.81827 0.00163(26) 14878049. 0.001036 0.001134
87778. 1.81845 0.00167(25) 15388321. 0.001036 0.001129
87787. 1.81864 0.00181(27) 13940359. 0.001036 0.001124
87795. 1.81882 0.00179(27) 13885015. 0.001036 0.001120
87804. 1.81900 0.00158(24) 17056328. 0.001036 0.001116
87813. 1.81918 0.00183(26) 14781722. 0.001036 0.001113
87822. 1.81937 0.00206(28) 12767135. 0.001036 0.001109
87831. 1.81955 0.00172(26) 15037602. 0.001036 0.001106
87839. 1.81973 0.00151(25) 16042080. 0.001036 0.001103
87848. 1.81991 0.00152(25) 16229354. 0.001036 0.001100
87857. 1.82009 0.00145(23) 18257296. 0.001036 0.001098
87866. 1.82027 0.00149(24) 17461586. 0.001036 0.001095
87874. 1.82046 0.00164(26) 15348323. 0.001036 0.001093
87883. 1.82064 0.00190(28) 12900183. 0.001036 0.001091
87892. 1.82082 0.00185(27) 13342247. 0.001036 0.001089
87901. 1.82100 0.00160(25) 15566488. 0.001036 0.001087
87910. 1.82119 0.00160(25) 16428251. 0.001036 0.001085
87918. 1.82137 0.00189(27) 13932936. 0.001036 0.001083
87927. 1.82155 0.00201(28) 12440055. 0.001036 0.001082
87936. 1.82173 0.00181(27) 13935285. 0.001036 0.001080
87945. 1.82191 0.00180(27) 13912583. 0.001036 0.001079
87954. 1.82210 0.00174(26) 14278336. 0.001036 0.001077
87962. 1.82228 0.00161(25) 15679829. 0.001036 0.001076
87971. 1.82246 0.00147(24) 18099880. 0.001037 0.001075
87980. 1.82265 0.00167(26) 15346388. 0.001037 0.001073
87989. 1.82283 0.00194(28) 12393905. 0.001037 0.001072
87998. 1.82301 0.00170(26) 14685406. 0.001037 0.001071
88006. 1.82319 0.00159(25) 16136001. 0.001037 0.001070
88015. 1.82337 0.00158(25) 15508443. 0.001037 0.001069
88024. 1.82356 0.00144(24) 16670588. 0.001037 0.001068
88033. 1.82374 0.00137(24) 17307388. 0.001037 0.001067
88042. 1.82392 0.00136(24) 17564502. 0.001037 0.001066
88050. 1.82410 0.00138(24) 17698328. 0.001037 0.001066
88059. 1.82428 0.00130(23) 18561138. 0.001037 0.001065
88068. 1.82447 0.00117(22) 20791750. 0.001037 0.001064
88077. 1.82465 0.00133(24) 18010364. 0.001037 0.001063
88086. 1.82483 0.00165(26) 14539530. 0.001037 0.001063
88094. 1.82502 0.00177(27) 14037074. 0.001037 0.001062
88103. 1.82520 0.00145(24) 17488910. 0.001037 0.001061
88112. 1.82538 0.00113(21) 22428384. 0.001037 0.001061
88121. 1.82556 0.00152(25) 15783916. 0.001037 0.001060
88130. 1.82575 0.00167(26) 14636456. 0.001037 0.001059
88138. 1.82593 0.00135(23) 19521940. 0.001037 0.001059
88147. 1.82611 0.00137(24) 17944534. 0.001037 0.001058
88156. 1.82629 0.00150(25) 16252724. 0.001037 0.001058
88165. 1.82648 0.00151(25) 16465118. 0.001037 0.001057
88174. 1.82666 0.00158(26) 15212571. 0.001037 0.001057
88183. 1.82684 0.00134(23) 18543994. 0.001037 0.001056
88191. 1.82703 0.00117(21) 22101410. 0.001037 0.001056
88200. 1.82721 0.00135(23) 18627708. 0.001037 0.001055
88209. 1.82739 0.00128(23) 19357970. 0.001037 0.001055
88218. 1.82757 0.00130(23) 18592266. 0.001037 0.001055
88227. 1.82776 0.00146(24) 17157778. 0.001037 0.001054
88236. 1.82794 0.00146(24) 17851690. 0.001037 0.001054
88244. 1.82812 0.00139(24) 18071242. 0.001037 0.001053
88253. 1.82830 0.00110(21) 22729914. 0.001037 0.001053
88262. 1.82849 0.00081(18) 31781344. 0.001037 0.001053
88271. 1.82867 0.00069(17) 36017404. 0.001037 0.001052
88280. 1.82885 0.00073(18) 31435170. 0.001037 0.001052
88288. 1.82904 0.00103(21) 21946464. 0.001037 0.001052
88297. 1.82922 0.00122(23) 19164846. 0.001037 0.001051
88306. 1.82940 0.00102(20) 24606076. 0.001037 0.001051
88315. 1.82959 0.00098(20) 25933758. 0.001037 0.001051
88324. 1.82977 0.00115(22) 21395860. 0.001037 0.001051
88333. 1.82995 0.00115(22) 20715340. 0.001037 0.001050
88341. 1.83013 0.00114(22) 20655870. 0.001037 0.001050
88350. 1.83032 0.00133(24) 17274816. 0.001037 0.001050
88359. 1.83050 0.00141(25) 16355840. 0.001037 0.001050
88368. 1.83068 0.00114(21) 22387856. 0.001037 0.001049
88377. 1.83087 0.00131(23) 18688856. 0.001037 0.001049
88386. 1.83105 0.00139(24) 17920218. 0.001037 0.001049
88395. 1.83123 0.00124(22) 20434552. 0.001037 0.001049
88403. 1.83142 0.00133(23) 18807914. 0.001037 0.001048
88412. 1.83160 0.00147(24) 16864354. 0.001037 0.001048
88421. 1.83178 0.00150(24) 16805516. 0.001037 0.001048
88430. 1.83197 0.00187(28) 12872697. 0.001037 0.001048
88439. 1.83215 0.00209(30) 10873894. 0.001037 0.001048
88448. 1.83233 0.00169(27) 14142812. 0.001037 0.001047
88456. 1.83252 0.00172(27) 13571857. 0.001037 0.001047
88465. 1.83270 0.00182(27) 13318617. 0.001037 0.001037
88474. 1.83288 0.00180(27) 13944199. 0.001037 0.001037
88483. 1.83307 0.00186(28) 12925864. 0.001037 0.001037
88492. 1.83325 0.00169(26) 15102663. 0.001037 0.001037
88501. 1.83343 0.00181(26) 14704303. 0.001037 0.001037
88510. 1.83362 0.00237(31) 10610030. 0.001037 0.001037
88518. 1.83380 0.00243(31) 10088399. 0.001037 0.001037
88527. 1.83398 0.00210(30) 11402511. 0.001037 0.001037
88536. 1.83417 0.00179(27) 13553797. 0.001037 0.001037
88545. 1.83435 0.00170(26) 15005716. 0.001037 0.001037
88554. 1.83453 0.00181(27) 13938212. 0.001037 0.001037
88563. 1.83472 0.00199(29) 11594875. 0.001037 0.001037
88571. 1.83490 0.00161(26) 14681904. 0.001037 0.001037
88580. 1.83509 0.00130(23) 19495312. 0.001037 0.001037
88589. 1.83527 0.00177(27) 13617488. 0.001037 0.001037
88598. 1.83545 0.00211(30) 11074949. 0.001037 0.001037
88607. 1.83564 0.00179(27) 13680036. 0.001037 0.001037
88616. 1.83582 0.00174(27) 13808839. 0.001037 0.001037
88625. 1.83600 0.00157(25) 15833637. 0.001037 0.001037
88634. 1.83619 0.00153(25) 16467962. 0.001037 0.001037
88642. 1.83637 0.00170(26) 14264530. 0.001036 0.001036
88651. 1.83655 0.00177(28) 13054071. 0.001036 0.001036
88660. 1.83674 0.00151(26) 15289358. 0.001036 0.001036
88669. 1.83692 0.00121(22) 20582828. 0.001036 0.001036
88678. 1.83711 0.00141(24) 16912264. 0.001036 0.001036
88687. 1.83729 0.00131(24) 17938610. 0.001036 0.001036
88696. 1.83747 0.00097(20) 25446594. 0.001036 0.001036
88704. 1.83766 0.00093(19) 26986456. 0.001036 0.001036
88713. 1.83784 0.00100(20) 24450112. 0.001036 0.001036
88722. 1.83803 0.00106(21) 23311050. 0.001036 0.001036
88731. 1.83821 0.00112(22) 21103268. 0.001036 0.001036
88740. 1.83839 0.00092(20) 24768234. 0.001036 0.001036
88749. 1.83858 0.00098(21) 23309660. 0.001036 0.001036
88758. 1.83876 0.00119(22) 19768886. 0.001036 0.001036
88767. 1.83894 0.00116(22) 21064860. 0.001036 0.001036
88775. 1.83913 0.00090(19) 26648940. 0.001036 0.001036
88784. 1.83931 0.00077(18) 30191566. 0.001036 0.001036
88793. 1.83950 0.00102(21) 22779880. 0.001036 0.001036
88802. 1.83968 0.00123(22) 20047466. 0.001036 0.001036
88811. 1.83987 0.00119(22) 20926780. 0.001036 0.001036
88820. 1.84005 0.00121(23) 19422518. 0.001036 0.001036
88829. 1.84023 0.00125(23) 18902172. 0.001036 0.001036
88838. 1.84042 0.00123(23) 18676852. 0.001036 0.001036
88847. 1.84060 0.00105(21) 22161398. 0.001036 0.001036
88855. 1.84079 0.00099(20) 25850442. 0.001036 0.001036
88864. 1.84097 0.00125(23) 19488930. 0.001036 0.001036
88873. 1.84115 0.00122(22) 19844166. 0.001036 0.001036
88882. 1.84134 0.00097(20) 26231514. 0.001036 0.001036
88891. 1.84152 0.00108(22) 20777126. 0.001036 0.001036
88900. 1.84171 0.00120(23) 18979532. 0.001036 0.001036
88909. 1.84189 0.00144(25) 16340965. 0.001036 0.001036
88918. 1.84207 0.00134(24) 17909916. 0.001036 0.001036
88927. 1.84226 0.00101(20) 24734224. 0.001036 0.001036
88935. 1.84244 0.00105(21) 23493636. 0.001036 0.001036
88944. 1.84263 0.00129(23) 18958564. 0.001036 0.001036
88953. 1.84281 0.00151(26) 15360932. 0.001036 0.001036
88962. 1.84300 0.00128(23) 18598004. 0.001036 0.001036
88971. 1.84318 0.00096(19) 27069248. 0.001036 0.001036
88980. 1.84337 0.00099(20) 25503132. 0.001036 0.001036
88989. 1.84355 0.00105(20) 25230590. 0.001035 0.001035
88998. 1.84373 0.00087(18) 29727320. 0.001035 0.001035
89007. 1.84392 0.00067(16) 38853520. 0.001035 0.001035
89016. 1.84410 0.00096(20) 25958324. 0.001035 0.001035
89024. 1.84429 0.00108(22) 21520292. 0.001035 0.001035
89033. 1.84447 0.00115(22) 20920294. 0.001035 0.001035
89042. 1.84466 0.00148(24) 16701275. 0.001035 0.001035
89051. 1.84484 0.00116(22) 21479056. 0.001035 0.001035
89060. 1.84503 0.00083(19) 28222732. 0.001035 0.001035
89069. 1.84521 0.00089(19) 27944088. 0.001035 0.001035
89078. 1.84539 0.00096(19) 27455646. 0.001035 0.001035
89087. 1.84558 0.00114(22) 21195694. 0.001035 0.001035
89096. 1.84577 0.00117(22) 20032462. 0.001035 0.001035
89105. 1.84595 0.00104(21) 22984302. 0.001035 0.001035
89113. 1.84613 0.00098(20) 25176824. 0.001035 0.001035
89122. 1.84632 0.00106(21) 23756516. 0.001035 0.001035
89131. 1.84650 0.00112(21) 22959608. 0.001035 0.001035
89140. 1.84669 0.00121(23) 19366400. 0.001035 0.001035
89149. 1.84687 0.00098(20) 24465138. 0.001035 0.001035
89158. 1.84706 0.00086(18) 31000870. 0.001035 0.001035
89167. 1.84724 0.00114(22) 21245352. 0.001035 0.001035
89176. 1.84743 0.00102(21) 22714942. 0.001035 0.001035
89185. 1.84761 0.00081(19) 28870862. 0.001035 0.001035
89194. 1.84780 0.00099(20) 25055180. 0.001035 0.001035
89203. 1.84798 0.00116(21) 21821584. 0.001035 0.001035
89212. 1.84817 0.00128(24) 18100622. 0.001034 0.001034
89221. 1.84835 0.00125(23) 18161022. 0.001034 0.001034
89229. 1.84854 0.00112(21) 21900846. 0.001034 0.001034
89238. 1.84872 0.00108(21) 23701954. 0.001034 0.001034
89247. 1.84891 0.00113(21) 22429766. 0.001034 0.001034
89256. 1.84909 0.00112(22) 21337586. 0.001034 0.001034
89265. 1.84928 0.00081(18) 30604268. 0.001034 0.001034
89274. 1.84946 0.00078(18) 32050998. 0.001034 0.001034
89283. 1.84965 0.00085(19) 28743336. 0.001034 0.001034
89292. 1.84983 0.00092(19) 27014514. 0.001034 0.001034
89301. 1.85002 0.00114(22) 21011302. 0.001034 0.001034
89310. 1.85020 0.00132(23) 18269872. 0.001034 0.001034
89319. 1.85039 0.00129(23) 18883774. 0.001034 0.001034
89328. 1.85057 0.00120(22) 20215826. 0.001034 0.001034
89337. 1.85076 0.00118(22) 21437702. 0.001034 0.001034
89346. 1.85094 0.00117(21) 22168144. 0.001034 0.001034
89354. 1.85113 0.00117(22) 21076472. 0.001034 0.001034
89363. 1.85131 0.00107(21) 23133486. 0.001034 0.001034
89372. 1.85150 0.00098(20) 26134156. 0.001034 0.001034
89381. 1.85168 0.00094(19) 26414592. 0.001033 0.001033
89390. 1.85187 0.00098(21) 23787166. 0.001033 0.001033
89399. 1.85205 0.00083(19) 28767486. 0.001033 0.001033
89408. 1.85224 0.00074(17) 34599256. 0.001033 0.001033
89417. 1.85242 0.00087(18) 29892204. 0.001033 0.001033
89426. 1.85261 0.00105(21) 22501706. 0.001033 0.001033
89435. 1.85279 0.00102(21) 23658982. 0.001033 0.001033
89444. 1.85298 0.00094(20) 25601254. 0.001033 0.001033
89453. 1.85317 0.00081(18) 30056458. 0.001033 0.001033
89462. 1.85335 0.00095(20) 24198020. 0.001033 0.001033
89471. 1.85354 0.00107(22) 20456236. 0.001033 0.001033
89480. 1.85372 0.00094(20) 24397208. 0.001033 0.001033
89489. 1.85391 0.00082(19) 27767170. 0.001033 0.001033
89498. 1.85409 0.00086(19) 26610698. 0.001033 0.001033
89507. 1.85428 0.00120(23) 18386106. 0.001033 0.001033
89516. 1.85446 0.00112(22) 20498528. 0.001033 0.001033
89524. 1.85465 0.00088(19) 27724800. 0.001033 0.001033
89533. 1.85483 0.00081(19) 28516804. 0.001032 0.001032
89542. 1.85502 0.00065(17) 36269024. 0.001032 0.001032
89551. 1.85521 0.00078(18) 31161210. 0.001032 0.001032
89560. 1.85539 0.00108(21) 21895840. 0.001032 0.001032
89569. 1.85558 0.00097(20) 25015700. 0.001032 0.001032
89578. 1.85576 0.00075(17) 35031300. 0.001032 0.001032
89587. 1.85595 0.00084(18) 30050396. 0.001032 0.001032
89596. 1.85613 0.00095(20) 25981308. 0.001032 0.001032
89605. 1.85632 0.00102(20) 24971206. 0.001032 0.001032
89614. 1.85651 0.00125(23) 18828776. 0.001032 0.001032
89623. 1.85669 0.00101(21) 23088618. 0.001032 0.001032
89632. 1.85688 0.00067(16) 37256584. 0.001032 0.001032
89641. 1.85706 0.00084(19) 27307816. 0.001032 0.001032
89650. 1.85725 0.00098(21) 23364046. 0.001032 0.001032
89659. 1.85743 0.00081(18) 32096750. 0.001032 0.001032
89668. 1.85762 0.00090(19) 26332434. 0.001031 0.001031
89677. 1.85781 0.00116(23) 18900136. 0.001031 0.001031
89686. 1.85799 0.00123(23) 18898444. 0.001031 0.001031
89695. 1.85818 0.00130(24) 17175628. 0.001031 0.001031
89704. 1.85836 0.00112(22) 19921894. 0.001031 0.001031
89713. 1.85855 0.00098(20) 24263818. 0.001031 0.001031
89722. 1.85874 0.00105(21) 22150480. 0.001031 0.001031
89731. 1.85892 0.00116(23) 19749376. 0.001031 0.001031
89740. 1.85911 0.00125(23) 18222576. 0.001031 0.001031
89749. 1.85929 0.00110(21) 21636462. 0.001031 0.001031
89758. 1.85948 0.00098(20) 24196832. 0.001031 0.001031
89767. 1.85967 0.00083(19) 27456366. 0.001031 0.001031
89776. 1.85985 0.00088(20) 25578292. 0.001031 0.001031
89785. 1.86004 0.00112(21) 21647682. 0.001031 0.001031
89793. 1.86022 0.00113(21) 22117230. 0.001030 0.001030
89802. 1.86041 0.00090(20) 25973054. 0.001030 0.001030
89811. 1.86059 0.00062(16) 38080992. 0.001030 0.001030
89820. 1.86078 0.00073(18) 32459790. 0.001030 0.001030
89829. 1.86097 0.00106(21) 21760146. 0.001030 0.001030
89838. 1.86115 0.00129(24) 17355614. 0.001030 0.001030
89847. 1.86134 0.00106(21) 22508006. 0.001030 0.001030
89856. 1.86153 0.00102(21) 22884988. 0.001030 0.001030
89865. 1.86171 0.00096(21) 22569194. 0.001030 0.001030
89874. 1.86190 0.00067(17) 35892104. 0.001030 0.001030
89883. 1.86209 0.00078(17) 33402040. 0.001030 0.001030
89892. 1.86227 0.00105(21) 22313290. 0.001030 0.001030
89901. 1.86246 0.00103(22) 21480066. 0.001029 0.001029
89910. 1.86264 0.00085(19) 27203788. 0.001029 0.001029
89919. 1.86283 0.00081(18) 32396212. 0.001029 0.001029
89928. 1.86302 0.00095(20) 24142124. 0.001029 0.001029
89937. 1.86321 0.00092(21) 23087994. 0.001029 0.001029
89946. 1.86339 0.00083(19) 28072752. 0.001029 0.001029
89955. 1.86358 0.00098(21) 22740214. 0.001029 0.001029
89964. 1.86376 0.00090(20) 26265144. 0.001029 0.001029
89973. 1.86395 0.00104(21) 23537440. 0.001029 0.001029
89982. 1.86414 0.00126(23) 18521834. 0.001029 0.001029
89991. 1.86432 0.00110(22) 20487170. 0.001029 0.001029
90000. 1.86451 0.00080(18) 29737600. 0.001029 0.001029
90009. 1.86470 0.00094(20) 25279922. 0.001028 0.001028
90018. 1.86488 0.00100(20) 23954066. 0.001028 0.001028
90027. 1.86507 0.00111(21) 22087888. 0.001028 0.001028
90036. 1.86525 0.00131(24) 17894340. 0.001028 0.001028
90045. 1.86544 0.00126(23) 18946450. 0.001028 0.001028
90054. 1.86563 0.00116(22) 20919874. 0.001028 0.001028
90063. 1.86581 0.00096(20) 23997406. 0.001028 0.001028
90072. 1.86600 0.00070(18) 32409760. 0.001028 0.001028
90081. 1.86619 0.00067(17) 34431824. 0.001028 0.001028
90090. 1.86638 0.00081(19) 26623336. 0.001028 0.001028
90099. 1.86656 0.00081(19) 27554972. 0.001028 0.001028
90108. 1.86675 0.00090(19) 27007292. 0.001027 0.001027
90117. 1.86694 0.00102(21) 23665368. 0.001027 0.001027
90126. 1.86712 0.00089(19) 27184418. 0.001027 0.001027
90135. 1.86731 0.00094(19) 26407888. 0.001027 0.001027
90144. 1.86750 0.00107(21) 21974046. 0.001027 0.001027
90153. 1.86768 0.00105(21) 21795070. 0.001027 0.001027
90162. 1.86787 0.00096(20) 24828946. 0.001027 0.001027
90171. 1.86806 0.00110(22) 21372374. 0.001027 0.001027
90180. 1.86824 0.00136(24) 17197712. 0.001027 0.001027
90189. 1.86843 0.00118(22) 20363596. 0.001027 0.001027
90199. 1.86862 0.00098(21) 23751152. 0.001027 0.001026
90208. 1.86880 0.00087(20) 25319240. 0.001026 0.001026
90217. 1.86899 0.00082(20) 24953518. 0.001026 0.001026
90226. 1.86918 0.00096(21) 22458692. 0.001026 0.001026
90235. 1.86937 0.00127(24) 17655544. 0.001026 0.001026
90244. 1.86955 0.00104(21) 23527448. 0.001026 0.001026
90253. 1.86974 0.00076(18) 30934036. 0.001026 0.001026
90262. 1.86993 0.00097(21) 21834304. 0.001026 0.001026
90271. 1.87011 0.00089(20) 25395076. 0.001026 0.001026
90280. 1.87030 0.00072(18) 31529312. 0.001026 0.001026
90289. 1.87049 0.00079(19) 28609998. 0.001025 0.001025
90298. 1.87068 0.00094(21) 23141152. 0.001025 0.001025
90307. 1.87086 0.00107(22) 20625106. 0.001025 0.001025
90316. 1.87105 0.00110(22) 20234222. 0.001025 0.001025
90325. 1.87124 0.00098(20) 23979742. 0.001025 0.001025
90334. 1.87142 0.00102(20) 24556256. 0.001025 0.001025
90343. 1.87161 0.00110(22) 21332394. 0.001025 0.001025
90352. 1.87180 0.00098(21) 22909276. 0.001025 0.001025
90361. 1.87199 0.00093(20) 24973252. 0.001025 0.001025
90370. 1.87217 0.00092(20) 24875108. 0.001025 0.001025
90379. 1.87236 0.00094(20) 23913620. 0.001024 0.001024
90388. 1.87255 0.00105(22) 21555064. 0.001024 0.001024
90397. 1.87273 0.00114(22) 20493836. 0.001024 0.001024
90406. 1.87292 0.00098(20) 24230058. 0.001024 0.001024
90415. 1.87311 0.00070(17) 34357240. 0.001024 0.001024
90424. 1.87330 0.00084(20) 26298310. 0.001024 0.001024
90433. 1.87348 0.00097(21) 23410896. 0.001024 0.001024
90442. 1.87367 0.00080(18) 30240842. 0.001024 0.001024
90451. 1.87386 0.00100(21) 23368096. 0.001024 0.001024
90460. 1.87405 0.00128(24) 18069460. 0.001023 0.001023
90470. 1.87423 0.00112(22) 20140938. 0.001023 0.001023
90479. 1.87442 0.00102(21) 21773962. 0.001023 0.001023
90488. 1.87461 0.00116(23) 19560238. 0.001023 0.001023
90497. 1.87480 0.00100(21) 23093228. 0.001023 0.001023
90506. 1.87498 0.00084(19) 28073026. 0.001023 0.001023
90515. 1.87517 0.00097(20) 24219544. 0.001023 0.001023
90524. 1.87536 0.00102(21) 22348446. 0.001023 0.001023
90533. 1.87555 0.00097(20) 23866244. 0.001023 0.001023
90542. 1.87573 0.00080(18) 30732128. 0.001022 0.001022
90551. 1.87592 0.00077(18) 29484674. 0.001022 0.001022
90560. 1.87611 0.00104(22) 20882588. 0.001022 0.001022
90569. 1.87630 0.00117(23) 19125220. 0.001022 0.001022
90578. 1.87649 0.00096(20) 24288728. 0.001022 0.001022
90587. 1.87667 0.00087(19) 27511606. 0.001022 0.001022
90596. 1.87686 0.00118(23) 19307010. 0.001022 0.001022
90605. 1.87705 0.00126(24) 17899840. 0.001022 0.001022
90614. 1.87724 0.00109(22) 20432886. 0.001022 0.001022
90623. 1.87742 0.00089(20) 25692602. 0.001021 0.001021
90633. 1.87761 0.00078(18) 29711976. 0.001021 0.001021
90642. 1.87780 0.00100(21) 21977510. 0.001021 0.001021
90651. 1.87799 0.00102(21) 22858852. 0.001021 0.001021
90660. 1.87818 0.00095(19) 27052228. 0.001021 0.001021
90669. 1.87836 0.00107(21) 23090610. 0.001021 0.001021
90678. 1.87855 0.00102(20) 23875606. 0.001021 0.001021
90687. 1.87874 0.00095(20) 25581502. 0.001021 0.001021
90696. 1.87893 0.00105(22) 21178576. 0.001020 0.001020
90705. 1.87912 0.00097(21) 23491342. 0.001020 0.001020
90714. 1.87930 0.00104(21) 22492930. 0.001020 0.001020
90723. 1.87949 0.00122(23) 18870840. 0.001020 0.001020
90732. 1.87968 0.00114(22) 19915778. 0.001020 0.001020
90741. 1.87987 0.00110(22) 19954002. 0.001020 0.001020
90750. 1.88005 0.00124(24) 17463816. 0.001020 0.001020
90760. 1.88024 0.00126(24) 17385698. 0.001020 0.001020
90769. 1.88043 0.00095(20) 24753190. 0.001019 0.001019
90778. 1.88062 0.00075(17) 34796024. 0.001019 0.001019
90787. 1.88081 0.00087(19) 28512130. 0.001019 0.001019
90796. 1.88100 0.00111(22) 21203114. 0.001019 0.001019
90805. 1.88118 0.00118(22) 19864854. 0.001019 0.001019
90814. 1.88137 0.00115(23) 19659456. 0.001019 0.001019
90823. 1.88156 0.00121(24) 17913890. 0.001019 0.001019
90832. 1.88175 0.00102(21) 21874312. 0.001019 0.001019
90841. 1.88194 0.00072(18) 32324250. 0.001018 0.001018
90850. 1.88212 0.00065(17) 33255008. 0.001018 0.001018
90859. 1.88231 0.00073(18) 30874416. 0.001018 0.001018
90869. 1.88250 0.00090(19) 26463740. 0.001018 0.001018
90878. 1.88269 0.00113(22) 19987054. 0.001018 0.001018
90887. 1.88288 0.00108(22) 21108354. 0.001018 0.001018
90896. 1.88307 0.00089(19) 27373632. 0.001018 0.001018
90905. 1.88326 0.00100(21) 22793348. 0.001018 0.001018
90914. 1.88344 0.00098(21) 22844222. 0.001017 0.001017
90923. 1.88363 0.00102(21) 22419194. 0.001017 0.001017
90932. 1.88382 0.00119(23) 19569590. 0.001017 0.001017
90941. 1.88401 0.00125(23) 18770256. 0.001017 0.001017
90950. 1.88420 0.00132(25) 16471782. 0.001017 0.001017
90959. 1.88439 0.00115(23) 18789194. 0.001017 0.001017
90969. 1.88457 0.00097(20) 24160394. 0.001017 0.001017
90978. 1.88476 0.00086(19) 28076098. 0.001016 0.001016
90987. 1.88495 0.00078(18) 29609494. 0.001016 0.001016
90996. 1.88514 0.00088(20) 25398210. 0.001016 0.001016
91005. 1.88533 0.00100(22) 21171270. 0.001016 0.001016
91014. 1.88552 0.00083(19) 26590020. 0.001016 0.001016
91023. 1.88571 0.00071(17) 34514740. 0.001016 0.001016
91032. 1.88589 0.00087(19) 27060276. 0.001016 0.001016
91041. 1.88608 0.00086(19) 26334622. 0.001015 0.001015
91050. 1.88627 0.00079(19) 28117216. 0.001015 0.001015
91060. 1.88646 0.00100(22) 21076360. 0.001015 0.001015
91069. 1.88665 0.00103(21) 22256614. 0.001015 0.001015
91078. 1.88684 0.00124(24) 17832936. 0.001015 0.001015
91087. 1.88703 0.00141(26) 14296659. 0.001015 0.001015
91096. 1.88721 0.00114(23) 19121778. 0.001015 0.001015
91105. 1.88740 0.00114(22) 19822176. 0.001015 0.001015
91114. 1.88759 0.00115(23) 19731740. 0.001014 0.001014
91123. 1.88778 0.00120(23) 18533968. 0.001014 0.001014
91132. 1.88797 0.00123(23) 18446708. 0.001014 0.001014
91142. 1.88816 0.00133(25) 16457518. 0.001014 0.001014
91151. 1.88835 0.00105(22) 20191334. 0.001014 0.001014
91160. 1.88854 0.00077(19) 28577076. 0.001014 0.001014
91169. 1.88873 0.00111(24) 18049110. 0.001014 0.001014
91178. 1.88892 0.00124(24) 16845978. 0.001013 0.001013
91187. 1.88910 0.00111(22) 21195670. 0.001013 0.001013
91196. 1.88929 0.00124(24) 17992954. 0.001013 0.001013
91205. 1.88948 0.00116(23) 19265444. 0.001013 0.001013
91215. 1.88967 0.00089(20) 25446806. 0.001013 0.001013
91224. 1.88986 0.00085(19) 26612416. 0.001013 0.001013
91233. 1.89005 0.00100(21) 23182096. 0.001013 0.001013
91242. 1.89024 0.00094(20) 25477276. 0.001012 0.001012
91251. 1.89043 0.00092(20) 24641656. 0.001012 0.001012
91260. 1.89062 0.00089(20) 25859280. 0.001012 0.001012
91269. 1.89081 0.00097(21) 22652092. 0.001012 0.001012
91278. 1.89100 0.00094(21) 23098408. 0.001012 0.001012
91288. 1.89118 0.00081(19) 28272022. 0.001012 0.001012
91297. 1.89138 0.00093(20) 24187782. 0.001011 0.001011
91306. 1.89156 0.00100(21) 23553200. 0.001011 0.001011
91315. 1.89175 0.00108(22) 20208228. 0.001011 0.001011
91324. 1.89194 0.00087(19) 27013040. 0.001011 0.001011
91333. 1.89213 0.00077(17) 32997098. 0.001011 0.001011
91342. 1.89232 0.00089(20) 25329914. 0.001011 0.001011
91352. 1.89251 0.00097(21) 22833452. 0.001011 0.001011
91361. 1.89270 0.00100(21) 22970262. 0.001010 0.001010
91370. 1.89289 0.00106(22) 20104752. 0.001010 0.001010
91379. 1.89308 0.00123(24) 16978038. 0.001010 0.001010
91388. 1.89327 0.00146(26) 15338405. 0.001010 0.001010
91397. 1.89346 0.00140(25) 16347955. 0.001010 0.001010
91406. 1.89365 0.00107(22) 20924926. 0.001010 0.001010
91415. 1.89384 0.00097(21) 22067202. 0.001010 0.001010
91425. 1.89403 0.00100(22) 20712570. 0.001009 0.001009
91434. 1.89421 0.00094(21) 22423638. 0.001009 0.001009
91443. 1.89440 0.00091(20) 24115664. 0.001009 0.001009
91452. 1.89459 0.00126(25) 16570153. 0.001009 0.001009
91461. 1.89478 0.00137(25) 15647793. 0.001009 0.001009
91470. 1.89497 0.00121(23) 18740458. 0.001009 0.001009
91479. 1.89516 0.00128(24) 17518208. 0.001008 0.001008
91489. 1.89535 0.00130(25) 16103859. 0.001008 0.001008
91498. 1.89554 0.00101(22) 20045832. 0.001008 0.001008
91507. 1.89573 0.00069(18) 30099064. 0.001008 0.001008
91516. 1.89592 0.00091(21) 22676958. 0.001008 0.001008
91525. 1.89611 0.00124(24) 16747903. 0.001008 0.001008
91534. 1.89630 0.00112(22) 20088686. 0.001008 0.001008
91544. 1.89649 0.00081(18) 30009944. 0.001007 0.001007
91553. 1.89668 0.00090(20) 24543008. 0.001007 0.001007
91562. 1.89687 0.00110(22) 19789072. 0.001007 0.001007
91571. 1.89706 0.00130(25) 16624277. 0.001007 0.001007
91580. 1.89725 0.00131(24) 16962470. 0.001007 0.001007
91589. 1.89744 0.00116(22) 20513276. 0.001007 0.001007
91598. 1.89763 0.00124(24) 18084622. 0.001006 0.001006
91608. 1.89782 0.00109(22) 20788824. 0.001006 0.001006
91617. 1.89801 0.00100(21) 22080430. 0.001006 0.001006
91626. 1.89820 0.00090(21) 23413038. 0.001006 0.001006
91635. 1.89839 0.00078(19) 28024312. 0.001006 0.001006
91644. 1.89858 0.00094(20) 24418156. 0.001006 0.001006
91654. 1.89877 0.00116(23) 18907828. 0.001005 0.001005
91663. 1.89896 0.00110(23) 18488632. 0.001005 0.001005
91672. 1.89915 0.00115(24) 17070968. 0.001005 0.001005
91681. 1.89934 0.00125(25) 16207146. 0.001005 0.001005
91690. 1.89953 0.00095(21) 23000382. 0.001005 0.001005
91699. 1.89972 0.00086(21) 23236300. 0.001005 0.001005
91709. 1.89991 0.00072(19) 28157052. 0.001004 0.001004
91718. 1.90010 0.00071(18) 29466452. 0.001004 0.001004
91727. 1.90029 0.00090(21) 21776454. 0.001004 0.001004
91736. 1.90048 0.00087(21) 23744186. 0.001004 0.001004
91745. 1.90067 0.00105(23) 19724698. 0.001004 0.001004
91754. 1.90086 0.00123(24) 16798108. 0.001004 0.001004
91764. 1.90105 0.00107(22) 19832242. 0.001003 0.001003
91773. 1.90124 0.00094(21) 23238824. 0.001003 0.001003
91782. 1.90143 0.00088(20) 24089622. 0.001003 0.001003
91791. 1.90162 0.00089(21) 22093546. 0.001003 0.001003
91800. 1.90181 0.00103(22) 20637956. 0.001003 0.001003
91810. 1.90200 0.00126(24) 17431652. 0.001003 0.001003
91819. 1.90219 0.00125(25) 15968602. 0.001002 0.001002
91828. 1.90238 0.00091(21) 23465364. 0.001002 0.001002
91837. 1.90257 0.00099(21) 23368472. 0.001002 0.001002
91846. 1.90276 0.00110(23) 19536308. 0.001002 0.001002
91855. 1.90295 0.00076(19) 29105126. 0.001002 0.001002
91865. 1.90314 0.00062(16) 40401480. 0.001002 0.001002
91874. 1.90333 0.00085(19) 27163650. 0.001001 0.001001
91883. 1.90352 0.00101(21) 22195806. 0.001001 0.001001
91892. 1.90371 0.00102(21) 22001564. 0.001001 0.001001
91901. 1.90390 0.00105(22) 20857860. 0.001001 0.001001
91911. 1.90409 0.00083(19) 26672834. 0.001001 0.001001
91920. 1.90429 0.00068(18) 31363980. 0.001001 0.001001
91929. 1.90448 0.00083(20) 24267180. 0.001000 0.001000
91938. 1.90467 0.00093(21) 22396158. 0.001000 0.001000
91947. 1.90486 0.00118(25) 16633883. 0.001000 0.001000
91956. 1.90505 0.00125(25) 15926258. 0.001000 0.001000
91966. 1.90524 0.00111(23) 18543758. 0.001000 0.001000
91975. 1.90543 0.00103(23) 19659814. 0.001000 0.001000
91984. 1.90562 0.00085(20) 25274634. 0.000999 0.000999
91993. 1.90581 0.00080(19) 26895496. 0.000999 0.000999
92003. 1.90600 0.00081(19) 26479520. 0.000999 0.000999
92012. 1.90619 0.00090(21) 23424350. 0.000999 0.000999
92021. 1.90638 0.00106(23) 18803814. 0.000999 0.000999
92030. 1.90657 0.00084(20) 25125140. 0.000999 0.000999
92039. 1.90676 0.00067(17) 33162910. 0.000998 0.000998
92048. 1.90695 0.00081(20) 25921752. 0.000998 0.000998
92058. 1.90715 0.00077(19) 28731650. 0.000998 0.000998
92067. 1.90734 0.00073(18) 29907608. 0.000998 0.000998
92076. 1.90753 0.00100(22) 20768024. 0.000998 0.000998
92085. 1.90772 0.00116(23) 19293238. 0.000997 0.000997
92095. 1.90791 0.00125(24) 16846146. 0.000997 0.000997
92104. 1.90810 0.00126(25) 16198199. 0.000997 0.000997
92113. 1.90829 0.00096(20) 23798340. 0.000997 0.000997
92122. 1.90848 0.00093(20) 24173938. 0.000997 0.000997
92131. 1.90867 0.00107(23) 18946828. 0.000997 0.000997
92141. 1.90886 0.00100(23) 19330430. 0.000996 0.000996
92150. 1.90905 0.00086(20) 24548006. 0.000996 0.000996
92159. 1.90924 0.00094(20) 24998626. 0.000996 0.000996
92168. 1.90944 0.00104(22) 20775522. 0.000996 0.000996
92178. 1.90963 0.00092(21) 23049572. 0.000996 0.000996
92187. 1.90982 0.00086(20) 25634328. 0.000996 0.000996
92196. 1.91001 0.00096(21) 22377392. 0.000995 0.000995
92205. 1.91020 0.00097(21) 23489462. 0.000995 0.000995
92214. 1.91039 0.00081(18) 31053006. 0.000995 0.000995
92224. 1.91058 0.00091(20) 23947302. 0.000995 0.000995
92233. 1.91077 0.00117(24) 17975812. 0.000995 0.000995
92242. 1.91096 0.00148(27) 14118157. 0.000994 0.000994
92251. 1.91115 0.00140(26) 14433089. 0.000994 0.000994
92260. 1.91135 0.00100(22) 21257052. 0.000994 0.000994
92270. 1.91154 0.00101(22) 20255068. 0.000994 0.000994
92279. 1.91173 0.00104(23) 19495262. 0.000994 0.000994
92288. 1.91192 0.00106(22) 20065752. 0.000994 0.000994
92297. 1.91211 0.00094(21) 23616388. 0.000993 0.000993
92307. 1.91230 0.00075(18) 29930618. 0.000993 0.000993
92316. 1.91250 0.00068(18) 31396046. 0.000993 0.000993
92325. 1.91269 0.00075(19) 27916052. 0.000993 0.000993
92334. 1.91288 0.00097(21) 22022126. 0.000993 0.000993
92344. 1.91307 0.00111(23) 18923180. 0.000992 0.000992
92353. 1.91326 0.00101(22) 20795380. 0.000992 0.000992
92362. 1.91345 0.00104(22) 20306410. 0.000992 0.000992
92371. 1.91364 0.00114(24) 17313782. 0.000992 0.000992
92381. 1.91383 0.00097(22) 20733026. 0.000992 0.000992
92390. 1.91403 0.00093(21) 22100402. 0.000992 0.000992
92399. 1.91422 0.00092(20) 23890248. 0.000991 0.000991
92408. 1.91441 0.00103(22) 21071552. 0.000991 0.000991
92417. 1.91460 0.00117(23) 18568604. 0.000991 0.000991
92427. 1.91479 0.00134(25) 15897793. 0.000991 0.000991
92436. 1.91498 0.00145(27) 14210152. 0.000991 0.000991
92445. 1.91518 0.00126(24) 16985744. 0.000990 0.000990
92455. 1.91537 0.00105(22) 21469332. 0.000990 0.000990
92464. 1.91556 0.00110(23) 19654006. 0.000990 0.000990
92473. 1.91575 0.00121(24) 17548232. 0.000990 0.000990
92482. 1.91594 0.00110(22) 20789774. 0.000990 0.000990
92491. 1.91613 0.00088(20) 24839004. 0.000990 0.000990
92501. 1.91633 0.00073(19) 27699090. 0.000989 0.000989
92510. 1.91652 0.00081(19) 27028660. 0.000989 0.000989
92519. 1.91671 0.00103(22) 20918622. 0.000989 0.000989
92529. 1.91690 0.00114(23) 18464628. 0.000989 0.000989
92538. 1.91709 0.00119(23) 18132964. 0.000989 0.000989
92547. 1.91728 0.00107(22) 20454234. 0.000988 0.000988
92556. 1.91748 0.00114(23) 18519316. 0.000988 0.000988
92565. 1.91767 0.00131(25) 16526534. 0.000988 0.000988
92575. 1.91786 0.00140(26) 15276161. 0.000988 0.000988
92584. 1.91805 0.00141(26) 14823006. 0.000988 0.000988
92593. 1.91824 0.00103(22) 21319966. 0.000987 0.000987
92603. 1.91843 0.00065(17) 35741296. 0.000987 0.000987
92612. 1.91863 0.00060(16) 38246576. 0.000987 0.000987
92621. 1.91882 0.00083(19) 26549072. 0.000987 0.000987
92630. 1.91901 0.00111(23) 18975588. 0.000987 0.000987
92640. 1.91920 0.00097(21) 22461148. 0.000987 0.000987
92649. 1.91939 0.00080(19) 27840594. 0.000986 0.000986
92658. 1.91959 0.00082(19) 26633690. 0.000986 0.000986
92667. 1.91978 0.00081(19) 27143748. 0.000986 0.000986
92677. 1.91997 0.00077(19) 27286922. 0.000986 0.000986
92686. 1.92016 0.00068(18) 30801796. 0.000986 0.000986
92695. 1.92035 0.00080(19) 28116918. 0.000985 0.000985
92704. 1.92055 0.00098(21) 22298172. 0.000985 0.000985
92714. 1.92074 0.00104(22) 19776440. 0.000985 0.000985
92723. 1.92093 0.00099(21) 22339908. 0.000985 0.000985
92732. 1.92112 0.00102(21) 22276086. 0.000985 0.000985
92742. 1.92132 0.00115(24) 17970314. 0.000984 0.000984
92751. 1.92151 0.00103(23) 19742578. 0.000984 0.000984
92760. 1.92170 0.00082(20) 24574354. 0.000984 0.000984
92769. 1.92189 0.00082(21) 23325874. 0.000984 0.000984
92779. 1.92208 0.00114(24) 16992628. 0.000984 0.000984
92788. 1.92228 0.00113(23) 18442570. 0.000984 0.000984
92797. 1.92247 0.00083(19) 27310248. 0.000983 0.000983
92807. 1.92266 0.00111(24) 17893106. 0.000983 0.000983
92816. 1.92286 0.00129(26) 15136374. 0.000983 0.000983
92825. 1.92305 0.00095(22) 21224810. 0.000983 0.000983
92834. 1.92324 0.00072(18) 29363496. 0.000983 0.000983
92844. 1.92343 0.00098(22) 21389520. 0.000982 0.000982
92853. 1.92362 0.00110(23) 19019386. 0.000982 0.000982
92862. 1.92382 0.00085(20) 24377340. 0.000982 0.000982
92872. 1.92401 0.00063(18) 31626576. 0.000982 0.000982
92881. 1.92420 0.00055(17) 36371320. 0.000982 0.000982
92890. 1.92439 0.00071(19) 28681486. 0.000981 0.000981
92899. 1.92459 0.00077(19) 28565978. 0.000981 0.000981
92909. 1.92478 0.00084(19) 27267448. 0.000981 0.000981
92918. 1.92497 0.00108(23) 18892920. 0.000981 0.000981
92927. 1.92516 0.00114(24) 17655340. 0.000981 0.000981
92937. 1.92536 0.00086(19) 26348830. 0.000980 0.000980
92946. 1.92555 0.00069(17) 33810524. 0.000980 0.000980
92955. 1.92574 0.00086(21) 22946676. 0.000980 0.000980
92964. 1.92593 0.00078(20) 25775120. 0.000980 0.000980
92974. 1.92613 0.00062(16) 39219304. 0.000980 0.000980
92983. 1.92632 0.00087(20) 25826894. 0.000979 0.000979
92992. 1.92651 0.00105(23) 19677870. 0.000979 0.000979
93002. 1.92671 0.00109(23) 18136676. 0.000979 0.000979
93011. 1.92690 0.00089(21) 23543368. 0.000979 0.000979
93020. 1.92709 0.00068(18) 32388876. 0.000979 0.000979
93030. 1.92728 0.00090(20) 24349888. 0.000979 0.000979
93039. 1.92748 0.00121(23) 18843000. 0.000978 0.000978
93048. 1.92767 0.00141(26) 14827846. 0.000978 0.000978
93057. 1.92786 0.00119(24) 16938922. 0.000978 0.000978
93067. 1.92805 0.00097(22) 20244150. 0.000978 0.000978
93076. 1.92825 0.00104(23) 18454474. 0.000978 0.000978
93085. 1.92844 0.00093(21) 22679224. 0.000977 0.000977
93095. 1.92863 0.00089(20) 23818072. 0.000977 0.000977
93104. 1.92883 0.00088(21) 22812400. 0.000977 0.000977
93113. 1.92902 0.00079(19) 26526516. 0.000977 0.000977
93123. 1.92921 0.00081(19) 28100530. 0.000977 0.000977
93132. 1.92941 0.00091(21) 23213394. 0.000976 0.000976
93141. 1.92960 0.00086(21) 23608234. 0.000976 0.000976
93151. 1.92979 0.00081(20) 26137420. 0.000976 0.000976
93160. 1.92999 0.00091(21) 22331660. 0.000976 0.000976
93169. 1.93018 0.00114(24) 17530996. 0.000976 0.000976
93179. 1.93037 0.00112(23) 18536068. 0.000975 0.000975
93188. 1.93057 0.00091(21) 22080108. 0.000975 0.000975
93197. 1.93076 0.00091(22) 21193952. 0.000975 0.000975
93206. 1.93095 0.00100(22) 20238060. 0.000975 0.000975
93216. 1.93114 0.00102(22) 20202002. 0.000975 0.000975
93225. 1.93134 0.00085(19) 27112158. 0.000974 0.000974
93234. 1.93153 0.00065(16) 38475196. 0.000974 0.000974
93244. 1.93172 0.00079(19) 28179050. 0.000974 0.000974
93253. 1.93192 0.00109(22) 19943852. 0.000974 0.000974
93263. 1.93211 0.00125(24) 16818282. 0.000974 0.000974
93272. 1.93230 0.00113(24) 17762782. 0.000973 0.000973
93281. 1.93250 0.00083(21) 23783552. 0.000973 0.000973
93290. 1.93269 0.00067(18) 32019864. 0.000973 0.000973
93300. 1.93288 0.00083(20) 26042024. 0.000973 0.000973
93309. 1.93308 0.00100(22) 20066766. 0.000973 0.000973
93318. 1.93327 0.00101(23) 18878620. 0.000972 0.000972
93328. 1.93347 0.00084(21) 22763086. 0.000972 0.000972
93337. 1.93366 0.00090(21) 23071162. 0.000972 0.000972
93346. 1.93385 0.00117(24) 17799814. 0.000972 0.000972
93356. 1.93404 0.00085(19) 26620394. 0.000972 0.000972
93365. 1.93424 0.00068(18) 30078456. 0.000971 0.000971
93374. 1.93443 0.00080(20) 24189330. 0.000971 0.000971
93384. 1.93463 0.00106(23) 18382944. 0.000971 0.000971
93393. 1.93482 0.00116(24) 17266522. 0.000971 0.000971
93403. 1.93501 0.00111(24) 18086898. 0.000971 0.000971
93412. 1.93521 0.00122(25) 15474143. 0.000970 0.000970
93421. 1.93540 0.00116(24) 17516146. 0.000970 0.000970
93430. 1.93559 0.00117(24) 17454240. 0.000970 0.000970
93440. 1.93579 0.00118(24) 17094606. 0.000970 0.000970
93449. 1.93598 0.00123(24) 17089220. 0.000970 0.000970
93459. 1.93617 0.00139(27) 14224243. 0.000970 0.000970
93468. 1.93637 0.00118(25) 16077603. 0.000969 0.000969
93477. 1.93656 0.00095(22) 20609106. 0.000969 0.000969
93487. 1.93676 0.00110(24) 17440908. 0.000969 0.000969
93496. 1.93695 0.00121(24) 16933560. 0.000969 0.000969
93505. 1.93714 0.00120(23) 18401332. 0.000969 0.000969
93515. 1.93734 0.00137(26) 14868074. 0.000968 0.000968
93524. 1.93753 0.00135(26) 14390017. 0.000968 0.000968
93533. 1.93772 0.00103(22) 20829672. 0.000968 0.000968
93543. 1.93792 0.00119(24) 17519680. 0.000968 0.000968
93552. 1.93811 0.00145(27) 13618413. 0.000968 0.000968
93561. 1.93831 0.00119(24) 17593996. 0.000967 0.000967
93571. 1.93850 0.00110(23) 19024378. 0.000967 0.000967
93580. 1.93869 0.00095(22) 21590506. 0.000967 0.000967
93589. 1.93889 0.00082(20) 23901060. 0.000967 0.000967
93599. 1.93908 0.00094(22) 19781690. 0.000967 0.000967
93608. 1.93928 0.00098(23) 19680956. 0.000966 0.000966
93618. 1.93947 0.00100(22) 19885866. 0.000966 0.000966
93627. 1.93966 0.00121(25) 15670152. 0.000966 0.000966
93636. 1.93986 0.00146(28) 12813904. 0.000966 0.000966
93646. 1.94005 0.00144(27) 14052591. 0.000966 0.000966
93655. 1.94025 0.00133(25) 15667523. 0.000965 0.000965
93664. 1.94044 0.00136(26) 14595197. 0.000965 0.000965
93674. 1.94063 0.00142(26) 14411861. 0.000965 0.000965
93683. 1.94083 0.00125(24) 16974298. 0.000965 0.000965
93693. 1.94102 0.00108(24) 17177230. 0.000965 0.000965
93702. 1.94122 0.00093(23) 18393502. 0.000964 0.000964
93711. 1.94141 0.00081(20) 24100242. 0.000964 0.000964
93721. 1.94160 0.00094(22) 21306084. 0.000964 0.000964
93730. 1.94180 0.00091(21) 21806468. 0.000964 0.000964
93739. 1.94199 0.00085(21) 23128360. 0.000964 0.000964
93749. 1.94219 0.00092(22) 20737658. 0.000963 0.000963
93758. 1.94238 0.00103(23) 19560990. 0.000963 0.000963
93768. 1.94258 0.00113(24) 17965866. 0.000963 0.000963
93777. 1.94277 0.00101(22) 20306098. 0.000963 0.000963
93786. 1.94297 0.00098(22) 20101938. 0.000963 0.000963
93796. 1.94316 0.00097(23) 19184968. 0.000962 0.000962
93805. 1.94335 0.00087(21) 22865244. 0.000962 0.000962
93814. 1.94355 0.00104(22) 20453592. 0.000962 0.000962
93824. 1.94374 0.00127(25) 15560326. 0.000962 0.000962
93833. 1.94394 0.00110(24) 17834306. 0.000962 0.000962
93843. 1.94413 0.00111(24) 17735166. 0.000961 0.000961
93852. 1.94433 0.00110(24) 17074988. 0.000961 0.000961
93861. 1.94452 0.00092(21) 22670004. 0.000961 0.000961
93871. 1.94472 0.00114(24) 17303632. 0.000961 0.000961
93880. 1.94491 0.00113(24) 16819412. 0.000961 0.000961
93890. 1.94510 0.00092(21) 21869110. 0.000960 0.000960
93899. 1.94530 0.00093(22) 21385330. 0.000960 0.000960
93908. 1.94549 0.00097(22) 20849378. 0.000960 0.000960
93918. 1.94569 0.00111(24) 17848584. 0.000960 0.000960
93927. 1.94588 0.00115(24) 17604304. 0.000960 0.000960
93936. 1.94608 0.00100(21) 22304910. 0.000960 0.000960
93946. 1.94627 0.00091(21) 22109102. 0.000959 0.000959
93955. 1.94647 0.00111(25) 15902322. 0.000959 0.000959
93965. 1.94666 0.00117(25) 16271304. 0.000959 0.000959
93974. 1.94686 0.00106(22) 21432700. 0.000959 0.000959
93983. 1.94705 0.00126(24) 16837022. 0.000959 0.000959
93993. 1.94725 0.00113(24) 17374122. 0.000958 0.000958
94002. 1.94744 0.00074(20) 25928314. 0.000958 0.000958
94012. 1.94764 0.00085(21) 22806744. 0.000958 0.000958
94021. 1.94783 0.00089(21) 23679336. 0.000958 0.000958
94030. 1.94802 0.00078(19) 26437876. 0.000958 0.000958
94040. 1.94822 0.00081(21) 22585038. 0.000957 0.000957
94049. 1.94841 0.00091(22) 21557390. 0.000957 0.000957
94059. 1.94861 0.00106(23) 18626860. 0.000957 0.000957
94068. 1.94881 0.00106(23) 18675430. 0.000957 0.000957
94078. 1.94900 0.00075(19) 27384474. 0.000957 0.000957
94087. 1.94919 0.00068(18) 29887652. 0.000956 0.000956
94096. 1.94939 0.00089(21) 22122020. 0.000956 0.000956
94106. 1.94959 0.00085(20) 23862444. 0.000956 0.000956
94115. 1.94978 0.00099(23) 18467284. 0.000956 0.000956
94125. 1.94997 0.00103(23) 18168228. 0.000956 0.000956
94134. 1.95017 0.00092(22) 21040498. 0.000955 0.000955
94143. 1.95037 0.00095(22) 20445080. 0.000955 0.000955
94153. 1.95056 0.00106(23) 18396450. 0.000955 0.000955
94162. 1.95076 0.00124(26) 15018351. 0.000955 0.000955
94172. 1.95095 0.00111(24) 17676144. 0.000955 0.000955
94181. 1.95115 0.00098(23) 19423540. 0.000954 0.000954
94190. 1.95134 0.00094(22) 20501738. 0.000954 0.000954
94200. 1.95154 0.00113(24) 17940012. 0.000954 0.000954
94209. 1.95173 0.00131(26) 15177054. 0.000954 0.000954
94219. 1.95193 0.00145(28) 12637681. 0.000954 0.000954
94228. 1.95212 0.00142(28) 12711567. 0.000954 0.000954
94238. 1.95232 0.00115(24) 17879282. 0.000953 0.000953
94247. 1.95251 0.00121(25) 16398252. 0.000953 0.000953
94256. 1.95271 0.00124(25) 15443935. 0.000953 0.000953
94266. 1.95290 0.00117(24) 16884238. 0.000953 0.000953
94275. 1.95310 0.00116(24) 16690556. 0.000953 0.000953
94285. 1.95329 0.00108(23) 18740990. 0.000952 0.000952
94294. 1.95349 0.00105(22) 20264632. 0.000952 0.000952
94304. 1.95369 0.00124(25) 15436100. 0.000952 0.000952
94313. 1.95388 0.00116(25) 15799374. 0.000952 0.000952
94322. 1.95408 0.00080(20) 24468298. 0.000952 0.000952
94332. 1.95427 0.00071(19) 28249328. 0.000951 0.000951
94341. 1.95447 0.00065(19) 29082588. 0.000951 0.000951
94351. 1.95466 0.00067(19) 28584260. 0.000951 0.000951
94360. 1.95486 0.00093(22) 21361128. 0.000951 0.000951
94370. 1.95505 0.00124(25) 16018774. 0.000951 0.000951
94379. 1.95525 0.00138(27) 13267082. 0.000950 0.000950
94388. 1.95544 0.00103(23) 18124138. 0.000950 0.000950
94398. 1.95564 0.00108(24) 17676960. 0.000950 0.000950
94407. 1.95584 0.00138(26) 14739873. 0.000950 0.000950
94417. 1.95603 0.00160(29) 12115948. 0.000950 0.000950
94426. 1.95623 0.00133(27) 13742885. 0.000950 0.000950
94436. 1.95642 0.00083(21) 23145794. 0.000949 0.000949
94445. 1.95662 0.00054(17) 35513284. 0.000949 0.000949
94455. 1.95682 0.00043(15) 44763384. 0.000949 0.000949
94464. 1.95701 0.00054(16) 39929724. 0.000949 0.000949
94474. 1.95721 0.00070(18) 30437420. 0.000949 0.000949
94483. 1.95740 0.00099(23) 19602034. 0.000948 0.000948
94492. 1.95760 0.00133(27) 13628420. 0.000948 0.000948
94502. 1.95779 0.00129(26) 14409561. 0.000948 0.000948
94511. 1.95799 0.00104(22) 20533060. 0.000948 0.000948
94521. 1.95819 0.00114(24) 17020344. 0.000948 0.000948
94530. 1.95838 0.00106(24) 16867596. 0.000947 0.000947
94540. 1.95858 0.00090(23) 19741114. 0.000947 0.000947
94549. 1.95877 0.00093(23) 19359974. 0.000947 0.000947
94559. 1.95897 0.00103(23) 18409492. 0.000947 0.000947
94568. 1.95917 0.00107(25) 16629663. 0.000947 0.000947
94578. 1.95936 0.00071(19) 28163842. 0.000947 0.000947
94587. 1.95956 0.00076(20) 25512360. 0.000946 0.000946
94596. 1.95975 0.00088(22) 21259718. 0.000946 0.000946
94606. 1.95995 0.00089(21) 22316490. 0.000946 0.000946
94615. 1.96015 0.00088(21) 22420286. 0.000946 0.000946
94625. 1.96034 0.00095(23) 18981588. 0.000946 0.000946
94634. 1.96054 0.00099(23) 18745940. 0.000945 0.000945
94644. 1.96073 0.00089(20) 25417314. 0.000945 0.000945
94653. 1.96093 0.00089(20) 24857654. 0.000945 0.000945
94663. 1.96113 0.00108(23) 18127394. 0.000945 0.000945
94672. 1.96132 0.00148(27) 13490878. 0.000945 0.000945
94682. 1.96152 0.00151(27) 13324162. 0.000945 0.000945
94691. 1.96171 0.00113(23) 19424710. 0.000944 0.000944
94701. 1.96191 0.00119(24) 17913940. 0.000944 0.000944
94710. 1.96211 0.00130(25) 15596207. 0.000944 0.001027
94720. 1.96230 0.00102(23) 19737440. 0.000944 0.001028
94729. 1.96250 0.00086(22) 20779920. 0.000944 0.001030
94738. 1.96270 0.00104(24) 17839706. 0.000943 0.001031
94748. 1.96289 0.00112(24) 17604722. 0.000943 0.001033
94757. 1.96309 0.00095(22) 20621472. 0.000943 0.001034
94767. 1.96328 0.00086(20) 23860512. 0.000943 0.001036
94776. 1.96348 0.00096(22) 21038188. 0.000943 0.001038
94786. 1.96368 0.00093(22) 20904474. 0.000943 0.001039
94795. 1.96388 0.00106(23) 18268006. 0.000942 0.001041
94805. 1.96407 0.00129(26) 14583229. 0.000942 0.001043
94814. 1.96427 0.00129(26) 15037077. 0.000942 0.001045
94824. 1.96447 0.00111(23) 18437512. 0.000942 0.001047
94833. 1.96466 0.00109(24) 17154104. 0.000942 0.001049
94843. 1.96486 0.00108(24) 17549084. 0.000941 0.001051
94852. 1.96505 0.00098(22) 20204420. 0.000941 0.001053
94862. 1.96525 0.00100(23) 18962068. 0.000941 0.001055
94871. 1.96545 0.00109(24) 17345752. 0.000941 0.001058
94881. 1.96565 0.00116(24) 16678344. 0.000941 0.001060
94890. 1.96584 0.00127(26) 14636671. 0.000941 0.001063
94900. 1.96604 0.00114(25) 16009747. 0.000940 0.001065
94909. 1.96623 0.00097(22) 20939302. 0.000940 0.001068
94919. 1.96643 0.00136(27) 13963105. 0.000940 0.001071
94928. 1.96663 0.00136(26) 14351948. 0.000940 0.001074
94938. 1.96682 0.00119(25) 16133986. 0.000940 0.001077
94947. 1.96702 0.00136(28) 12813599. 0.000940 0.001080
94957. 1.96722 0.00134(27) 13429432. 0.000939 0.001083
94966. 1.96741 0.00100(23) 18892544. 0.000939 0.001087
94976. 1.96761 0.00077(20) 25647404. 0.000939 0.001090
94985. 1.96781 0.00081(19) 27381162. 0.000939 0.001094
94995. 1.96801 0.00100(23) 19405814. 0.000939 0.001098
95004. 1.96820 0.00114(26) 14617451. 0.000938 0.001102
95014. 1.96840 0.00090(22) 21378182. 0.000938 0.001106
95023. 1.96860 0.00083(19) 27283862. 0.000938 0.001110
95033. 1.96879 0.00096(22) 20718916. 0.000938 0.001115
95042. 1.96899 0.00102(23) 18823972. 0.000938 0.001120
95052. 1.96919 0.00129(26) 14523107. 0.000938 0.001125
95061. 1.96938 0.00136(27) 13598421. 0.000937 0.001130
95071. 1.96958 0.00118(25) 15398532. 0.000937 0.001135
95080. 1.96978 0.00103(23) 18277184. 0.000937 0.001141
95090. 1.96997 0.00108(24) 18033676. 0.000937 0.001147
95099. 1.97017 0.00126(25) 15664614. 0.000937 0.001153
95109. 1.97037 0.00143(27) 13670817. 0.000937 0.001159
95118. 1.97057 0.00137(26) 14378569. 0.000936 0.001166
95128. 1.97076 0.00135(26) 14426195. 0.000936 0.001173
95137. 1.97096 0.00122(25) 16231513. 0.000936 0.001181
95147. 1.97116 0.00125(24) 17075070. 0.000936 0.001188
95156. 1.97135 0.00184(31) 10561044. 0.000936 0.001197
95166. 1.97155 0.00162(29) 11721152. 0.000936 0.001205
95175. 1.97175 0.00089(21) 23415936. 0.000935 0.001214
95185. 1.97195 0.00095(22) 20169070. 0.000935 0.001224
95194. 1.97215 0.00110(24) 17446236. 0.000935 0.001234
95204. 1.97234 0.00098(22) 20496992. 0.000935 0.001245
95213. 1.97254 0.00096(22) 21029748. 0.000935 0.001256
95223. 1.97274 0.00127(26) 15113211. 0.000935 0.001268
95232. 1.97293 0.00144(28) 12985893. 0.000934 0.001281
95242. 1.97313 0.00134(27) 13268131. 0.000934 0.001294
95252. 1.97333 0.00101(24) 17254116. 0.000934 0.001308
95261. 1.97353 0.00084(21) 22547626. 0.000934 0.001323
95271. 1.97373 0.00101(24) 17820014. 0.000934 0.001339
95280. 1.97392 0.00113(25) 16439845. 0.000934 0.001356
95290. 1.97412 0.00136(27) 14123634. 0.000933 0.001374
95299. 1.97432 0.00122(25) 16015673. 0.000933 0.001393
95309. 1.97451 0.00124(26) 15033922. 0.000933 0.001414
95318. 1.97471 0.00123(26) 14992477. 0.000933 0.001436
95328. 1.97491 0.00117(25) 15458544. 0.000933 0.001459
95337. 1.97511 0.00129(27) 13391168. 0.000933 0.001485
95347. 1.97530 0.00110(25) 16147240. 0.000932 0.001512
95356. 1.97550 0.00118(26) 15211869. 0.000932 0.001541
95366. 1.97570 0.00139(27) 13820967. 0.000932 0.001572
95375. 1.97590 0.00143(27) 13778987. 0.000932 0.001606
95385. 1.97609 0.00144(28) 12937488. 0.000932 0.001643
95395. 1.97629 0.00116(26) 15193894. 0.000932 0.001683
95404. 1.97649 0.00085(21) 21877056. 0.000931 0.001727
95414. 1.97669 0.00098(23) 19473408. 0.000931 0.001774
95423. 1.97689 0.00116(25) 16036859. 0.000931 0.001825
95433. 1.97708 0.00121(26) 15161801. 0.000931 0.001881
95442. 1.97728 0.00150(30) 11439500. 0.000931 0.001943
95452. 1.97748 0.00145(29) 11875383. 0.000931 0.002011
95461. 1.97768 0.00121(25) 16102433. 0.000930 0.002086
95471. 1.97787 0.00167(29) 11786781. 0.000930 0.002169
95480. 1.97807 0.00184(31) 10100285. 0.000930 0.002262
95490. 1.97827 0.00163(30) 11206533. 0.000930 0.002365
95500. 1.97847 0.00197(33) 9122472. 0.000930 0.002482
95509. 1.97867 0.00215(34) 8470962. 0.000930 0.002615
95519. 1.97886 0.0023(4) 7866435. 0.00093 0.00277
95528. 1.97906 0.0026(4) 6641503. 0.00093 0.00295
95538. 1.97926 0.0028(4) 6195430. 0.00093 0.00318
95547. 1.97946 0.0031(4) 5827981. 0.00093 0.00347
95557. 1.97966 0.0031(4) 6088180. 0.00093 0.00385
95566. 1.97985 0.0037(4) 5014214. 0.00093 0.00438
95576. 1.98005 0.0054(6) 3094392. 0.00093 0.00511
95585. 1.98025 0.0066(6) 2660087. 0.00093 0.00614
95595. 1.98045 0.0076(7) 2361142. 0.00093 0.00761
95605. 1.98065 0.0097(7) 1824374. 0.00093 0.00966
95614. 1.98085 0.0126(9) 1381104. 0.00093 0.01244
95624. 1.98104 0.0182(10) 952740. 0.00093 0.01613
95633. 1.98124 0.0245(12) 688637. 0.00093 0.02090
95643. 1.98144 0.0291(13) 577382. 0.00093 0.02681
95653. 1.98164 0.0367(15) 456180. 0.00093 0.03382
95662. 1.98184 0.0469(17) 352319. 0.00093 0.04177
95672. 1.98203 0.0551(18) 298757. 0.00093 0.05045
95681. 1.98223 0.0630(20) 261359. 0.00093 0.05947
95691. 1.98243 0.0741(21) 217016. 0.00093 0.06814
95700. 1.98263 0.0839(23) 186026. 0.00093 0.07576
95710. 1.98283 0.0890(24) 172123. 0.00093 0.08146
95719. 1.98303 0.0885(24) 176404. 0.00093 0.08451
95729. 1.98322 0.0858(23) 182864. 0.00093 0.08436
95739. 1.98342 0.0778(22) 207106. 0.00093 0.08095
95748. 1.98362 0.0711(21) 230176. 0.00093 0.07472
95758. 1.98382 0.0633(20) 260361. 0.00093 0.06654
95767. 1.98402 0.0528(18) 318243. 0.00093 0.05738
95777. 1.98422 0.0452(16) 376051. 0.00093 0.04808
95787. 1.98442 0.0388(15) 441498. 0.00093 0.03929
95796. 1.98461 0.0334(14) 504660. 0.00093 0.03146
95806. 1.98481 0.0278(13) 617237. 0.00093 0.02477
95815. 1.98501 0.0226(11) 769802. 0.00092 0.01927
95825. 1.98521 0.0183(10) 931944. 0.00092 0.01493
95834. 1.98541 0.0140(9) 1258551. 0.00092 0.01162
95844. 1.98561 0.0116(8) 1554165. 0.00092 0.00914
95854. 1.98580 0.0103(8) 1677174. 0.00092 0.00734
95863. 1.98600 0.0086(7) 1999736. 0.00092 0.00605
95873. 1.98620 0.0073(6) 2498784. 0.00092 0.00512
95882. 1.98640 0.0062(6) 3028364. 0.00092 0.00446
95892. 1.98660 0.0049(5) 3744112. 0.00092 0.00397
95902. 1.98680 0.0044(5) 4127544. 0.00092 0.00360
95911. 1.98700 0.0042(5) 4325461. 0.00092 0.00331
95921. 1.98720 0.0034(4) 5129876. 0.00092 0.00307
95930. 1.98740 0.0028(4) 6272847. 0.00092 0.00288
95940. 1.98759 0.0023(4) 7893112. 0.00092 0.00271
95950. 1.98779 0.00208(34) 8724519. 0.000923 0.002569
95959. 1.98799 0.00208(35) 8264463. 0.000923 0.002443
95969. 1.98819 0.00187(33) 9089905. 0.000923 0.002330
95978. 1.98839 0.00169(31) 10523775. 0.000922 0.002229
95988. 1.98859 0.00191(33) 9110496. 0.000922 0.002139
95997. 1.98879 0.00186(32) 9527974. 0.000922 0.002057
96007. 1.98899 0.00178(32) 10066377. 0.000922 0.001983
96017. 1.98919 0.00170(31) 10178557. 0.000922 0.001916
96026. 1.98939 0.00145(28) 12374526. 0.000922 0.001855
96036. 1.98958 0.00160(29) 11576903. 0.000922 0.001800
96045. 1.98978 0.00178(31) 10083776. 0.000922 0.001750
96055. 1.98998 0.00170(31) 10677280. 0.000921 0.001703
96065. 1.99018 0.00145(28) 13147798. 0.000921 0.001660
96074. 1.99038 0.00129(26) 14652798. 0.000921 0.001621
96084. 1.99058 0.00150(28) 12679545. 0.000921 0.001584
96094. 1.99078 0.00174(31) 10665338. 0.000921 0.001551
96103. 1.99098 0.00157(29) 12066582. 0.000921 0.001519
96113. 1.99118 0.00158(28) 12540496. 0.000921 0.001490
96122. 1.99137 0.00165(30) 11069857. 0.000920 0.001463
96132. 1.99157 0.00121(25) 15921647. 0.000920 0.001438
96142. 1.99177 0.00132(26) 14546335. 0.000920 0.001415
96151. 1.99197 0.00146(28) 12824026. 0.000920 0.001393
96161. 1.99217 0.00143(28) 12849948. 0.000920 0.001372
96170. 1.99237 0.00123(26) 15325963. 0.000920 0.001353
96180. 1.99257 0.00109(24) 17199068. 0.000920 0.001335
96190. 1.99277 0.00111(24) 16810788. 0.000920 0.001318
96199. 1.99297 0.00124(26) 14404916. 0.000919 0.001302
96209. 1.99317 0.00120(26) 14546907. 0.000919 0.001287
96219. 1.99337 0.00106(23) 18377538. 0.000919 0.001273
96228. 1.99357 0.00134(27) 13994396. 0.000919 0.001259
96238. 1.99377 0.00120(25) 16197081. 0.000919 0.001247
96247. 1.99397 0.00094(21) 21661664. 0.000919 0.001235
96257. 1.99417 0.00104(24) 17312050. 0.000919 0.001223
96267. 1.99437 0.00119(26) 14797543. 0.000919 0.001212
96276. 1.99457 0.00136(28) 12705073. 0.000918 0.001202
96286. 1.99476 0.00136(28) 13061306. 0.000918 0.001192
96296. 1.99496 0.00138(28) 12924419. 0.000918 0.001183
96305. 1.99516 0.00107(24) 17236600. 0.000918 0.001174
96315. 1.99536 0.00087(21) 22541630. 0.000918 0.001166
96325. 1.99556 0.00107(23) 18301724. 0.000918 0.001158
96334. 1.99576 0.00122(25) 15793168. 0.000918 0.001150
96344. 1.99596 0.00120(26) 14380026. 0.000918 0.001143
96353. 1.99616 0.00103(25) 16434718. 0.000917 0.001136
96363. 1.99636 0.00112(25) 15805575. 0.000917 0.001130
96373. 1.99656 0.00129(27) 14146836. 0.000917 0.001123
96382. 1.99676 0.00122(25) 15580233. 0.000917 0.001117
96392. 1.99696 0.00105(23) 19433158. 0.000917 0.001111
96402. 1.99716 0.00115(25) 16341116. 0.000917 0.001106
96411. 1.99736 0.00108(24) 16747050. 0.000917 0.001100
96421. 1.99756 0.00109(25) 15761182. 0.000917 0.001095
96430. 1.99776 0.00117(26) 14733790. 0.000917 0.001090
96440. 1.99796 0.00100(23) 18256278. 0.000916 0.001085
96450. 1.99816 0.00088(22) 20895916. 0.000916 0.001081
96459. 1.99836 0.00120(25) 15652165. 0.000916 0.001076
96469. 1.99856 0.00151(28) 12328192. 0.000916 0.001072
96479. 1.99876 0.00158(30) 11377484. 0.000916 0.001068
96488. 1.99896 0.00145(28) 12591104. 0.000916 0.001064
96498. 1.99916 0.00132(27) 13584486. 0.000916 0.001060
96508. 1.99936 0.00100(24) 17782780. 0.000916 0.001057
96517. 1.99956 0.00081(22) 21347812. 0.000915 0.001053
96527. 1.99976 0.00094(23) 18342624. 0.000915 0.001050
96537. 1.99996 0.00107(25) 16628793. 0.000915 0.001047
96546. 2.00016 0.00108(25) 16217731. 0.000915 0.001043
96556. 2.00036 0.00095(24) 17377538. 0.000915 0.001040
96566. 2.00056 0.00091(23) 18790362. 0.000915 0.001037
96575. 2.00076 0.00111(26) 15007707. 0.000915 0.001034
96585. 2.00096 0.00104(25) 15923609. 0.000915 0.001032
96595. 2.00116 0.00102(24) 17657844. 0.000915 0.001029
96604. 2.00136 0.00117(26) 15026947. 0.000915 0.001026
96614. 2.00156 0.00111(25) 15474480. 0.000914 0.001024
96624. 2.00176 0.00103(24) 16926100. 0.000914 0.001021
96633. 2.00196 0.00102(24) 17931888. 0.000914 0.001019
96643. 2.00216 0.00119(25) 15933024. 0.000914 0.001017
96653. 2.00236 0.00143(29) 12098285. 0.000914 0.001015
96662. 2.00256 0.00120(26) 14399247. 0.000914 0.001012
96672. 2.00276 0.00105(23) 18119504. 0.000914 0.001010
96682. 2.00296 0.00138(29) 12222976. 0.000914 0.001008
96691. 2.00316 0.00130(28) 12485150. 0.000914 0.001006
96701. 2.00336 0.00103(24) 17806592. 0.000913 0.001004
96711. 2.00357 0.00115(25) 15988231. 0.000913 0.001002
96720. 2.00377 0.00096(23) 18207608. 0.000913 0.001001
96730. 2.00397 0.00105(24) 16859742. 0.000913 0.000999
96740. 2.00417 0.00145(29) 11757553. 0.000913 0.000997
96749. 2.00437 0.00116(26) 14493226. 0.000913 0.000995
96759. 2.00457 0.00101(25) 16114093. 0.000913 0.000994
96769. 2.00477 0.00110(26) 15115703. 0.000913 0.000992
96778. 2.00497 0.00101(23) 18255260. 0.000913 0.000991
96788. 2.00517 0.00091(23) 18870004. 0.000913 0.000989
96798. 2.00537 0.00079(22) 20666598. 0.000912 0.000988
96807. 2.00557 0.00083(23) 19684726. 0.000912 0.000986
96817. 2.00577 0.00086(23) 19122030. 0.000912 0.000985
96827. 2.00597 0.00091(23) 19368108. 0.000912 0.000912
96836. 2.00617 0.00089(21) 21844410. 0.000912 0.000912
96846. 2.00637 0.00107(25) 16036843. 0.000912 0.000912
96856. 2.00658 0.00108(25) 15907608. 0.000912 0.000912
96866. 2.00678 0.00106(24) 17741230. 0.000912 0.000912
96875. 2.00698 0.00126(27) 14111636. 0.000912 0.000912
96885. 2.00718 0.00131(28) 13210027. 0.000912 0.000912
96895. 2.00738 0.00119(26) 14345800. 0.000912 0.000912
96904. 2.00758 0.00121(27) 13427879. 0.000911 0.000911
96914. 2.00778 0.00116(26) 14316252. 0.000911 0.000911
96924. 2.00798 0.00097(22) 19868270. 0.000911 0.000911
96933. 2.00818 0.00106(24) 16974898. 0.000911 0.000911
96943. 2.00838 0.00112(26) 15147781. 0.000911 0.000911
96953. 2.00858 0.00096(22) 20248634. 0.000911 0.000911
96962. 2.00878 0.00109(25) 16254747. 0.000911 0.000911
96972. 2.00899 0.00093(24) 17446042. 0.000911 0.000911
96982. 2.00919 0.00075(21) 22218428. 0.000911 0.000911
96992. 2.00939 0.00111(27) 14221313. 0.000911 0.000911
97001. 2.00959 0.00147(30) 10780681. 0.000911 0.000911
97011. 2.00979 0.00127(26) 14588103. 0.000910 0.000910
97021. 2.00999 0.00124(26) 14625684. 0.000910 0.000910
97030. 2.01019 0.00110(26) 15364854. 0.000910 0.000910
97040. 2.01039 0.00085(22) 21123596. 0.000910 0.000910
97050. 2.01059 0.00102(24) 17554570. 0.000910 0.000910
97059. 2.01079 0.00126(27) 14073237. 0.000910 0.000910
97069. 2.01100 0.00124(26) 14321923. 0.000910 0.000910
97079. 2.01120 0.00092(22) 20625896. 0.000910 0.000910
97089. 2.01140 0.00077(21) 23635362. 0.000910 0.000910
97098. 2.01160 0.00074(21) 23402154. 0.000910 0.000910
97108. 2.01180 0.00088(23) 18529864. 0.000910 0.000910
97118. 2.01200 0.00116(27) 13941052. 0.000910 0.000910
97127. 2.01220 0.00108(25) 15757596. 0.000909 0.000909
97137. 2.01240 0.00081(22) 21222742. 0.000909 0.000909
97147. 2.01261 0.00069(21) 23597034. 0.000909 0.000909
97157. 2.01281 0.00070(20) 25967974. 0.000909 0.000909
97166. 2.01301 0.00109(25) 15524993. 0.000909 0.000909
97176. 2.01321 0.00111(25) 15989413. 0.000909 0.000909
97186. 2.01341 0.00098(23) 19218560. 0.000909 0.000909
97195. 2.01361 0.00099(24) 17168584. 0.000909 0.000909
97205. 2.01381 0.00094(24) 17651468. 0.000909 0.000909
97215. 2.01401 0.00108(25) 16410189. 0.000909 0.000909
97225. 2.01422 0.00134(28) 12524980. 0.000909 0.000909
97234. 2.01442 0.00116(27) 13858445. 0.000909 0.000909
97244. 2.01462 0.00082(22) 20694716. 0.000909 0.000909
97254. 2.01482 0.00075(21) 22834922. 0.000908 0.000908
97263. 2.01502 0.00076(21) 21753348. 0.000908 0.000908
97273. 2.01522 0.00098(26) 14986376. 0.000908 0.000908
97283. 2.01543 0.00092(24) 17024492. 0.000908 0.000908
97293. 2.01563 0.00085(22) 20034544. 0.000908 0.000908
97302. 2.01583 0.00091(22) 19842038. 0.000908 0.000908
97312. 2.01603 0.00099(23) 18363156. 0.000908 0.000908
97322. 2.01623 0.00105(24) 16917126. 0.000908 0.000908
97332. 2.01643 0.00083(22) 20909728. 0.000908 0.000908
97341. 2.01664 0.00058(18) 31806818. 0.000908 0.000908
97351. 2.01684 0.00086(22) 20552476. 0.000908 0.000908
97361. 2.01704 0.00109(26) 15099879. 0.000908 0.000908
97371. 2.01724 0.00119(26) 14261843. 0.000908 0.000908
97380. 2.01744 0.00114(26) 14656531. 0.000908 0.000908
97390. 2.01765 0.00062(19) 27922534. 0.000907 0.000907
97400. 2.01785 0.00051(17) 33823012. 0.000907 0.000907
97410. 2.01805 0.00076(21) 22730262. 0.000907 0.000907
97419. 2.01825 0.00089(22) 20722774. 0.000907 0.000907
97429. 2.01845 0.00092(23) 18693338. 0.000907 0.000907
97439. 2.01865 0.00084(22) 20390296. 0.000907 0.000907
97449. 2.01886 0.00089(22) 20035440. 0.000907 0.000907
97458. 2.01906 0.00088(23) 19317440. 0.000907 0.000907
97468. 2.01926 0.00069(21) 22635274. 0.000907 0.000907
97478. 2.01946 0.00081(24) 17418306. 0.000907 0.000907
97487. 2.01966 0.00086(24) 17739090. 0.000907 0.000907
97497. 2.01987 0.00092(24) 18080798. 0.000907 0.000907
97507. 2.02007 0.00091(22) 20124774. 0.000907 0.000907
97517. 2.02027 0.00101(25) 16193970. 0.000907 0.000907
97527. 2.02047 0.00098(25) 16129732. 0.000907 0.000907
97536. 2.02067 0.00099(24) 17219950. 0.000907 0.000907
97546. 2.02088 0.00099(23) 18454560. 0.000907 0.000907
97556. 2.02108 0.00095(23) 18593284. 0.000906 0.000906
97566. 2.02128 0.00107(26) 14806687. 0.000906 0.000906
97575. 2.02148 0.00101(26) 15283779. 0.000906 0.000906
97585. 2.02169 0.00080(22) 19977062. 0.000906 0.000906
97595. 2.02189 0.00086(24) 18034912. 0.000906 0.000906
97605. 2.02209 0.00091(24) 17356984. 0.000906 0.000906
97614. 2.02229 0.00111(26) 14368295. 0.000906 0.000906
97624. 2.02250 0.00145(31) 10316025. 0.000906 0.000906
97634. 2.02270 0.00128(29) 11832554. 0.000906 0.000906
97644. 2.02290 0.00117(27) 13324528. 0.000906 0.000906
97653. 2.02310 0.00097(24) 16782238. 0.000906 0.000906
97663. 2.02330 0.00079(21) 23158636. 0.000906 0.000906
97673. 2.02351 0.00095(23) 18181520. 0.000906 0.000906
97683. 2.02371 0.00092(23) 18375050. 0.000906 0.000906
97693. 2.02391 0.00094(24) 17648092. 0.000906 0.000906
97702. 2.02411 0.00102(24) 16879210. 0.000906 0.000906
97712. 2.02432 0.00080(21) 22524958. 0.000906 0.000906
97722. 2.02452 0.00067(20) 24805016. 0.000906 0.000906
97732. 2.02472 0.00067(20) 24061176. 0.000906 0.000906
97741. 2.02493 0.00059(19) 28986632. 0.000905 0.000905
97751. 2.02513 0.00065(20) 23984046. 0.000905 0.000905
97761. 2.02533 0.00062(20) 25907876. 0.000905 0.000905
97771. 2.02553 0.00093(24) 17790266. 0.000905 0.000905
97780. 2.02574 0.00103(24) 16802800. 0.000905 0.000905
97790. 2.02594 0.00084(22) 19870226. 0.000905 0.000905
97800. 2.02614 0.00075(22) 21296328. 0.000905 0.000905
97810. 2.02634 0.00092(24) 17581880. 0.000905 0.000905
97820. 2.02655 0.00103(25) 15497363. 0.000905 0.000905
97829. 2.02675 0.00093(24) 17406634. 0.000905 0.000905
97839. 2.02695 0.00110(26) 14914453. 0.000905 0.000905
97849. 2.02715 0.00102(24) 17697808. 0.000905 0.000905
97859. 2.02736 0.00093(23) 19153692. 0.000905 0.000905
97869. 2.02756 0.00115(26) 14459430. 0.000905 0.000905
97878. 2.02776 0.00110(26) 14713907. 0.000905 0.000905
97888. 2.02797 0.00085(23) 19044008. 0.000905 0.000905
97898. 2.02817 0.00082(23) 19260142. 0.000905 0.000905
97908. 2.02837 0.00077(21) 22485836. 0.000905 0.000905
97917. 2.02857 0.00077(20) 23936904. 0.000905 0.000905
97927. 2.02878 0.00078(21) 22788754. 0.000905 0.000905
97937. 2.02898 0.00074(21) 23579230. 0.000905 0.000905
97947. 2.02919 0.00078(22) 20516042. 0.000905 0.000905
97957. 2.02939 0.00077(21) 22361970. 0.000905 0.000905
97966. 2.02959 0.00118(27) 13293091. 0.000905 0.000905
97976. 2.02979 0.00130(29) 12307511. 0.000904 0.000904
97986. 2.03000 0.00109(25) 15583402. 0.000904 0.000904
97996. 2.03020 0.00088(23) 18891250. 0.000904 0.000904
98006. 2.03040 0.00082(22) 20098872. 0.000904 0.000904
98015. 2.03061 0.00097(25) 16214878. 0.000904 0.000904
98025. 2.03081 0.00099(25) 16386368. 0.000904 0.000904
98035. 2.03101 0.00078(21) 21710818. 0.000904 0.000904
98045. 2.03121 0.00080(22) 20499154. 0.000904 0.000904
98055. 2.03142 0.00074(20) 24031534. 0.000904 0.000904
98064. 2.03162 0.00082(21) 22302706. 0.000904 0.000904
98074. 2.03183 0.00125(27) 13737320. 0.000904 0.000904
98084. 2.03203 0.00142(29) 11741583. 0.000904 0.000904
98094. 2.03223 0.00119(26) 15144312. 0.000904 0.000904
98104. 2.03244 0.00119(27) 13622557. 0.000904 0.000904
98114. 2.03264 0.00098(25) 15794553. 0.000904 0.000904
98123. 2.03284 0.00065(19) 26358200. 0.000904 0.000904
98133. 2.03304 0.00068(20) 23891080. 0.000904 0.000904
98143. 2.03325 0.00082(21) 21938222. 0.000904 0.000904
98153. 2.03345 0.00116(27) 13844445. 0.000904 0.000904
98163. 2.03366 0.00119(28) 12556355. 0.000904 0.000904
98172. 2.03386 0.00096(26) 15348599. 0.000904 0.000904
98182. 2.03406 0.00066(21) 23276080. 0.000904 0.000904
98192. 2.03427 0.00055(18) 32385358. 0.000904 0.000904
98202. 2.03447 0.00091(24) 17176726. 0.000904 0.000904
98212. 2.03467 0.00100(27) 14030925. 0.000904 0.000904
98222. 2.03488 0.00102(26) 14639553. 0.000904 0.000904
98231. 2.03508 0.00130(29) 12036382. 0.000904 0.000904
98241. 2.03528 0.00131(30) 11209635. 0.000904 0.000904
98251. 2.03549 0.00101(26) 14546422. 0.000904 0.000904
98261. 2.03569 0.00106(27) 14233342. 0.000904 0.000904
98271. 2.03589 0.00103(24) 16749125. 0.000904 0.000904
98280. 2.03610 0.00118(27) 13909904. 0.000904 0.000904
98290. 2.03630 0.00122(28) 12482242. 0.000904 0.000904
98300. 2.03651 0.00093(24) 16857026. 0.000904 0.000904
98310. 2.03671 0.00065(19) 26500680. 0.000904 0.000904
98320. 2.03691 0.00075(21) 23372932. 0.000904 0.000904
98330. 2.03712 0.00108(27) 13916033. 0.000904 0.000904
98339. 2.03732 0.00098(25) 16155978. 0.000904 0.000904
98349. 2.03752 0.00110(25) 15753906. 0.000904 0.000904
98359. 2.03773 0.00115(26) 14727754. 0.000904 0.000904
98369. 2.03793 0.00087(22) 19946012. 0.000903 0.000903
98379. 2.03814 0.00089(24) 18095202. 0.000903 0.000903
98389. 2.03834 0.00095(25) 16523199. 0.000903 0.000903
98399. 2.03854 0.00101(26) 14964282. 0.000903 0.000903
98408. 2.03875 0.00075(22) 20996544. 0.000903 0.000903
98418. 2.03895 0.00077(22) 21549448. 0.000903 0.000903
98428. 2.03916 0.00099(24) 16817376. 0.000903 0.000903
98438. 2.03936 0.00079(21) 22184154. 0.000903 0.000903
98448. 2.03956 0.00061(18) 29406966. 0.000903 0.000903
98458. 2.03977 0.00091(22) 20059148. 0.000903 0.000903
98467. 2.03997 0.00140(28) 12521104. 0.000903 0.000903
98477. 2.04018 0.00129(27) 13389497. 0.000903 0.000903
98487. 2.04038 0.00090(22) 20076054. 0.000903 0.000903
98497. 2.04058 0.00084(23) 19419750. 0.000903 0.000903
98507. 2.04079 0.00093(26) 15252094. 0.000903 0.000903
98517. 2.04099 0.00073(22) 20064846. 0.000903 0.000903
98527. 2.04120 0.00058(19) 27588440. 0.000903 0.000903
98536. 2.04140 0.00075(21) 22111072. 0.000903 0.000903
98546. 2.04161 0.00089(24) 17939852. 0.000903 0.000903
98556. 2.04181 0.00103(26) 14890915. 0.000903 0.000903
98566. 2.04202 0.00111(26) 14311726. 0.000903 0.000903
98576. 2.04222 0.00105(25) 15406745. 0.000903 0.000903
98586. 2.04242 0.00110(26) 14456463. 0.000903 0.000903
98596. 2.04263 0.00121(27) 13690829. 0.000903 0.000903
98605. 2.04283 0.00121(27) 14174063. 0.000903 0.000903
98615. 2.04304 0.00115(26) 14723555. 0.000903 0.000903
98625. 2.04324 0.00127(29) 12282472. 0.000903 0.000903
98635. 2.04345 0.00096(24) 18048484. 0.000903 0.000903
98645. 2.04365 0.00096(23) 18221560. 0.000903 0.000903
98655. 2.04385 0.00099(24) 16831604. 0.000903 0.000903
98665. 2.04406 0.00101(25) 16639458. 0.000903 0.000903
98674. 2.04426 0.00099(24) 17058350. 0.000903 0.000903
98684. 2.04447 0.00076(21) 23759156. 0.000903 0.000903
98694. 2.04467 0.00094(23) 18648926. 0.000903 0.000903
98704. 2.04488 0.00113(26) 15138096. 0.000903 0.000903
98714. 2.04508 0.00118(26) 14434801. 0.000903 0.000903
98724. 2.04528 0.00111(25) 16266018. 0.000903 0.000903
98734. 2.04549 0.00110(25) 15763574. 0.000903 0.000903
98744. 2.04569 0.00108(25) 15727962. 0.000903 0.000903
98753. 2.04590 0.00120(27) 13261183. 0.000903 0.000903
98763. 2.04610 0.00099(25) 16515286. 0.000903 0.000903
98773. 2.04631 0.00075(21) 22321954. 0.000903 0.000903
98783. 2.04651 0.00086(23) 19133826. 0.000903 0.000903
98793. 2.04672 0.00131(28) 12437014. 0.000903 0.000903
98803. 2.04692 0.00158(31) 10119984. 0.000903 0.000903
98813. 2.04713 0.00145(30) 11255203. 0.000903 0.000903
98823. 2.04733 0.00111(25) 15878358. 0.000903 0.000903
98832. 2.04754 0.00099(23) 18656554. 0.000903 0.000903
98842. 2.04774 0.00122(27) 13806239. 0.000903 0.000903
98852. 2.04795 0.00112(25) 15518301. 0.000903 0.000903
98862. 2.04815 0.00098(23) 19180578. 0.000903 0.000903
98872. 2.04836 0.00105(24) 17452000. 0.000903 0.000903
98882. 2.04856 0.00091(22) 20610650. 0.000903 0.000903
98892. 2.04876 0.00110(25) 15939820. 0.000903 0.000903
98902. 2.04897 0.00115(25) 15634653. 0.000903 0.000903
98912. 2.04918 0.00077(21) 23747364. 0.000903 0.000903
98921. 2.04938 0.00068(20) 25635746. 0.000903 0.000903
98931. 2.04959 0.00087(21) 21818410. 0.000903 0.000903
98941. 2.04979 0.00114(25) 15421128. 0.000903 0.000903
98951. 2.05000 0.00123(28) 12928734. 0.000903 0.000903
98961. 2.05020 0.00095(24) 16681116. 0.000903 0.000903
98971. 2.05041 0.00104(26) 14859966. 0.000903 0.000903
98981. 2.05061 0.00121(28) 12649160. 0.000903 0.000903
98991. 2.05082 0.00098(24) 16729305. 0.000903 0.000903
99001. 2.05102 0.00084(22) 21410850. 0.000903 0.000903
99011. 2.05123 0.00100(24) 16873348. 0.000903 0.000903
99021. 2.05143 0.00118(27) 14184001. 0.000903 0.000903
99030. 2.05164 0.00112(25) 15790007. 0.000903 0.000903
99040. 2.05184 0.00088(22) 21049396. 0.000903 0.000903
99050. 2.05205 0.00090(22) 20599206. 0.000904 0.000904
99060. 2.05225 0.00106(25) 16494585. 0.000904 0.000904
99070. 2.05246 0.00092(23) 19089530. 0.000904 0.000904
99080. 2.05266 0.00091(23) 19501558. 0.000904 0.000904
99090. 2.05287 0.00111(26) 14587999. 0.000904 0.000904
99100. 2.05308 0.00121(27) 13258903. 0.000904 0.000904
99110. 2.05328 0.00113(26) 14796265. 0.000904 0.000904
99120. 2.05349 0.00114(26) 14352465. 0.000904 0.000904
99129. 2.05369 0.00099(24) 17259428. 0.000904 0.000904
99139. 2.05390 0.00082(22) 19884828. 0.000904 0.000904
99149. 2.05410 0.00073(21) 21754830. 0.000904 0.000904
99159. 2.05431 0.00088(23) 19202248. 0.000904 0.000904
99169. 2.05451 0.00108(24) 17294280. 0.000904 0.000904
99179. 2.05472 0.00099(23) 19410436. 0.000904 0.000904
99189. 2.05493 0.00103(24) 16757515. 0.000904 0.000904
99199. 2.05513 0.00098(24) 17834414. 0.000904 0.000904
99209. 2.05534 0.00078(21) 23070174. 0.000904 0.000904
99219. 2.05554 0.00093(23) 18777366. 0.000904 0.000904
99229. 2.05575 0.00117(26) 14376539. 0.000904 0.000904
99239. 2.05595 0.00115(27) 14194155. 0.000904 0.000904
99249. 2.05616 0.00115(27) 13807825. 0.000904 0.000904
99258. 2.05636 0.00110(25) 15650852. 0.000904 0.000904
99268. 2.05657 0.00112(25) 15987610. 0.000904 0.000904
99278. 2.05678 0.00109(25) 15838999. 0.000904 0.000904
99288. 2.05698 0.00084(21) 22051652. 0.000904 0.000904
99298. 2.05719 0.00088(22) 20296674. 0.000904 0.000904
99308. 2.05739 0.00082(21) 22807244. 0.000904 0.000904
99318. 2.05760 0.00070(20) 25184702. 0.000904 0.000904
99328. 2.05780 0.00062(19) 26329838. 0.000904 0.000904
99338. 2.05801 0.00071(19) 28068468. 0.000904 0.000904
99348. 2.05822 0.00128(26) 14245030. 0.000904 0.000904
99358. 2.05842 0.00162(30) 10927586. 0.000904 0.000904
99368. 2.05863 0.00156(29) 11523196. 0.000904 0.000904
99378. 2.05883 0.00125(27) 13586669. 0.000904 0.000904
99388. 2.05904 0.00102(24) 17196664. 0.000904 0.000904
99398. 2.05925 0.00118(26) 15302021. 0.000904 0.000904
99407. 2.05945 0.00090(22) 20511778. 0.000904 0.000904
99417. 2.05966 0.00066(19) 26545764. 0.000904 0.000904
99427. 2.05986 0.00089(23) 19623252. 0.000904 0.000904
99437. 2.06007 0.00096(24) 17929448. 0.000904 0.000904
99447. 2.06028 0.00064(19) 27176928. 0.000904 0.000904
99457. 2.06048 0.00075(21) 23652950. 0.000904 0.000904
99467. 2.06069 0.00096(23) 19701622. 0.000904 0.000904
99477. 2.06090 0.00106(24) 17336898. 0.000904 0.000904
99487. 2.06110 0.00102(24) 16772995. 0.000904 0.000904
99497. 2.06131 0.00110(26) 14518578. 0.000905 0.000905
99507. 2.06151 0.00126(27) 13223259. 0.000905 0.000905
99517. 2.06172 0.00118(26) 15260710. 0.000905 0.000905
99527. 2.06193 0.00112(26) 15343381. 0.000905 0.000905
99537. 2.06213 0.00110(26) 14910000. 0.000905 0.000905
99547. 2.06234 0.00087(22) 19887878. 0.000905 0.000905
99557. 2.06255 0.00085(22) 21171540. 0.000905 0.000905
99567. 2.06275 0.00086(21) 21942624. 0.000905 0.000905
99577. 2.06296 0.00077(21) 23527810. 0.000905 0.000905
99587. 2.06316 0.00081(22) 20819804. 0.000905 0.000905
99597. 2.06337 0.00099(24) 17506598. 0.000905 0.000905
99606. 2.06358 0.00099(22) 20182812. 0.000905 0.000905
99616. 2.06378 0.00109(24) 17321012. 0.000905 0.000905
99626. 2.06399 0.00115(26) 15028902. 0.000905 0.000905
99636. 2.06420 0.00101(24) 16924212. 0.000905 0.000905
99646. 2.06440 0.00098(25) 16541676. 0.000905 0.000905
99656. 2.06461 0.00090(23) 19608518. 0.000905 0.000905
99666. 2.06482 0.00119(27) 13821833. 0.000905 0.000905
99676. 2.06502 0.00119(27) 13424200. 0.000905 0.000905
99686. 2.06523 0.00059(18) 31810356. 0.000905 0.000905
99696. 2.06544 0.00055(18) 30803218. 0.000905 0.000905
99706. 2.06564 0.00067(19) 26919448. 0.000905 0.000905
99716. 2.06585 0.00092(24) 17546804. 0.000905 0.000905
99726. 2.06606 0.00103(26) 14894587. 0.000905 0.000905
99736. 2.06626 0.00120(28) 12905413. 0.000905 0.000905
99746. 2.06647 0.00100(25) 16565669. 0.000905 0.000905
99756. 2.06668 0.00094(24) 17058906. 0.000905 0.000905
99766. 2.06688 0.00122(28) 12992988. 0.000905 0.000905
99776. 2.06709 0.00141(28) 12371135. 0.000905 0.000905
99786. 2.06730 0.00136(29) 11709862. 0.000905 0.000905
99796. 2.06750 0.00088(24) 17884042. 0.000906 0.000906
99806. 2.06771 0.00111(26) 14505704. 0.000906 0.000906
99816. 2.06792 0.00114(26) 14372633. 0.000906 0.000906
99826. 2.06812 0.00116(27) 13569115. 0.000906 0.000906
99836. 2.06833 0.00117(27) 13848402. 0.000906 0.000906
99846. 2.06854 0.00124(29) 12150289. 0.000906 0.000906
99856. 2.06874 0.00113(27) 13729963. 0.000906 0.000906
99866. 2.06895 0.00097(25) 15777395. 0.000906 0.000906
99876. 2.06916 0.00090(24) 16870084. 0.000906 0.000906
99886. 2.06937 0.00110(26) 14267546. 0.000906 0.000906
99896. 2.06957 0.00104(26) 14702855. 0.000906 0.000906
99906. 2.06978 0.00069(21) 22784178. 0.000906 0.000906
99916. 2.06999 0.00048(16) 37938184. 0.000906 0.000906
99926. 2.07019 0.00045(17) 36306556. 0.000906 0.000906
99936. 2.07040 0.00054(19) 28586102. 0.000906 0.000906
99946. 2.07061 0.00082(23) 19256518. 0.000906 0.000906
99956. 2.07082 0.00084(24) 17720478. 0.000906 0.000906
99966. 2.07102 0.00060(19) 27201460. 0.000906 0.000906
99976. 2.07123 0.00066(19) 27181128. 0.000906 0.000906
99986. 2.07144 0.00100(26) 15027969. 0.000906 0.000906
99996. 2.07164 0.00086(23) 18211364. 0.000906 0.000906
100006. 2.07186 0.00065(21) 22941674. 0.000906 0.000906
100016. 2.07206 0.00071(22) 19768572. 0.000906 0.000906
100026. 2.07227 0.00079(23) 19114508. 0.000906 0.000906
100036. 2.07248 0.00091(25) 16655042. 0.000906 0.000906
100046. 2.07269 0.00091(25) 15998478. 0.000907 0.000907
100056. 2.07289 0.00083(23) 18584256. 0.000907 0.000907
100066. 2.07310 0.00089(23) 18414246. 0.000907 0.000907
100076. 2.07331 0.00088(23) 18925238. 0.000907 0.000907
100086. 2.07351 0.00094(25) 16649512. 0.000907 0.000907
100096. 2.07372 0.00088(24) 17258170. 0.000907 0.000907
100106. 2.07393 0.00085(24) 16787476. 0.000907 0.000907
100116. 2.07414 0.00078(23) 18603306. 0.000907 0.000907
100126. 2.07434 0.00084(24) 17683722. 0.000907 0.000907
100136. 2.07455 0.00109(27) 13240839. 0.000907 0.000907
100146. 2.07476 0.00107(26) 14402721. 0.000907 0.000907
100156. 2.07497 0.00109(27) 13479343. 0.000907 0.000907
100166. 2.07517 0.00073(22) 20122174. 0.000907 0.000907
100176. 2.07538 0.00061(19) 26428070. 0.000907 0.000907
100186. 2.07559 0.00107(27) 13783950. 0.000907 0.000907
100196. 2.07579 0.00118(28) 13052707. 0.000907 0.000907
100206. 2.07600 0.00113(28) 12650481. 0.000907 0.000907
100216. 2.07621 0.00089(25) 15736286. 0.000907 0.000907
100226. 2.07642 0.00092(24) 16922752. 0.000907 0.000907
100236. 2.07662 0.00109(27) 13581797. 0.000907 0.000907
100246. 2.07683 0.00093(24) 17087344. 0.000907 0.000907
100256. 2.07704 0.00101(24) 16673029. 0.000907 0.000907
100266. 2.07724 0.00106(26) 15200189. 0.000907 0.000907
100276. 2.07745 0.00085(24) 17637294. 0.000908 0.000908
100286. 2.07766 0.00089(24) 17828814. 0.000908 0.000908
100296. 2.07787 0.00131(29) 11783833. 0.000908 0.000908
100306. 2.07807 0.00112(27) 13833271. 0.000908 0.000908
100316. 2.07828 0.00082(23) 18423630. 0.000908 0.000908
100326. 2.07849 0.00072(21) 22059578. 0.000908 0.000908
100336. 2.07870 0.00083(22) 20185002. 0.000908 0.000908
100346. 2.07890 0.00102(26) 15035247. 0.000908 0.000908
100356. 2.07911 0.00094(24) 16738081. 0.000908 0.000908
100367. 2.07934 0.00087(24) 17281732. 0.000908 0.000908
100377. 2.07955 0.00108(27) 13994545. 0.000908 0.000908
100387. 2.07975 0.00172(35) 8266663. 0.000908 0.000908
100397. 2.07996 0.00167(33) 9064622. 0.000908 0.000908
100407. 2.08017 0.00134(29) 11587687. 0.000908 0.000908
100417. 2.08037 0.00120(28) 12439033. 0.000908 0.000908
100427. 2.08058 0.00080(24) 17924970. 0.000908 0.000908
100437. 2.08079 0.00049(19) 27547136. 0.000908 0.000908
100447. 2.08100 0.00053(20) 26217608. 0.000908 0.000908
100457. 2.08120 0.00088(25) 16490028. 0.000908 0.000908
100467. 2.08141 0.00113(28) 12831098. 0.000908 0.000908
100477. 2.08162 0.00105(27) 13563856. 0.000908 0.000908
100487. 2.08182 0.00120(29) 11655843. 0.000908 0.000908
100497. 2.08203 0.00105(27) 13718683. 0.000909 0.000909
100507. 2.08224 0.00094(25) 15821247. 0.000909 0.000909
100517. 2.08245 0.00152(33) 9182511. 0.000909 0.000909
100527. 2.08265 0.00162(35) 8131932. 0.000909 0.000909
100537. 2.08286 0.00110(28) 12387975. 0.000909 0.000909
100547. 2.08307 0.00128(31) 10714519. 0.000909 0.000909
100557. 2.08328 0.00117(29) 12019758. 0.000909 0.000909
100567. 2.08348 0.00101(26) 14738624. 0.000909 0.000909
100578. 2.08371 0.00093(26) 14440069. 0.000909 0.000909
100588. 2.08392 0.00062(20) 25304620. 0.000909 0.000909
100598. 2.08412 0.00106(27) 13547620. 0.000909 0.000909
100608. 2.08433 0.00139(31) 10139058. 0.000909 0.000909
100618. 2.08454 0.00090(24) 17386370. 0.000909 0.000909
100628. 2.08475 0.00071(23) 19586992. 0.000909 0.000909
100638. 2.08495 0.00072(23) 18873924. 0.000909 0.000909
100648. 2.08516 0.00081(24) 16881114. 0.000909 0.000909
100658. 2.08537 0.00087(24) 16897070. 0.000909 0.000909
100668. 2.08558 0.00109(28) 12393243. 0.000909 0.000909
100678. 2.08578 0.00091(26) 15070679. 0.000909 0.000909
100688. 2.08599 0.00082(25) 16386538. 0.000909 0.000909
100698. 2.08620 0.00078(24) 17035312. 0.000909 0.000909
100708. 2.08640 0.00070(24) 17409454. 0.000910 0.000910
100718. 2.08661 0.00045(18) 30134068. 0.000910 0.000910
100728. 2.08682 0.00056(19) 28750514. 0.000910 0.000910
100739. 2.08705 0.00092(26) 14355043. 0.000910 0.000910
100749. 2.08725 0.00074(23) 19426428. 0.000910 0.000910
100759. 2.08746 0.00072(22) 19920442. 0.000910 0.000910
100769. 2.08767 0.00083(25) 16454474. 0.000910 0.000910
100779. 2.08788 0.00089(25) 15932207. 0.000910 0.000910
100789. 2.08808 0.00103(28) 13112950. 0.000910 0.000910
100799. 2.08829 0.00098(26) 14699025. 0.000910 0.000910
100809. 2.08850 0.00078(23) 18297900. 0.000910 0.000910
100819. 2.08870 0.00059(20) 24435550. 0.000910 0.000910
100829. 2.08891 0.00084(24) 17794686. 0.000910 0.000910
100839. 2.08912 0.00111(27) 13418277. 0.000910 0.000910
100849. 2.08933 0.00122(28) 12541875. 0.000910 0.000910
100860. 2.08955 0.00100(26) 14758384. 0.000910 0.000910
100870. 2.08976 0.00067(21) 22126800. 0.000910 0.000910
100880. 2.08997 0.00066(20) 24325938. 0.000910 0.000910
100890. 2.09018 0.00102(27) 13920882. 0.000910 0.000910
100900. 2.09038 0.00117(30) 10962718. 0.000910 0.000910
100910. 2.09059 0.00089(26) 14688191. 0.000910 0.000910
100920. 2.09080 0.00100(27) 14154485. 0.000910 0.000910
100930. 2.09101 0.00128(30) 11118625. 0.000911 0.000911
100940. 2.09121 0.00130(30) 10808666. 0.000911 0.000911
100950. 2.09142 0.00131(31) 10086457. 0.000911 0.000911
100960. 2.09163 0.00114(27) 13536331. 0.000911 0.000911
100971. 2.09185 0.00125(30) 11228820. 0.000911 0.000911
100981. 2.09206 0.00104(28) 13070474. 0.000911 0.000911
100991. 2.09227 0.00082(23) 18637274. 0.000911 0.000911
101001. 2.09248 0.00110(28) 12543372. 0.000911 0.000911
101011. 2.09268 0.00110(30) 11228502. 0.000911 0.000911
101021. 2.09289 0.00103(30) 11375096. 0.000911 0.000911
101031. 2.09310 0.00111(29) 12017296. 0.000911 0.000911
101041. 2.09331 0.00091(25) 15383927. 0.000911 0.000911
101051. 2.09351 0.00047(17) 34701208. 0.000911 0.000911
101062. 2.09374 0.00068(22) 20895462. 0.000911 0.000911
101072. 2.09395 0.00098(25) 15390426. 0.000911 0.000911
101082. 2.09416 0.00095(26) 14907470. 0.000911 0.000911
101092. 2.09436 0.00082(25) 16426103. 0.000911 0.000911
101102. 2.09457 0.00082(23) 18500078. 0.000911 0.000911
101112. 2.09478 0.00104(27) 13685995. 0.000911 0.000911
101122. 2.09498 0.00094(25) 15423481. 0.000911 0.000911
101132. 2.09519 0.00079(23) 19368612. 0.000911 0.000911
101142. 2.09540 0.00087(24) 17975286. 0.000911 0.000911
101153. 2.09563 0.00109(27) 13658970. 0.000912 0.000912
101163. 2.09583 0.00127(30) 11177413. 0.000912 0.000912
101173. 2.09604 0.00088(25) 16416266. 0.000912 0.000912
101183. 2.09625 0.00073(23) 19507672. 0.000912 0.000912
101193. 2.09646 0.00086(25) 16331099. 0.000912 0.000912
101203. 2.09666 0.00092(25) 15964643. 0.000912 0.000912
101213. 2.09687 0.00126(30) 10811002. 0.000912 0.000912
101223. 2.09708 0.00092(23) 18119154. 0.000912 0.000912
101234. 2.09730 0.00108(26) 14753437. 0.000912 0.000912
101244. 2.09751 0.00156(33) 9417011. 0.000912 0.000912
101254. 2.09772 0.00154(33) 9214736. 0.000912 0.000912
101264. 2.09793 0.00127(29) 11609835. 0.000912 0.000912
101274. 2.09813 0.00111(27) 14057107. 0.000912 0.000912
101284. 2.09834 0.00106(28) 12849026. 0.000912 0.000912
101294. 2.09855 0.00069(22) 20690988. 0.000912 0.000912
101304. 2.09876 0.00066(21) 22790976. 0.000912 0.000912
101315. 2.09898 0.00087(25) 15713235. 0.000912 0.000912
101325. 2.09919 0.00135(32) 9657526. 0.000912 0.000912
101335. 2.09940 0.00115(29) 12122835. 0.000912 0.000912
101345. 2.09961 0.00085(24) 17922136. 0.000912 0.000912
101355. 2.09981 0.00087(25) 16180292. 0.000912 0.000912
101365. 2.10002 0.00084(24) 17763142. 0.000912 0.000912
101375. 2.10023 0.00101(26) 15274109. 0.000912 0.000912
101385. 2.10043 0.00072(20) 23852086. 0.000912 0.000912
101396. 2.10066 0.00073(23) 19471864. 0.000913 0.000913
101406. 2.10087 0.00090(24) 17169890. 0.000913 0.000913
101416. 2.10108 0.00116(27) 13722731. 0.000913 0.000913
101426. 2.10128 0.00118(28) 12741304. 0.000913 0.000913
101436. 2.10149 0.00075(21) 22383396. 0.000913 0.000913
101446. 2.10170 0.00089(24) 17538738. 0.000913 0.000913
101456. 2.10191 0.00094(24) 18068556. 0.000913 0.000913
101467. 2.10213 0.00095(25) 16594694. 0.000913 0.000913
101477. 2.10234 0.00093(24) 18073774. 0.000913 0.000913
101487. 2.10255 0.00109(26) 15161142. 0.000913 0.000913
101497. 2.10276 0.00107(26) 14619034. 0.000913 0.000913
101507. 2.10296 0.00064(20) 25658118. 0.000913 0.000913
101517. 2.10317 0.00053(17) 35488452. 0.000913 0.000913
101528. 2.10340 0.00095(23) 19587920. 0.000913 0.000913
101538. 2.10360 0.00123(27) 13776924. 0.000913 0.000913
101548. 2.10381 0.00096(24) 17463630. 0.000913 0.000913
101558. 2.10402 0.00093(24) 18025652. 0.000913 0.000913
101568. 2.10423 0.00092(24) 17270452. 0.000913 0.000913
101578. 2.10443 0.00066(20) 26004310. 0.000913 0.000913
101588. 2.10464 0.00086(22) 20043008. 0.000913 0.000913
101599. 2.10487 0.00093(24) 17760932. 0.000913 0.000913
101609. 2.10508 0.00079(22) 20467816. 0.000913 0.000913
101619. 2.10528 0.00071(21) 22790216. 0.000913 0.000913
101629. 2.10549 0.00091(24) 18081424. 0.000913 0.000913
101639. 2.10570 0.00085(21) 23659360. 0.000913 0.000913
101650. 2.10593 0.00097(24) 17886976. 0.000913 0.000913
101660. 2.10613 0.00086(22) 20297600. 0.000913 0.000913
101670. 2.10634 0.00090(24) 17717644. 0.000913 0.000913
101680. 2.10655 0.00096(25) 16012178. 0.000913 0.000913
101690. 2.10675 0.00105(26) 15233905. 0.000914 0.000914
101700. 2.10696 0.00118(27) 13344029. 0.000914 0.000914
101710. 2.10717 0.00098(23) 18716970. 0.000914 0.000914
101721. 2.10740 0.00075(21) 23172354. 0.000914 0.000914
101731. 2.10760 0.00072(21) 21982050. 0.000914 0.000914
101741. 2.10781 0.00092(24) 17010714. 0.000914 0.000914
101751. 2.10802 0.00070(19) 26739558. 0.000914 0.000914
101761. 2.10823 0.00077(20) 26024774. 0.000914 0.000914
101772. 2.10845 0.00116(26) 14295453. 0.000914 0.000914
101782. 2.10866 0.00110(26) 15107982. 0.000914 0.000914
101792. 2.10887 0.00096(24) 17110478. 0.000914 0.000914
101802. 2.10908 0.00076(21) 23609118. 0.000914 0.000914
101812. 2.10928 0.00092(24) 17931300. 0.000914 0.000914
101822. 2.10949 0.00090(23) 18688506. 0.000914 0.000914
101833. 2.10972 0.00070(20) 25700388. 0.000914 0.000914
101843. 2.10993 0.00092(24) 17782796. 0.000914 0.000914
101853. 2.11013 0.00117(29) 12211760. 0.000914 0.000914
101863. 2.11034 0.00074(22) 21256810. 0.000914 0.000914
101873. 2.11055 0.00064(19) 27206964. 0.000914 0.000914
101884. 2.11077 0.00084(23) 18576262. 0.000914 0.000914
101894. 2.11098 0.00085(23) 18466746. 0.000914 0.000914
101904. 2.11119 0.00094(25) 15527337. 0.000914 0.000914
101914. 2.11140 0.00091(25) 16592708. 0.000914 0.000914
101924. 2.11160 0.00080(21) 22172486. 0.000914 0.000914
101935. 2.11183 0.00071(21) 23645278. 0.000914 0.000914
101945. 2.11204 0.00074(22) 21529574. 0.000914 0.000914
101955. 2.11225 0.00108(27) 13748123. 0.000914 0.000914
101965. 2.11245 0.00098(24) 17220782. 0.000914 0.000914
101975. 2.11266 0.00114(27) 13351417. 0.000914 0.000914
101985. 2.11287 0.00077(22) 21473582. 0.000914 0.000914
101996. 2.11310 0.00073(21) 23647980. 0.000914 0.000914
102006. 2.11330 0.00104(24) 17113270. 0.000914 0.000914
102016. 2.11351 0.00122(27) 14233866. 0.000914 0.000914
102026. 2.11372 0.00109(26) 15271936. 0.000914 0.000914
102037. 2.11395 0.00104(27) 13683736. 0.000914 0.000914
102047. 2.11415 0.00071(20) 23935810. 0.000914 0.000914
102057. 2.11436 0.00086(22) 20056220. 0.000914 0.000914
102067. 2.11457 0.00093(23) 18298068. 0.000914 0.000914
102077. 2.11477 0.00085(21) 21954250. 0.000914 0.000914
102088. 2.11500 0.00093(24) 17572476. 0.000914 0.000914
102098. 2.11521 0.00065(19) 27001748. 0.000914 0.000914
102108. 2.11542 0.00089(24) 17597892. 0.000914 0.000914
102118. 2.11562 0.00102(26) 14655551. 0.000914 0.000914
102128. 2.11583 0.00076(20) 25357606. 0.000915 0.000915
102139. 2.11606 0.00092(23) 19481046. 0.000915 0.000915
102149. 2.11627 0.00084(22) 20464466. 0.000915 0.000915
102159. 2.11647 0.00097(25) 16501425. 0.000915 0.000915
102169. 2.11668 0.00089(23) 19596812. 0.000915 0.000915
102179. 2.11689 0.00081(21) 22458720. 0.000915 0.000915
102190. 2.11712 0.00088(23) 18487880. 0.000915 0.000915
102200. 2.11732 0.00094(24) 17847366. 0.000915 0.000915
102210. 2.11753 0.00073(22) 21617810. 0.000915 0.000915
102220. 2.11774 0.00072(21) 23091986. 0.000915 0.000915
102231. 2.11797 0.00099(25) 16079352. 0.000915 0.000915
102241. 2.11817 0.00099(25) 15548384. 0.000915 0.000915
102251. 2.11838 0.00108(26) 14579030. 0.000915 0.000915
102261. 2.11859 0.00108(24) 17601882. 0.000915 0.000915
102272. 2.11882 0.00115(25) 16241519. 0.000915 0.000915
102282. 2.11902 0.00108(25) 16501553. 0.000915 0.000915
102292. 2.11923 0.00100(24) 16691666. 0.000915 0.000915
102302. 2.11944 0.00088(23) 18207832. 0.000915 0.000915
102312. 2.11964 0.00070(20) 26220486. 0.000915 0.000915
102323. 2.11987 0.00095(25) 15965117. 0.000915 0.000915
102333. 2.12008 0.00091(24) 17315406. 0.000915 0.000915
102343. 2.12029 0.00092(23) 18623158. 0.000915 0.000915
102353. 2.12049 0.00099(24) 17154270. 0.000915 0.000915
102364. 2.12072 0.00080(23) 18566710. 0.000915 0.000915
102374. 2.12093 0.00051(18) 31700850. 0.000915 0.000915
102384. 2.12114 0.00067(20) 24414364. 0.000915 0.000915
102394. 2.12134 0.00101(24) 17124342. 0.000915 0.000915
102405. 2.12157 0.00136(29) 12003308. 0.000915 0.000915
102415. 2.12178 0.00113(26) 14999231. 0.000915 0.000915
102425. 2.12199 0.00119(27) 13620253. 0.000915 0.000915
102435. 2.12219 0.00137(29) 12077917. 0.000915 0.000915
102446. 2.12242 0.00124(28) 12575524. 0.000915 0.000915
102456. 2.12263 0.00117(27) 13981942. 0.000915 0.000915
102466. 2.12284 0.00110(26) 14520103. 0.000915 0.000915
102476. 2.12304 0.00091(22) 20703960. 0.000915 0.000915
102487. 2.12327 0.00100(24) 17315170. 0.000915 0.000915
102497. 2.12348 0.00091(25) 16618094. 0.000915 0.000915
102507. 2.12369 0.00077(22) 19773294. 0.000915 0.000915
102517. 2.12389 0.00070(20) 26132480. 0.000915 0.000915
102528. 2.12412 0.00073(22) 21499234. 0.000915 0.000915
102538. 2.12433 0.00064(21) 23086002. 0.000915 0.000915
102548. 2.12454 0.00071(22) 21471818. 0.000915 0.000915
102558. 2.12474 0.00062(18) 30692238. 0.000915 0.000915
102569. 2.12497 0.00055(17) 32691996. 0.000915 0.000915
102579. 2.12518 0.00052(18) 29565158. 0.000915 0.000915
102589. 2.12539 0.00072(22) 20598906. 0.000915 0.000915
102599. 2.12559 0.00079(21) 22630278. 0.000915 0.000915
102610. 2.12582 0.00080(21) 22176110. 0.000915 0.000915
102620. 2.12603 0.00063(18) 29814694. 0.000915 0.000915
102630. 2.12623 0.00077(21) 22223780. 0.000915 0.000915
102640. 2.12644 0.00097(23) 18632818. 0.000915 0.000915
102651. 2.12667 0.00101(26) 15309876. 0.000915 0.000915
102661. 2.12688 0.00079(23) 19149812. 0.000915 0.000915
102671. 2.12708 0.00081(22) 21105796. 0.000915 0.000915
102681. 2.12729 0.00095(23) 19158752. 0.000915 0.000915
102692. 2.12752 0.00129(29) 11814213. 0.000915 0.000915
102702. 2.12773 0.00114(27) 13700379. 0.000915 0.000915
102712. 2.12793 0.00088(21) 21654432. 0.000915 0.000915
102723. 2.12816 0.00103(25) 16048364. 0.000915 0.000915
102733. 2.12837 0.00077(21) 22287928. 0.000915 0.000915
102743. 2.12858 0.00085(23) 19074782. 0.000914 0.000914
102753. 2.12878 0.00068(18) 30909418. 0.000914 0.000914
102764. 2.12901 0.00084(22) 20782106. 0.000914 0.000914
102774. 2.12922 0.00089(23) 19072768. 0.000914 0.000914
102784. 2.12943 0.00098(24) 17851838. 0.000914 0.000914
102794. 2.12963 0.00107(25) 16583501. 0.000914 0.000914
102805. 2.12986 0.00127(29) 12165647. 0.000914 0.000914
102815. 2.13007 0.00104(25) 15904414. 0.000914 0.000914
102825. 2.13028 0.00096(23) 18455786. 0.000914 0.000914
102836. 2.13050 0.00095(24) 17124560. 0.000914 0.000914
102846. 2.13071 0.00069(22) 21624866. 0.000914 0.000914
102856. 2.13092 0.00041(16) 40589032. 0.000914 0.000914
102867. 2.13115 0.00065(20) 25086802. 0.000914 0.000914
102877. 2.13135 0.00098(25) 15675365. 0.000914 0.000914
102887. 2.13156 0.00106(27) 14107225. 0.000914 0.000914
102897. 2.13177 0.00084(22) 20198944. 0.000914 0.000914
102908. 2.13200 0.00089(24) 17694190. 0.000914 0.000914
102918. 2.13220 0.00109(27) 14016145. 0.000914 0.000914
102928. 2.13241 0.00095(23) 19093846. 0.000914 0.000914
102939. 2.13264 0.00102(25) 15543552. 0.000914 0.000914
102949. 2.13285 0.00100(25) 15710560. 0.000914 0.000914
102959. 2.13305 0.00114(27) 13686000. 0.000914 0.000914
102969. 2.13326 0.00077(20) 25606168. 0.000914 0.000914
102980. 2.13349 0.00073(21) 23708144. 0.000914 0.000914
102990. 2.13370 0.00073(21) 23639772. 0.000914 0.000914
103000. 2.13390 0.00092(24) 17727306. 0.000914 0.000914
103011. 2.13413 0.00074(22) 20209570. 0.000914 0.000914
103021. 2.13434 0.00047(17) 32997996. 0.000914 0.000914
103031. 2.13454 0.00060(19) 27934694. 0.000914 0.000914
103042. 2.13477 0.00108(27) 13717246. 0.000914 0.000914
103052. 2.13498 0.00115(28) 12950074. 0.000914 0.000914
103062. 2.13519 0.00117(28) 12679887. 0.000914 0.000914
103072. 2.13539 0.00119(28) 13056149. 0.000914 0.000914
103083. 2.13562 0.00115(28) 12777225. 0.000914 0.000914
103093. 2.13583 0.00111(26) 14976600. 0.000914 0.000914
103103. 2.13604 0.00121(27) 14093083. 0.000914 0.000914
103114. 2.13626 0.00131(30) 11290365. 0.000914 0.000914
103124. 2.13647 0.00126(28) 12359883. 0.000913 0.000913
103134. 2.13668 0.00126(27) 13450568. 0.000913 0.000913
103145. 2.13691 0.00148(30) 10799147. 0.000913 0.000913
103155. 2.13711 0.0020(4) 7603491. 0.00091 0.00091
103165. 2.13732 0.00154(29) 11933731. 0.000913 0.000913
103176. 2.13755 0.00148(30) 11150406. 0.000913 0.000913
103186. 2.13776 0.00151(31) 10492822. 0.000913 0.000913
103196. 2.13796 0.00128(27) 13504607. 0.000913 0.000913
103207. 2.13819 0.00117(28) 12900528. 0.000913 0.000913
103217. 2.13840 0.00114(27) 13710121. 0.000913 0.000913
103227. 2.13861 0.00105(24) 16729148. 0.000913 0.000913
103238. 2.13883 0.00119(28) 13033162. 0.000913 0.000913
103248. 2.13904 0.00120(27) 13228543. 0.000913 0.000913
103258. 2.13925 0.00108(25) 15458646. 0.000913 0.000913
103269. 2.13948 0.00098(24) 16983236. 0.000913 0.000913
103279. 2.13968 0.00120(28) 12821085. 0.000913 0.000913
103289. 2.13989 0.00092(24) 17662076. 0.000913 0.000913
103299. 2.14010 0.00088(21) 22231218. 0.000913 0.000913
103310. 2.14033 0.00122(28) 12716358. 0.000913 0.000913
103320. 2.14053 0.00100(24) 17381438. 0.000913 0.000913
103331. 2.14076 0.00098(25) 16506906. 0.000913 0.000913
103341. 2.14097 0.00098(25) 15768196. 0.000912 0.000912
103351. 2.14118 0.00104(26) 14992366. 0.000912 0.000912
103361. 2.14138 0.00067(18) 29224296. 0.000912 0.000912
103372. 2.14161 0.00082(22) 19899344. 0.000912 0.000912
103382. 2.14182 0.00070(19) 27884980. 0.000912 0.000912
103393. 2.14205 0.00095(24) 17958142. 0.000912 0.000912
103403. 2.14225 0.00125(28) 13139433. 0.000912 0.000912
103413. 2.14246 0.00117(25) 15496945. 0.000912 0.000912
103424. 2.14269 0.00132(29) 12026195. 0.000912 0.000912
103434. 2.14290 0.00117(27) 13780295. 0.000912 0.000912
103444. 2.14310 0.00093(23) 18909946. 0.000912 0.000912
103455. 2.14333 0.00100(25) 16080199. 0.000912 0.000912
103465. 2.14354 0.00113(27) 13722934. 0.000912 0.000912
103475. 2.14375 0.00113(25) 15822419. 0.000912 0.000912
103486. 2.14397 0.00121(28) 12992917. 0.000912 0.000912
103496. 2.14418 0.00090(24) 17905668. 0.000912 0.000912
103506. 2.14439 0.00092(23) 19185886. 0.000912 0.000912
103517. 2.14462 0.00107(26) 15051045. 0.000911 0.000911
103527. 2.14482 0.00109(27) 13919786. 0.000911 0.000911
103537. 2.14503 0.00079(20) 24235450. 0.000911 0.000911
103548. 2.14526 0.00111(26) 14733110. 0.000911 0.000911
103558. 2.14547 0.00095(24) 17868640. 0.000911 0.000911
103568. 2.14567 0.00091(22) 20628670. 0.000911 0.000911
103579. 2.14590 0.00123(28) 12699709. 0.000911 0.000911
103589. 2.14611 0.00092(23) 18925520. 0.000911 0.000911
103600. 2.14634 0.00090(23) 19195038. 0.000911 0.000911
103610. 2.14654 0.00108(26) 15229395. 0.000911 0.000911
103620. 2.14675 0.00123(27) 13307670. 0.000911 0.000911
103631. 2.14698 0.00129(30) 11445613. 0.000911 0.000911
103641. 2.14719 0.00113(28) 12544352. 0.000911 0.000911
103651. 2.14739 0.00072(20) 23863890. 0.000911 0.000911
103662. 2.14762 0.00110(27) 14192094. 0.000910 0.000910
103672. 2.14783 0.00119(27) 13340281. 0.000910 0.000910
103682. 2.14804 0.00116(27) 13922204. 0.000910 0.000910
103693. 2.14826 0.00084(23) 19461572. 0.000910 0.000910
103703. 2.14847 0.00074(21) 23037800. 0.000910 0.000910
103714. 2.14870 0.00098(25) 15816416. 0.000910 0.000910
103724. 2.14891 0.00072(21) 22889896. 0.000910 0.000910
103734. 2.14911 0.00049(16) 38354488. 0.000910 0.000910
103745. 2.14934 0.00084(23) 18247528. 0.000910 0.000910
103755. 2.14955 0.00104(26) 14296684. 0.000910 0.000910
103765. 2.14976 0.00106(25) 15915858. 0.000910 0.000910
103776. 2.14998 0.00133(28) 12495764. 0.000910 0.000910
103786. 2.15019 0.00103(23) 18721310. 0.000909 0.000909
103797. 2.15042 0.00100(26) 15004931. 0.000909 0.000909
103807. 2.15063 0.00072(22) 20150720. 0.000909 0.000909
103817. 2.15083 0.00068(21) 22943126. 0.000909 0.000909
103828. 2.15106 0.00082(23) 18635376. 0.000909 0.000909
103838. 2.15127 0.00080(22) 21436218. 0.000909 0.000909
103848. 2.15148 0.00073(21) 22663282. 0.000909 0.000909
103859. 2.15170 0.00066(21) 22103264. 0.000909 0.000909
103869. 2.15191 0.00068(20) 24979486. 0.000909 0.000909
103880. 2.15214 0.00102(25) 16007061. 0.000909 0.000909
103890. 2.15235 0.00118(27) 13229204. 0.000909 0.000909
103900. 2.15255 0.00080(21) 23112856. 0.000908 0.000908
103911. 2.15278 0.00089(25) 15983677. 0.000908 0.000908
103921. 2.15299 0.00071(21) 22565086. 0.000908 0.000908
103932. 2.15322 0.00092(23) 18648524. 0.000908 0.000908
103942. 2.15342 0.00125(28) 12364701. 0.000908 0.000908
103952. 2.15363 0.00109(25) 15449996. 0.000908 0.000908
103963. 2.15386 0.00096(25) 16360589. 0.000908 0.000908
103973. 2.15407 0.00073(21) 22570440. 0.000908 0.000908
103984. 2.15429 0.00094(24) 16988180. 0.000908 0.000908
103994. 2.15450 0.00167(34) 8724408. 0.000908 0.000908
104004. 2.15471 0.00153(32) 10036136. 0.000907 0.000907
104015. 2.15494 0.00085(22) 19787864. 0.000907 0.000907
104025. 2.15514 0.00069(19) 28565422. 0.000907 0.000907
104036. 2.15537 0.00091(23) 18757330. 0.000907 0.000907
104046. 2.15558 0.00098(24) 17151892. 0.000907 0.000907
104056. 2.15579 0.00090(23) 19338580. 0.000907 0.000907
104067. 2.15601 0.00107(26) 14258807. 0.000907 0.000907
104077. 2.15622 0.00091(23) 18559664. 0.000907 0.000907
104088. 2.15645 0.00088(24) 17920692. 0.000907 0.000907
104098. 2.15666 0.00089(23) 18680842. 0.000907 0.000907
104108. 2.15686 0.00102(25) 16445853. 0.000906 0.000906
104119. 2.15709 0.00135(31) 10467696. 0.000906 0.000906
104129. 2.15730 0.00086(22) 20474992. 0.000906 0.000906
104140. 2.15753 0.00097(25) 16014339. 0.000906 0.000906
104150. 2.15773 0.00115(27) 13992643. 0.000906 0.000906
104161. 2.15796 0.00118(28) 12951196. 0.000906 0.000906
104171. 2.15817 0.00111(28) 12929943. 0.000906 0.000906
104181. 2.15838 0.00077(23) 18989886. 0.000906 0.000906
104192. 2.15860 0.00076(24) 17979090. 0.000906 0.000906
104202. 2.15881 0.00092(25) 15983047. 0.000905 0.000905
104213. 2.15904 0.00088(24) 17062138. 0.000905 0.000905
104223. 2.15925 0.00094(25) 16193900. 0.000905 0.000905
104234. 2.15948 0.00081(24) 17052064. 0.000905 0.000905
104244. 2.15968 0.00065(21) 21657808. 0.000905 0.000905
104254. 2.15989 0.00079(22) 19978130. 0.000905 0.000905
104265. 2.16012 0.00089(23) 19038232. 0.000905 0.000905
104275. 2.16033 0.00093(23) 18410892. 0.000905 0.000905
104286. 2.16055 0.00101(26) 14565315. 0.000904 0.000904
104296. 2.16076 0.00089(23) 19009410. 0.000904 0.000904
104307. 2.16099 0.00101(25) 16237464. 0.000904 0.000904
104317. 2.16120 0.00141(31) 10445931. 0.000904 0.000904
104327. 2.16140 0.00138(29) 11549805. 0.000904 0.000904
104338. 2.16163 0.00106(26) 14913011. 0.000904 0.000904
104348. 2.16184 0.00073(21) 23469936. 0.000904 0.000904
104359. 2.16207 0.00066(20) 25398332. 0.000904 0.000904
104369. 2.16227 0.00070(20) 25158834. 0.000903 0.000903
104380. 2.16250 0.00086(24) 17405768. 0.000903 0.000903
104390. 2.16271 0.00076(22) 21044456. 0.000903 0.000903
104400. 2.16292 0.00076(21) 21772152. 0.000903 0.000903
104411. 2.16314 0.00080(21) 22017344. 0.000903 0.000903
104421. 2.16335 0.00080(22) 20806260. 0.000903 0.000903
104432. 2.16358 0.00053(18) 30271136. 0.000903 0.000903
104442. 2.16379 0.00057(18) 32562820. 0.000903 0.000903
104453. 2.16401 0.00122(29) 11748810. 0.000902 0.000902
104463. 2.16422 0.00126(28) 12904412. 0.000902 0.000902
104474. 2.16445 0.00122(27) 13254280. 0.000902 0.000902
104484. 2.16466 0.00106(26) 14795758. 0.000902 0.000902
104494. 2.16486 0.00118(28) 12521990. 0.000902 0.000902
104505. 2.16509 0.00148(32) 9497267. 0.000902 0.000902
104515. 2.16530 0.00090(23) 18689532. 0.000902 0.000902
104526. 2.16553 0.00069(21) 22875278. 0.000901 0.000901
104536. 2.16573 0.00070(20) 24667018. 0.000901 0.000901
104547. 2.16596 0.00088(25) 16197484. 0.000901 0.000901
104557. 2.16617 0.00089(24) 16955352. 0.000901 0.000901
104568. 2.16640 0.00129(30) 10818824. 0.000901 0.000901
104578. 2.16660 0.00133(30) 11363824. 0.000901 0.000901
104589. 2.16683 0.00104(26) 14715558. 0.000901 0.000901
104599. 2.16704 0.00117(29) 11956068. 0.000900 0.000900
104609. 2.16725 0.00050(16) 37132352. 0.000900 0.000900
104620. 2.16747 0.00077(24) 18093436. 0.000900 0.000900
104630. 2.16768 0.00080(22) 21087160. 0.000900 0.000900
104641. 2.16791 0.00078(21) 22305522. 0.000900 0.000900
104651. 2.16812 0.00097(25) 16155566. 0.000900 0.000900
104662. 2.16834 0.00100(26) 14560232. 0.000900 0.000900
104672. 2.16855 0.00076(20) 23849514. 0.000899 0.000899
104683. 2.16878 0.00099(26) 15032005. 0.000899 0.000899
104693. 2.16899 0.00109(26) 15242892. 0.000899 0.000899
104704. 2.16922 0.00124(28) 12642306. 0.000899 0.000899
104714. 2.16942 0.00101(26) 15377316. 0.000899 0.000899
104725. 2.16965 0.00118(29) 12074963. 0.000899 0.000899
104735. 2.16986 0.00122(28) 12671217. 0.000899 0.000899
104746. 2.17009 0.00116(28) 12947213. 0.000898 0.000898
104756. 2.17029 0.00101(23) 18724796. 0.000898 0.000898
104767. 2.17052 0.00108(26) 14681627. 0.000898 0.000898
104777. 2.17073 0.00101(26) 14837214. 0.000898 0.000898
104788. 2.17096 0.00083(24) 17501220. 0.000898 0.000898
104798. 2.17116 0.00064(20) 24671210. 0.000898 0.000898
104809. 2.17139 0.00100(27) 13469117. 0.000897 0.000897
104819. 2.17160 0.00118(28) 12445346. 0.000897 0.000897
104829. 2.17181 0.00118(26) 14287004. 0.000897 0.000897
104840. 2.17203 0.00136(30) 11474435. 0.000897 0.000897
104850. 2.17224 0.00111(25) 15781379. 0.000897 0.000897
104861. 2.17247 0.00110(28) 13067028. 0.000897 0.000897
104871. 2.17268 0.00092(24) 17157970. 0.000896 0.000896
104882. 2.17290 0.00105(27) 13235130. 0.000896 0.000896
104892. 2.17311 0.00075(21) 23420918. 0.000896 0.000896
104903. 2.17334 0.00088(25) 16561656. 0.000896 0.000896
104913. 2.17355 0.00084(23) 19335596. 0.000896 0.000896
104924. 2.17377 0.00092(25) 16040985. 0.000896 0.000896
104934. 2.17398 0.00069(21) 22772166. 0.000895 0.000895
104945. 2.17421 0.00088(25) 16652431. 0.000895 0.000895
104955. 2.17442 0.00086(23) 18315434. 0.000895 0.000895
104966. 2.17464 0.00076(22) 21570226. 0.000895 0.000895
104976. 2.17485 0.00080(21) 22030926. 0.000895 0.000895
104987. 2.17508 0.00093(25) 16051406. 0.000895 0.000895
104997. 2.17529 0.00096(24) 16797246. 0.000894 0.000894
105008. 2.17552 0.00132(30) 10806397. 0.000894 0.000894
105018. 2.17572 0.00100(25) 15502370. 0.000894 0.000894
105029. 2.17595 0.00068(23) 19513242. 0.000894 0.000894
105039. 2.17616 0.00078(23) 19712906. 0.000894 0.000894
105050. 2.17639 0.00125(30) 10987045. 0.000894 0.000894
105060. 2.17659 0.00083(23) 19041190. 0.000893 0.000893
105071. 2.17682 0.00077(23) 18665028. 0.000893 0.000893
105081. 2.17703 0.00061(19) 28245200. 0.000893 0.000893
105092. 2.17726 0.00092(25) 15906030. 0.000893 0.000893
105102. 2.17746 0.00103(26) 14980914. 0.000893 0.000893
105113. 2.17769 0.00073(21) 22359842. 0.000892 0.000892
105123. 2.17790 0.00091(23) 18605280. 0.000892 0.000892
105134. 2.17813 0.00128(30) 11387265. 0.000892 0.000892
105144. 2.17833 0.00079(22) 20598926. 0.000892 0.000892
105155. 2.17856 0.00090(26) 14277651. 0.000892 0.000892
105165. 2.17877 0.00097(24) 16997182. 0.000892 0.000892
105176. 2.17900 0.00111(25) 15723403. 0.000891 0.000891
105187. 2.17922 0.00104(27) 13930992. 0.000891 0.000891
105197. 2.17943 0.00085(24) 17779544. 0.000891 0.000891
105208. 2.17966 0.00099(26) 14956460. 0.000891 0.000891
105218. 2.17987 0.00105(26) 14273831. 0.000891 0.000891
105229. 2.18010 0.00093(26) 14500097. 0.000890 0.000890
105239. 2.18030 0.00072(22) 20416158. 0.000890 0.000890
105250. 2.18053 0.00104(27) 13407170. 0.000890 0.000890
105260. 2.18074 0.00116(27) 13614057. 0.000890 0.000890
105271. 2.18097 0.00122(30) 10965164. 0.000890 0.000890
105281. 2.18117 0.00083(24) 18096178. 0.000890 0.000890
105292. 2.18140 0.00075(20) 24049056. 0.000889 0.000889
105302. 2.18161 0.00099(24) 17812290. 0.000889 0.000889
105313. 2.18184 0.00109(28) 13034206. 0.000889 0.000889
105323. 2.18204 0.00097(27) 14006003. 0.000889 0.000889
105334. 2.18227 0.00094(27) 13884273. 0.000889 0.000889
105344. 2.18248 0.00076(22) 21574756. 0.000888 0.000888
105355. 2.18271 0.00071(20) 25814804. 0.000888 0.000888
105366. 2.18293 0.00089(25) 16468200. 0.000888 0.000888
105376. 2.18314 0.00075(22) 20123018. 0.000888 0.000888
105387. 2.18337 0.00093(26) 14332369. 0.000888 0.000888
105397. 2.18358 0.00092(24) 16909382. 0.000887 0.000887
105408. 2.18380 0.00106(27) 14098028. 0.000887 0.000887
105418. 2.18401 0.00113(28) 13025396. 0.000887 0.000887
105429. 2.18424 0.00104(29) 12248716. 0.000887 0.000887
105439. 2.18445 0.00049(17) 33961684. 0.000887 0.000887
105450. 2.18468 0.00103(27) 13508961. 0.000886 0.000886
105460. 2.18488 0.00155(33) 9169794. 0.000886 0.000886
105471. 2.18511 0.00090(23) 18528222. 0.000886 0.000886
105482. 2.18534 0.00067(22) 20785888. 0.000886 0.000886
105492. 2.18555 0.00069(21) 23742110. 0.000886 0.000886
105503. 2.18577 0.00101(27) 13601306. 0.000885 0.000885
105513. 2.18598 0.00065(21) 22705040. 0.000885 0.000885
105524. 2.18621 0.00079(25) 16443299. 0.000885 0.000885
105534. 2.18642 0.00107(27) 13528189. 0.000885 0.000885
105545. 2.18664 0.00093(26) 15156269. 0.000885 0.000885
105555. 2.18685 0.00068(21) 22271366. 0.000884 0.000884
105566. 2.18708 0.00087(25) 15738688. 0.000884 0.000884
105576. 2.18729 0.00078(22) 20172824. 0.000884 0.000884
105587. 2.18751 0.00096(25) 15677022. 0.000884 0.000884
105598. 2.18774 0.00120(30) 10934877. 0.000884 0.000884
105608. 2.18795 0.00082(23) 18534430. 0.000883 0.000883
105619. 2.18818 0.00091(26) 14946377. 0.000883 0.000883
105629. 2.18838 0.00085(24) 16838598. 0.000883 0.000883
105640. 2.18861 0.00108(28) 12560309. 0.000883 0.000883
105650. 2.18882 0.00101(25) 16456221. 0.000883 0.000883
105661. 2.18905 0.00110(26) 14273619. 0.000882 0.000882
105672. 2.18928 0.00127(31) 10579697. 0.000882 0.000882
105682. 2.18948 0.00093(24) 16954926. 0.000882 0.000882
105693. 2.18971 0.00094(26) 15125590. 0.000882 0.000882
105703. 2.18992 0.00088(24) 18057928. 0.000882 0.000882
105714. 2.19015 0.00083(24) 17500636. 0.000881 0.000881
105724. 2.19035 0.00072(22) 21476802. 0.000881 0.000881
105735. 2.19058 0.00080(23) 19546996. 0.000881 0.000881
105746. 2.19081 0.00086(24) 17633484. 0.000881 0.000881
105756. 2.19102 0.00120(28) 12439224. 0.000880 0.000880
105767. 2.19124 0.00126(31) 10255920. 0.000880 0.000880
105777. 2.19145 0.00091(23) 18193180. 0.000880 0.000880
105788. 2.19168 0.00148(32) 9651988. 0.000880 0.000880
105798. 2.19189 0.00133(29) 11567967. 0.000880 0.000880
105809. 2.19212 0.00083(22) 20357012. 0.000879 0.000879
105820. 2.19234 0.00082(24) 17694606. 0.000879 0.000879
105830. 2.19255 0.00078(22) 20526828. 0.000879 0.000879
105841. 2.19278 0.00090(26) 14692943. 0.000879 0.000879
105851. 2.19299 0.00061(20) 25176348. 0.000879 0.000879
105862. 2.19321 0.00053(17) 33664460. 0.000878 0.000878
105873. 2.19344 0.00095(26) 14636779. 0.000878 0.000878
105883. 2.19365 0.00104(26) 14262122. 0.000878 0.000878
105894. 2.19388 0.00079(24) 16907564. 0.000878 0.000878
105904. 2.19408 0.00066(22) 20300450. 0.000877 0.000877
105915. 2.19431 0.00083(25) 15413005. 0.000877 0.000877
105925. 2.19452 0.00069(21) 21734770. 0.000877 0.000877
105936. 2.19475 0.00077(22) 21618252. 0.000877 0.000877
105947. 2.19497 0.00114(29) 11834591. 0.000877 0.000877
105957. 2.19518 0.00087(23) 18298208. 0.000876 0.000876
105968. 2.19541 0.00072(20) 25988438. 0.000876 0.000876
105979. 2.19564 0.00070(21) 22803840. 0.000876 0.000876
105989. 2.19585 0.00061(19) 27614072. 0.000876 0.000876
106000. 2.19607 0.00137(32) 9968996. 0.000875 0.000875
106010. 2.19628 0.00148(31) 10415415. 0.000875 0.000875
106021. 2.19651 0.00105(25) 15746094. 0.000875 0.000875
106032. 2.19674 0.00095(25) 15480329. 0.000875 0.000875
106042. 2.19694 0.00121(27) 13262574. 0.000875 0.000875
106053. 2.19717 0.00140(31) 10526768. 0.000874 0.000874
106063. 2.19738 0.00090(23) 19050614. 0.000874 0.000874
106074. 2.19761 0.00110(27) 13774712. 0.000874 0.000874
106085. 2.19783 0.00121(30) 11174688. 0.000874 0.000874
106095. 2.19804 0.00106(27) 13812572. 0.000873 0.000873
106106. 2.19827 0.00103(26) 14719712. 0.000873 0.000873
106116. 2.19848 0.00098(24) 16916196. 0.000873 0.000873
106127. 2.19871 0.00080(22) 21277904. 0.000873 0.000873
106138. 2.19893 0.00123(30) 11159972. 0.000873 0.000873
106148. 2.19914 0.00132(30) 11015435. 0.000872 0.000872
106159. 2.19937 0.00089(24) 17819406. 0.000872 0.000872
106169. 2.19958 0.00108(27) 14007502. 0.000872 0.000872
106180. 2.19980 0.00113(29) 12276872. 0.000872 0.000872
106191. 2.20003 0.00100(28) 13201096. 0.000871 0.000871
106201. 2.20024 0.00100(26) 14980167. 0.000871 0.000871
106212. 2.20047 0.00085(24) 17916824. 0.000871 0.000871
106223. 2.20069 0.00098(26) 14900749. 0.000871 0.000871
106233. 2.20090 0.00121(28) 13162651. 0.000870 0.000870
106244. 2.20113 0.00110(26) 15117129. 0.000870 0.000870
106254. 2.20134 0.00117(27) 13462232. 0.000870 0.000870
106265. 2.20157 0.00107(26) 14816678. 0.000870 0.000870
106276. 2.20179 0.00121(31) 10370890. 0.000870 0.000870
106286. 2.20200 0.00049(17) 34305832. 0.000869 0.000869
106297. 2.20223 0.00085(24) 16998592. 0.000869 0.000869
106308. 2.20246 0.00125(31) 10327692. 0.000869 0.000869
106318. 2.20266 0.00075(22) 20171088. 0.000869 0.000869
106329. 2.20289 0.00082(26) 15375445. 0.000868 0.000868
106339. 2.20310 0.00096(26) 14833928. 0.000868 0.000868
106350. 2.20333 0.00094(25) 15495070. 0.000868 0.000868
106361. 2.20355 0.00081(23) 18618288. 0.000868 0.000868
106371. 2.20376 0.00109(28) 12512580. 0.000867 0.000867
106382. 2.20399 0.00097(25) 15458759. 0.000867 0.000867
106393. 2.20422 0.00128(30) 11079771. 0.000867 0.000867
106403. 2.20442 0.00120(27) 13391580. 0.000867 0.000867
106414. 2.20465 0.00156(33) 9252500. 0.000867 0.000867
106425. 2.20488 0.00132(30) 10805876. 0.000866 0.000866
106435. 2.20509 0.00098(25) 16344464. 0.000866 0.000866
106446. 2.20532 0.00122(28) 13039440. 0.000866 0.000866
106457. 2.20554 0.00157(33) 8942759. 0.000866 0.000866
106467. 2.20575 0.00124(29) 11551610. 0.000865 0.000865
106478. 2.20598 0.00102(26) 14887478. 0.000865 0.000865
106489. 2.20621 0.00148(32) 9660212. 0.000865 0.000865
106499. 2.20641 0.00140(31) 10641234. 0.000865 0.000865
106510. 2.20664 0.00120(30) 11489823. 0.000864 0.000864
106520. 2.20685 0.00087(23) 18844350. 0.000864 0.000864
106531. 2.20708 0.00083(24) 17818684. 0.000864 0.000864
106542. 2.20731 0.00094(27) 13915162. 0.000864 0.000864
106552. 2.20751 0.00102(28) 13145184. 0.000864 0.000864
106563. 2.20774 0.00072(23) 19659894. 0.000863 0.000863
106574. 2.20797 0.00089(26) 15312556. 0.000863 0.000863
106584. 2.20818 0.00104(26) 15002258. 0.000863 0.000863
106595. 2.20840 0.00111(28) 12830370. 0.000863 0.000863
106606. 2.20863 0.00106(29) 12116566. 0.000862 0.000862
106616. 2.20884 0.00103(26) 14685955. 0.000862 0.000862
106627. 2.20907 0.00097(25) 15693740. 0.000862 0.000862
106638. 2.20930 0.00124(30) 11288491. 0.000862 0.000862
106648. 2.20950 0.00142(31) 10201650. 0.000861 0.000861
106659. 2.20973 0.00105(26) 14913953. 0.000861 0.000861
106670. 2.20996 0.00124(30) 11264043. 0.000861 0.000861
106680. 2.21017 0.00103(25) 15696661. 0.000861 0.000861
106691. 2.21039 0.00111(28) 12543961. 0.000860 0.000860
106702. 2.21062 0.00118(32) 10053486. 0.000860 0.000860
106712. 2.21083 0.00104(26) 14420690. 0.000860 0.000860
106723. 2.21106 0.00128(29) 11759281. 0.000860 0.000860
106734. 2.21128 0.00151(33) 9211977. 0.000860 0.000860
106744. 2.21149 0.00118(27) 13520658. 0.000859 0.000859
106755. 2.21172 0.00091(25) 16240891. 0.000859 0.000859
106766. 2.21195 0.00082(24) 16728082. 0.000859 0.000859
106776. 2.21215 0.00085(25) 15664808. 0.000859 0.000859
106787. 2.21238 0.00073(22) 20752354. 0.000858 0.000858
106798. 2.21261 0.00110(28) 13033449. 0.000858 0.000858
106809. 2.21284 0.00086(24) 16960046. 0.000858 0.000858
106819. 2.21305 0.00077(23) 19244170. 0.000858 0.000858
106830. 2.21327 0.00104(27) 13357214. 0.000857 0.000857
106841. 2.21350 0.00105(27) 13522978. 0.000857 0.000857
106851. 2.21371 0.00084(23) 18855696. 0.000857 0.000857
106862. 2.21394 0.00064(20) 24246386. 0.000857 0.000857
106873. 2.21416 0.00075(23) 19345864. 0.000857 0.000857
106883. 2.21437 0.00106(26) 14499021. 0.000856 0.000856
106894. 2.21460 0.00115(28) 13128851. 0.000856 0.000856
106905. 2.21483 0.00108(28) 12590121. 0.000856 0.000856
106915. 2.21504 0.00074(23) 19359260. 0.000856 0.000856
106926. 2.21526 0.00058(21) 22092902. 0.000855 0.000855
106937. 2.21549 0.00060(21) 23032908. 0.000855 0.000855
106947. 2.21570 0.00085(23) 18456234. 0.000855 0.000855
106958. 2.21593 0.00097(25) 16408670. 0.000855 0.000855
106969. 2.21615 0.00078(24) 17932724. 0.000854 0.000854
106980. 2.21638 0.00033(15) 44345236. 0.000854 0.000854
106990. 2.21659 0.00050(18) 30828768. 0.000854 0.000854
107001. 2.21682 0.00081(24) 17910902. 0.000854 0.000854
107012. 2.21705 0.00094(27) 14019524. 0.000854 0.000854
107022. 2.21725 0.00054(18) 32291580. 0.000853 0.000853
107033. 2.21748 0.00047(16) 36764584. 0.000853 0.000853
107044. 2.21771 0.00082(24) 17358078. 0.000853 0.000853
107054. 2.21792 0.00095(25) 16488990. 0.000853 0.000853
107065. 2.21814 0.00070(21) 23378434. 0.000852 0.000852
107076. 2.21837 0.00088(25) 16224277. 0.000852 0.000852
107087. 2.21860 0.00122(30) 11393941. 0.000852 0.000852
107097. 2.21881 0.00094(25) 16570680. 0.000852 0.000852
107108. 2.21904 0.00086(25) 16247221. 0.000851 0.000851
107119. 2.21926 0.00122(31) 10407642. 0.000851 0.000851
107129. 2.21947 0.00100(26) 14773500. 0.000851 0.000851
107140. 2.21970 0.00086(24) 17576778. 0.000851 0.000851
107151. 2.21993 0.00077(22) 21532274. 0.000851 0.000851
107162. 2.22015 0.00097(26) 14666512. 0.000850 0.000850
107172. 2.22036 0.00088(24) 17021950. 0.000850 0.000850
107183. 2.22059 0.00089(25) 15686911. 0.000850 0.000850
107194. 2.22082 0.00132(33) 9279640. 0.000850 0.000850
107204. 2.22102 0.00111(28) 12960979. 0.000849 0.000849
107215. 2.22125 0.00084(23) 18813496. 0.000849 0.000849
107226. 2.22148 0.00102(26) 15000689. 0.000849 0.000849
107237. 2.22171 0.00122(30) 11348430. 0.000849 0.000849
107247. 2.22192 0.00106(26) 14294792. 0.000849 0.000849
107258. 2.22214 0.00080(23) 19337210. 0.000848 0.000848
107269. 2.22237 0.00050(17) 33876372. 0.000848 0.000848
107280. 2.22260 0.00081(25) 16326186. 0.000848 0.000848
107290. 2.22281 0.00092(26) 15209612. 0.000848 0.000848
107301. 2.22303 0.00070(22) 21306230. 0.000847 0.000847
107312. 2.22326 0.00073(23) 19607582. 0.000847 0.000847
107323. 2.22349 0.00108(29) 11714525. 0.000847 0.000847
107333. 2.22370 0.00126(30) 11307969. 0.000847 0.000847
107344. 2.22393 0.00137(31) 10409564. 0.000847 0.000847
107355. 2.22415 0.00090(24) 16959608. 0.000846 0.000846
107365. 2.22436 0.00060(20) 24560370. 0.000846 0.000846
107376. 2.22459 0.00070(22) 21453232. 0.000846 0.000846
107387. 2.22482 0.00083(23) 19499038. 0.000846 0.000846
107398. 2.22505 0.00102(27) 13467455. 0.000846 0.000846
107408. 2.22525 0.00098(26) 14459957. 0.000845 0.000845
107419. 2.22548 0.00071(22) 21339422. 0.000845 0.000845
107430. 2.22571 0.00072(22) 20260304. 0.000845 0.000845
107441. 2.22594 0.00099(28) 12535788. 0.000845 0.000845
107451. 2.22614 0.00090(26) 14556785. 0.000844 0.000844
107462. 2.22637 0.00110(29) 11936936. 0.000844 0.000844
107473. 2.22660 0.00123(29) 12248449. 0.000844 0.000844
107484. 2.22683 0.00141(31) 10118822. 0.000844 0.000844
107494. 2.22703 0.00108(27) 13404391. 0.000844 0.000844
107505. 2.22726 0.00090(26) 15045820. 0.000843 0.000843
107516. 2.22749 0.00108(28) 12944934. 0.000843 0.000843
107527. 2.22772 0.00105(28) 13129299. 0.000843 0.000843
107537. 2.22793 0.00085(25) 16170099. 0.000843 0.000843
107548. 2.22815 0.00078(23) 19149558. 0.000843 0.000843
107559. 2.22838 0.00100(26) 14580476. 0.000842 0.000842
107570. 2.22861 0.00122(31) 10280541. 0.000842 0.000842
107580. 2.22882 0.00077(23) 18731192. 0.000842 0.000842
107591. 2.22904 0.00087(25) 16026373. 0.000842 0.000842
107602. 2.22927 0.00078(22) 19813188. 0.000842 0.000842
107613. 2.22950 0.00067(21) 21729742. 0.000841 0.000841
107623. 2.22971 0.00085(24) 17171894. 0.000841 0.000841
107634. 2.22994 0.00097(26) 15077825. 0.000841 0.000841
107645. 2.23016 0.00066(21) 22911960. 0.000841 0.000841
107656. 2.23039 0.00061(20) 25877256. 0.000841 0.000841
107667. 2.23062 0.00111(30) 11262834. 0.000840 0.000840
107677. 2.23083 0.00096(25) 15867062. 0.000840 0.000840
107688. 2.23106 0.00101(26) 15100545. 0.000840 0.000840
107699. 2.23128 0.00103(27) 13865430. 0.000840 0.000840
107710. 2.23151 0.00108(29) 11887892. 0.000840 0.000840
107720. 2.23172 0.00098(25) 16232469. 0.000839 0.000839
107731. 2.23195 0.00103(25) 16204003. 0.000839 0.000839
107742. 2.23217 0.00104(27) 13660461. 0.000839 0.000839
107753. 2.23240 0.00073(22) 19910864. 0.000839 0.000839
107764. 2.23263 0.00077(23) 18944820. 0.000839 0.000839
107774. 2.23284 0.00099(25) 15932819. 0.000838 0.000838
107785. 2.23307 0.00097(25) 15945329. 0.000838 0.000838
107796. 2.23329 0.00094(25) 16243643. 0.000838 0.000838
107807. 2.23352 0.00136(32) 9567089. 0.000838 0.000838
107817. 2.23373 0.00123(31) 10194224. 0.000838 0.000838
107828. 2.23396 0.00063(20) 24215628. 0.000838 0.000838
107839. 2.23418 0.00081(22) 20314764. 0.000837 0.000837
107850. 2.23441 0.0017(4) 6699152. 0.00084 0.00084
107860. 2.23462 0.00118(30) 11135145. 0.000837 0.000837
107871. 2.23485 0.00086(25) 16531716. 0.000837 0.000837
107882. 2.23508 0.00098(26) 14259217. 0.000837 0.000837
107893. 2.23530 0.00107(26) 14522260. 0.000836 0.000836
107904. 2.23553 0.00137(31) 10541577. 0.000836 0.000836
107915. 2.23576 0.00141(33) 9114675. 0.000836 0.000836
107925. 2.23597 0.00129(30) 11348844. 0.000836 0.000836
107936. 2.23619 0.00123(30) 11475158. 0.000836 0.000836
107947. 2.23642 0.00110(29) 12155333. 0.000836 0.000836
107958. 2.23665 0.00099(27) 13661480. 0.000835 0.000835
107968. 2.23686 0.00097(26) 14679504. 0.000835 0.000835
107979. 2.23709 0.00113(29) 12188896. 0.000835 0.000835
107990. 2.23731 0.00072(21) 23200368. 0.000835 0.000835
108001. 2.23754 0.00062(20) 24520926. 0.000835 0.000835
108012. 2.23777 0.00108(29) 11898603. 0.000834 0.000834
108022. 2.23798 0.00091(24) 18094040. 0.000834 0.000834
108033. 2.23820 0.00110(26) 14314550. 0.000834 0.000834
108044. 2.23843 0.00112(27) 13712063. 0.000834 0.000834
108055. 2.23866 0.00074(23) 19360920. 0.000834 0.000834
108066. 2.23889 0.00079(25) 15682708. 0.000834 0.000834
108077. 2.23912 0.00081(25) 15713449. 0.000833 0.000833
108087. 2.23932 0.00097(25) 15930480. 0.000833 0.000833
108098. 2.23955 0.00138(31) 10727854. 0.000833 0.000833
108109. 2.23978 0.00143(32) 10046998. 0.000833 0.000833
108120. 2.24001 0.00094(25) 15969621. 0.000833 0.000833
108131. 2.24024 0.00114(31) 10113113. 0.000833 0.000833
108141. 2.24044 0.00095(27) 13354873. 0.000833 0.000833
108152. 2.24067 0.00061(20) 25354874. 0.000832 0.000832
108163. 2.24090 0.00089(25) 15439860. 0.000832 0.000832
108174. 2.24113 0.00075(23) 18492442. 0.000832 0.000832
108185. 2.24135 0.00062(22) 20890558. 0.000832 0.000832
108195. 2.24156 0.00065(21) 23300840. 0.000832 0.000832
108206. 2.24179 0.00081(23) 18468480. 0.000832 0.000832
108217. 2.24202 0.00095(27) 14125262. 0.000831 0.000831
108228. 2.24225 0.00082(24) 17465530. 0.000831 0.000831
108239. 2.24247 0.00084(25) 16276695. 0.000831 0.000831
108250. 2.24270 0.00109(29) 11651186. 0.000831 0.000831
108260. 2.24291 0.00131(31) 10285963. 0.000831 0.000831
108271. 2.24314 0.00100(24) 16844188. 0.000831 0.000831
108282. 2.24337 0.00108(26) 14588665. 0.000831 0.000831
108293. 2.24359 0.00129(31) 10294771. 0.000830 0.000830
108304. 2.24382 0.00071(21) 22735996. 0.000830 0.000830
108315. 2.24405 0.00100(28) 12339791. 0.000830 0.000830
108325. 2.24426 0.00134(33) 9255768. 0.000830 0.000830
108336. 2.24448 0.00099(28) 12695582. 0.000830 0.000830
108347. 2.24471 0.00054(18) 31832984. 0.000830 0.000830
108358. 2.24494 0.00104(27) 13425336. 0.000830 0.000830
108369. 2.24517 0.00093(25) 15626177. 0.000830 0.000830
108380. 2.24540 0.00069(23) 18966854. 0.000829 0.000829
108390. 2.24560 0.00077(24) 17349436. 0.000829 0.000829
108401. 2.24583 0.00091(26) 15143115. 0.000829 0.000829
108412. 2.24606 0.00071(21) 21797988. 0.000829 0.000829
108423. 2.24629 0.00101(27) 13750764. 0.000829 0.000829
108434. 2.24652 0.00084(26) 15014340. 0.000829 0.000829
108445. 2.24674 0.00050(19) 26950662. 0.000829 0.000829
108455. 2.24695 0.00082(24) 17233812. 0.000829 0.000829
108466. 2.24718 0.00075(23) 19246270. 0.000828 0.000828
108477. 2.24741 0.00079(25) 16460662. 0.000828 0.000828
108488. 2.24763 0.00081(25) 16282232. 0.000828 0.000828
108499. 2.24786 0.00094(26) 15018141. 0.000828 0.000828
108510. 2.24809 0.00100(26) 14538208. 0.000828 0.000828
108521. 2.24832 0.00128(31) 10565459. 0.000828 0.000828
108531. 2.24853 0.00115(28) 12926888. 0.000828 0.000828
108542. 2.24875 0.00100(28) 12677049. 0.000828 0.000828
108553. 2.24898 0.00106(29) 12147686. 0.000828 0.000828
108564. 2.24921 0.00106(28) 12565081. 0.000827 0.000827
108575. 2.24944 0.00103(27) 13284740. 0.000827 0.000827
108586. 2.24967 0.00109(29) 11980724. 0.000827 0.000827
108597. 2.24989 0.00105(28) 12314211. 0.000827 0.000827
108607. 2.25010 0.00145(32) 9787712. 0.000827 0.000827
108618. 2.25033 0.00125(29) 11957806. 0.000827 0.000827
108629. 2.25056 0.00091(25) 15723928. 0.000827 0.000827
108640. 2.25078 0.00083(25) 16252947. 0.000827 0.000827
108651. 2.25101 0.00063(21) 22824452. 0.000827 0.000827
108662. 2.25124 0.00067(21) 21692836. 0.000827 0.000827
108673. 2.25147 0.00098(27) 13758689. 0.000827 0.000827
108684. 2.25170 0.00085(26) 14635837. 0.000826 0.000826
108694. 2.25190 0.00069(22) 20265942. 0.000826 0.000826
108705. 2.25213 0.00117(31) 10614155. 0.000826 0.000826
108716. 2.25236 0.00123(30) 11415799. 0.000826 0.000826
108727. 2.25259 0.00112(29) 12302908. 0.000826 0.000826
108738. 2.25282 0.00075(23) 18918114. 0.000826 0.000826
108749. 2.25304 0.00078(22) 21008736. 0.000826 0.000826
108760. 2.25327 0.00101(26) 14420306. 0.000826 0.000826
108771. 2.25350 0.00111(30) 10873567. 0.000826 0.000826
108781. 2.25371 0.00088(25) 16296642. 0.000826 0.000826
108792. 2.25393 0.00099(26) 14578301. 0.000826 0.000826
108803. 2.25416 0.00120(28) 12382252. 0.000826 0.000826
108814. 2.25439 0.00130(31) 10261684. 0.000826 0.000826
108825. 2.25462 0.00080(24) 17999210. 0.000825 0.000825
108836. 2.25485 0.00085(25) 16140768. 0.000825 0.000825
108847. 2.25507 0.00088(25) 16327755. 0.000825 0.000825
108858. 2.25530 0.00136(32) 9619391. 0.000825 0.000825
108869. 2.25553 0.00141(35) 8300653. 0.000825 0.000825
108879. 2.25574 0.00111(30) 11419162. 0.000825 0.000825
108890. 2.25597 0.00079(24) 17519958. 0.000825 0.000825
108901. 2.25619 0.00078(24) 16852988. 0.000825 0.000825
108912. 2.25642 0.00084(25) 15781070. 0.000825 0.000825
108923. 2.25665 0.00082(25) 16190794. 0.000825 0.000825
108934. 2.25688 0.00075(24) 17534188. 0.000825 0.000825
108945. 2.25711 0.00068(22) 19880338. 0.000825 0.000825
108956. 2.25733 0.00089(28) 13185691. 0.000825 0.000825
108966. 2.25754 0.00080(23) 18897824. 0.000825 0.000825
108977. 2.25777 0.00137(32) 9862779. 0.000825 0.000825
108988. 2.25800 0.00107(28) 12804315. 0.000825 0.000825
108999. 2.25822 0.00076(23) 19207934. 0.000825 0.000825
109010. 2.25845 0.00119(28) 12465194. 0.000825 0.000825
109021. 2.25868 0.00126(30) 11484751. 0.000825 0.000825
109032. 2.25891 0.00108(30) 11422022. 0.000825 0.000825
109043. 2.25914 0.00064(21) 21821864. 0.000825 0.000825
109054. 2.25936 0.00081(25) 16199506. 0.000825 0.000825
109065. 2.25959 0.00085(27) 13992955. 0.000825 0.000825
109076. 2.25982 0.00066(24) 17656194. 0.000825 0.000825
109086. 2.26003 0.00075(24) 17360594. 0.000825 0.000825
109097. 2.26026 0.00073(23) 19394344. 0.000825 0.000825
109108. 2.26048 0.00090(27) 13871016. 0.000824 0.000824
109119. 2.26071 0.00092(27) 13556405. 0.000824 0.000824
109130. 2.26094 0.00095(26) 14596398. 0.000824 0.000824
109141. 2.26117 0.00107(29) 12147860. 0.000824 0.000824
109152. 2.26139 0.00090(26) 15061579. 0.000824 0.000852
109163. 2.26162 0.00105(28) 13190159. 0.000824 0.000853
109174. 2.26185 0.00127(32) 9652803. 0.000824 0.000853
109185. 2.26208 0.00097(28) 12794991. 0.000824 0.000854
109196. 2.26231 0.00069(21) 21726882. 0.000824 0.000855
109207. 2.26253 0.00069(22) 20205608. 0.000824 0.000855
109217. 2.26274 0.00079(24) 16743922. 0.000824 0.000856
109228. 2.26297 0.00095(26) 14285642. 0.000824 0.000857
109239. 2.26320 0.00091(26) 14816260. 0.000824 0.000858
109250. 2.26343 0.00074(23) 19704084. 0.000824 0.000858
109261. 2.26365 0.00106(29) 11927686. 0.000824 0.000859
109272. 2.26388 0.00079(24) 16871910. 0.000825 0.000860
109283. 2.26411 0.00073(23) 19014366. 0.000825 0.000861
109294. 2.26434 0.00094(26) 14381654. 0.000825 0.000862
109305. 2.26457 0.00083(24) 17519712. 0.000825 0.000863
109316. 2.26479 0.00098(25) 15500159. 0.000825 0.000864
109327. 2.26502 0.00120(30) 11296242. 0.000825 0.000865
109338. 2.26525 0.00096(26) 14390439. 0.000825 0.000866
109349. 2.26548 0.00107(28) 12385152. 0.000825 0.000867
109360. 2.26571 0.00070(23) 19284144. 0.000825 0.000868
109371. 2.26593 0.00061(23) 19059738. 0.000825 0.000870
109381. 2.26614 0.00059(22) 21359308. 0.000825 0.000871
109392. 2.26637 0.00032(14) 51526812. 0.000825 0.000872
109403. 2.26660 0.00071(24) 17839738. 0.000825 0.000873
109414. 2.26682 0.00067(21) 21975666. 0.000825 0.000875
109425. 2.26705 0.00055(18) 29359416. 0.000825 0.000876
109436. 2.26728 0.00065(22) 20306684. 0.000825 0.000878
109447. 2.26751 0.00077(23) 18946424. 0.000825 0.000880
109458. 2.26774 0.00088(25) 16522988. 0.000825 0.000881
109469. 2.26796 0.00087(25) 15410980. 0.000825 0.000883
109480. 2.26819 0.00089(24) 17523860. 0.000825 0.000885
109491. 2.26842 0.00103(27) 14224379. 0.000825 0.000887
109502. 2.26865 0.00081(24) 17961112. 0.000825 0.000889
109513. 2.26888 0.00094(26) 15207350. 0.000825 0.000892
109524. 2.26910 0.00131(32) 9759211. 0.000826 0.000894
109535. 2.26933 0.00109(30) 11411216. 0.000826 0.000896
109546. 2.26956 0.00092(27) 13971185. 0.000826 0.000899
109557. 2.26979 0.00099(26) 14559669. 0.000826 0.000902
109568. 2.27002 0.00110(30) 10890473. 0.000826 0.000904
109578. 2.27022 0.00071(23) 18164414. 0.000826 0.000907
109589. 2.27045 0.00082(24) 17179528. 0.000826 0.000910
109600. 2.27068 0.00080(23) 18962370. 0.000826 0.000914
109611. 2.27091 0.00084(25) 15584202. 0.000826 0.000917
109622. 2.27114 0.00088(27) 13914467. 0.000826 0.000921
109633. 2.27136 0.00074(24) 17889544. 0.000826 0.000925
109644. 2.27159 0.00092(28) 12654412. 0.000826 0.000929
109655. 2.27182 0.00071(23) 18385904. 0.000827 0.000933
109666. 2.27205 0.00085(27) 13943269. 0.000827 0.000938
109677. 2.27227 0.00070(23) 19506474. 0.000827 0.000943
109688. 2.27250 0.00088(24) 17036564. 0.000827 0.000949
109699. 2.27273 0.00103(27) 13496173. 0.000827 0.000954
109710. 2.27296 0.00089(25) 15952090. 0.000827 0.000960
109721. 2.27319 0.00097(27) 13703471. 0.000827 0.000967
109732. 2.27341 0.00104(29) 12148605. 0.000827 0.000974
109743. 2.27364 0.00117(31) 10586499. 0.000827 0.000982
109754. 2.27387 0.00084(25) 15943092. 0.000827 0.000990
109765. 2.27410 0.00077(23) 19404368. 0.000828 0.000999
109776. 2.27433 0.00121(30) 11411360. 0.000828 0.001008
109787. 2.27455 0.00139(34) 8805193. 0.000828 0.001019
109798. 2.27478 0.00114(31) 10560352. 0.000828 0.001030
109809. 2.27501 0.00136(33) 9466351. 0.000828 0.001042
109820. 2.27524 0.00124(30) 11201737. 0.000828 0.001056
109831. 2.27547 0.00079(24) 17023384. 0.000828 0.001070
109842. 2.27569 0.00055(20) 24086086. 0.000829 0.001086
109853. 2.27592 0.00102(28) 13039338. 0.000829 0.001104
109864. 2.27615 0.00151(33) 9047995. 0.000829 0.001123
109875. 2.27638 0.00143(32) 9540492. 0.000829 0.001145
109886. 2.27661 0.00116(30) 11022619. 0.000829 0.001169
109897. 2.27683 0.00066(21) 22791772. 0.000829 0.001195
109908. 2.27706 0.00086(25) 15688266. 0.000829 0.001225
109919. 2.27729 0.00133(32) 9616710. 0.000830 0.001259
109930. 2.27752 0.00117(28) 12855273. 0.000830 0.001298
109941. 2.27775 0.00106(27) 13415027. 0.000830 0.001343
109952. 2.27797 0.00108(28) 12841067. 0.000830 0.001396
109963. 2.27820 0.00098(26) 14983033. 0.000830 0.001463
109974. 2.27843 0.00095(28) 13196496. 0.000830 0.001549
109985. 2.27866 0.00122(33) 9411093. 0.000831 0.001665
109996. 2.27889 0.0018(4) 6522845. 0.00083 0.00183
110007. 2.27911 0.0022(4) 6024774. 0.00083 0.00208
110018. 2.27934 0.0021(4) 6197314. 0.00083 0.00244
110029. 2.27957 0.0018(4) 7053062. 0.00083 0.00298
110040. 2.27980 0.0029(5) 4232635. 0.00083 0.00377
110051. 2.28003 0.0044(6) 2601414. 0.00083 0.00489
110062. 2.28025 0.0041(6) 3119132. 0.00083 0.00642
110073. 2.28048 0.0067(7) 1804788. 0.00083 0.00844
110084. 2.28071 0.0090(9) 1356689. 0.00083 0.01097
110095. 2.28094 0.0112(9) 1112651. 0.00083 0.01400
110106. 2.28117 0.0154(11) 801255. 0.00083 0.01743
110117. 2.28139 0.0194(12) 655784. 0.00083 0.02107
110128. 2.28162 0.0228(13) 557294. 0.00083 0.02467
110139. 2.28185 0.0265(15) 466926. 0.00083 0.02790
110150. 2.28208 0.0285(15) 439491. 0.00083 0.03037
110161. 2.28231 0.0277(15) 457417. 0.00083 0.03172
110172. 2.28253 0.0268(15) 472492. 0.00083 0.03171
110183. 2.28276 0.0254(14) 500300. 0.00083 0.03029
110194. 2.28299 0.0215(13) 607514. 0.00083 0.02769
110205. 2.28322 0.0193(12) 669025. 0.00083 0.02431
110216. 2.28345 0.0164(11) 791132. 0.00083 0.02059
110227. 2.28367 0.0128(10) 1011722. 0.00084 0.01688
110238. 2.28390 0.0100(9) 1318845. 0.00084 0.01345
110249. 2.28413 0.0075(7) 1855579. 0.00084 0.01049
110260. 2.28436 0.0064(7) 1995392. 0.00084 0.00805
110271. 2.28458 0.0044(6) 2819490. 0.00084 0.00614
110282. 2.28481 0.0034(5) 3726715. 0.00084 0.00471
110293. 2.28504 0.0030(5) 4421218. 0.00084 0.00367
110304. 2.28527 0.0027(4) 5077101. 0.00084 0.00295
110315. 2.28550 0.0033(5) 3788147. 0.00084 0.00245
110326. 2.28572 0.0023(4) 5601354. 0.00084 0.00211
110337. 2.28595 0.0022(4) 5665937. 0.00084 0.00188
110348. 2.28618 0.0019(4) 6889096. 0.00084 0.00172
110359. 2.28641 0.0016(4) 7682097. 0.00084 0.00160
110370. 2.28664 0.00138(32) 9489399. 0.000838 0.001514
110381. 2.28686 0.00105(27) 13429452. 0.000839 0.001442
110393. 2.28711 0.00095(28) 13204576. 0.000839 0.001383
110404. 2.28734 0.00117(30) 10876501. 0.000839 0.001335
110415. 2.28757 0.00114(30) 10941991. 0.000839 0.001294
110426. 2.28780 0.00077(24) 17762382. 0.000840 0.001258
110437. 2.28803 0.00102(28) 12876961. 0.000840 0.001226
110448. 2.28825 0.00126(32) 9693972. 0.000840 0.001197
110459. 2.28848 0.00086(27) 14154979. 0.000841 0.001172
110470. 2.28871 0.00101(29) 11759791. 0.000841 0.001149
110481. 2.28894 0.00125(33) 9415620. 0.000841 0.001134
110492. 2.28917 0.00108(29) 11772544. 0.000842 0.001116
110503. 2.28939 0.00121(31) 10460429. 0.000842 0.001100
110514. 2.28962 0.00148(35) 8378213. 0.000842 0.001085
110525. 2.28985 0.00141(34) 8842385. 0.000842 0.001071
110536. 2.29008 0.00103(28) 12344460. 0.000843 0.001058
110547. 2.29030 0.00121(32) 9832284. 0.000843 0.001047
110558. 2.29053 0.00089(26) 15018892. 0.000843 0.001037
110569. 2.29076 0.00090(26) 14509742. 0.000844 0.001027
110580. 2.29099 0.00087(25) 15689896. 0.000844 0.001018
110591. 2.29122 0.00084(27) 13774854. 0.000844 0.001010
110602. 2.29144 0.00058(18) 29662366. 0.000845 0.001003
110614. 2.29169 0.00108(28) 12460270. 0.000845 0.000996
110625. 2.29192 0.00105(28) 12699662. 0.000845 0.000989
110636. 2.29215 0.00122(32) 10064104. 0.000846 0.000983
110647. 2.29238 0.00131(32) 10021948. 0.000846 0.000978
110658. 2.29261 0.0015(4) 7761562. 0.00085 0.00097
110669. 2.29283 0.00089(28) 13098478. 0.000847 0.000968
110680. 2.29306 0.00088(26) 14612506. 0.000847 0.000964
110691. 2.29329 0.00107(29) 12136972. 0.000847 0.000960
110702. 2.29352 0.00105(28) 12330431. 0.000848 0.000956
110713. 2.29375 0.00129(33) 9232702. 0.000848 0.000953
110724. 2.29397 0.00103(29) 11948594. 0.000848 0.000950
110735. 2.29420 0.00079(25) 15609464. 0.000849 0.000947
110746. 2.29443 0.00100(29) 12118397. 0.000849 0.000944
110758. 2.29468 0.00130(32) 9754636. 0.000850 0.000941
110769. 2.29491 0.0018(4) 6547035. 0.00085 0.00094
110780. 2.29513 0.00083(26) 15259942. 0.000850 0.000937
110791. 2.29536 0.00043(19) 28873582. 0.000851 0.000935
110802. 2.29559 0.00071(24) 17273076. 0.000851 0.000933
110813. 2.29582 0.00096(28) 12587028. 0.000852 0.000931
110824. 2.29605 0.00105(30) 10800709. 0.000852 0.000929
110835. 2.29627 0.00069(23) 19533146. 0.000852 0.000928
110846. 2.29650 0.00090(27) 13747969. 0.000853 0.000926
110857. 2.29673 0.00087(26) 14865579. 0.000853 0.000925
110868. 2.29696 0.00091(26) 14671288. 0.000853 0.000924
110879. 2.29719 0.00112(31) 10583949. 0.000854 0.000923
110890. 2.29741 0.00048(18) 30697130. 0.000854 0.000922
110902. 2.29766 0.00069(25) 16416548. 0.000855 0.000921
110913. 2.29789 0.00059(20) 25099270. 0.000855 0.000920
110924. 2.29812 0.00063(21) 23142544. 0.000856 0.000920
110935. 2.29835 0.00080(25) 16345216. 0.000856 0.000919
110946. 2.29857 0.00104(29) 11643959. 0.000856 0.000919
110957. 2.29880 0.00116(33) 9421627. 0.000857 0.000918
110968. 2.29903 0.00049(19) 27503946. 0.000857 0.000918
110979. 2.29926 0.00053(21) 22356606. 0.000858 0.000917
110990. 2.29949 0.00092(27) 13546140. 0.000858 0.000917
111001. 2.29971 0.00107(28) 12728603. 0.000859 0.000917
111013. 2.29996 0.00106(30) 10939818. 0.000859 0.000917
111024. 2.30019 0.00122(31) 10123698. 0.000859 0.000917
111035. 2.30042 0.00124(31) 10443408. 0.000860 0.000917
111046. 2.30065 0.00077(23) 18380050. 0.000860 0.000917
111057. 2.30087 0.00094(28) 12333400. 0.000861 0.000918
111068. 2.30110 0.00073(23) 18400790. 0.000861 0.000918
111079. 2.30133 0.00088(27) 13806758. 0.000862 0.000919
111090. 2.30156 0.00078(25) 16303342. 0.000862 0.000919
111101. 2.30179 0.00090(25) 15503116. 0.000863 0.000920
111113. 2.30203 0.00113(30) 11033105. 0.000863 0.000920
111124. 2.30226 0.00105(29) 12044880. 0.000864 0.000921
111135. 2.30249 0.00095(27) 14015459. 0.000864 0.000922
111146. 2.30272 0.00103(28) 12778606. 0.000864 0.000923
111157. 2.30295 0.00111(31) 10216559. 0.000865 0.000924
111168. 2.30317 0.00083(26) 15035624. 0.000865 0.000925
111179. 2.30340 0.00098(27) 13947951. 0.000866 0.000927
111190. 2.30363 0.00109(29) 12155116. 0.000866 0.000928
111201. 2.30386 0.00109(29) 12260393. 0.000867 0.000903
111213. 2.30411 0.00121(31) 10226439. 0.000867 0.000905
111224. 2.30434 0.00152(34) 8512032. 0.000868 0.000908
111235. 2.30456 0.00136(32) 9780496. 0.000868 0.000910
111246. 2.30479 0.00106(28) 12614475. 0.000869 0.000913
111257. 2.30502 0.00133(33) 9444391. 0.000869 0.000916
111268. 2.30525 0.00123(31) 10550938. 0.000870 0.000919
111279. 2.30547 0.00080(24) 17261946. 0.000870 0.000923
111291. 2.30572 0.00084(26) 14861948. 0.000871 0.000927
111302. 2.30595 0.00074(23) 18984306. 0.000871 0.000931
111313. 2.30618 0.00052(21) 23514804. 0.000872 0.000936
111324. 2.30641 0.00051(20) 25407722. 0.000873 0.000940
111335. 2.30664 0.00079(26) 14331120. 0.000873 0.000946
111346. 2.30686 0.00045(18) 32266608. 0.000874 0.000952
111357. 2.30709 0.00058(21) 22754322. 0.000874 0.000958
111368. 2.30732 0.00083(24) 17594342. 0.000875 0.000966
111380. 2.30757 0.00108(30) 11157029. 0.000875 0.000974
111391. 2.30780 0.00065(22) 20163196. 0.000876 0.000983
111402. 2.30802 0.00102(30) 11136393. 0.000876 0.000994
111413. 2.30825 0.00067(22) 20958182. 0.000877 0.001006
111424. 2.30848 0.00108(29) 11812214. 0.000877 0.001021
111435. 2.30871 0.00092(26) 14621149. 0.000878 0.001040
111446. 2.30894 0.00077(23) 18694716. 0.000878 0.001066
111458. 2.30918 0.00117(30) 11329697. 0.000879 0.001102
111469. 2.30941 0.00145(34) 8637966. 0.000880 0.001150
111480. 2.30964 0.0016(4) 7684965. 0.00088 0.00122
111491. 2.30987 0.00148(34) 8818395. 0.000881 0.001318
111502. 2.31010 0.00125(32) 9786523. 0.000881 0.001457
111513. 2.31032 0.0015(4) 7743051. 0.00088 0.00165
111524. 2.31055 0.00137(32) 10008769. 0.000882 0.001918
111536. 2.31080 0.0018(4) 7250968. 0.00088 0.00227
111547. 2.31103 0.0025(5) 4591298. 0.00088 0.00269
111558. 2.31126 0.0029(5) 3919163. 0.00088 0.00319
111569. 2.31149 0.0037(6) 3239162. 0.00088 0.00376
111580. 2.31171 0.0049(6) 2389816. 0.00089 0.00437
111591. 2.31194 0.0046(6) 2772688. 0.00089 0.00501
111603. 2.31219 0.0060(7) 1984612. 0.00089 0.00560
111614. 2.31242 0.0052(6) 2511285. 0.00089 0.00606
111625. 2.31265 0.0054(7) 2269434. 0.00089 0.00635
111636. 2.31287 0.0062(7) 2016707. 0.00089 0.00643
111647. 2.31310 0.0070(8) 1735844. 0.00089 0.00627
111658. 2.31333 0.0044(5) 3323470. 0.00089 0.00588
111670. 2.31358 0.0043(6) 2989725. 0.00089 0.00532
111681. 2.31381 0.0039(5) 3308889. 0.00089 0.00470
111692. 2.31403 0.0036(5) 3546395. 0.00089 0.00407
111703. 2.31426 0.0027(5) 4908984. 0.00089 0.00346
111714. 2.31449 0.0024(5) 4932945. 0.00089 0.00293
111725. 2.31472 0.0016(4) 7994463. 0.00089 0.00245
111737. 2.31497 0.00126(31) 10087724. 0.000894 0.002062
111748. 2.31519 0.0014(4) 8124941. 0.00089 0.00178
111759. 2.31542 0.0018(4) 6076614. 0.00090 0.00156
111770. 2.31565 0.0020(4) 5500012. 0.00090 0.00140
111781. 2.31588 0.00092(25) 16073696. 0.000897 0.001291
111792. 2.31611 0.00092(25) 15817683. 0.000897 0.001209
111804. 2.31636 0.00121(31) 10711506. 0.000898 0.001152
111815. 2.31658 0.00088(26) 15334178. 0.000899 0.001113
111826. 2.31681 0.00079(26) 15376802. 0.000899 0.001085
111837. 2.31704 0.00118(31) 10465849. 0.000900 0.001064
111848. 2.31727 0.00095(26) 14567685. 0.000900 0.001046
111860. 2.31752 0.00103(29) 12191553. 0.000901 0.001032
111871. 2.31774 0.00098(27) 14121811. 0.000902 0.001021
111882. 2.31797 0.00058(19) 27065142. 0.000902 0.001012
111893. 2.31820 0.00065(24) 17215262. 0.000903 0.001004
111904. 2.31843 0.00063(22) 20993670. 0.000904 0.000997
111916. 2.31868 0.00067(22) 19756550. 0.000905 0.000990
111927. 2.31890 0.00087(27) 13638528. 0.000905 0.000985
111938. 2.31913 0.00094(28) 12471365. 0.000906 0.000980
111949. 2.31936 0.00071(24) 17878634. 0.000907 0.000976
111960. 2.31959 0.00108(30) 10864193. 0.000907 0.000972
111972. 2.31984 0.00084(27) 14135896. 0.000908 0.000968
111983. 2.32006 0.00078(24) 17571962. 0.000909 0.000965
111994. 2.32029 0.00090(27) 14006593. 0.000909 0.000963
112005. 2.32052 0.00113(30) 10788948. 0.000910 0.000960
112016. 2.32075 0.00098(26) 14879021. 0.000911 0.000958
112027. 2.32098 0.00086(23) 18653886. 0.000911 0.000956
112039. 2.32123 0.00129(34) 8660527. 0.000912 0.000954
112050. 2.32145 0.00091(28) 13067391. 0.000913 0.000953
112061. 2.32168 0.00138(33) 8937512. 0.000914 0.000952
112072. 2.32191 0.00123(31) 10656263. 0.000914 0.000950
112084. 2.32216 0.00090(28) 13084955. 0.000915 0.000949
112095. 2.32239 0.00076(25) 15504783. 0.000916 0.000949
112106. 2.32261 0.00069(24) 17693180. 0.000916 0.000948
112117. 2.32284 0.00046(18) 32134410. 0.000917 0.000947
112128. 2.32307 0.00051(17) 33375348. 0.000918 0.000946
112140. 2.32332 0.00103(29) 12130756. 0.000919 0.000946
112151. 2.32355 0.00101(29) 11810428. 0.000919 0.000945
112162. 2.32377 0.00075(24) 18103014. 0.000920 0.000945
112173. 2.32400 0.00116(30) 11301288. 0.000921 0.000945
112184. 2.32423 0.00102(26) 15216867. 0.000922 0.000945
112196. 2.32448 0.0019(4) 5933409. 0.00092 0.00094
112207. 2.32471 0.00161(35) 8133028. 0.000923 0.000944
112218. 2.32493 0.00138(34) 8801019. 0.000924 0.000944
112229. 2.32516 0.00095(27) 14140653. 0.000925 0.000944
112241. 2.32541 0.00086(26) 15269325. 0.000925 0.000944
112252. 2.32564 0.00124(33) 9274988. 0.000926 0.000944
112263. 2.32587 0.00082(23) 18298488. 0.000927 0.000945
112274. 2.32610 0.00089(26) 14636621. 0.000928 0.000945
112285. 2.32632 0.00082(24) 17051756. 0.000928 0.000945
112297. 2.32657 0.00079(23) 18203832. 0.000929 0.000945
112308. 2.32680 0.00107(29) 11938429. 0.000930 0.000945
112319. 2.32703 0.0016(4) 7079946. 0.00093 0.00095
112330. 2.32726 0.00147(34) 8505628. 0.000931 0.000946
112342. 2.32750 0.00110(30) 11162092. 0.000932 0.000946
112353. 2.32773 0.00115(31) 10582750. 0.000933 0.000947
112364. 2.32796 0.00110(31) 10179733. 0.000934 0.000947
112375. 2.32819 0.00056(22) 21086190. 0.000935 0.000947
112387. 2.32844 0.00097(29) 11512204. 0.000935 0.000948
112398. 2.32867 0.00126(32) 9698192. 0.000936 0.000948
112409. 2.32889 0.0014(4) 7868157. 0.00094 0.00095
112420. 2.32912 0.00076(25) 16461272. 0.000938 0.000949
112432. 2.32937 0.00096(27) 13569816. 0.000939 0.000950
112443. 2.32960 0.00099(27) 13680851. 0.000939 0.000950
112454. 2.32983 0.00104(29) 11828117. 0.000940 0.000951
112465. 2.33005 0.00126(30) 11218405. 0.000941 0.000951
112477. 2.33030 0.00141(33) 8970651. 0.000942 0.000952
112488. 2.33053 0.00111(30) 11019517. 0.000943 0.000952
112499. 2.33076 0.00085(26) 14444044. 0.000943 0.000953
112510. 2.33099 0.00087(26) 14848945. 0.000944 0.000953
112522. 2.33124 0.0013(4) 7937409. 0.00094 0.00095
112533. 2.33146 0.00095(29) 12082362. 0.000946 0.000954
112544. 2.33169 0.00067(23) 18642040. 0.000947 0.000955
112555. 2.33192 0.00096(28) 12566414. 0.000947 0.000956
112567. 2.33217 0.00099(28) 12605137. 0.000948 0.000956
112578. 2.33240 0.00138(34) 8800366. 0.000949 0.000957
112589. 2.33262 0.00119(31) 10725985. 0.000950 0.000958
112600. 2.33285 0.00086(26) 15220595. 0.000951 0.000958
112612. 2.33310 0.00092(28) 12936631. 0.000952 0.000959
112623. 2.33333 0.00106(28) 13046882. 0.000952 0.000960
112634. 2.33356 0.00134(34) 8779396. 0.000953 0.000960
112645. 2.33378 0.00059(21) 23773428. 0.000954 0.000961
112657. 2.33403 0.00057(20) 24188836. 0.000955 0.000962
112668. 2.33426 0.00080(24) 17035074. 0.000956 0.000962
112679. 2.33449 0.00096(27) 13823222. 0.000957 0.000963
112691. 2.33474 0.00106(31) 10321314. 0.000957 0.000964
112702. 2.33497 0.00089(27) 13254563. 0.000958 0.000964
112713. 2.33519 0.00108(29) 11889500. 0.000959 0.000965
112724. 2.33542 0.00102(30) 11455259. 0.000960 0.000966
112736. 2.33567 0.00085(27) 13371029. 0.000961 0.000967
112747. 2.33590 0.00107(30) 10886794. 0.000962 0.000967
112758. 2.33613 0.00094(26) 14931251. 0.000962 0.000968
112769. 2.33635 0.00128(31) 10485511. 0.000963 0.000969
112781. 2.33660 0.00114(31) 10343947. 0.000964 0.000970
112792. 2.33683 0.00087(27) 14213606. 0.000965 0.000970
112803. 2.33706 0.00091(26) 14347961. 0.000966 0.000971
112815. 2.33731 0.00133(33) 9435488. 0.000967 0.000967
112826. 2.33754 0.00143(34) 8549588. 0.000968 0.000968
112837. 2.33776 0.00114(31) 10120501. 0.000968 0.000968
112848. 2.33799 0.00078(22) 20165596. 0.000969 0.000969
112860. 2.33824 0.00122(31) 10448297. 0.000970 0.000970
112871. 2.33847 0.00107(30) 10903400. 0.000971 0.000971
112882. 2.33870 0.00056(21) 21918238. 0.000972 0.000972
112894. 2.33894 0.00054(20) 26210824. 0.000973 0.000973
112905. 2.33917 0.00130(33) 9436209. 0.000974 0.000974
112916. 2.33940 0.00138(35) 8374590. 0.000975 0.000975
112927. 2.33963 0.00071(22) 20601972. 0.000976 0.000976
112939. 2.33988 0.00093(27) 13735340. 0.000976 0.000976
112950. 2.34011 0.00066(23) 19723158. 0.000977 0.000977
112961. 2.34033 0.00075(24) 16858280. 0.000978 0.000978
112973. 2.34058 0.00089(27) 14044669. 0.000979 0.000979
112984. 2.34081 0.00083(26) 15110600. 0.000980 0.000980
112995. 2.34104 0.00058(20) 26264094. 0.000981 0.000981
113007. 2.34129 0.00106(29) 11687874. 0.000982 0.000982
113018. 2.34151 0.00129(33) 9185352. 0.000983 0.000983
113029. 2.34174 0.00113(29) 11766874. 0.000983 0.000983
113040. 2.34197 0.0016(4) 7964453. 0.00098 0.00098
113052. 2.34222 0.0015(4) 7458429. 0.00099 0.00099
113063. 2.34245 0.00059(22) 21507510. 0.000986 0.000986
113074. 2.34267 0.00092(27) 13264350. 0.000987 0.000987
113086. 2.34292 0.00102(30) 11068341. 0.000988 0.000988
113097. 2.34315 0.00095(30) 10884573. 0.000989 0.000989
113108. 2.34338 0.00084(26) 14692594. 0.000990 0.000990
113120. 2.34363 0.00089(27) 13323037. 0.000991 0.000991
113131. 2.34386 0.00089(27) 13310294. 0.000992 0.000992
113142. 2.34408 0.00143(35) 8219515. 0.000993 0.000993
113154. 2.34433 0.00103(28) 12400978. 0.000993 0.000993
113165. 2.34456 0.00101(27) 13540153. 0.000994 0.000994
113176. 2.34479 0.00090(26) 14291183. 0.000995 0.000995
113188. 2.34504 0.00054(21) 22325012. 0.000996 0.000996
113199. 2.34527 0.00080(26) 14845047. 0.000997 0.000997
113210. 2.34549 0.00082(25) 16507162. 0.000998 0.000998
113222. 2.34574 0.00072(22) 19775694. 0.000999 0.000999
113233. 2.34597 0.00118(32) 9830989. 0.001000 0.001000
113244. 2.34620 0.00141(33) 9037455. 0.001001 0.001001
113256. 2.34645 0.0018(4) 6465234. 0.00100 0.00100
113267. 2.34667 0.00135(34) 8413567. 0.001003 0.001003
113278. 2.34690 0.00107(31) 10651717. 0.001003 0.001003
113289. 2.34713 0.00121(31) 10315009. 0.001004 0.001004
113301. 2.34738 0.00127(33) 9244195. 0.001005 0.001005
113312. 2.34761 0.00065(21) 23168750. 0.001006 0.001006
113324. 2.34786 0.00068(24) 17781326. 0.001007 0.001007
113335. 2.34808 0.00104(30) 11301257. 0.001008 0.001008
113346. 2.34831 0.00119(31) 10150604. 0.001009 0.001009
113357. 2.34854 0.00126(31) 10191436. 0.001010 0.001010
113369. 2.34879 0.00098(27) 13466550. 0.001011 0.001011
113380. 2.34902 0.00108(28) 12442836. 0.001012 0.001012
113392. 2.34927 0.00135(34) 8405350. 0.001013 0.001013
113403. 2.34949 0.00113(31) 10320921. 0.001014 0.001014
113414. 2.34972 0.00077(24) 17521410. 0.001015 0.001015
113426. 2.34997 0.00118(34) 8831173. 0.001016 0.001016
113437. 2.35020 0.00082(27) 14053297. 0.001016 0.001016
113448. 2.35043 0.00094(28) 13157300. 0.001017 0.001017
113460. 2.35067 0.0015(4) 7211421. 0.00102 0.00102
113471. 2.35090 0.00089(27) 13715249. 0.001019 0.001019
113482. 2.35113 0.00085(26) 14736737. 0.001020 0.001020
113494. 2.35138 0.00074(25) 15631290. 0.001021 0.001021
113505. 2.35161 0.00079(25) 15857561. 0.001022 0.001022
113516. 2.35184 0.00113(30) 11432527. 0.001023 0.001023
113528. 2.35208 0.00130(35) 8304313. 0.001024 0.001024
113539. 2.35231 0.00085(24) 16715524. 0.001025 0.001025
113550. 2.35254 0.00108(28) 12537780. 0.001026 0.001026
113562. 2.35279 0.00103(28) 12529890. 0.001027 0.001027
113573. 2.35302 0.00102(30) 11396563. 0.001028 0.001028
113584. 2.35324 0.00090(26) 14571700. 0.001029 0.001029
113596. 2.35349 0.00079(25) 16153087. 0.001030 0.001030
113607. 2.35372 0.00084(27) 13996442. 0.001030 0.001030
113619. 2.35397 0.00067(23) 18791382. 0.001031 0.001031
113630. 2.35420 0.00094(28) 12486307. 0.001032 0.001032
113641. 2.35443 0.00094(26) 14337954. 0.001033 0.001033
113653. 2.35467 0.00115(31) 10513972. 0.001034 0.001034
113664. 2.35490 0.00085(26) 15336939. 0.001035 0.001035
113675. 2.35513 0.00103(28) 12747412. 0.001036 0.001036
113687. 2.35538 0.00104(28) 12953913. 0.001037 0.001037
113698. 2.35561 0.00079(24) 17993608. 0.001038 0.001038
113709. 2.35583 0.00106(29) 11860923. 0.001039 0.001039
113721. 2.35608 0.00121(34) 8695067. 0.001040 0.001040
113732. 2.35631 0.00068(23) 18191098. 0.001041 0.001041
113744. 2.35656 0.00116(35) 8293156. 0.001042 0.001042
113755. 2.35679 0.00110(31) 10687431. 0.001043 0.001043
113766. 2.35702 0.00120(29) 11540616. 0.001044 0.001044
113778. 2.35726 0.00136(35) 8196984. 0.001045 0.001045
113789. 2.35749 0.00108(32) 10051958. 0.001045 0.001045
113800. 2.35772 0.00070(23) 19230620. 0.001046 0.001046
113812. 2.35797 0.00078(25) 16457224. 0.001047 0.001047
113823. 2.35820 0.00137(33) 9288867. 0.001048 0.001048
113835. 2.35845 0.0018(4) 6442776. 0.00105 0.00105
113846. 2.35867 0.0017(4) 6609504. 0.00105 0.00105
113857. 2.35890 0.00082(22) 20421734. 0.001051 0.001051
113869. 2.35915 0.00132(33) 9235664. 0.001052 0.001052
113880. 2.35938 0.00118(31) 10379850. 0.001053 0.001053
113892. 2.35963 0.00099(31) 10318517. 0.001054 0.001054
113903. 2.35986 0.00055(22) 21587846. 0.001055 0.001055
113914. 2.36008 0.00064(23) 18497396. 0.001056 0.001056
113926. 2.36033 0.00091(28) 12399353. 0.001057 0.001057
113937. 2.36056 0.00090(26) 14268711. 0.001058 0.001058
113949. 2.36081 0.00091(28) 12995414. 0.001059 0.001059
113960. 2.36104 0.00102(30) 11236427. 0.001059 0.001059
113971. 2.36126 0.00092(27) 13568153. 0.001060 0.001060
113983. 2.36151 0.00097(31) 10710523. 0.001061 0.001061
113994. 2.36174 0.00071(23) 18244346. 0.001062 0.001062
114006. 2.36199 0.00078(25) 16568222. 0.001063 0.001063
114017. 2.36222 0.00068(23) 18860194. 0.001064 0.001064
114028. 2.36245 0.00043(17) 35511440. 0.001065 0.001065
114040. 2.36269 0.00108(31) 10645406. 0.001066 0.001066
114051. 2.36292 0.00133(34) 8890109. 0.001067 0.001067
114063. 2.36317 0.00094(28) 13033826. 0.001068 0.001068
114074. 2.36340 0.0016(4) 6466779. 0.00107 0.00107
114085. 2.36363 0.00133(31) 10180802. 0.001070 0.001070
114097. 2.36388 0.0018(4) 5856150. 0.00107 0.00107
114108. 2.36410 0.00099(29) 11529089. 0.001071 0.001071
114120. 2.36435 0.00055(22) 20144458. 0.001072 0.001072
114131. 2.36458 0.00041(17) 35407948. 0.001073 0.001073
114143. 2.36483 0.00082(27) 13910930. 0.001074 0.001074
114154. 2.36506 0.00067(25) 16493870. 0.001075 0.001075
114165. 2.36529 0.00050(20) 24109098. 0.001076 0.001076
114177. 2.36553 0.00087(29) 11592608. 0.001077 0.001113
114188. 2.36576 0.00075(24) 16784458. 0.001078 0.001115
114200. 2.36601 0.00114(33) 9004558. 0.001079 0.001116
114211. 2.36624 0.00073(24) 16778130. 0.001080 0.001118
114222. 2.36647 0.00079(25) 16081533. 0.001081 0.001120
114234. 2.36672 0.00087(28) 12807311. 0.001081 0.001121
114245. 2.36694 0.00088(28) 13212811. 0.001082 0.001123
114257. 2.36719 0.00090(27) 13259401. 0.001083 0.001125
114268. 2.36742 0.00090(26) 15241014. 0.001084 0.001127
114280. 2.36767 0.00116(32) 9613872. 0.001085 0.001129
114291. 2.36790 0.00073(25) 16359774. 0.001086 0.001130
114302. 2.36812 0.00096(29) 11999724. 0.001087 0.001132
114314. 2.36837 0.0013(4) 7719453. 0.00109 0.00113
114325. 2.36860 0.00069(23) 19243142. 0.001089 0.001136
114337. 2.36885 0.00075(24) 16737261. 0.001090 0.001138
114348. 2.36908 0.00094(26) 14680327. 0.001090 0.001140
114360. 2.36933 0.00131(33) 9393441. 0.001091 0.001142
114371. 2.36955 0.0018(4) 6071949. 0.00109 0.00114
114382. 2.36978 0.00154(34) 8637311. 0.001093 0.001146
114394. 2.37003 0.0019(4) 5682756. 0.00109 0.00115
114405. 2.37026 0.0015(4) 7424271. 0.00109 0.00115
114417. 2.37051 0.0017(4) 6329330. 0.00110 0.00115
114428. 2.37074 0.0017(4) 7143139. 0.00110 0.00116
114440. 2.37098 0.00109(31) 10490851. 0.001098 0.001158
114451. 2.37121 0.00101(29) 11861899. 0.001098 0.001160
114463. 2.37146 0.0017(4) 7078983. 0.00110 0.00116
114474. 2.37169 0.0023(4) 5204586. 0.00110 0.00117
114485. 2.37192 0.0020(4) 5898943. 0.00110 0.00117
114497. 2.37217 0.0026(5) 4056941. 0.00110 0.00117
114508. 2.37239 0.0026(5) 4585364. 0.00110 0.00117
114520. 2.37264 0.0024(5) 4603261. 0.00110 0.00118
114531. 2.37287 0.0023(4) 5010296. 0.00110 0.00118
114543. 2.37312 0.0031(5) 3866065. 0.00111 0.00118
114554. 2.37335 0.0036(6) 3254251. 0.00111 0.00118
114566. 2.37360 0.0037(6) 2772823. 0.00111 0.00119
114577. 2.37382 0.0029(5) 4139045. 0.00111 0.00119
114589. 2.37407 0.0029(5) 4324439. 0.00111 0.00119
114600. 2.37430 0.0039(6) 2720172. 0.00111 0.00120
114611. 2.37453 0.0026(5) 4814862. 0.00111 0.00120
114623. 2.37478 0.0022(4) 4961372. 0.00111 0.00121
114634. 2.37501 0.0018(4) 6979091. 0.00111 0.00121
114646. 2.37525 0.0024(5) 4516202. 0.00111 0.00121
114657. 2.37548 0.0024(5) 4896627. 0.00111 0.00122
114669. 2.37573 0.0021(4) 5795023. 0.00111 0.00122
114680. 2.37596 0.00158(34) 8460307. 0.001115 0.001227
114692. 2.37621 0.0021(4) 5162920. 0.00112 0.00123
114703. 2.37644 0.0020(4) 6045536. 0.00112 0.00124
114715. 2.37668 0.0018(4) 6573920. 0.00112 0.00124
114726. 2.37691 0.00166(35) 8363474. 0.001119 0.001247
114738. 2.37716 0.0030(5) 3452885. 0.00112 0.00125
114749. 2.37739 0.0021(4) 6150485. 0.00112 0.00126
114761. 2.37764 0.0022(4) 5324196. 0.00112 0.00126
114772. 2.37787 0.0017(4) 7448578. 0.00112 0.00127
114784. 2.37811 0.0027(5) 3902993. 0.00112 0.00128
114795. 2.37834 0.0025(5) 4791116. 0.00112 0.00129
114806. 2.37857 0.0023(4) 5629841. 0.00112 0.00129
114818. 2.37882 0.0026(5) 4092274. 0.00113 0.00130
114829. 2.37905 0.0024(5) 4615193. 0.00113 0.00131
114841. 2.37930 0.0026(5) 4272915. 0.00113 0.00132
114852. 2.37952 0.0029(5) 4213444. 0.00113 0.00133
114864. 2.37977 0.0038(6) 2879485. 0.00113 0.00134
114875. 2.38000 0.0034(5) 3591426. 0.00113 0.00135
114887. 2.38025 0.0039(6) 2922110. 0.00113 0.00136
114898. 2.38048 0.0033(5) 3844970. 0.00113 0.00137
114910. 2.38072 0.0036(5) 3352378. 0.00113 0.00139
114921. 2.38095 0.0040(6) 3047729. 0.00113 0.00140
114933. 2.38120 0.0048(7) 2215158. 0.00113 0.00142
114944. 2.38143 0.0041(6) 2969349. 0.00113 0.00144
114956. 2.38168 0.0044(6) 2675025. 0.00113 0.00145
114967. 2.38191 0.0046(6) 2641625. 0.00114 0.00147
114979. 2.38215 0.0055(7) 2076723. 0.00114 0.00150
114990. 2.38238 0.0049(6) 2519218. 0.00114 0.00152
115002. 2.38263 0.0062(8) 1738919. 0.00114 0.00155
115013. 2.38286 0.0051(6) 2455008. 0.00114 0.00158
115025. 2.38311 0.0049(7) 2306440. 0.00114 0.00161
115036. 2.38334 0.0044(6) 2757102. 0.00114 0.00164
115048. 2.38358 0.0054(7) 2047679. 0.00114 0.00168
115059. 2.38381 0.0051(6) 2404892. 0.00114 0.00172
115071. 2.38406 0.0054(7) 2136761. 0.00114 0.00177
115082. 2.38429 0.0050(6) 2376403. 0.00114 0.00183
115094. 2.38454 0.0063(8) 1688232. 0.00114 0.00189
115105. 2.38477 0.0056(7) 2184102. 0.00114 0.00196
115117. 2.38502 0.0055(7) 2072595. 0.00114 0.00206
115129. 2.38526 0.0060(7) 1810246. 0.00115 0.00217
115140. 2.38549 0.0067(8) 1730011. 0.00115 0.00230
115151. 2.38572 0.0066(7) 1886755. 0.00115 0.00249
115163. 2.38597 0.0056(7) 2310504. 0.00115 0.00277
115175. 2.38622 0.0075(8) 1454679. 0.00115 0.00316
115186. 2.38645 0.0084(9) 1383715. 0.00115 0.00371
115198. 2.38669 0.0095(9) 1195038. 0.00115 0.00450
115209. 2.38692 0.0099(9) 1188018. 0.00115 0.00562
115221. 2.38717 0.0110(10) 968022. 0.00115 0.00714
115232. 2.38740 0.0133(11) 850950. 0.00115 0.00915
115244. 2.38765 0.0159(12) 663560. 0.00115 0.01171
115255. 2.38788 0.0171(12) 648908. 0.00115 0.01483
115267. 2.38812 0.0211(14) 500027. 0.00115 0.01846
115278. 2.38835 0.0229(14) 514482. 0.00115 0.02247
115290. 2.38860 0.0286(16) 374819. 0.00115 0.02663
115301. 2.38883 0.0281(16) 412780. 0.00115 0.03065
115313. 2.38908 0.0367(19) 287414. 0.00116 0.03414
115324. 2.38930 0.0367(18) 316006. 0.00116 0.03665
115336. 2.38955 0.0381(19) 274699. 0.00116 0.03780
115347. 2.38978 0.0322(17) 365116. 0.00116 0.03733
115359. 2.39003 0.0305(16) 391666. 0.00116 0.03518
115371. 2.39028 0.0289(16) 386392. 0.00116 0.03188
115382. 2.39051 0.0218(13) 559363. 0.00116 0.02785
115394. 2.39076 0.0189(13) 596189. 0.00116 0.02357
115405. 2.39098 0.0167(12) 709375. 0.00116 0.01941
115417. 2.39123 0.0174(13) 627434. 0.00116 0.01562
115428. 2.39146 0.0132(10) 922194. 0.00116 0.01236
115440. 2.39171 0.0111(10) 1037156. 0.00116 0.00968
115451. 2.39194 0.0097(9) 1227915. 0.00116 0.00758
115463. 2.39219 0.0087(9) 1287920. 0.00116 0.00598
115474. 2.39241 0.0075(8) 1572687. 0.00116 0.00481
115486. 2.39266 0.0070(8) 1749656. 0.00116 0.00394
115498. 2.39291 0.0087(9) 1262227. 0.00116 0.00336
115509. 2.39314 0.0066(7) 1901773. 0.00117 0.00295
115521. 2.39339 0.0060(7) 1875288. 0.00117 0.00266
115532. 2.39362 0.0066(8) 1684677. 0.00117 0.00245
115544. 2.39386 0.0057(7) 1938733. 0.00117 0.00229
115555. 2.39409 0.0052(7) 2244911. 0.00117 0.00217
115567. 2.39434 0.0049(7) 2202133. 0.00117 0.00207
115578. 2.39457 0.0052(7) 2141276. 0.00117 0.00199
115590. 2.39482 0.0049(7) 2302089. 0.00117 0.00192
115601. 2.39505 0.0041(6) 3108919. 0.00117 0.00186
115613. 2.39529 0.0052(7) 2243481. 0.00117 0.00180
115625. 2.39554 0.0051(7) 2148769. 0.00117 0.00175
115636. 2.39577 0.0050(7) 2348372. 0.00117 0.00171
115648. 2.39602 0.0050(7) 2250842. 0.00117 0.00167
115659. 2.39625 0.0047(6) 2516789. 0.00117 0.00164
115671. 2.39650 0.0040(6) 2982688. 0.00117 0.00161
115683. 2.39674 0.0039(6) 2750539. 0.00117 0.00158
115694. 2.39697 0.0041(6) 2935797. 0.00117 0.00156
115706. 2.39722 0.0048(7) 2280307. 0.00117 0.00153
115717. 2.39745 0.0030(5) 4252151. 0.00117 0.00151
115729. 2.39770 0.0041(6) 2522074. 0.00117 0.00149
115740. 2.39793 0.0031(5) 4020081. 0.00117 0.00148
115752. 2.39818 0.0035(5) 3329219. 0.00118 0.00146
115764. 2.39842 0.0034(6) 3131246. 0.00118 0.00145
115775. 2.39865 0.0023(4) 5862848. 0.00118 0.00143
115787. 2.39890 0.0025(5) 4921249. 0.00118 0.00142
115798. 2.39913 0.0019(4) 6261629. 0.00118 0.00141
115810. 2.39938 0.0018(4) 5536812. 0.00118 0.00140
115821. 2.39961 0.00132(34) 8820708. 0.001178 0.001388
115833. 2.39985 0.00125(32) 9538933. 0.001178 0.001378
115845. 2.40010 0.00121(32) 9577282. 0.001178 0.001370
115856. 2.40033 0.00119(31) 10715383. 0.001179 0.001362
115868. 2.40058 0.0022(5) 4554440. 0.00118 0.00135
115879. 2.40081 0.0016(4) 8084694. 0.00118 0.00135
115891. 2.40106 0.0022(4) 5247752. 0.00118 0.00134
115903. 2.40130 0.0018(4) 6384822. 0.00118 0.00133
115914. 2.40153 0.0015(4) 7800198. 0.00118 0.00133
115926. 2.40178 0.0022(5) 4754275. 0.00118 0.00132
115937. 2.40201 0.0031(5) 3650350. 0.00118 0.00132
115949. 2.40226 0.0028(5) 4283850. 0.00118 0.00131
115961. 2.40251 0.0031(5) 3590143. 0.00118 0.00131
115972. 2.40273 0.0036(5) 3397333. 0.00118 0.00130
115984. 2.40298 0.0037(6) 3010519. 0.00118 0.00130
115995. 2.40321 0.0028(5) 4282512. 0.00118 0.00130
116007. 2.40346 0.0028(5) 4262447. 0.00118 0.00129
116019. 2.40371 0.0033(6) 3196276. 0.00118 0.00129
116030. 2.40394 0.0026(5) 4885026. 0.00118 0.00129
116042. 2.40419 0.0026(5) 4650621. 0.00118 0.00128
116053. 2.40441 0.0025(4) 5641496. 0.00118 0.00128
116065. 2.40466 0.0032(5) 3701697. 0.00118 0.00128
116077. 2.40491 0.0028(5) 3845145. 0.00118 0.00127
116088. 2.40514 0.0021(4) 6037075. 0.00118 0.00127
116100. 2.40539 0.0021(4) 5856716. 0.00118 0.00127
116111. 2.40562 0.0025(4) 5122281. 0.00118 0.00127
116123. 2.40586 0.0028(5) 3985238. 0.00118 0.00127
116135. 2.40611 0.0032(6) 3282188. 0.00119 0.00126
116146. 2.40634 0.0025(5) 4530284. 0.00119 0.00126
116158. 2.40659 0.0024(5) 4279702. 0.00119 0.00126
116169. 2.40682 0.0028(5) 4317547. 0.00119 0.00126
116181. 2.40707 0.0028(5) 4194320. 0.00119 0.00126
116193. 2.40731 0.0020(4) 6134426. 0.00119 0.00125
116204. 2.40754 0.0030(5) 4278857. 0.00119 0.00125
116216. 2.40779 0.0040(6) 3061046. 0.00119 0.00125
116228. 2.40804 0.0038(6) 3020300. 0.00119 0.00125
116239. 2.40827 0.0043(6) 2731457. 0.00119 0.00125
116251. 2.40852 0.0041(6) 2592229. 0.00119 0.00125
116262. 2.40874 0.0030(5) 4013704. 0.00119 0.00124
116274. 2.40899 0.0034(5) 3603491. 0.00119 0.00124
116286. 2.40924 0.0041(6) 2614869. 0.00119 0.00124
116297. 2.40947 0.0035(5) 3325781. 0.00119 0.00124
116309. 2.40972 0.0029(5) 4155920. 0.00119 0.00124
116321. 2.40997 0.0025(5) 4365912. 0.00119 0.00124
116332. 2.41020 0.0027(5) 4472241. 0.00119 0.00124
116344. 2.41044 0.0036(6) 3035598. 0.00119 0.00124
116355. 2.41067 0.0024(4) 5192256. 0.00119 0.00124
116367. 2.41092 0.0018(4) 8107876. 0.00119 0.00123
116379. 2.41117 0.0026(5) 4305058. 0.00119 0.00123
116390. 2.41140 0.0025(5) 4646615. 0.00119 0.00123
116402. 2.41165 0.0023(4) 5298103. 0.00119 0.00123
116414. 2.41189 0.0022(4) 5296405. 0.00119 0.00123
116425. 2.41212 0.0015(4) 7873125. 0.00119 0.00123
116437. 2.41237 0.0019(4) 5781378. 0.00119 0.00123
116449. 2.41262 0.0019(4) 5945994. 0.00119 0.00123
116460. 2.41285 0.0021(4) 5361780. 0.00119 0.00123
116472. 2.41310 0.0015(4) 7666571. 0.00119 0.00123
116484. 2.41335 0.00085(28) 12694032. 0.001187 0.001225
116495. 2.41357 0.00078(26) 15301310. 0.001187 0.001224
116507. 2.41382 0.00131(34) 8463165. 0.001187 0.001223
116519. 2.41407 0.0014(4) 8096548. 0.00119 0.00119
116530. 2.41430 0.00109(28) 13044513. 0.001187 0.001187
116542. 2.41455 0.00085(27) 14149915. 0.001187 0.001187
116554. 2.41480 0.00095(31) 10408463. 0.001187 0.001187
116565. 2.41502 0.00117(35) 8309881. 0.001187 0.001187
116577. 2.41527 0.00076(26) 14690676. 0.001187 0.001187
116589. 2.41552 0.00084(29) 12208729. 0.001186 0.001186
116600. 2.41575 0.00092(29) 11761372. 0.001186 0.001186
116612. 2.41600 0.00074(28) 13031887. 0.001186 0.001186
116623. 2.41623 0.00075(26) 14470678. 0.001186 0.001186
116635. 2.41647 0.00111(32) 9995118. 0.001186 0.001186
116647. 2.41672 0.0020(5) 4433141. 0.00119 0.00119
116658. 2.41695 0.0017(4) 6206906. 0.00119 0.00119
116670. 2.41720 0.00103(30) 11242491. 0.001185 0.001185
116682. 2.41745 0.00067(24) 17408310. 0.001185 0.001185
116694. 2.41770 0.0013(4) 7980173. 0.00118 0.00118
116705. 2.41793 0.0015(4) 6913784. 0.00118 0.00118
116717. 2.41817 0.00101(30) 10821449. 0.001185 0.001185
116728. 2.41840 0.0014(4) 8127948. 0.00118 0.00118
116740. 2.41865 0.0014(4) 7557348. 0.00118 0.00118
116752. 2.41890 0.0013(4) 8089236. 0.00118 0.00118
116764. 2.41915 0.0014(4) 7391754. 0.00118 0.00118
116775. 2.41938 0.00080(24) 16937008. 0.001183 0.001183
116787. 2.41963 0.00084(27) 14214420. 0.001183 0.001183
116799. 2.41987 0.00085(29) 11853910. 0.001183 0.001183
116810. 2.42010 0.00075(25) 15905684. 0.001182 0.001182
116822. 2.42035 0.00090(28) 12311969. 0.001182 0.001182
116834. 2.42060 0.00113(34) 8566698. 0.001182 0.001182
116845. 2.42083 0.00103(29) 12074894. 0.001182 0.001182
116857. 2.42108 0.00107(31) 10104304. 0.001181 0.001181
116869. 2.42132 0.00103(30) 10804312. 0.001181 0.001181
116880. 2.42155 0.00093(28) 13213816. 0.001181 0.001181
116892. 2.42180 0.00108(33) 9254557. 0.001180 0.001180
116904. 2.42205 0.00113(33) 9215962. 0.001180 0.001180
116915. 2.42228 0.00115(31) 10182661. 0.001179 0.001179
116927. 2.42253 0.00100(28) 12979095. 0.001179 0.001179
116939. 2.42278 0.00102(31) 10578181. 0.001179 0.001179
116951. 2.42302 0.00056(23) 19269340. 0.001178 0.001178
116962. 2.42325 0.00075(26) 14283421. 0.001178 0.001178
116974. 2.42350 0.00079(27) 14100414. 0.001177 0.001177
116986. 2.42375 0.00107(32) 9834245. 0.001177 0.001177
116997. 2.42398 0.00130(35) 8200302. 0.001177 0.001177
117009. 2.42423 0.00065(21) 23310914. 0.001176 0.001176
117021. 2.42447 0.00115(34) 8815255. 0.001176 0.001176
117032. 2.42470 0.00065(22) 20926166. 0.001175 0.001175
117044. 2.42495 0.00099(28) 12757634. 0.001175 0.001175
117056. 2.42520 0.0016(4) 6751951. 0.00117 0.00117
117067. 2.42543 0.00121(32) 9676124. 0.001174 0.001174
117079. 2.42568 0.00095(29) 11638736. 0.001173 0.001173
117091. 2.42593 0.00111(32) 9689077. 0.001173 0.001173
117103. 2.42617 0.00102(32) 9741762. 0.001172 0.001172
117114. 2.42640 0.00089(29) 12046578. 0.001172 0.001172
117126. 2.42665 0.00088(28) 12334083. 0.001171 0.001171
117138. 2.42690 0.00077(25) 16562603. 0.001171 0.001171
117150. 2.42715 0.0013(4) 8068941. 0.00117 0.00117
117161. 2.42738 0.00119(35) 8147409. 0.001169 0.001169
117173. 2.42762 0.00088(30) 11363154. 0.001169 0.001169
117185. 2.42787 0.00085(27) 13578976. 0.001168 0.001168
117196. 2.42810 0.00102(31) 10143193. 0.001168 0.001168
117208. 2.42835 0.00067(25) 15896222. 0.001167 0.001167
117220. 2.42860 0.00080(27) 14124654. 0.001166 0.001166
117232. 2.42885 0.00080(27) 13891269. 0.001166 0.001166
117243. 2.42908 0.00096(29) 11771242. 0.001165 0.001165
117255. 2.42932 0.0016(4) 6417186. 0.00116 0.00116
117267. 2.42957 0.00101(33) 9451955. 0.001164 0.001164
117278. 2.42980 0.00056(24) 17533394. 0.001163 0.001163
117290. 2.43005 0.00039(18) 29658320. 0.001163 0.001163
117302. 2.43030 0.00071(24) 17634164. 0.001162 0.001162
117314. 2.43055 0.00101(31) 10628854. 0.001161 0.001161
117325. 2.43077 0.00118(34) 8542761. 0.001160 0.001160
117337. 2.43102 0.00104(30) 11152839. 0.001160 0.001160
117349. 2.43127 0.00102(31) 10647827. 0.001159 0.001159
117361. 2.43152 0.00104(33) 9105189. 0.001158 0.001158
117372. 2.43175 0.00103(28) 13110495. 0.001158 0.001158
117384. 2.43200 0.00127(34) 8823549. 0.001157 0.001157
117396. 2.43225 0.00115(33) 8926337. 0.001156 0.001156
117408. 2.43249 0.00132(35) 8147105. 0.001155 0.001155
117419. 2.43272 0.0014(4) 8058218. 0.00115 0.00115
117431. 2.43297 0.00062(22) 20341042. 0.001154 0.001154
117443. 2.43322 0.00060(21) 21814388. 0.001153 0.001153
117455. 2.43347 0.00118(34) 8735227. 0.001152 0.001152
117466. 2.43370 0.0013(4) 7586208. 0.00115 0.00115
117478. 2.43395 0.00118(34) 8505076. 0.001150 0.001150
117490. 2.43419 0.00066(23) 18294160. 0.001150 0.001150
117502. 2.43444 0.00080(26) 14537840. 0.001149 0.001149
117513. 2.43467 0.0013(4) 7916733. 0.00115 0.00115
117525. 2.43492 0.0015(4) 6721395. 0.00115 0.00115
117537. 2.43517 0.0014(4) 7430096. 0.00115 0.00115
117549. 2.43542 0.0016(4) 6746998. 0.00115 0.00115
117560. 2.43565 0.0014(4) 8069530. 0.00114 0.00114
117572. 2.43589 0.00112(32) 9570143. 0.001143 0.001143
117584. 2.43614 0.00107(32) 9695921. 0.001142 0.001142
117596. 2.43639 0.0014(4) 6568981. 0.00114 0.00114
117607. 2.43662 0.00120(32) 9558802. 0.001141 0.001141
117619. 2.43687 0.0013(4) 7917793. 0.00114 0.00114
117631. 2.43712 0.00057(23) 19408618. 0.001139 0.001139
117643. 2.43737 0.00043(19) 28374388. 0.001138 0.001138
117654. 2.43759 0.00083(26) 14241694. 0.001137 0.001137
117666. 2.43784 0.00087(28) 12803083. 0.001136 0.001136
117678. 2.43809 0.00077(27) 13936425. 0.001135 0.001135
117690. 2.43834 0.00080(27) 13561240. 0.001134 0.001134
117702. 2.43859 0.00092(30) 11436104. 0.001133 0.001133
117713. 2.43882 0.00072(23) 18470194. 0.001132 0.001132
117725. 2.43906 0.00103(31) 10533762. 0.001131 0.001131
117737. 2.43931 0.00080(25) 15970677. 0.001130 0.001130
117749. 2.43956 0.0017(4) 5428516. 0.00113 0.00113
117760. 2.43979 0.00110(31) 10190002. 0.001128 0.001128
117772. 2.44004 0.00103(31) 10098946. 0.001126 0.001126
117784. 2.44029 0.00078(27) 13689737. 0.001125 0.001125
117796. 2.44054 0.00084(27) 13367928. 0.001124 0.001124
117808. 2.44078 0.00080(24) 16973058. 0.001123 0.001123
117819. 2.44101 0.00081(26) 14730979. 0.001122 0.001122
117831. 2.44126 0.00087(30) 11472999. 0.001121 0.001121
117843. 2.44151 0.00094(30) 11039821. 0.001120 0.001120
117855. 2.44176 0.00119(34) 8614278. 0.001119 0.001119
117866. 2.44199 0.00123(35) 8323001. 0.001118 0.001118
117878. 2.44224 0.00108(33) 9444080. 0.001116 0.001116
117890. 2.44248 0.00100(30) 11470333. 0.001115 0.001115
117902. 2.44273 0.00102(32) 9825137. 0.001114 0.001114
117914. 2.44298 0.00053(23) 18435782. 0.001113 0.001113
117925. 2.44321 0.00053(21) 22399888. 0.001112 0.001112
117937. 2.44346 0.00095(30) 10836555. 0.001110 0.001110
117949. 2.44371 0.00076(26) 15368865. 0.001109 0.001109
117961. 2.44396 0.00068(23) 18333848. 0.001108 0.001108
117973. 2.44420 0.00092(29) 11528859. 0.001107 0.001107
117984. 2.44443 0.00091(29) 11733867. 0.001105 0.001105
117996. 2.44468 0.00104(32) 9978896. 0.001104 0.001104
118008. 2.44493 0.00085(29) 11658388. 0.001103 0.001103
118020. 2.44518 0.00069(24) 17742538. 0.001102 0.001102
118032. 2.44543 0.0014(4) 6867407. 0.00110 0.00110
118043. 2.44566 0.00065(23) 18239758. 0.001099 0.001099
118055. 2.44590 0.00074(25) 15554971. 0.001098 0.001098
118067. 2.44615 0.00099(31) 10454064. 0.001096 0.001096
118079. 2.44640 0.00076(24) 16664546. 0.001095 0.001095
118091. 2.44665 0.00108(33) 9003809. 0.001094 0.001094
118102. 2.44688 0.00047(19) 29173298. 0.001092 0.001092
118114. 2.44713 0.00104(33) 9197699. 0.001091 0.001091
118126. 2.44738 0.0014(4) 6273119. 0.00109 0.00109
118138. 2.44762 0.00107(33) 9154643. 0.001088 0.001088
118150. 2.44787 0.00109(33) 9415596. 0.001087 0.001087
118162. 2.44812 0.00081(27) 14003407. 0.001086 0.001086
118173. 2.44835 0.00116(33) 8941630. 0.001084 0.001084
118185. 2.44860 0.00113(33) 9415206. 0.001083 0.001083
118197. 2.44885 0.00077(28) 13207258. 0.001081 0.001081
118209. 2.44910 0.00112(34) 8464949. 0.001080 0.001080
118221. 2.44934 0.00081(29) 12035768. 0.001078 0.001078
118232. 2.44957 0.00099(32) 9609525. 0.001077 0.001077
118244. 2.44982 0.00071(25) 16155661. 0.001076 0.001076
118256. 2.45007 0.00093(28) 12644945. 0.001074 0.001074
118268. 2.45032 0.0013(4) 7704809. 0.00107 0.00107
118280. 2.45057 0.00072(26) 15159310. 0.001071 0.001071
118292. 2.45082 0.0012(4) 7748352. 0.00107 0.00107
118303. 2.45104 0.00086(27) 13442022. 0.001068 0.001068
118315. 2.45129 0.00108(34) 8620648. 0.001067 0.001067
118327. 2.45154 0.00051(21) 22877442. 0.001065 0.001065
118339. 2.45179 0.00060(23) 19697556. 0.001064 0.001064
118351. 2.45204 0.00082(26) 14307210. 0.001062 0.001062
118363. 2.45229 0.00078(27) 13240505. 0.001060 0.001060
118375. 2.45254 0.00058(26) 14527297. 0.001059 0.001059
118386. 2.45276 0.00056(24) 17966978. 0.001057 0.001057
118398. 2.45301 0.00071(24) 17203082. 0.001056 0.001056
118410. 2.45326 0.00085(27) 13483524. 0.001054 0.001054
118422. 2.45351 0.00088(30) 10888716. 0.001053 0.001053
118434. 2.45376 0.00043(19) 26888564. 0.001051 0.001051
118446. 2.45401 0.00088(27) 13677860. 0.001049 0.001049
118457. 2.45424 0.0018(4) 5401813. 0.00105 0.00105
118469. 2.45448 0.00125(34) 8772025. 0.001046 0.001046
118481. 2.45473 0.00114(32) 9536974. 0.001045 0.001045
118493. 2.45498 0.00065(25) 16605790. 0.001043 0.001043
118505. 2.45523 0.00056(22) 19815328. 0.001041 0.001041
118517. 2.45548 0.00087(32) 10050366. 0.001040 0.001040
118528. 2.45571 0.00069(27) 13876696. 0.001038 0.001038
118540. 2.45596 0.00080(27) 13903869. 0.001036 0.001036
118552. 2.45620 0.00111(33) 8937917. 0.001035 0.001035
118564. 2.45645 0.00055(22) 21561886. 0.001033 0.001033
118576. 2.45670 0.00058(24) 17358536. 0.001031 0.001031
118588. 2.45695 0.00046(23) 19172262. 0.001029 0.001029
118600. 2.45720 0.00064(25) 16037141. 0.001028 0.001028
118611. 2.45743 0.00110(34) 8774837. 0.001026 0.001026
118623. 2.45768 0.0015(4) 6572262. 0.00102 0.00102
118635. 2.45792 0.00138(35) 8151524. 0.001023 0.001023
118647. 2.45817 0.00060(22) 20117500. 0.001021 0.001021
118659. 2.45842 0.00046(22) 20808100. 0.001019 0.001019
118671. 2.45867 0.00074(26) 14472821. 0.001017 0.001017
118683. 2.45892 0.00066(25) 16534373. 0.001016 0.001016
118695. 2.45917 0.00051(21) 23028896. 0.001014 0.001014
118706. 2.45940 0.0013(4) 7799466. 0.00101 0.00101
118718. 2.45964 0.00084(24) 17300734. 0.001010 0.001010
118730. 2.45989 0.00116(32) 9834350. 0.001008 0.001008
118742. 2.46014 0.0016(4) 6290507. 0.00101 0.00101
118754. 2.46039 0.0017(4) 5651831. 0.00100 0.00100
118766. 2.46064 0.00119(33) 9032546. 0.001003 0.001003
118778. 2.46089 0.00109(31) 10223601. 0.001001 0.001001
118790. 2.46114 0.0017(4) 5105186. 0.00100 0.00100
118801. 2.46136 0.00103(33) 9347072. 0.000998 0.000998
118813. 2.46161 0.00078(28) 13161307. 0.000996 0.000996
118825. 2.46186 0.00099(31) 10143077. 0.000994 0.000994
118837. 2.46211 0.00055(22) 19757026. 0.000992 0.000992
118849. 2.46236 0.00029(17) 34565608. 0.000990 0.000990
118861. 2.46261 0.00055(21) 22615612. 0.000988 0.000988
118873. 2.46286 0.00123(34) 8635416. 0.000986 0.000986
118885. 2.46311 0.0013(4) 7941157. 0.00098 0.00098
118897. 2.46335 0.00108(33) 9392883. 0.000983 0.000983
118908. 2.46358 0.00095(28) 12908057. 0.000981 0.000981
118920. 2.46383 0.0013(4) 7391625. 0.00098 0.00098
118932. 2.46408 0.00087(28) 12458385. 0.000977 0.000977
118944. 2.46433 0.00105(32) 9947427. 0.000975 0.000975
118956. 2.46458 0.00110(33) 9436925. 0.000973 0.000973
118968. 2.46483 0.00113(32) 9834453. 0.000971 0.000971
118980. 2.46507 0.00108(33) 9360886. 0.000969 0.000969
118992. 2.46532 0.00073(27) 13402104. 0.000967 0.000967
119004. 2.46557 0.00088(30) 11056085. 0.000965 0.000965
119016. 2.46582 0.00087(29) 11782312. 0.000963 0.000963
119027. 2.46605 0.00100(32) 9770352. 0.000961 0.000961
119039. 2.46630 0.00093(32) 9603082. 0.000959 0.000959
119051. 2.46655 0.00044(20) 25669652. 0.000957 0.000957
119063. 2.46679 0.00070(25) 15914562. 0.000955 0.000955
119075. 2.46704 0.0015(4) 6137186. 0.00095 0.00095
119087. 2.46729 0.00090(29) 11971941. 0.000951 0.000951
119099. 2.46754 0.00080(28) 12334996. 0.000949 0.000949
119111. 2.46779 0.00071(27) 14022622. 0.000947 0.000947
119123. 2.46804 0.00093(31) 10370379. 0.000945 0.000945
119135. 2.46829 0.00107(34) 8746831. 0.000943 0.000943
119146. 2.46851 0.00092(30) 10989138. 0.000941 0.000941
119158. 2.46876 0.00077(26) 14465110. 0.000939 0.000939
119170. 2.46901 0.00105(31) 10096876. 0.000937 0.000937
119182. 2.46926 0.00095(30) 10840730. 0.000935 0.000935
119194. 2.46951 0.00084(31) 10441336. 0.000933 0.000933
119206. 2.46976 0.00069(23) 18232354. 0.000931 0.000931
119218. 2.47001 0.00086(28) 12869329. 0.000929 0.000929
119230. 2.47026 0.00068(26) 14815848. 0.000927 0.000927
119242. 2.47050 0.00078(29) 11864743. 0.000925 0.000925
119254. 2.47075 0.00065(25) 15787299. 0.000923 0.000923
119266. 2.47100 0.00075(27) 13261492. 0.000921 0.000921
119278. 2.47125 0.00062(25) 16201785. 0.000919 0.000919
119290. 2.47150 0.00059(23) 19080428. 0.000917 0.000917
119302. 2.47175 0.00061(26) 15014159. 0.000915 0.000915
119313. 2.47198 0.00069(27) 14182489. 0.000913 0.000913
119325. 2.47222 0.00087(30) 11173911. 0.000911 0.000911
119337. 2.47247 0.00066(25) 15505096. 0.000909 0.000909
119349. 2.47272 0.00040(19) 28183740. 0.000906 0.000906
119361. 2.47297 0.00043(20) 25829502. 0.000904 0.000904
119373. 2.47322 0.00099(32) 9701485. 0.000902 0.000902
119385. 2.47347 0.00121(34) 8848318. 0.000900 0.000900
119397. 2.47372 0.0014(4) 7829396. 0.00090 0.00090
119409. 2.47397 0.00105(31) 10491605. 0.000896 0.000896
119421. 2.47421 0.00117(33) 9326984. 0.000894 0.000894
119433. 2.47446 0.0013(4) 7385777. 0.00089 0.00089
119445. 2.47471 0.00088(31) 10369657. 0.000890 0.000890
119457. 2.47496 0.00111(33) 9216299. 0.000887 0.000887
119469. 2.47521 0.0014(4) 8047672. 0.00089 0.00089
119481. 2.47546 0.0013(4) 6366387. 0.00088 0.00088
119493. 2.47571 0.00055(23) 18573598. 0.000881 0.000881
119504. 2.47593 0.00103(33) 9430815. 0.000879 0.000879
119516. 2.47618 0.0011(4) 6988960. 0.00088 0.00088
119528. 2.47643 0.00047(23) 18667672. 0.000875 0.000875
119540. 2.47668 0.00057(24) 16871368. 0.000873 0.000873
119552. 2.47693 0.00100(33) 9380888. 0.000870 0.000870
119564. 2.47718 0.0013(4) 6601750. 0.00087 0.00087
119576. 2.47743 0.00094(32) 9802309. 0.000866 0.000866
119588. 2.47767 0.00077(29) 11663398. 0.000864 0.000864
119600. 2.47792 0.00070(29) 12190293. 0.000862 0.000862
119612. 2.47817 0.00075(29) 11923001. 0.000860 0.000860
119624. 2.47842 0.00046(21) 23335142. 0.000858 0.000858
119636. 2.47867 0.00057(25) 15591588. 0.000855 0.000855
119648. 2.47892 0.00074(29) 11998250. 0.000853 0.000853
119660. 2.47917 0.0014(4) 5812515. 0.00085 0.00085
119672. 2.47942 0.00096(31) 10373577. 0.000849 0.000849
119684. 2.47966 0.00114(35) 8186254. 0.000847 0.000847
119696. 2.47991 0.0011(4) 7846411. 0.00084 0.00084
119708. 2.48016 0.00088(33) 9088362. 0.000842 0.000842
119720. 2.48041 0.00096(34) 8565804. 0.000840 0.000840
119732. 2.48066 0.00075(28) 13133514. 0.000838 0.000838
119744. 2.48091 0.00084(33) 9241524. 0.000836 0.000836
119756. 2.48116 0.00087(33) 9418680. 0.000834 0.000834
119768. 2.48141 0.00080(31) 10740319. 0.000832 0.000832
119780. 2.48165 0.00059(25) 15734342. 0.000829 0.000829
119792. 2.48190 0.00096(34) 8596089. 0.000827 0.000827
119804. 2.48215 0.00064(26) 14649673. 0.000825 0.000825
119816. 2.48240 0.00056(24) 16715079. 0.000823 0.000823
119828. 2.48265 0.0013(4) 6112242. 0.00082 0.00082
119840. 2.48290 0.0013(4) 6499760. 0.00082 0.00082
119852. 2.48315 0.0010(4) 7034897. 0.00082 0.00082
119864. 2.48340 0.00077(33) 9214896. 0.000814 0.000814
119876. 2.48364 0.00065(28) 12651196. 0.000812 0.000812
119888. 2.48389 0.0012(4) 6819308. 0.00081 0.00081
119900. 2.48414 0.0013(4) 5792614. 0.00081 0.00081
119912. 2.48439 0.0012(4) 6603025. 0.00081 0.00081
119924. 2.48464 0.0014(4) 5698242. 0.00080 0.00080
119936. 2.48489 0.00091(31) 10270224. 0.000801 0.000801
119948. 2.48514 0.00066(26) 14388393. 0.000799 0.000799
119960. 2.48538 0.00078(33) 9430035. 0.000797 0.000797
119972. 2.48563 0.00082(28) 12560803. 0.000795 0.000795
119984. 2.48588 0.0014(4) 5946491. 0.00079 0.00079
119996. 2.48613 0.00083(30) 11228163. 0.000790 0.000790
120008. 2.48638 0.00066(28) 12872443. 0.000788 0.000788
120020. 2.48663 0.00036(19) 27587958. 0.000786 0.000786
120032. 2.48688 0.00087(32) 9979822. 0.000784 0.000784
120044. 2.48713 0.00102(35) 8322073. 0.000782 0.000782
120056. 2.48737 0.0011(4) 6889089. 0.00078 0.00078
120068. 2.48762 0.0010(4) 7208607. 0.00078 0.00078
120080. 2.48787 0.00056(25) 16232110. 0.000776 0.000776
120092. 2.48812 0.00065(27) 14177411. 0.000773 0.000773
120104. 2.48837 0.00095(33) 9352693. 0.000771 0.000771
120116. 2.48862 0.0012(4) 5713102. 0.00077 0.00077
120128. 2.48887 0.00054(27) 13801176. 0.000767 0.000767
120140. 2.48912 0.0010(4) 8112824. 0.00076 0.00076
120152. 2.48936 0.0013(4) 6403644. 0.00076 0.00076
120164. 2.48961 0.0012(4) 7920708. 0.00076 0.00076
120176. 2.48986 0.0011(4) 7356571. 0.00076 0.00076
120188. 2.49011 0.0014(4) 5324165. 0.00076 0.00076
120200. 2.49036 0.0017(5) 4393281. 0.00075 0.00075
120212. 2.49061 0.0014(4) 5255864. 0.00075 0.00075
120224. 2.49086 0.00055(22) 20033276. 0.000750 0.000750
120236. 2.49110 0.0009(4) 7275656. 0.00075 0.00075
120248. 2.49135 0.00083(33) 8922942. 0.000746 0.000746
120260. 2.49160 0.00070(25) 15537309. 0.000744 0.000744
120272. 2.49185 0.00093(35) 8339681. 0.000742 0.000742
120284. 2.49210 0.0010(4) 6614906. 0.00074 0.00074
120296. 2.49235 0.00048(21) 22823770. 0.000738 0.000738
120308. 2.49260 0.0013(4) 5316286. 0.00074 0.00074
120320. 2.49285 0.0012(4) 5693963. 0.00073 0.00073
120332. 2.49309 0.00077(28) 12630901. 0.000732 0.000732
120344. 2.49334 0.0013(4) 5688551. 0.00073 0.00073
120356. 2.49359 0.0020(6) 3229079. 0.00073 0.00073
120368. 2.49384 0.00096(34) 8746953. 0.000726 0.000726
120380. 2.49409 0.00090(34) 8509511. 0.000724 0.000724
120392. 2.49434 0.00051(24) 16724494. 0.000722 0.000722
120404. 2.49459 0.00054(24) 16703928. 0.000720 0.000720
120416. 2.49484 0.0010(4) 7600834. 0.00072 0.00072
120428. 2.49508 0.0011(4) 7294989. 0.00072 0.00072
120440. 2.49533 0.00078(32) 9835037. 0.000714 0.000714
120452. 2.49558 0.0010(4) 7854125. 0.00071 0.00071
120465. 2.49585 0.0013(4) 5300919. 0.00071 0.00071
120477. 2.49610 0.00094(34) 8405561. 0.000708 0.000708
120489. 2.49635 0.0017(5) 3667707. 0.00071 0.00071
120501. 2.49660 0.00068(31) 10453832. 0.000704 0.000704
120513. 2.49685 0.00073(33) 9212608. 0.000702 0.000702
120525. 2.49709 0.00063(30) 11180241. 0.000700 0.000700
120537. 2.49734 0.0016(5) 4085719. 0.00070 0.00070
120549. 2.49759 0.0011(4) 7468678. 0.00070 0.00070
120561. 2.49784 0.00081(30) 11175443. 0.000694 0.000694
120573. 2.49809 0.00076(33) 9184690. 0.000692 0.000692
120585. 2.49834 0.00059(30) 10872220. 0.000690 0.000690
120597. 2.49859 0.00068(29) 12181922. 0.000688 0.000688
120609. 2.49884 0.0012(4) 6729978. 0.00069 0.00069
120621. 2.49908 0.0014(5) 4670306. 0.00068 0.00068
120633. 2.49933 0.00072(33) 9238001. 0.000683 0.000683
120645. 2.49958 0.00065(31) 10560422. 0.000681 0.000681
120657. 2.49983 0.00095(34) 8860967. 0.000679 0.000679
120670. 2.50010 0.0014(4) 5077922. 0.00068 0.00068
120682. 2.50035 0.0010(4) 6364020. 0.00068 0.00068
120694. 2.50060 0.0014(5) 4155927. 0.00067 0.00067
120706. 2.50085 0.00056(23) 19604162. 0.000672 0.000672
120718. 2.50109 0.00071(29) 11551840. 0.000670 0.000670
120730. 2.50134 0.0013(4) 6510791. 0.00067 0.00067
120742. 2.50159 0.0016(5) 4879126. 0.00067 0.00067
120754. 2.50184 0.00067(30) 11295105. 0.000665 0.000665
120766. 2.50209 0.00053(27) 13574418. 0.000663 0.000663
120778. 2.50234 0.00067(29) 11993464. 0.000661 0.000661
120790. 2.50259 0.00076(30) 11138049. 0.000659 0.000659
120802. 2.50284 0.00075(30) 11347994. 0.000658 0.000658
120814. 2.50308 0.0013(4) 5148911. 0.00066 0.00066
120826. 2.50333 0.00099(33) 9072868. 0.000654 0.000654
120839. 2.50360 0.0010(4) 7823525. 0.00065 0.00065
120851. 2.50385 0.0009(4) 7565116. 0.00065 0.00065
120863. 2.50410 0.00045(26) 15180282. 0.000649 0.000649
120875. 2.50435 0.0009(4) 5686813. 0.00065 0.00065
120887. 2.50460 0.00081(35) 8153709. 0.000646 0.000646
120899. 2.50485 0.0008(4) 8027686. 0.00064 0.00064
120911. 2.50509 0.0010(4) 6185235. 0.00064 0.00064
120923. 2.50534 0.00053(24) 16946450. 0.000641 0.000641
120935. 2.50559 0.00052(23) 18745806. 0.000639 0.000639
120947. 2.50584 0.0011(4) 5988326. 0.00064 0.00064
120960. 2.50611 0.0011(4) 6776658. 0.00064 0.00064
120972. 2.50636 0.0013(5) 4871430. 0.00063 0.00063
120984. 2.50661 0.00075(34) 8445661. 0.000633 0.000633
120996. 2.50686 0.00033(22) 21372728. 0.000631 0.000631
121008. 2.50710 0.00059(31) 10361241. 0.000630 0.000630
121020. 2.50735 0.00062(28) 12788131. 0.000628 0.000628
121032. 2.50760 0.00076(29) 11767277. 0.000627 0.000627
121044. 2.50785 0.00092(35) 8176976. 0.000625 0.000625
121056. 2.50810 0.0012(5) 4883644. 0.00062 0.00062
121068. 2.50835 0.0011(4) 6986218. 0.00062 0.00062
121081. 2.50862 0.0015(5) 4922371. 0.00062 0.00062
121093. 2.50887 0.0013(5) 4314275. 0.00062 0.00062
121105. 2.50911 0.00067(32) 9907817. 0.000618 0.000618
121117. 2.50936 0.0012(5) 4924820. 0.00062 0.00062
121129. 2.50961 0.0014(5) 4546422. 0.00062 0.00062
121141. 2.50986 0.0012(4) 5886924. 0.00061 0.00061
121153. 2.51011 0.0013(5) 4894118. 0.00061 0.00061
121165. 2.51036 0.0015(5) 4552557. 0.00061 0.00061
121178. 2.51063 0.0016(5) 3648668. 0.00061 0.00061
121190. 2.51088 0.00060(29) 11655419. 0.000609 0.000609
121202. 2.51113 0.0008(4) 6964578. 0.00061 0.00061
121214. 2.51137 0.00044(25) 16475872. 0.000606 0.000606
121226. 2.51162 0.0013(4) 6117709. 0.00060 0.00060
121238. 2.51187 0.0015(5) 4707367. 0.00060 0.00060
121250. 2.51212 0.0012(4) 5970513. 0.00060 0.00060
121262. 2.51237 0.00082(35) 8291707. 0.000601 0.000601
121275. 2.51264 0.00053(30) 10799819. 0.000600 0.000600
121287. 2.51289 0.00073(35) 8168907. 0.000599 0.000599
121299. 2.51314 0.00065(30) 11441443. 0.000597 0.000597
121311. 2.51338 0.0009(4) 6575369. 0.00060 0.00060
121323. 2.51363 0.00045(21) 22868686. 0.000595 0.000595
121335. 2.51388 0.0010(4) 5899405. 0.00059 0.00059
121347. 2.51413 0.00041(22) 20163028. 0.000593 0.000593
121359. 2.51438 0.00057(26) 14859972. 0.000592 0.000592
121372. 2.51465 0.0012(4) 5106262. 0.00059 0.00059
121384. 2.51490 0.00079(33) 9044363. 0.000590 0.000590
121396. 2.51515 0.00072(30) 11480351. 0.000589 0.000589
121408. 2.51539 0.00081(32) 9854611. 0.000587 0.000587
121420. 2.51564 0.0014(4) 5016904. 0.00059 0.00059
121432. 2.51589 0.0013(4) 6004714. 0.00059 0.00059
121444. 2.51614 0.00054(21) 23001216. 0.000584 0.000584
121457. 2.51641 0.00069(29) 11799452. 0.000583 0.000583
121469. 2.51666 0.0015(5) 3745802. 0.00058 0.00058
121481. 2.51691 0.0009(4) 6909283. 0.00058 0.00058
121493. 2.51716 0.00061(31) 10481318. 0.000581 0.000581
121505. 2.51740 0.00053(28) 12881494. 0.000580 0.000580
121517. 2.51765 0.00035(18) 30734360. 0.000579 0.000579
121529. 2.51790 0.00069(28) 12415008. 0.000578 0.000578
121542. 2.51817 0.0013(4) 5093037. 0.00058 0.00058
121554. 2.51842 0.0012(4) 5813802. 0.00058 0.00058
121566. 2.51867 0.00067(32) 9700439. 0.000576 0.000576
121578. 2.51892 0.00059(30) 10917715. 0.000575 0.000575
121590. 2.51917 0.00088(35) 8159828. 0.000574 0.000574
121602. 2.51942 0.00073(32) 10042058. 0.000573 0.000573
121615. 2.51968 0.00078(31) 10230028. 0.000573 0.000573
121627. 2.51993 0.0014(4) 5704528. 0.00057 0.00057
121639. 2.52018 0.00088(33) 9074396. 0.000571 0.000571
121651. 2.52043 0.00080(32) 9900931. 0.000571 0.000571
121663. 2.52068 0.0012(4) 5959134. 0.00057 0.00057
121675. 2.52093 0.0012(4) 6069067. 0.00057 0.00057
121688. 2.52120 0.0014(4) 5241235. 0.00057 0.00057
121700. 2.52145 0.00072(29) 11855849. 0.000568 0.000568
121712. 2.52169 0.00062(27) 13840748. 0.000567 0.000567
121724. 2.52194 0.0011(4) 6427614. 0.00057 0.00057
121736. 2.52219 0.00094(34) 8774455. 0.000566 0.000566
121748. 2.52244 0.00088(34) 8827950. 0.000566 0.000566
121761. 2.52271 0.0013(4) 6117740. 0.00057 0.00057
121773. 2.52296 0.0019(5) 3824117. 0.00056 0.00056
121785. 2.52321 0.00084(34) 8540640. 0.000564 0.000564
121797. 2.52346 0.00067(29) 11773617. 0.000564 0.000564
121809. 2.52371 0.00051(24) 16972818. 0.000564 0.000564
121822. 2.52397 0.00080(34) 8865731. 0.000563 0.000563
121834. 2.52422 0.00102(34) 8569150. 0.000563 0.000563
121846. 2.52447 0.00094(33) 9201235. 0.000562 0.000562
121858. 2.52472 0.0012(4) 6041944. 0.00056 0.00056
121870. 2.52497 0.00065(26) 14942373. 0.000562 0.000562
121882. 2.52522 0.0012(4) 6385625. 0.00056 0.00056
121895. 2.52549 0.00099(32) 9614159. 0.000561 0.000561
121907. 2.52574 0.00099(32) 9685463. 0.000561 0.000561
121919. 2.52599 0.0013(4) 5867198. 0.00056 0.00056
121931. 2.52623 0.0013(4) 6342903. 0.00056 0.00056
121943. 2.52648 0.00084(29) 11614346. 0.000560 0.000560
121956. 2.52675 0.00087(33) 8979311. 0.000560 0.000560
121968. 2.52700 0.00034(18) 32030844. 0.000560 0.000560
121980. 2.52725 0.0013(4) 5620591. 0.00056 0.00056
121992. 2.52750 0.0011(4) 7951423. 0.00056 0.00056
122004. 2.52775 0.00082(29) 11554504. 0.000559 0.000559
122017. 2.52802 0.00077(30) 11029780. 0.000559 0.000559
122029. 2.52826 0.0010(4) 6824500. 0.00056 0.00056
122041. 2.52851 0.00042(23) 19103664. 0.000559 0.000559
122053. 2.52876 0.00034(21) 22215190. 0.000559 0.000559
122066. 2.52903 0.00052(24) 17087700. 0.000559 0.000559
122078. 2.52928 0.00071(28) 13107213. 0.000559 0.000559
122090. 2.52953 0.0010(4) 7412571. 0.00056 0.00056
122102. 2.52978 0.0012(4) 5298986. 0.00056 0.00056
122114. 2.53003 0.0010(4) 7540624. 0.00056 0.00056
122127. 2.53030 0.00047(20) 26274614. 0.000560 0.000560
122139. 2.53054 0.00078(31) 10127025. 0.000560 0.000560
122151. 2.53079 0.0010(4) 8009150. 0.00056 0.00056
122163. 2.53104 0.00101(35) 8267440. 0.000560 0.000560
122175. 2.53129 0.0010(4) 7715378. 0.00056 0.00056
122188. 2.53156 0.00065(29) 12053409. 0.000560 0.000560
122200. 2.53181 0.0010(4) 6752858. 0.00056 0.00056
122212. 2.53206 0.00040(21) 22009860. 0.000561 0.000561
122224. 2.53231 0.00036(21) 22381192. 0.000561 0.000561
122237. 2.53258 0.00082(34) 8896901. 0.000561 0.000561
122249. 2.53282 0.0013(4) 5910203. 0.00056 0.00056
122261. 2.53307 0.0011(4) 6238850. 0.00056 0.00056
122273. 2.53332 0.00078(33) 9105763. 0.000562 0.000562
122285. 2.53357 0.00064(28) 13198769. 0.000563 0.000563
122298. 2.53384 0.00060(29) 11814377. 0.000563 0.000563
122310. 2.53409 0.00046(25) 16509005. 0.000564 0.000564
122322. 2.53434 0.0009(4) 7094513. 0.00056 0.00056
122334. 2.53459 0.00039(19) 26934190. 0.000564 0.000564
122347. 2.53486 0.00073(31) 10085515. 0.000565 0.000565
122359. 2.53510 0.00062(27) 14012502. 0.000565 0.000565
122371. 2.53535 0.0012(4) 5534591. 0.00057 0.00057
122383. 2.53560 0.00094(32) 9518216. 0.000566 0.000566
122396. 2.53587 0.0010(4) 6638466. 0.00057 0.00057
122408. 2.53612 0.00057(28) 12740012. 0.000568 0.000568
122420. 2.53637 0.0009(4) 6717667. 0.00057 0.00057
122432. 2.53662 0.00024(15) 47309052. 0.000569 0.000569
122445. 2.53689 0.00073(31) 10678448. 0.000569 0.000569
122457. 2.53714 0.00077(32) 9526786. 0.000570 0.000570
122469. 2.53738 0.00077(33) 8998438. 0.000571 0.000571
122481. 2.53763 0.0015(5) 4325649. 0.00057 0.00057
122493. 2.53788 0.0012(4) 6320515. 0.00057 0.00057
122506. 2.53815 0.0011(4) 7307429. 0.00057 0.00057
122518. 2.53840 0.0014(4) 5340370. 0.00057 0.00057
122530. 2.53865 0.00056(25) 15587378. 0.000574 0.000574
122543. 2.53892 0.00074(33) 9280427. 0.000575 0.000575
122555. 2.53917 0.0011(4) 6486320. 0.00058 0.00058
122567. 2.53941 0.0012(4) 6548914. 0.00058 0.00058
122579. 2.53966 0.0011(4) 6821226. 0.00058 0.00058
122592. 2.53993 0.00066(32) 10059837. 0.000578 0.000578
122604. 2.54018 0.00046(25) 16077927. 0.000579 0.000579
122616. 2.54043 0.00032(17) 33453978. 0.000580 0.000580
122628. 2.54068 0.00061(26) 14862105. 0.000581 0.000581
122641. 2.54095 0.0012(4) 6064680. 0.00058 0.00058
122653. 2.54120 0.00082(33) 8913704. 0.000583 0.000583
122665. 2.54145 0.0008(4) 7816517. 0.00058 0.00058
122677. 2.54169 0.00063(27) 13424276. 0.000585 0.000585
122690. 2.54196 0.00081(34) 8439906. 0.000586 0.000586
122702. 2.54221 0.00045(26) 14409543. 0.000587 0.000587
122714. 2.54246 0.0014(5) 4680495. 0.00059 0.00059
122727. 2.54273 0.00063(27) 13276131. 0.000589 0.000589
122739. 2.54298 0.00058(27) 13637428. 0.000590 0.000590
122751. 2.54323 0.00058(24) 17157012. 0.000591 0.000591
122763. 2.54348 0.00071(29) 11669947. 0.000592 0.000592
122776. 2.54375 0.00070(31) 10396633. 0.000593 0.000593
122788. 2.54400 0.00078(33) 8937550. 0.000594 0.000594
122800. 2.54424 0.00071(31) 10182048. 0.000595 0.000595
122812. 2.54449 0.00048(24) 16730144. 0.000596 0.000596
122825. 2.54476 0.00052(24) 17344746. 0.000597 0.000597
122837. 2.54501 0.00043(20) 25369422. 0.000598 0.000598
122849. 2.54526 0.00075(33) 9231704. 0.000600 0.000600
122862. 2.54553 0.00059(29) 11611807. 0.000601 0.000601
122874. 2.54578 0.00037(22) 19983636. 0.000602 0.000602
122886. 2.54603 0.00060(30) 11006505. 0.000603 0.000603
122898. 2.54627 0.00054(27) 13229954. 0.000604 0.000604
122911. 2.54654 0.00062(28) 12670695. 0.000605 0.000605
122923. 2.54679 0.00081(32) 9603959. 0.000607 0.000607
122935. 2.54704 0.0010(4) 6821782. 0.00061 0.00061
122948. 2.54731 0.00057(28) 12331816. 0.000609 0.000609
122960. 2.54756 0.00077(33) 9140738. 0.000610 0.000610
122972. 2.54781 0.00063(27) 13770531. 0.000612 0.000612
122985. 2.54808 0.0011(4) 5772648. 0.00061 0.00061
122997. 2.54833 0.0008(4) 7707954. 0.00061 0.00061
123009. 2.54858 0.00051(26) 14428426. 0.000616 0.000616
123021. 2.54882 0.00107(34) 8799622. 0.000617 0.000617
123034. 2.54909 0.0016(5) 4518256. 0.00062 0.00062
123046. 2.54934 0.00084(33) 8944916. 0.000620 0.000620
123058. 2.54959 0.00065(29) 11846870. 0.000621 0.000621
123071. 2.54986 0.00060(27) 13272310. 0.000622 0.000622
123083. 2.55011 0.0010(4) 5863000. 0.00062 0.00062
123095. 2.55036 0.0009(4) 7911033. 0.00062 0.00062
123108. 2.55063 0.0008(4) 7911626. 0.00063 0.00063
123120. 2.55088 0.00031(16) 37033464. 0.000628 0.000628
123132. 2.55112 0.00078(33) 9290572. 0.000629 0.000629
123144. 2.55137 0.0011(4) 5660865. 0.00063 0.00063
123157. 2.55164 0.00072(28) 12649454. 0.000632 0.000632
123169. 2.55189 0.0012(4) 5236831. 0.00063 0.00063
123181. 2.55214 0.00053(27) 14007679. 0.000634 0.000634
123194. 2.55241 0.00071(34) 8681790. 0.000636 0.000636
123206. 2.55266 0.00071(33) 9000905. 0.000637 0.000637
123219. 2.55293 0.0009(4) 6500449. 0.00064 0.00064
123231. 2.55318 0.0014(5) 4236932. 0.00064 0.00064
123243. 2.55343 0.0016(5) 3731979. 0.00064 0.00064
123255. 2.55367 0.00063(30) 11441920. 0.000643 0.000643
123268. 2.55394 0.00042(25) 15427750. 0.000644 0.000644
123280. 2.55419 0.00048(26) 14618084. 0.000645 0.000645
123292. 2.55444 0.0012(4) 5349984. 0.00065 0.00065
123305. 2.55471 0.0008(4) 7784022. 0.00065 0.00065
123317. 2.55496 0.0010(4) 5501489. 0.00065 0.00065
123329. 2.55521 0.0009(4) 7190445. 0.00065 0.00065
123342. 2.55548 0.00074(32) 9700759. 0.000652 0.000652
123354. 2.55573 0.00057(26) 14833254. 0.000654 0.000654
123366. 2.55597 0.00082(35) 8381404. 0.000655 0.000655
123379. 2.55624 0.0011(4) 5754390. 0.00066 0.00066
123391. 2.55649 0.0009(4) 8022903. 0.00066 0.00066
123403. 2.55674 0.00044(21) 23302730. 0.000659 0.000659
123416. 2.55701 0.0012(4) 5410748. 0.00066 0.00066
123428. 2.55726 0.0018(6) 3284584. 0.00066 0.00066
123440. 2.55751 0.00094(33) 9327248. 0.000663 0.000663
123453. 2.55778 0.0011(4) 6111508. 0.00066 0.00066
123465. 2.55803 0.0011(4) 6549434. 0.00067 0.00067
123478. 2.55830 0.0013(5) 4566237. 0.00067 0.00067
123490. 2.55854 0.0014(5) 4216844. 0.00067 0.00067
123502. 2.55879 0.0012(4) 5183525. 0.00067 0.00067
123515. 2.55906 0.00030(19) 28854668. 0.000671 0.000671
123527. 2.55931 0.00066(29) 12142641. 0.000672 0.000672
123539. 2.55956 0.0014(5) 4607698. 0.00067 0.00067
123552. 2.55983 0.00052(26) 14292800. 0.000674 0.000674
123564. 2.56008 0.0006(4) 7682952. 0.00068 0.00068
123576. 2.56033 0.00041(25) 16154037. 0.000676 0.000676
123589. 2.56060 0.00059(31) 10343597. 0.000678 0.000678
123601. 2.56084 0.00043(26) 14470312. 0.000679 0.000679
123613. 2.56109 0.00009(9) 135480544. 0.000680 0.000680
123626. 2.56136 0.00061(33) 9068794. 0.000681 0.000681
123638. 2.56161 0.00069(29) 12176764. 0.000682 0.000682
123651. 2.56188 0.0013(5) 4558171. 0.00068 0.00068
123663. 2.56213 0.0012(5) 4936467. 0.00068 0.00068
123675. 2.56238 0.0013(5) 4754483. 0.00068 0.00068
123688. 2.56265 0.00036(25) 16341853. 0.000686 0.000686
123700. 2.56290 0.00015(15) 45891936. 0.000687 0.000687
123712. 2.56315 0.00054(32) 9468989. 0.000688 0.000688
123725. 2.56341 0.00043(26) 14439678. 0.000689 0.000689
123737. 2.56366 0.0009(4) 5474639. 0.00069 0.00069
123749. 2.56391 0.00047(26) 14336717. 0.000690 0.000690
123762. 2.56418 0.0012(4) 4996391. 0.00069 0.00069
123774. 2.56443 0.00087(34) 8648959. 0.000692 0.000692
123787. 2.56470 0.00052(27) 13993261. 0.000692 0.000692
123799. 2.56495 0.00017(13) 63864468. 0.000693 0.000693
123811. 2.56520 0.00016(15) 44970780. 0.000694 0.000694
123824. 2.56547 0.00040(21) 23457288. 0.000694 0.000694
123836. 2.56572 0.00080(34) 8577949. 0.000695 0.000695
123849. 2.56598 0.00040(22) 20831080. 0.000695 0.000695
123861. 2.56623 0.00039(21) 22013046. 0.000696 0.000696
123873. 2.56648 0.00056(29) 11760037. 0.000696 0.000696
123886. 2.56675 0.00049(29) 11494144. 0.000697 0.000697
123898. 2.56700 0.0007(4) 6709712. 0.00070 0.00070
123910. 2.56725 0.00046(27) 13919910. 0.000698 0.000698
123923. 2.56752 0.00060(32) 9876415. 0.000698 0.000698
123935. 2.56777 0.0011(4) 5471757. 0.00070 0.00070
123948. 2.56804 0.0009(4) 7286379. 0.00070 0.00070
123960. 2.56828 0.0007(4) 7527779. 0.00070 0.00070
123973. 2.56855 0.00035(20) 25959156. 0.000698 0.000698
123985. 2.56880 0.0010(4) 5111913. 0.00070 0.00070
123997. 2.56905 0.0010(4) 6195156. 0.00070 0.00070
124010. 2.56932 0.00044(25) 16272151. 0.000698 0.000698
124022. 2.56957 0.00018(13) 58934180. 0.000698 0.000698
124034. 2.56982 0.00049(30) 11093497. 0.000698 0.000698
124047. 2.57009 0.00051(25) 16106305. 0.000698 0.000698
124059. 2.57034 0.0010(4) 5717635. 0.00070 0.00070
124072. 2.57061 0.0013(5) 4270229. 0.00070 0.00070
124084. 2.57085 0.00082(34) 8449088. 0.000697 0.000697
124097. 2.57112 0.0009(4) 5315305. 0.00070 0.00070
124109. 2.57137 0.0009(4) 6187963. 0.00070 0.00070
124121. 2.57162 0.0008(4) 7710869. 0.00069 0.00069
124134. 2.57189 0.00079(35) 8248992. 0.000694 0.000694
124146. 2.57214 0.0008(4) 6903538. 0.00069 0.00069
124159. 2.57241 0.0013(5) 3601150. 0.00069 0.00069
124171. 2.57266 0.0010(4) 4960268. 0.00069 0.00069
124183. 2.57291 0.00053(26) 14637162. 0.000691 0.000691
124196. 2.57318 0.00078(35) 8396675. 0.000690 0.000690
124208. 2.57342 0.0011(4) 5165145. 0.00069 0.00069
124221. 2.57369 0.0009(4) 5745329. 0.00069 0.00069
124233. 2.57394 0.0007(4) 7565722. 0.00069 0.00069
124246. 2.57421 0.0008(4) 6336753. 0.00068 0.00068
124258. 2.57446 0.0011(5) 4574515. 0.00068 0.00068
124270. 2.57471 0.0007(4) 7606488. 0.00068 0.00068
124283. 2.57498 0.00065(34) 8598775. 0.000680 0.000680
124295. 2.57523 0.00088(34) 8876432. 0.000678 0.000678
124308. 2.57550 0.0017(6) 3153563. 0.00068 0.00068
124320. 2.57575 0.0011(4) 5537001. 0.00067 0.00067
124333. 2.57602 0.0010(4) 6169142. 0.00067 0.00067
124345. 2.57626 0.0013(4) 5347610. 0.00067 0.00067
124357. 2.57651 0.0019(5) 3381031. 0.00067 0.00067
124370. 2.57678 0.0010(4) 6661395. 0.00067 0.00067
124382. 2.57703 0.0009(4) 5616345. 0.00066 0.00066
124395. 2.57730 0.0017(6) 2731223. 0.00066 0.00066
124407. 2.57755 0.0016(5) 3963643. 0.00066 0.00066
124420. 2.57782 0.0018(6) 2731519. 0.00066 0.00066
124432. 2.57807 0.00034(20) 24060398. 0.000653 0.000653
124445. 2.57834 0.00028(20) 25959004. 0.000650 0.000650
124457. 2.57859 0.0007(4) 6804064. 0.00065 0.00065
124469. 2.57883 0.00050(27) 13871314. 0.000644 0.000644
124482. 2.57910 0.0011(5) 4038854. 0.00064 0.00064
124494. 2.57935 0.0007(4) 6975931. 0.00064 0.00064
124507. 2.57962 0.00074(35) 8205738. 0.000634 0.000634
124519. 2.57987 0.0011(4) 5297193. 0.00063 0.00063
124532. 2.58014 0.0012(5) 4428032. 0.00063 0.00063
124544. 2.58039 0.0010(4) 6022589. 0.00062 0.00062
124557. 2.58066 0.0013(5) 3331814. 0.00062 0.00062
124569. 2.58091 0.0007(4) 7522285. 0.00061 0.00061
124582. 2.58118 0.00070(33) 9213274. 0.000610 0.000610
124594. 2.58142 0.0009(4) 5477872. 0.00061 0.00061
124607. 2.58169 0.0009(5) 4052760. 0.00060 0.00060
124619. 2.58194 0.0005(4) 7067617. 0.00060 0.00060
124631. 2.58219 0.00028(22) 20551240. 0.000591 0.000591
124644. 2.58246 0.0010(4) 5364283. 0.00059 0.00059
124656. 2.58271 0.0009(4) 6265248. 0.00058 0.00058
124669. 2.58298 0.0008(4) 5617972. 0.00058 0.00058
124681. 2.58323 0.00050(33) 9047142. 0.000570 0.000570
124694. 2.58350 0.0008(5) 4388589. 0.00056 0.00056
124706. 2.58375 0.00072(30) 11154881. 0.000559 0.000559
124719. 2.58402 0.0020(7) 1960197. 0.00055 0.00055
124731. 2.58426 0.0014(6) 2778376. 0.00055 0.00055
124744. 2.58453 0.0015(6) 2714351. 0.00054 0.00054
124756. 2.58478 0.00045(24) 17059642. 0.000534 0.000534
124769. 2.58505 0.00048(29) 11493507. 0.000528 0.000528
124781. 2.58530 0.0018(7) 1926192. 0.00052 0.00052
124793. 2.58555 0.0010(5) 3909172. 0.00051 0.00051
124806. 2.58582 0.0010(5) 3730314. 0.00051 0.00051
124818. 2.58607 0.0015(6) 2868764. 0.00050 0.00050
124831. 2.58634 0.0012(5) 4310444. 0.00049 0.00049
124843. 2.58659 0.0010(4) 5109214. 0.00048 0.00048
124856. 2.58685 0.0007(4) 7466338. 0.00048 0.00048
124868. 2.58710 0.0007(4) 5466559. 0.00047 0.00047
124881. 2.58737 0.0012(5) 4896884. 0.00046 0.00046
124893. 2.58762 0.0019(7) 2231704. 0.00045 0.00045
124906. 2.58789 0.00039(27) 13614822. 0.000443 0.000443
124918. 2.58814 0.0006(4) 7088336. 0.00043 0.00043
124931. 2.58841 0.0005(4) 7151101. 0.00043 0.00043
124943. 2.58866 0.0006(4) 5549000. 0.00042 0.00042
124956. 2.58893 0.00056(32) 9725731. 0.000407 0.000407
124968. 2.58918 0.0013(5) 3474701. 0.00040 0.00040
124981. 2.58945 0.0014(6) 3208072. 0.00039 0.00039
124993. 2.58969 0.0012(5) 3611656. 0.00038 0.00038
125006. . 0.0011(5) . . .
125018. . 0.0014(6) . . .
125031. . 0.0015(7) . . .
125043. . 0.0007(4) . . .
125056. . 0.00024(23) . . .
125068. . 0.00050(29) . . .
125081. . 0.0006(4) . . .
125094. . 0.0011(6) . . .
125106. . 0.0010(6) . . .
125118. . 0.0012(6) . . .
125131. . 0.0014(6) . . .
125144. . 0.0005(4) . . .
125156. . 0.0008(5) . . .
125169. . 0.0004(4) . . .
125181. . 0.00003(10) . . .
125194. . 0.0007(5) . . .
125206. . 0.0006(4) . . .
125219. . 0.00036(29) . . .
125231. . 0.0006(4) . . .
125244. . 0.0008(6) . . .
125256. . 0.0004(4) . . .
125269. . 0.00043(26) . . .
125281. . 0.0011(6) . . .
125294. . 0.0010(6) . . .
125306. . 0.0011(6) . . .
125319. . 0.0021(8) . . .
125331. . 0.0011(5) . . .
125344. . 0.0006(4) . . .
125356. . 0.0007(5) . . .
125369. . 0.00044(33) . . .
125382. . 0.00025(23) . . .
125394. . 0.0007(5) . . .
125407. . 0.00027(22) . . .
125419. . 0.0004(4) . . .
125432. . 0.0008(6) . . .
125444. . 0.0010(5) . . .
125457. . 0.0015(8) . . .
125469. . 0.00033(24) . . .
125482. . 0.0007(5) . . .
125495. . 0.0009(6) . . .
125507. . 0.00045(33) . . .
125520. . 0.0014(8) . . .
125532. . 0.0013(7) . . .
125545. . 0.0013(7) . . .
125557. . 0.00024(20) . . .
125570. . 0.00012(16) . . .
125582. . 0.0011(7) . . .
125595. . 0.0015(8) . . .
125607. . 0.0004(4) . . .
125620. . 0.00032(28) . . .
125633. . 0.0018(10) . . .
125645. . 0.0012(7) . . .
125658. . 0.0008(6) . . .
125670. . 0.00024(23) . . .
125683. . 0.0012(9) . . .
125695. . 0.00(8) . . .
125708. . 0.00003(13) . . .
125721. . 0.0008(7) . . .
125733. . 0.0013(8) . . .
125746. . 0.0015(10) . . .
125758. . 0.0007(7) . . .
125771. . 0.00007(16) . . .
125784. . 0.0007(7) . . .
125796. . 0.0007(7) . . .
125809. . 0.0010(8) . . .
125821. . 0.0013(9) . . .
125834. . 0.0010(8) . . .
125846. . 0.0017(10) . . .
125859. . 0.0006(4) . . .
125872. . 0.0009(8) . . .
125884. . 0.0009(8) . . .
125897. . 0.000005(23) . . .
125909. . 0.00013(20) . . .
125922. . 0.0008(8) . . .
125935. . 0.0013(10) . . .
125947. . 0.0006(5) . . .
125960. . 0.00002(8) . . .
125972. . 0.0004(4) . . .
125985. . 0.0008(7) . . .
125997. . 0.0018(13) . . .
126010. . 0.00012(21) . . .
126023. . 0.0012(11) . . .
126035. . 0.0019(14) . . .
126048. . 0.00023(25) . . .
126061. . 0.0012(12) . . .
126073. . 0.0011(11) . . .
126086. . 0.000003(14) . . .
126098. . 0.00011(26) . . .
126111. . 0.0012(13) . . .
126124. . 0.0012(12) . . .
126136. . 0.0013(10) . . .
126149. . 0.0034(21) . . .
126161. . 0.000003(16) . . .
126174. . 0.0002(4) . . .
126187. . 0.0029(21) . . .
126199. . 0.00013(13) . . .
126212. . 0.00(8) . . .
126225. . 0.00007(33) . . .
126237. . 0.0014(15) . . .
126250. . 0.0004(5) . . .
126262. . 0.0020(19) . . .
126275. . 0.0022(20) . . .
126288. . 0.00(8) . . .
126300. . 0.00(8) . . .
126313. . 0.00(8) . . .
126326. . 0.00001(5) . . .
126338. . 0.0003(6) . . .
126351. . 0.0027(28) . . .
126364. . 0.00(8) . . .
126376. . 0.00001(6) . . .
126389. . 0.0005(9) . . .
126401. . 0.004(4) . . .
126414. . 0.00(8) . . .
126427. . 0.0002(10) . . .
126439. . 0.005(5) . . .
126452. . 0.0010(10) . . .
126465. . 0.00(8) . . .
126477. . 0.00(8) . . .
126490. . 0.00(8) . . .
126503. . 0.00(8) . . .
126515. . 0.00(8) . . .
126528. . 0.00(8) . . .
126541. . 0.000000(8) . . .
loop_
_refln_index_h
_refln_index_k
_refln_index_l
_refln_observed_status
_refln_F_squared_meas
_refln_F_squared_calc
_refln_phase_calc
_refln_d_spacing
_gsas_i100_meas
1 1 3 o 40.619 25.541 38.53 2.38972 76.08
0 0 6 o 23.370 25.668 -88.46 2.31295 6.42
2 0 2 o 40.807 48.955 -23.47 2.28255 30.66
2 0 -4 o 290.938 280.274 42.18 1.98323 100.00
2 1 1 o 29.256 19.248 -93.24 1.81150 18.64
1 1 6 o 81.374 86.214 69.39 1.78089 45.04
2 1 -2 o 10.337 10.881 -142.04 1.76690 6.03
1 0 -8 o 86.301 85.208 26.57 1.63277 17.13
2 1 4 o 91.013 95.498 -8.34 1.61665 34.47
3 0 0 o 120.071 129.303 -7.67 1.61138 21.84
2 1 -5 o 26.950 18.941 9.70 1.52613 8.71
2 0 8 o 117.256 117.324 -92.26 1.40932 12.89
2 2 0 o 235.834 224.834 0.00 1.39549 23.40
1 1 9 o 26.619 24.336 -64.41 1.34968 5.26
2 1 7 o 19.622 18.638 163.82 1.34356 3.83
2 2 3 o 1.794 1.327 -141.47 1.33602 0.35
1 0 10 o 125.093 123.552 35.91 1.33389 11.09
3 1 -1 o 60.115 57.210 112.66 1.33453 11.12
3 0 6 o 20.829 21.846 80.91 1.32215 1.90
3 0 -6 o 27.766 28.959 -47.12 1.32215 2.52
3 1 2 o 35.876 35.067 122.93 1.31640 6.38
2 1 -8 o 48.716 48.003 28.12 1.25803 7.19
3 1 -4 o 46.821 46.356 1.41 1.25061 6.75
3 1 5 o 60.153 56.295 9.72 1.20727 7.51
2 0 -10 o 18.688 18.528 -111.34 1.20351 1.18
2 2 6 o 1.955 2.138 24.60 1.19486 0.24
4 0 -2 o 11.655 10.898 -26.45 1.19061 0.71
0 0 12 o 53.906 52.680 -178.47 1.15648 0.95
4 0 4 o 125.661 124.881 -38.43 1.14127 6.09
3 1 -7 o 55.144 55.396 -144.39 1.11062 4.95
2 1 10 o 91.764 87.528 27.96 1.10514 7.97
3 2 1 o 10.246 9.290 -147.50 1.10550 0.92
3 2 -2 o 9.151 8.723 -38.65 1.09513 0.79
1 1 12 o 66.137 62.328 -50.89 1.06839 5.08
3 1 8 o 96.322 91.528 -20.30 1.06083 7.11
3 2 4 o 112.050 110.527 -36.37 1.05637 8.08
4 1 0 o 75.511 81.891 10.44 1.05489 5.48
2 1 -11 o 17.665 17.758 112.64 1.03817 1.23
2 2 9 o 1.725 1.264 115.59 1.03468 0.12
3 2 -5 o 12.062 9.141 -44.56 1.02986 0.82
4 1 -3 o 30.203 29.295 -15.15 1.02849 2.02
4 1 3 o 30.166 29.295 -118.09 1.02849 2.02
4 0 -8 o 106.130 89.303 63.39 0.99161 3.01
1 0 -14 o 120.850 101.587 -1.99 0.97106 3.14
3 2 7 o 8.977 8.995 109.55 0.96788 0.48
3 1 -10 o 161.972 142.998 -33.94 0.96425 8.08
4 1 6 o 54.014 51.388 54.91 0.95978 2.73
4 1 -6 o 46.487 44.376 -81.69 0.95978 2.35
5 0 2 o 10.914 14.719 -28.36 0.95758 0.28
3 0 12 o 10.442 11.177 -60.16 0.93955 0.25
3 0 -12 o 28.451 30.433 85.83 0.93955 0.66
3 2 -8 o 94.228 84.588 59.32 0.93439 4.23
5 0 -4 o 203.354 201.145 34.81 0.93134 4.35
3 3 0 o 32.080 32.928 0.00 0.93033 0.72
2 1 13 o 18.974 17.195 60.88 0.92173 0.83
3 1 11 o 55.497 52.782 -93.22 0.91880 2.36
2 0 14 o 126.345 127.975 60.33 0.91713 2.60
4 0 10 o 47.568 47.838 64.29 0.91139 0.98
3 3 3 o 54.338 56.419 38.53 0.91207 2.24
4 2 -1 o 6.642 6.903 -74.37 0.91159 0.28
4 2 2 o 0.168 3.150 147.52 0.90575 0.01
2 2 12 o 9.972 11.831 -130.75 0.89045 0.38
4 2 -4 o 115.342 106.913 15.42 0.88345 4.13
1 1 15 o 21.740 22.094 -167.35 0.87819 0.78
4 1 9 o 29.444 27.913 138.97 0.87065 1.02
2 1 -14 o 143.311 128.716 -10.48 0.87130 4.83
4 1 -9 o 29.551 27.913 87.80 0.87065 1.02
4 2 5 o 7.989 6.793 -177.31 0.86777 0.27
5 1 1 o 36.460 35.878 81.40 0.86654 1.23
3 2 10 o 54.537 52.827 59.73 0.86637 1.83
3 3 6 o 93.355 92.923 70.91 0.86312 3.06
5 1 -2 o 21.711 24.232 -148.87 0.86152 0.72
1 0 16 o 12.985 16.161 -92.16 0.85372 0.21
5 0 8 o 71.114 66.769 -83.85 0.84452 1.08
5 1 4 o 82.604 80.329 1.54 0.84226 2.47
3 1 -13 o 46.640 51.108 -41.45 0.83513 1.36
3 2 -11 o 9.648 8.571 58.38 0.83295 0.28
4 2 -7 o 7.039 6.684 28.57 0.82971 0.20
5 1 -5 o 34.142 35.305 -175.65 0.82864 0.97
2 0 -16 o 40.657 39.084 -92.15 0.81639 0.54
4 2 8 o 45.803 37.385 -41.82 0.80832 1.17
6 0 0 o 86.210 79.402 -22.30 0.80569 1.08
3 1 14 o 111.463 106.848 -3.83 0.79707 2.66
3 3 9 o 56.399 53.757 -64.41 0.79657 1.36
5 1 7 o 36.739 34.740 -21.54 0.79531 0.88
5 0 -10 o 15.010 13.539 -73.21 0.79329 0.18
4 3 1 o 14.509 13.346 -40.59 0.79343 0.35
4 3 -2 o 0.102 0.487 -12.85 0.78956 0.00
2 1 16 o 15.961 12.734 -123.74 0.78355 0.36
4 1 12 o 46.643 45.284 -72.28 0.77937 1.03
4 1 -12 o 25.663 24.595 46.52 0.77937 0.57
5 1 -8 o 54.999 47.361 15.42 0.77642 1.20
4 3 4 o 124.361 126.482 -26.67 0.77466 2.64
5 2 0 o 244.080 244.417 -1.08 0.77408 5.03
2 2 15 o 1.195 1.148 12.65 0.77111 0.03
0 0 18 o 318.002 292.591 22.75 0.77098 1.07
3 2 13 o 6.775 8.299 6.61 0.76910 0.14
4 0 -14 o 63.979 64.535 -36.49 0.76643 0.66
5 2 3 o 5.954 6.491 136.79 0.76346 0.12
4 3 -5 o 12.952 13.133 62.35 0.76402 0.27
6 0 6 o 49.673 52.524 96.25 0.76085 0.50
5 2 -3 o 5.991 6.491 -120.27 0.76346 0.12
4 2 -10 o 54.560 56.261 -31.10 0.76307 1.11
6 0 -6 o 63.529 65.338 -44.92 0.76085 0.64
2 1 -17 o 12.781 15.864 -144.42 0.74533 0.24
1 1 18 o 75.083 70.211 -23.78 0.74315 1.37
4 2 11 o 9.276 6.369 79.75 0.73994 0.17
3 2 -14 o 68.157 63.411 -31.71 0.73907 1.22
4 3 7 o 15.385 12.923 -143.54 0.73766 0.28
5 1 10 o 87.289 105.292 23.59 0.73605 1.52
6 1 -1 o 7.279 8.723 -30.05 0.73616 0.13
5 2 -6 o 1.622 1.794 36.74 0.73406 0.03
5 2 6 o 0.641 0.707 -52.92 0.73406 0.01
6 1 2 o 14.217 17.179 99.25 0.73307 0.25
3 1 -16 o 31.917 25.790 92.62 0.72825 0.54
3 3 12 o 74.388 66.662 -49.73 0.72489 1.23
4 3 -8 o 44.020 45.959 61.83 0.72251 0.72
6 1 -4 o 40.887 49.110 24.14 0.72110 0.66
5 1 -11 o 28.488 33.101 -72.71 0.71523 0.45
6 1 5 o 13.536 8.584 -132.99 0.71249 0.21
4 0 16 o 8.365 2.575 59.25 0.70466 0.06
4 4 0 o 66.510 44.673 0.00 0.69775 0.47
3 1 17 o 56.852 47.152 163.84 0.69726 0.81
3 0 18 o 127.406 125.644 -5.40 0.69548 0.88
4 1 15 o 25.134 25.341 36.03 0.69557 0.35
3 0 -18 o 84.613 82.113 -4.13 0.69548 0.59
4 1 -15 o 25.640 25.341 -169.26 0.69557 0.36
4 2 -13 o 9.431 6.167 131.51 0.69410 0.13
5 0 14 o 130.202 111.307 46.83 0.69213 0.89
5 2 9 o 7.519 6.185 33.85 0.69180 0.10
5 2 -9 o 7.556 6.185 -17.33 0.69180 0.10
6 1 -7 o 9.330 8.446 72.89 0.69097 0.13
4 4 3 o 25.628 23.552 -141.47 0.68994 0.35
4 3 10 o 38.901 32.775 45.46 0.68965 0.53
5 3 -1 o 22.556 19.386 103.81 0.68974 0.31
7 0 -2 o 38.451 36.785 22.28 0.68719 0.26
1 0 -20 o 19.257 13.908 -140.70 0.68685 0.13
5 3 2 o 27.112 24.868 117.48 0.68719 0.36
3 2 16 o 9.876 1.021 44.96 0.68322 0.13
6 1 8 o 95.759 82.347 -37.70 0.67847 1.21
2 1 19 o 16.465 15.116 -42.06 0.67822 0.21
7 0 4 o 224.087 230.349 -43.19 0.67730 1.37
5 3 -4 o 41.866 41.187 10.84 0.67730 0.53
2 2 18 o 167.987 154.127 11.38 0.67484 2.06
5 1 13 o 36.990 32.051 -124.48 0.67358 0.46
4 3 -11 o 15.279 12.313 165.29 0.67243 0.19
4 2 14 o 121.047 113.563 18.31 0.67178 1.47
5 3 5 o 18.612 19.076 0.87 0.67016 0.23
6 2 1 o 13.233 11.569 -113.51 0.66959 0.16
4 4 6 o 59.579 65.428 70.92 0.66801 0.71
2 0 20 o 63.255 63.529 33.36 0.66695 0.38
6 2 -2 o 41.736 42.730 -102.19 0.66727 0.50
