#------------------------------------------------------------------------------
#$Date: 2019-09-16 12:13:47 +0300 (Mon, 16 Sep 2019) $
#$Revision: 218314 $
#$URL: file:///home/coder/svn-repositories/cod/cif/7/23/38/7233868.cif $
#------------------------------------------------------------------------------
#
# This file is available in the Crystallography Open Database (COD),
# http://www.crystallography.net/
#
# All data on this site have been placed in the public domain by the
# contributors.
#
data_7233868
loop_
_publ_author_name
'Alexander N. Chernyshev'
'Dmitry Morozov'
'Jarkko Mutanen'
'Vadim Yu Kukushkin'
'Gerrit Groenhof'
'Matti Haukka'
_publ_section_title
;
 Weak intermolecular interactions promote blue luminescence of protonated
 2,2'-dipyridylamine salts
;
_journal_name_full               'Journal of Materials Chemistry C'
_journal_page_first              8285
_journal_page_last               8294
_journal_paper_doi               10.1039/C4TC01165A
_journal_volume                  2
_journal_year                    2014
_chemical_formula_moiety         'C10 H10 N3, I, H2 O'
_chemical_formula_sum            'C10 H12 I N3 O'
_chemical_formula_weight         317.13
_space_group_crystal_system      triclinic
_space_group_IT_number           2
_space_group_name_Hall           '-P 1'
_space_group_name_H-M_alt        'P -1'
_atom_sites_solution_hydrogens   mixed
_cell_angle_alpha                104.349(2)
_cell_angle_beta                 108.232(3)
_cell_angle_gamma                90.833(3)
_cell_formula_units_Z            2
_cell_length_a                   7.3741(5)
_cell_length_b                   8.9009(6)
_cell_length_c                   9.5009(6)
_cell_measurement_reflns_used    9759
_cell_measurement_temperature    100(2)
_cell_measurement_theta_max      40.29
_cell_measurement_theta_min      3.09
_cell_volume                     570.94(7)
_computing_cell_refinement       'SAINT (Bruker AXS, 2009)'
_computing_data_collection       'APEX2 (Bruker AXS, 2010)'
_computing_data_reduction        'SAINT (Bruker AXS, 2009)'
_computing_molecular_graphics
'CrystaMaker (CrystalMaker Software ltd., 2011)'
_computing_publication_material  'SHELXL-2013 (Sheldrick, 2013)'
_computing_structure_refinement  'SHELXL-2013 (Sheldrick, 2013)'
_computing_structure_solution    'SUPERFLIP (Palatinus & Chapuis, 2007)'
_diffrn_ambient_temperature      100(2)
_diffrn_detector_area_resol_mean 16
_diffrn_measured_fraction_theta_full 0.999
_diffrn_measured_fraction_theta_max 0.977
_diffrn_measurement_device
'62mm x 62mm CCD camera on three-circle goniostat'
_diffrn_measurement_device_type  'Bruker SMART APEX II CCD'
_diffrn_measurement_method       '\f scans and \w scans'
_diffrn_radiation_monochromator  'flat graphite crystal'
_diffrn_radiation_type           MoK\a
_diffrn_radiation_wavelength     0.71073
_diffrn_reflns_av_R_equivalents  0.0315
_diffrn_reflns_av_unetI/netI     0.0236
_diffrn_reflns_Laue_measured_fraction_full 0.999
_diffrn_reflns_Laue_measured_fraction_max 0.977
_diffrn_reflns_limit_h_max       13
_diffrn_reflns_limit_h_min       -12
_diffrn_reflns_limit_k_max       16
_diffrn_reflns_limit_k_min       -16
_diffrn_reflns_limit_l_max       17
_diffrn_reflns_limit_l_min       -17
_diffrn_reflns_number            23341
_diffrn_reflns_point_group_measured_fraction_full 0.999
_diffrn_reflns_point_group_measured_fraction_max 0.977
_diffrn_reflns_theta_full        25.242
_diffrn_reflns_theta_max         40.310
_diffrn_reflns_theta_min         2.341
_exptl_absorpt_coefficient_mu    2.783
_exptl_absorpt_correction_T_max  0.7135
_exptl_absorpt_correction_T_min  0.4580
_exptl_absorpt_correction_type   numerical
_exptl_absorpt_process_details
;
SADABS-2008/1 (Bruker,2008).
Additional spherical absorption correction applied with mu*r =  0.0000
Lambda/2 correction factor = 0.0015'
;
_exptl_crystal_colour            colourless
_exptl_crystal_density_diffrn    1.845
_exptl_crystal_description       block
_exptl_crystal_F_000             308
_exptl_crystal_size_max          0.502
_exptl_crystal_size_mid          0.417
_exptl_crystal_size_min          0.226
_refine_diff_density_max         1.501
_refine_diff_density_min         -1.498
_refine_diff_density_rms         0.109
_refine_ls_extinction_coef       .
_refine_ls_extinction_method     none
_refine_ls_goodness_of_fit_ref   1.132
_refine_ls_hydrogen_treatment    mixed
_refine_ls_matrix_type           full
_refine_ls_number_parameters     144
_refine_ls_number_reflns         7046
_refine_ls_number_restraints     0
_refine_ls_restrained_S_all      1.132
_refine_ls_R_factor_all          0.0209
_refine_ls_R_factor_gt           0.0194
_refine_ls_shift/su_max          0.003
_refine_ls_shift/su_mean         0.000
_refine_ls_structure_factor_coef Fsqd
_refine_ls_weighting_details
'w=1/[\s^2^(Fo^2^)+(0.0250P)^2^+0.1085P] where P=(Fo^2^+2Fc^2^)/3'
_refine_ls_weighting_scheme      calc
_refine_ls_wR_factor_gt          0.0510
_refine_ls_wR_factor_ref         0.0518
_reflns_Friedel_coverage         0.000
_reflns_Friedel_fraction_full    .
_reflns_Friedel_fraction_max     .
_reflns_number_gt                6708
_reflns_number_total             7046
_reflns_threshold_expression     'I > 2\s(I)'
_cod_data_source_file            1000004.cif
_cod_data_source_block           PCOD1000004
_cod_database_code               7233868
_shelx_space_group_comment
;
The symmetry employed for this shelxl refinement is uniquely defined
by the following loop, which should always be used as a source of
symmetry information in preference to the above space-group names.
They are only intended as comments.
;
_shelx_estimated_absorpt_t_min   0.336
_shelx_estimated_absorpt_t_max   0.572
_shelxl_version_number           2013-4
_shelx_hkl_file
;
  -1   0   0   35.54    1.77
  -2   0   0  332.47   16.23
  -2   0   0  317.85   12.85
  -2   0   0  342.63   13.02
  -3   0   0  131.14    5.21
  -3   0   0  134.19    5.14
  -3   0   0  131.80    6.49
  -4   0   0  152.85    5.88
  -4   0   0  152.70    5.95
  -4   0   0  153.80    7.43
   4   0   0  155.31    5.83
   4   0   0  142.93    4.91
  -5   0   0   17.85    0.68
  -5   0   0   16.80    0.86
  -5   0   0   16.95    0.86
  -5   0   0   16.57    0.70
   5   0   0   16.18    0.56
   5   0   0   17.79    0.69
  -6   0   0  100.10    3.91
  -6   0   0   98.88    3.97
  -6   0   0   97.89    4.94
   6   0   0  105.93    3.89
   6   0   0   98.77    3.26
  -7   0   0   21.28    0.87
  -7   0   0   21.43    1.10
   7   0   0   21.82    0.88
  -8   0   0    1.43    0.13
  -8   0   0    1.35    0.14
   8   0   0    1.39    0.15
  -9   0   0   22.49    0.95
   9   0   0   23.56    0.97
 -10   0   0    4.31    0.25
  10   0   0    4.15    0.27
 -11   0   0   -0.05    0.09
  11   0   0   -0.15    0.09
 -12   0   0    1.86    0.19
  12   0   0    1.41    0.17
  12  -1   0    4.97    0.32
 -12   1   0    5.31    0.31
  11  -1   0   14.78    0.67
 -11   1   0   14.56    0.65
  10  -1   0    1.07    0.14
 -10   1   0    1.44    0.15
   9  -1   0   25.01    1.01
  -9   1   0   23.52    1.00
   8  -1   0   15.48    0.67
  -8   1   0   15.02    0.82
  -8   1   0   16.54    0.66
   7  -1   0    3.09    0.19
  -7   1   0    2.88    0.17
  -7   1   0    2.95    0.20
   6  -1   0   52.41    1.73
   6  -1   0   54.66    2.08
  -6   1   0   54.65    2.09
  -6   1   0   52.85    2.64
  -6   1   0   51.31    2.13
   5  -1   0  109.16    3.59
   5  -1   0  108.27    4.28
  -5   1   0  108.32    4.37
  -5   1   0  115.11    5.44
  -5   1   0  112.89    4.31
   4  -1   0   11.93    0.43
   4  -1   0   11.83    0.53
  -4   1   0   13.35    0.66
  -4   1   0   12.93    0.53
  -4   1   0   15.14    0.55
  -3   1   0   82.49    3.20
  -3   1   0   81.25    4.03
  -3   1   0   82.90    4.04
   2  -1   0  537.21   27.84
   2  -1   0  545.82   27.86
  -2   1   0  593.68   27.59
  -2   1   0  574.73   27.60
   1  -1   0   18.85    0.92
   1  -1   0   17.59    0.92
  -1   1   0   19.17    0.71
  -1   1   0   18.02    0.92
  -1   1   0   18.69    0.92
  -1   1   0   17.37    0.73
   0  -1   0    1.14    0.07
   0   1   0    1.07    0.07
  -1  -1   0  184.31    8.94
  -1  -1   0  189.39    7.15
  -1  -1   0  179.24    7.07
  -1  -1   0  181.68    8.94
   1   1   0  184.48    8.94
   1   1   0  172.70    8.93
  -2  -1   0  983.02   48.62
  -2  -1   0  966.01   48.68
  -2  -1   0  965.32   38.10
  -2  -1   0 1000.00   39.34
   2   1   0  995.29   39.44
   2   1   0  989.23   48.56
  -3  -1   0   74.44    2.86
  -3  -1   0   73.97    3.56
  -3  -1   0   74.05    3.56
  -3  -1   0   70.74    2.82
   3   1   0   69.08    2.35
  -4  -1   0  339.94   12.54
  -4  -1   0  315.64   15.63
  -4  -1   0  312.47   12.38
  -4  -1   0  312.99   15.66
   4   1   0  321.89   10.36
   4   1   0  312.32   12.26
  -5  -1   0   15.64    0.63
  -5  -1   0   15.55    0.61
  -5  -1   0   16.45    0.78
  -5  -1   0   14.99    0.77
   5   1   0   14.12    0.51
   5   1   0   14.27    0.62
  -6  -1   0    1.38    0.11
  -6  -1   0    1.11    0.10
  -6  -1   0    1.33    0.10
   6   1   0    0.93    0.10
   6   1   0    0.84    0.07
  -7  -1   0   52.82    2.54
  -7  -1   0   54.89    2.01
   7   1   0   44.72    2.00
  -8  -1   0   24.65    1.03
   8   1   0   25.92    1.04
  -9  -1   0    4.63    0.25
   9   1   0    4.40    0.27
 -10  -1   0   13.89    0.63
  10   1   0   14.91    0.65
 -11  -1   0    3.64    0.25
  11   1   0    4.31    0.28
 -12  -1   0    1.19    0.15
  12   1   0    1.11    0.16
  12  -2   0    0.30    0.11
 -12   2   0    0.28    0.11
  11  -2   0    7.99    0.40
 -11   2   0    6.92    0.38
  10  -2   0   12.26    0.56
 -10   2   0   11.72    0.54
   9  -2   0    1.53    0.16
  -9   2   0    1.28    0.15
   8  -2   0   52.98    2.07
  -8   2   0   53.86    2.07
  -8   2   0   49.81    2.61
   7  -2   0   63.90    2.50
  -7   2   0   63.58    2.51
   6  -2   0    5.18    0.25
   6  -2   0    4.63    0.18
  -6   2   0    4.99    0.24
  -6   2   0    4.83    0.25
   5  -2   0   50.89    2.01
   5  -2   0   50.45    1.68
  -5   2   0   52.78    2.02
  -5   2   0   49.21    2.05
  -5   2   0   53.79    2.55
   4  -2   0  137.97    5.64
   4  -2   0  145.29    4.75
  -4   2   0  153.82    7.19
  -4   2   0  145.46    7.19
  -4   2   0  150.22    5.70
   3  -2   0   30.60    1.45
   3  -2   0   28.21    0.96
  -3   2   0   29.66    1.45
  -3   2   0   28.53    1.46
   2  -2   0  212.58   10.85
   2  -2   0  222.14   10.85
  -2   2   0  217.98   10.85
  -2   2   0  236.94   10.86
  -2   2   0  215.74    8.59
   1  -2   0  232.26    9.38
   1  -2   0  250.30   12.19
   1  -2   0  271.34   12.19
  -1   2   0  267.24   12.19
  -1   2   0  236.96   12.18
  -1   2   0  238.09    9.37
  -1   2   0  238.08    9.64
   0  -2   0   83.53    3.90
   0  -2   0   77.95    3.87
   0  -2   0   77.03    3.00
   0   2   0   75.71    3.87
   0   2   0   79.17    2.98
  -1  -2   0  123.29    5.99
  -1  -2   0  119.63    4.61
  -1  -2   0  124.85    5.98
  -1  -2   0  118.67    4.78
  -1  -2   0  111.91    4.72
   1   2   0  122.60    4.79
   1   2   0  127.97    5.99
   1   2   0  124.66    5.97
  -2  -2   0   99.00    3.77
  -2  -2   0   98.95    4.89
  -2  -2   0   97.12    3.92
  -2  -2   0  100.50    3.88
  -2  -2   0   99.82    4.90
   2   2   0   95.25    4.90
   2   2   0  103.11    4.90
   2   2   0  103.18    3.93
  -3  -2   0    8.38    0.35
  -3  -2   0    8.01    0.35
  -3  -2   0    8.76    0.45
  -3  -2   0    8.53    0.44
   3   2   0    8.58    0.36
   3   2   0    9.15    0.43
   3   2   0    7.99    0.29
  -4  -2   0   11.97    0.61
  -4  -2   0   12.04    0.61
  -4  -2   0   11.65    0.48
  -4  -2   0   12.21    0.49
   4   2   0   11.25    0.40
   4   2   0   12.01    0.49
  -5  -2   0   96.19    3.71
  -5  -2   0  103.67    4.69
  -5  -2   0   95.02    4.68
  -5  -2   0   93.48    3.75
   5   2   0   92.79    3.09
   5   2   0   89.60    3.68
  -6  -2   0   51.39    2.52
  -6  -2   0   53.66    2.00
  -6  -2   0   50.47    2.02
   6   2   0   48.00    1.99
   6   2   0   49.74    1.66
  -7  -2   0   19.64    1.00
  -7  -2   0   19.19    0.79
   7   2   0   18.89    0.80
  -8  -2   0   20.85    0.87
   8   2   0   21.05    0.88
  -9  -2   0    5.92    0.31
   9   2   0    6.75    0.34
 -10  -2   0    0.39    0.10
  10   2   0    0.50    0.11
 -11  -2   0   12.47    0.58
  11   2   0   12.45    0.59
 -12  -2   0    2.34    0.21
  12   2   0    2.31    0.22
  12  -3   0    3.86    0.26
 -12   3   0    3.79    0.26
  11  -3   0    0.19    0.10
 -11   3   0   -0.10    0.09
  10  -3   0   19.60    0.82
 -10   3   0   18.03    0.80
   9  -3   0   12.39    0.56
  -9   3   0   12.16    0.54
   8  -3   0    0.85    0.11
  -8   3   0    0.75    0.10
   7  -3   0   23.83    0.93
   7  -3   0   22.00    0.75
  -7   3   0   22.30    0.92
   6  -3   0   90.86    2.93
   6  -3   0   89.17    3.50
  -6   3   0   90.35    3.53
   5  -3   0    3.72    0.15
   5  -3   0    4.02    0.20
  -5   3   0    3.91    0.24
  -5   3   0    3.85    0.19
  -5   3   0    4.15    0.24
   4  -3   0  182.32    7.78
   4  -3   0  204.12    6.57
  -4   3   0  213.80    9.93
  -4   3   0  198.40    9.93
  -4   3   0  213.79    7.86
   3  -3   0  101.97    4.93
   3  -3   0   97.38    3.26
   3  -3   0  106.25    4.93
   3  -3   0   95.47    3.87
  -3   3   0   97.89    4.94
  -3   3   0  103.80    4.94
   2  -3   0    2.76    0.13
   2  -3   0    2.60    0.15
  -2   3   0    2.58    0.16
  -2   3   0    2.16    0.13
  -2   3   0    2.57    0.17
   1  -3   0   54.19    2.71
   1  -3   0   57.40    2.09
   1  -3   0   54.26    2.71
  -1   3   0   54.05    2.15
  -1   3   0   54.27    2.72
  -1   3   0   56.19    2.71
   0  -3   0  397.10   18.72
   0  -3   0  384.03   14.79
   0  -3   0  381.24   14.41
   0  -3   0  379.11   18.71
   0   3   0  398.59   18.71
   0   3   0  365.16   18.68
   0   3   0  358.37   14.78
  -1  -3   0    9.42    0.41
  -1  -3   0   10.27    0.40
  -1  -3   0   11.04    0.52
  -1  -3   0   10.13    0.33
  -1  -3   0    9.98    0.40
  -1  -3   0    9.34    0.51
   1   3   0   10.25    0.51
   1   3   0    9.13    0.51
   1   3   0    9.75    0.40
  -2  -3   0  100.70    4.84
  -2  -3   0   90.99    3.83
  -2  -3   0   98.70    3.73
  -2  -3   0   97.21    3.86
  -2  -3   0  101.51    4.84
   2   3   0   98.26    3.79
   2   3   0   98.52    3.87
   2   3   0  100.97    4.83
   2   3   0   99.34    4.84
  -3  -3   0  117.01    4.82
  -3  -3   0  123.48    4.87
  -3  -3   0  120.20    4.69
  -3  -3   0  126.59    6.09
  -3  -3   0  120.31    6.09
   3   3   0  132.09    4.63
   3   3   0  119.17    4.03
   3   3   0  133.82    6.08
   3   3   0  125.86    4.87
   3   3   0  124.37    6.08
   3   3   0  121.04    4.78
  -4  -3   0    2.87    0.15
  -4  -3   0    3.03    0.18
  -4  -3   0    2.94    0.19
  -4  -3   0    3.33    0.16
  -4  -3   0    2.94    0.15
   4   3   0    3.06    0.15
   4   3   0    2.90    0.13
  -5  -3   0   49.95    1.92
  -5  -3   0   51.95    2.43
  -5  -3   0   46.63    1.94
  -5  -3   0   47.06    2.42
   5   3   0   49.18    1.91
   5   3   0   47.51    1.60
  -6  -3   0   14.38    0.58
  -6  -3   0   13.83    0.58
  -6  -3   0   14.43    0.59
  -6  -3   0   13.51    0.73
   6   3   0   13.26    0.47
   6   3   0   13.70    0.59
  -7  -3   0    3.78    0.26
  -7  -3   0    4.18    0.22
  -7  -3   0    4.15    0.23
   7   3   0    4.60    0.24
   7   3   0    3.99    0.16
  -8  -3   0    2.14    0.16
  -8  -3   0    2.22    0.17
   8   3   0    2.08    0.18
  -9  -3   0   22.42    0.92
  -9  -3   0   21.82    0.91
   9   3   0   21.09    0.93
 -10  -3   0    1.41    0.16
  10   3   0    1.66    0.19
 -11  -3   0    2.79    0.21
  11   3   0    2.68    0.24
  12   3   0    3.60    0.27
  12  -4   0    6.42    0.37
 -12   4   0    6.52    0.36
  11  -4   0    5.17    0.31
 -11   4   0    5.27    0.30
  10  -4   0    1.11    0.14
 -10   4   0    0.96    0.13
   9  -4   0   24.45    1.00
  -9   4   0   23.52    0.99
   8  -4   0   22.48    0.93
  -8   4   0   22.32    0.93
   7  -4   0    2.85    0.13
   7  -4   0    2.96    0.19
  -7   4   0    3.06    0.18
   6  -4   0   79.23    2.96
   6  -4   0   74.35    2.48
  -6   4   0   74.75    2.99
   5  -4   0   40.54    1.64
   5  -4   0   41.55    1.37
  -5   4   0   45.35    2.09
  -5   4   0   39.08    2.09
  -5   4   0   42.36    1.65
   4  -4   0    0.35    0.03
   4  -4   0    0.29    0.05
   4  -4   0    0.32    0.05
  -4   4   0    0.23    0.05
  -4   4   0    0.13    0.06
   3  -4   0   74.64    3.01
   3  -4   0   79.66    3.83
   3  -4   0   83.24    2.97
   3  -4   0   74.87    2.54
  -3   4   0   80.33    3.84
  -3   4   0   77.28    3.85
  -3   4   0   75.60    3.05
   2  -4   0  228.79    9.35
   2  -4   0  235.54   11.95
   2  -4   0  266.00    9.26
   2  -4   0  230.65   11.95
   2  -4   0  240.86    7.90
  -2   4   0  242.39    9.36
  -2   4   0  242.85    9.46
  -2   4   0  263.04   11.96
   1  -4   0    0.56    0.08
   1  -4   0    0.85    0.07
  -1   4   0    0.79    0.09
  -1   4   0    0.98    0.08
   0  -4   0  162.43    5.77
   0  -4   0  144.79    7.44
   0  -4   0  146.96    5.89
   0  -4   0  150.97    7.45
   0   4   0  155.77    7.45
   0   4   0  144.03    5.90
   0   4   0  144.24    5.65
   0   4   0  164.83    7.46
  -1  -4   0   76.29    3.59
  -1  -4   0   69.62    2.76
  -1  -4   0   73.86    3.58
  -1  -4   0   69.83    2.83
   1   4   0   75.79    3.58
   1   4   0   71.33    2.85
   1   4   0   76.13    2.72
   1   4   0   67.69    2.81
   1   4   0   73.75    3.58
   1   4   0   71.88    2.36
  -2  -4   0   21.77    0.88
  -2  -4   0   21.70    1.11
  -2  -4   0   21.63    0.88
  -2  -4   0   22.63    0.86
  -2  -4   0   22.76    1.12
   2   4   0   20.67    0.73
   2   4   0   22.65    0.85
   2   4   0   22.67    0.88
   2   4   0   20.91    0.87
   2   4   0   22.68    1.11
  -3  -4   0   70.37    3.22
  -3  -4   0   62.03    2.56
  -3  -4   0   63.09    2.54
  -3  -4   0   64.34    2.48
  -3  -4   0   63.55    3.21
   3   4   0   66.87    3.20
   3   4   0   67.66    2.45
   3   4   0   66.81    2.56
   3   4   0   62.42    2.12
   3   4   0   62.71    2.52
  -4  -4   0   98.31    4.07
  -4  -4   0  101.83    3.93
  -4  -4   0  114.89    5.11
  -4  -4   0   98.08    5.09
  -4  -4   0  104.38    4.03
   4   4   0  106.04    3.87
   4   4   0  100.26    3.37
  -5  -4   0    1.29    0.13
  -5  -4   0    1.52    0.12
  -5  -4   0    1.43    0.12
  -5  -4   0    1.47    0.10
   5   4   0    1.60    0.09
   5   4   0    1.76    0.12
   5   4   0    1.51    0.13
  -6  -4   0   29.46    1.22
  -6  -4   0   28.85    1.56
  -6  -4   0   31.85    1.25
  -6  -4   0   33.35    1.24
   6   4   0   31.19    1.24
   6   4   0   30.18    1.02
  -7  -4   0   35.83    1.90
  -7  -4   0   38.95    1.51
  -7  -4   0   37.11    1.49
   7   4   0   37.61    1.51
   7   4   0   38.56    1.24
  -8  -4   0    0.23    0.08
  -8  -4   0    0.30    0.08
   8   4   0    0.22    0.08
  -9  -4   0    9.70    0.49
  -9  -4   0   10.40    0.49
   9   4   0   11.41    0.51
 -10  -4   0    6.69    0.35
  10   4   0    6.13    0.36
 -11  -4   0    1.24    0.15
  11   4   0    0.95    0.15
  12  -5   0    0.73    0.13
 -12   5   0    0.64    0.13
  11  -5   0    8.51    0.43
 -11   5   0    8.20    0.42
  10  -5   0    5.79    0.32
 -10   5   0    5.53    0.31
   9  -5   0    1.38    0.16
  -9   5   0    1.30    0.15
   8  -5   0   32.10    1.30
  -8   5   0   32.03    1.30
   7  -5   0   31.31    1.31
   7  -5   0   33.44    1.08
  -7   5   0   33.53    1.33
   6  -5   0    3.55    0.15
   6  -5   0    3.89    0.21
  -6   5   0    3.54    0.25
  -6   5   0    3.56    0.20
   5  -5   0   83.89    3.34
   5  -5   0   87.80    2.81
  -5   5   0   84.34    3.38
  -5   5   0   88.42    4.27
   4  -5   0   86.82    2.86
   4  -5   0   85.80    3.40
  -4   5   0   95.69    4.34
  -4   5   0   83.12    4.34
   3  -5   0    3.12    0.14
   3  -5   0    3.43    0.17
   3  -5   0    3.77    0.20
   3  -5   0    3.08    0.17
  -3   5   0    3.82    0.22
  -3   5   0    3.57    0.18
  -3   5   0    3.54    0.18
  -3   5   0    3.42    0.22
   2  -5   0  146.35    5.31
   2  -5   0  145.73    6.89
   2  -5   0  138.09    4.55
  -2   5   0  132.11    6.90
  -2   5   0  143.41    5.40
  -2   5   0  137.45    5.23
  -2   5   0  134.14    5.46
  -2   5   0  144.66    6.89
   1  -5   0   81.84    2.99
   1  -5   0   73.37    3.07
   1  -5   0   76.65    2.56
   1  -5   0   79.01    3.88
   1  -5   0   85.41    3.88
  -1   5   0   72.84    3.07
  -1   5   0   77.53    3.88
  -1   5   0   73.90    3.04
  -1   5   0   84.20    2.95
  -1   5   0   81.19    3.88
   0  -5   0    3.04    0.19
   0  -5   0    2.62    0.14
   0  -5   0    2.65    0.14
   0  -5   0    2.59    0.18
   0   5   0    2.87    0.15
   0   5   0    2.88    0.15
   0   5   0    2.66    0.13
   0   5   0    2.57    0.15
   0   5   0    2.67    0.18
   0   5   0    2.67    0.18
  -1  -5   0  100.58    4.08
  -1  -5   0  105.44    5.15
  -1  -5   0  105.80    5.15
  -1  -5   0  100.36    3.97
   1   5   0  107.94    3.91
   1   5   0  111.44    5.15
   1   5   0  104.35    4.04
   1   5   0  103.55    3.40
   1   5   0  101.25    4.10
  -2  -5   0  117.11    4.20
  -2  -5   0  105.77    5.45
  -2  -5   0  104.38    4.31
  -2  -5   0  111.45    5.45
   2   5   0  110.11    4.34
   2   5   0  104.00    4.27
   2   5   0  110.78    3.60
   2   5   0  113.01    5.44
   2   5   0  118.72    4.14
  -3  -5   0    1.90    0.13
  -3  -5   0    2.00    0.13
  -3  -5   0    1.89    0.15
  -3  -5   0    2.46    0.17
  -3  -5   0    1.97    0.11
   3   5   0    2.00    0.11
   3   5   0    2.35    0.14
   3   5   0    2.06    0.14
   3   5   0    1.95    0.11
   3   5   0    2.17    0.14
  -4  -5   0   33.09    1.29
  -4  -5   0   29.44    1.62
  -4  -5   0   31.87    1.26
  -4  -5   0   33.14    1.29
   4   5   0   31.59    1.28
   4   5   0   32.42    1.07
   4   5   0   34.18    1.25
  -5  -5   0   40.11    1.54
  -5  -5   0   40.62    1.57
  -5  -5   0   41.10    1.57
  -5  -5   0   39.87    1.98
   5   5   0   38.42    1.30
   5   5   0   39.24    1.51
   5   5   0   36.41    1.56
  -6  -5   0    3.02    0.19
  -6  -5   0    2.63    0.21
  -6  -5   0    3.00    0.18
   6   5   0    3.09    0.14
   6   5   0    2.98    0.19
  -7  -5   0   21.89    0.90
  -7  -5   0   21.93    0.89
   7   5   0   21.09    0.91
   7   5   0   21.42    0.73
  -8  -5   0   18.39    0.81
  -8  -5   0   19.49    0.81
   8   5   0   19.22    0.82
  -9  -5   0    0.80    0.12
   9   5   0    0.78    0.13
 -10  -5   0    5.99    0.34
  10   5   0    6.67    0.38
 -11  -5   0    8.83    0.44
  11   5   0    8.08    0.45
  12  -6   0    0.70    0.13
  11  -6   0    3.49    0.25
 -11   6   0    3.83    0.25
  10  -6   0   10.94    0.52
 -10   6   0   11.20    0.52
   9  -6   0    6.46    0.33
  -9   6   0    6.09    0.33
   8  -6   0    5.08    0.27
  -8   6   0    4.35    0.26
   7  -6   0   32.51    1.29
   7  -6   0   31.99    1.06
  -7   6   0   31.33    1.30
   6  -6   0   25.50    0.86
   6  -6   0   27.45    1.04
  -6   6   0   24.73    1.32
  -6   6   0   24.82    1.05
   5  -6   0    0.23    0.06
   5  -6   0    0.20    0.04
  -5   6   0    0.10    0.06
  -5   6   0    0.14    0.07
   4  -6   0   84.74    3.31
   4  -6   0   84.97    2.83
   4  -6   0   89.09    3.37
  -4   6   0   92.48    3.37
  -4   6   0   82.99    4.30
   3  -6   0   69.02    2.28
   3  -6   0   68.64    2.67
   3  -6   0   70.29    3.45
  -3   6   0   75.09    3.46
  -3   6   0   63.75    3.46
  -3   6   0   68.85    2.71
  -3   6   0   68.88    2.74
  -3   6   0   73.61    2.62
   2  -6   0    0.34    0.05
   2  -6   0    0.14    0.03
   2  -6   0    0.33    0.06
  -2   6   0    0.14    0.05
  -2   6   0    0.37    0.06
  -2   6   0    0.22    0.06
  -2   6   0    0.54    0.06
  -2   6   0    0.25    0.06
   1  -6   0   84.20    4.22
   1  -6   0   87.19    3.25
   1  -6   0   84.21    2.79
  -1   6   0   79.98    3.34
  -1   6   0   90.70    3.21
  -1   6   0   85.95    3.31
   0  -6   0  113.28    5.97
   0  -6   0  128.94    4.73
   0  -6   0  125.50    4.60
   0   6   0  122.31    4.73
   0   6   0  127.75    4.54
   0   6   0  122.72    4.68
   0   6   0  112.38    4.76
   0   6   0  117.69    3.95
  -1  -6   0    2.56    0.16
  -1  -6   0    2.87    0.20
  -1  -6   0    2.87    0.16
  -1  -6   0    3.05    0.19
   1   6   0    2.89    0.13
   1   6   0    2.64    0.16
   1   6   0    2.59    0.16
   1   6   0    2.85    0.14
   1   6   0    3.13    0.20
  -2  -6   0   73.66    2.99
  -2  -6   0   83.55    3.79
  -2  -6   0   73.01    3.78
  -2  -6   0   75.34    2.92
   2   6   0   75.21    2.97
   2   6   0   75.41    3.00
   2   6   0   72.41    2.50
   2   6   0   79.78    2.88
   2   6   0   78.49    3.78
  -3  -6   0   43.03    2.26
  -3  -6   0   45.86    1.80
  -3  -6   0   46.48    1.76
   3   6   0   47.24    1.79
   3   6   0   43.52    1.79
   3   6   0   43.70    1.49
   3   6   0   46.96    1.73
  -4  -6   0    0.20    0.06
  -4  -6   0    0.28    0.06
  -4  -6   0    0.31    0.07
   4   6   0    0.28    0.05
   4   6   0    0.39    0.07
   4   6   0    0.35    0.07
  -5  -6   0   44.88    1.79
  -5  -6   0   44.45    2.30
  -5  -6   0   48.10    1.83
   5   6   0   47.15    1.76
   5   6   0   44.74    1.52
  -6  -6   0   20.88    0.84
  -6  -6   0   20.04    1.06
  -6  -6   0   19.55    0.83
   6   6   0   19.79    0.85
   6   6   0   20.45    0.81
   6   6   0   19.78    0.69
  -7  -6   0    0.36    0.08
  -7  -6   0    0.31    0.09
   7   6   0    0.34    0.10
   7   6   0    0.24    0.05
  -8  -6   0    8.67    0.43
  -8  -6   0    9.29    0.43
   8   6   0    8.48    0.44
  -9  -6   0   10.96    0.51
   9   6   0   10.68    0.53
 -10  -6   0    0.06    0.09
  10   6   0    0.31    0.12
  11   6   0    3.43    0.27
  11  -7   0    2.32    0.20
 -11   7   0    2.04    0.20
  10  -7   0    5.02    0.30
 -10   7   0    5.58    0.31
   9  -7   0   21.93    0.93
  -9   7   0   21.87    0.94
   8  -7   0    3.74    0.23
  -8   7   0    3.44    0.23
   7  -7   0    5.00    0.21
   7  -7   0    5.40    0.28
  -7   7   0    5.13    0.28
   6  -7   0   42.86    1.44
   6  -7   0   44.95    1.73
  -6   7   0   42.56    1.75
   5  -7   0   15.80    0.54
   5  -7   0   15.92    0.65
  -5   7   0   14.35    0.83
  -5   7   0   15.90    0.66
   4  -7   0    8.00    0.36
   4  -7   0    7.95    0.30
  -4   7   0    7.66    0.46
  -4   7   0    8.24    0.37
   3  -7   0   32.04    1.05
   3  -7   0   30.60    1.23
  -3   7   0   31.68    1.20
  -3   7   0   30.30    1.59
  -3   7   0   31.64    1.25
   2  -7   0   46.11    2.23
   2  -7   0   46.67    1.48
   2  -7   0   44.40    1.73
  -2   7   0   41.81    1.77
  -2   7   0   46.47    1.70
  -2   7   0   40.74    2.24
  -2   7   0   46.09    1.76
   1  -7   0    1.92    0.15
   1  -7   0    1.62    0.11
   1  -7   0    1.91    0.13
  -1   7   0    1.76    0.11
  -1   7   0    1.74    0.16
  -1   7   0    1.88    0.14
  -1   7   0    2.13    0.14
  -1   7   0    1.81    0.13
   0  -7   0   57.37    2.02
   0  -7   0   49.88    2.55
   0  -7   0   50.14    1.97
   0  -7   0   50.27    1.69
   0   7   0   52.06    2.03
   0   7   0   51.85    1.94
   0   7   0   52.69    2.01
   0   7   0   48.10    2.55
   0   7   0   47.25    1.68
  -1  -7   0   23.55    0.97
  -1  -7   0   23.92    1.22
  -1  -7   0   23.81    0.95
   1   7   0   23.95    1.22
   1   7   0   23.23    0.95
   1   7   0   24.97    0.94
   1   7   0   24.75    0.97
   1   7   0   22.54    0.81
  -2  -7   0    2.02    0.14
  -2  -7   0    2.02    0.17
  -2  -7   0    1.97    0.14
   2   7   0    2.04    0.10
   2   7   0    1.86    0.12
   2   7   0    2.15    0.16
  -3  -7   0   49.92    2.56
  -3  -7   0   47.80    1.98
  -3  -7   0   51.88    2.03
   3   7   0   51.34    1.95
   3   7   0   53.78    2.02
   3   7   0   51.46    1.69
  -4  -7   0   37.71    1.94
  -4  -7   0   36.67    1.51
  -4  -7   0   40.48    1.54
   4   7   0   37.44    1.53
   4   7   0   38.35    1.28
   4   7   0   39.21    1.49
  -5  -7   0    3.21    0.20
  -5  -7   0    3.38    0.20
  -5  -7   0    3.08    0.24
   5   7   0    3.22    0.21
   5   7   0    3.52    0.16
   5   7   0    3.20    0.20
  -6  -7   0   17.28    0.77
  -6  -7   0   18.99    0.79
   6   7   0   17.50    0.79
   6   7   0   19.36    0.76
   6   7   0   18.74    0.64
  -7  -7   0   14.34    0.66
  -7  -7   0   15.22    0.67
   7   7   0   15.95    0.69
   7   7   0   14.99    0.53
  -8  -7   0    0.04    0.08
   8   7   0    0.13    0.10
  -9  -7   0   12.06    0.56
   9   7   0   11.58    0.58
 -10  -7   0    4.97    0.31
  10   7   0    4.78    0.33
  11  -8   0    8.31    0.43
 -11   8   0    8.49    0.44
  10  -8   0    1.91    0.19
 -10   8   0    1.91    0.20
   9  -8   0    3.25    0.23
  -9   8   0    3.66    0.25
   8  -8   0   26.14    1.06
  -8   8   0   25.07    1.07
  -8   8   0   25.24    1.07
   7  -8   0    8.87    0.33
   7  -8   0    9.22    0.43
  -7   8   0    8.92    0.43
  -7   8   0    8.75    0.43
   6  -8   0   16.68    0.69
   6  -8   0   15.60    0.56
  -6   8   0   16.87    0.69
  -6   8   0   14.77    0.87
  -6   8   0   15.87    0.70
   5  -8   0   35.76    1.19
  -5   8   0   35.21    1.83
  -5   8   0   35.66    1.45
  -5   8   0   36.16    1.44
   4  -8   0   12.06    0.54
   4  -8   0   12.30    0.45
  -4   8   0   13.32    0.55
  -4   8   0   12.90    0.70
   3  -8   0   13.75    0.48
   3  -8   0   12.72    0.57
  -3   8   0   14.79    0.56
  -3   8   0   13.47    0.74
  -3   8   0   13.33    0.58
   2  -8   0   65.23    2.04
   2  -8   0   61.44    2.39
  -2   8   0   65.28    2.46
  -2   8   0   62.22    2.35
  -2   8   0   57.52    3.09
  -2   8   0   60.07    2.43
   1  -8   0    3.31    0.18
   1  -8   0    3.10    0.15
   1  -8   0    3.30    0.22
  -1   8   0    2.92    0.22
  -1   8   0    3.31    0.19
  -1   8   0    3.46    0.19
  -1   8   0    2.78    0.16
   0  -8   0    8.62    0.31
   0  -8   0    8.16    0.37
   0  -8   0    7.91    0.46
   0   8   0    7.91    0.36
   0   8   0    7.70    0.37
   0   8   0    7.91    0.31
   0   8   0    8.30    0.35
   0   8   0    8.22    0.46
  -1  -8   0   40.38    2.10
  -1  -8   0   43.98    1.67
  -1  -8   0   41.05    1.62
  -1  -8   0   41.07    1.39
   1   8   0   39.85    1.60
   1   8   0   41.42    1.39
   1   8   0   43.52    1.66
  -2  -8   0    8.61    0.50
  -2  -8   0    9.04    0.40
  -2  -8   0    9.05    0.40
   2   8   0    8.87    0.40
   2   8   0    8.11    0.41
   2   8   0    9.07    0.34
  -3  -8   0   14.65    0.62
  -3  -8   0   14.05    0.61
  -3  -8   0   13.67    0.77
   3   8   0   14.51    0.63
   3   8   0   14.88    0.61
   3   8   0   14.16    0.51
  -4  -8   0    9.95    0.45
  -4  -8   0   10.02    0.45
  -4  -8   0   10.03    0.57
   4   8   0    9.22    0.37
   4   8   0   10.20    0.47
   4   8   0    9.93    0.45
  -5  -8   0   12.24    0.53
  -5  -8   0   11.54    0.53
  -5  -8   0   11.22    0.66
   5   8   0   11.44    0.43
   5   8   0   11.42    0.54
   5   8   0   12.15    0.52
  -6  -8   0    0.03    0.07
  -6  -8   0    0.07    0.07
   6   8   0    0.07    0.05
   6   8   0    0.03    0.07
   6   8   0    0.06    0.08
  -7  -8   0   22.52    0.96
   7   8   0   22.73    0.77
   7   8   0   22.70    0.98
   7   8   0   22.55    0.93
  -8  -8   0    5.54    0.32
   8   8   0    5.60    0.34
  -9  -8   0    0.26    0.10
   9   8   0    0.19    0.11
  10   8   0    3.80    0.30
  11  -9   0    2.14    0.20
 -11   9   0    2.15    0.22
  10  -9   0    6.23    0.35
 -10   9   0    6.27    0.36
 -10   9   0    6.30    0.36
   9  -9   0    1.58    0.18
  -9   9   0    1.71    0.19
  -9   9   0    1.86    0.19
   8  -9   0    5.53    0.22
  -8   9   0    5.53    0.32
  -8   9   0    5.88    0.33
   7  -9   0   15.22    0.54
  -7   9   0   15.95    0.69
  -7   9   0   15.01    0.68
   6  -9   0    6.52    0.26
  -6   9   0    6.57    0.35
  -6   9   0    6.76    0.34
   5  -9   0    6.70    0.27
  -5   9   0    6.61    0.42
  -5   9   0    6.66    0.34
  -5   9   0    6.69    0.34
   4  -9   0   52.71    2.07
   4  -9   0   55.22    1.76
  -4   9   0   53.94    2.10
  -4   9   0   50.24    2.67
   3  -9   0    5.09    0.27
   3  -9   0    5.03    0.22
  -3   9   0    4.89    0.34
  -3   9   0    5.61    0.27
  -3   9   0    5.10    0.28
   2  -9   0   16.77    0.71
   2  -9   0   16.44    0.60
  -2   9   0   16.91    0.72
  -2   9   0   17.90    0.70
   1  -9   0   47.40    1.84
   1  -9   0   47.98    1.57
  -1   9   0   49.45    1.82
  -1   9   0   45.52    1.57
  -1   9   0   45.70    1.87
   0  -9   0   12.41    0.55
   0  -9   0   13.24    0.47
   0   9   0   12.70    0.56
   0   9   0   13.18    0.47
   0   9   0   12.68    0.55
  -1  -9   0   27.62    1.52
  -1  -9   0   30.68    1.19
   1   9   0   30.04    1.17
   1   9   0   29.84    1.01
   1   9   0   30.71    1.21
  -2  -9   0   40.76    1.62
  -2  -9   0   41.09    2.08
   2   9   0   42.80    1.38
   2   9   0   39.57    1.59
   2   9   0   40.91    1.65
  -3  -9   0    6.20    0.40
  -3  -9   0    6.31    0.32
  -3  -9   0    7.29    0.34
   3   9   0    6.50    0.32
   3   9   0    6.31    0.27
   3   9   0    6.32    0.34
  -4  -9   0   14.62    0.62
  -4  -9   0   13.85    0.78
  -4  -9   0   12.96    0.61
   4   9   0   13.57    0.63
   4   9   0   14.61    0.51
   4   9   0   14.32    0.61
  -5  -9   0   36.84    1.51
  -5  -9   0   37.65    1.54
   5   9   0   38.04    1.54
   5   9   0   37.63    1.26
   5   9   0   37.77    1.48
  -6  -9   0    0.46    0.10
   6   9   0    0.43    0.09
   6   9   0    0.46    0.07
   6   9   0    0.55    0.13
  -7  -9   0    2.09    0.19
   7   9   0    2.21    0.19
   7   9   0    2.20    0.13
   7   9   0    2.28    0.22
   8   9   0    4.61    0.32
  -9  -9   0    6.53    0.38
   9   9   0    7.01    0.40
 -10  10   0    4.81    0.32
 -10  10   0    4.88    0.32
  -9  10   0    6.31    0.36
  -9  10   0    6.12    0.36
   8 -10   0    0.12    0.05
  -8  10   0    0.14    0.10
  -8  10   0    0.12    0.09
   7 -10   0    6.50    0.26
  -7  10   0    6.71    0.36
  -7  10   0    6.13    0.35
   6 -10   0   16.63    0.59
  -6  10   0   16.79    0.73
   5 -10   0    0.40    0.06
  -5  10   0    0.54    0.10
  -5  10   0    0.31    0.09
   4 -10   0    8.77    0.42
   4 -10   0    9.01    0.35
  -4  10   0    8.94    0.43
   3 -10   0   21.49    0.73
   3 -10   0   19.60    0.87
  -3  10   0   22.32    0.85
  -3  10   0   20.68    0.89
   2 -10   0   10.17    0.39
   2 -10   0    9.89    0.46
  -2  10   0   11.01    0.46
  -2  10   0   10.21    0.48
   1 -10   0   19.07    0.81
   1 -10   0   20.14    0.69
  -1  10   0   18.73    0.83
  -1  10   0   21.03    0.81
   0 -10   0   47.05    1.47
   0 -10   0   42.72    1.72
   0  10   0   42.21    1.75
   0  10   0   43.38    1.70
   0  10   0   43.43    1.47
  -1 -10   0    4.16    0.23
   1  10   0    3.80    0.25
   1  10   0    4.16    0.24
   1  10   0    4.29    0.20
  -2 -10   0    8.68    0.40
   2  10   0    8.58    0.42
   2  10   0    8.67    0.40
   2  10   0    7.97    0.33
  -3 -10   0   44.26    1.69
   3  10   0   40.52    1.66
   3  10   0   41.30    1.72
   3  10   0   44.16    1.43
  -4 -10   0    8.05    0.41
  -4 -10   0    9.10    0.42
   4  10   0    8.35    0.43
   4  10   0    8.04    0.33
   4  10   0    8.42    0.40
  -5 -10   0    6.96    0.36
   5  10   0    6.42    0.35
   5  10   0    6.71    0.27
   5  10   0    6.55    0.37
  -6 -10   0   24.92    1.07
   6  10   0   25.30    0.86
   6  10   0   24.86    1.08
   6  10   0   24.60    1.03
   7  10   0    7.45    0.29
   7  10   0    7.46    0.38
   7  10   0    7.57    0.42
   8  10   0    6.45    0.40
  -9  11   0    5.56    0.34
  -8  11   0    8.84    0.46
  -8  11   0    8.86    0.46
   7 -11   0   -0.05    0.05
  -7  11   0   -0.04    0.09
  -7  11   0    0.13    0.10
   6 -11   0   12.44    0.47
  -6  11   0   13.02    0.60
   5 -11   0   15.08    0.54
  -5  11   0   14.34    0.67
   4 -11   0    0.13    0.07
   4 -11   0    0.35    0.06
  -4  11   0    0.22    0.10
   3 -11   0   20.94    0.75
   3 -11   0   21.18    0.89
  -3  11   0   21.91    0.91
  -3  11   0   21.85    0.88
   2 -11   0   18.67    0.81
   2 -11   0   19.71    0.69
  -2  11   0   19.81    0.83
   1 -11   0    0.13    0.06
   1 -11   0    0.13    0.05
  -1  11   0    0.00    0.07
  -1  11   0    0.04    0.06
  -1  11   0    0.44    0.09
   0 -11   0    7.69    0.30
   0 -11   0    7.08    0.35
   0  11   0    7.10    0.36
   0  11   0    6.84    0.37
   0  11   0    7.16    0.30
  -1 -11   0   28.76    1.17
   1  11   0   28.45    1.15
   1  11   0   28.05    1.19
   1  11   0   29.82    1.00
  -2 -11   0    4.71    0.26
   2  11   0    4.36    0.28
   2  11   0    4.78    0.22
   2  11   0    4.45    0.27
  -3 -11   0   12.05    0.53
   3  11   0   11.04    0.54
   3  11   0   11.14    0.52
   3  11   0   11.55    0.44
   4  11   0   14.85    0.69
   4  11   0   15.73    0.55
   4  11   0   14.72    0.66
   5  11   0    4.57    0.27
   5  11   0    4.26    0.30
   5  11   0    4.60    0.21
   6  11   0    1.34    0.17
   6  11   0    1.20    0.14
   6  11   0    1.44    0.12
   7  11   0    9.62    0.48
   7  11   0   10.20    0.37
   7  11   0   10.01    0.52
   8  11   0    4.43    0.32
  -9  12   0    0.30    0.12
  -8  12   0    5.72    0.35
   7 -12   0    7.58    0.31
  -7  12   0    7.67    0.42
   6 -12   0   -0.10    0.05
  -6  12   0    0.03    0.10
   5 -12   0   12.90    0.49
  -5  12   0   13.14    0.61
   4 -12   0   15.09    0.56
  -4  12   0   15.83    0.70
   3 -12   0    0.08    0.07
   3 -12   0    0.10    0.05
  -3  12   0    0.20    0.08
  -3  12   0   -0.07    0.09
   2 -12   0   14.76    0.66
   2 -12   0   15.66    0.56
  -2  12   0   16.08    0.66
  -2  12   0   14.46    0.68
   1 -12   0   24.96    1.04
   1 -12   0   26.16    0.88
  -1  12   0   24.93    1.02
  -1  12   0   24.23    0.88
  -1  12   0   24.91    1.05
   0 -12   0    0.06    0.06
   0 -12   0    0.06    0.06
   0  12   0   -0.01    0.08
   0  12   0    0.05    0.08
   0  12   0    0.13    0.07
  -1 -12   0   17.67    0.75
   1  12   0   17.44    0.76
   1  12   0   16.84    0.74
   1  12   0   17.32    0.63
   2  12   0   10.79    0.42
   2  12   0   10.91    0.52
   2  12   0   10.50    0.50
   3  12   0    1.50    0.17
   3  12   0    1.74    0.17
   3  12   0    1.91    0.14
   4  12   0    4.17    0.21
   4  12   0    4.06    0.26
   4  12   0    4.34    0.29
   5  12   0   13.93    0.50
   5  12   0   13.61    0.61
   5  12   0   12.80    0.64
   6  12   0    0.73    0.12
   6  12   0    0.63    0.14
   6  12   0    0.54    0.08
   7  12   0    1.84    0.19
   7  12   0    1.86    0.21
  -8  13   0    0.64    0.15
   7 -13   0   10.64    0.39
  -7  13   0    9.80    0.52
   6 -13   0    4.36    0.21
  -6  13   0    4.16    0.29
   5 -13   0    0.22    0.06
  -5  13   0    0.24    0.11
   4 -13   0   10.33    0.40
  -4  13   0   10.00    0.50
   3 -13   0   10.36    0.40
  -3  13   0   10.09    0.50
  -3  13   0   10.19    0.47
   2 -13   0    0.09    0.06
  -2  13   0    0.04    0.09
  -2  13   0   -0.01    0.08
   1 -13   0   11.33    0.43
  -1  13   0   10.84    0.44
  -1  13   0   10.34    0.50
  -1  13   0   11.03    0.53
   0 -13   0   14.58    0.53
   0  13   0   13.49    0.52
   0  13   0   13.06    0.61
   0  13   0   13.82    0.63
   1  13   0    0.54    0.13
   1  13   0    0.47    0.11
   1  13   0    0.56    0.09
   2  13   0   10.22    0.51
   2  13   0   10.70    0.41
   2  13   0   10.11    0.49
   3  13   0   14.02    0.51
   3  13   0   12.99    0.60
   3  13   0   13.07    0.63
   4  13   0    0.11    0.08
   4  13   0    0.01    0.10
   4  13   0    0.09    0.06
   5  13   0    3.20    0.24
   5  13   0    3.27    0.26
   5  13   0    3.43    0.18
   6  13   0    4.49    0.29
   6  13   0    4.84    0.32
   6 -14   0    9.72    0.37
  -6  14   0    9.02    0.49
   5 -14   0    7.99    0.33
  -5  14   0    7.84    0.43
   4 -14   0    1.81    0.14
  -4  14   0    1.81    0.20
   3 -14   0   12.35    0.47
  -3  14   0   12.21    0.58
  -3  14   0   11.52    0.54
   2 -14   0    7.57    0.32
  -2  14   0    6.93    0.37
  -2  14   0    7.53    0.40
   1 -14   0    0.40    0.08
  -1  14   0    0.57    0.10
  -1  14   0    0.39    0.12
  -1  14   0    0.40    0.11
   0 -14   0   11.64    0.44
   0  14   0   10.76    0.51
   0  14   0   10.47    0.43
   0  14   0   10.27    0.52
   1  14   0    6.66    0.30
   1  14   0    6.59    0.36
   1  14   0    6.31    0.37
   2  14   0    0.05    0.09
   2  14   0    0.07    0.07
   2  14   0   -0.02    0.10
   3  14   0    5.28    0.25
   3  14   0    4.96    0.32
   3  14   0    5.05    0.31
   4  14   0    6.95    0.29
   4  14   0    6.55    0.38
   4  14   0    6.72    0.37
   4 -15   0    5.77    0.26
  -4  15   0    5.36    0.34
   3 -15   0    0.05    0.06
  -3  15   0   -0.08    0.10
   2 -15   0   13.07    0.49
  -2  15   0   12.19    0.60
  -2  15   0   12.61    0.58
   1 -15   0    7.61    0.32
  -1  15   0    7.21    0.33
  -1  15   0    6.85    0.38
  -1  15   0    6.87    0.40
   0  15   0    0.32    0.09
   0  15   0    0.20    0.11
   0  15   0    0.12    0.09
   1  15   0    9.43    0.49
   1  15   0    9.63    0.48
   1  15   0    9.71    0.40
   2  15   0    5.85    0.35
   2  15   0    6.14    0.29
   2  15   0    6.55    0.37
   3  15  -1    5.60    0.34
   3  15  -1    5.95    0.27
   3  15  -1    6.19    0.36
   2  15  -1    0.18    0.08
   2  15  -1    0.08    0.10
   2  15  -1    0.19    0.10
   1  15  -1    6.32    0.36
   1  15  -1    6.06    0.35
   1  15  -1    6.44    0.29
   0  15  -1    4.21    0.23
   0  15  -1    4.17    0.28
   0  15  -1    3.70    0.27
  -1  15  -1    0.55    0.12
  -1  15  -1    0.57    0.13
  -1  15  -1    0.62    0.10
   1 -15   1    0.66    0.09
  -2  15  -1    4.21    0.29
  -2  15  -1    4.23    0.28
   2 -15   1    4.72    0.23
  -3  15  -1   13.25    0.63
   3 -15   1   13.62    0.52
  -4  15  -1    0.13    0.11
   4 -15   1    0.09    0.06
   5 -15   1    6.34    0.28
   5  14  -1    5.11    0.31
   5  14  -1    5.04    0.33
   4  14  -1    0.00    0.09
   4  14  -1    0.15    0.10
   4  14  -1    0.12    0.07
   3  14  -1    7.51    0.39
   3  14  -1    7.38    0.40
   3  14  -1    7.22    0.31
   2  14  -1    5.64    0.33
   2  14  -1    6.09    0.27
   2  14  -1    5.84    0.34
   1  14  -1    0.15    0.07
   1  14  -1    0.01    0.09
   1  14  -1    0.02    0.08
   0  14  -1   11.14    0.44
   0  14  -1   10.97    0.53
   0  14  -1   11.07    0.52
  -1  14  -1   10.98    0.52
  -1  14  -1   11.09    0.45
   1 -14   1   11.89    0.45
  -2  14  -1    0.28    0.11
  -2  14  -1    0.27    0.10
   2 -14   1    0.43    0.08
  -3  14  -1    5.36    0.33
  -3  14  -1    5.70    0.31
   3 -14   1    5.58    0.26
  -4  14  -1    6.86    0.39
   4 -14   1    7.34    0.31
  -5  14  -1    1.77    0.21
   5 -14   1    2.04    0.15
  -6  14  -1    5.25    0.33
   6 -14   1    5.48    0.25
   6  13  -1    1.42    0.19
   6  13  -1    1.68    0.12
   6  13  -1    1.65    0.18
   5  13  -1    6.53    0.27
   5  13  -1    6.24    0.37
   5  13  -1    6.33    0.35
   4  13  -1    2.24    0.21
   4  13  -1    2.25    0.20
   4  13  -1    2.18    0.15
   3  13  -1    0.08    0.08
   3  13  -1    0.18    0.11
   3  13  -1    0.13    0.07
   2  13  -1    9.48    0.48
   2  13  -1    9.97    0.39
   2  13  -1    9.53    0.46
   1  13  -1    7.58    0.38
   1  13  -1    7.30    0.32
   1  13  -1    7.19    0.39
   0  13  -1    0.48    0.11
   0  13  -1    0.49    0.11
   0  13  -1    0.41    0.08
  -1  13  -1    9.22    0.38
  -1  13  -1    9.06    0.44
  -1  13  -1    9.47    0.46
   1 -13   1    9.30    0.38
  -2  13  -1   11.27    0.52
  -2  13  -1   11.74    0.54
   2 -13   1   11.22    0.44
  -3  13  -1    0.14    0.10
  -3  13  -1    0.02    0.09
   3 -13   1    0.02    0.05
  -4  13  -1   12.63    0.60
   4 -13   1   12.89    0.49
  -5  13  -1    6.47    0.37
   5 -13   1    6.79    0.29
  -6  13  -1    0.02    0.10
   6 -13   1    0.00    0.05
  -7  13  -1    2.17    0.22
   7 -13   1    2.07    0.14
  -8  13  -1    4.89    0.33
   7  12  -1    7.53    0.43
   7  12  -1    7.84    0.41
   6  12  -1    2.80    0.24
   6  12  -1    2.52    0.22
   6  12  -1    2.81    0.15
   5  12  -1    1.10    0.14
   5  12  -1    1.29    0.11
   5  12  -1    0.94    0.15
   4  12  -1   16.16    0.73
   4  12  -1   15.80    0.71
   4  12  -1   16.79    0.59
   3  12  -1    4.42    0.28
   3  12  -1    4.86    0.30
   3  12  -1    5.00    0.23
   2  12  -1    5.11    0.31
   2  12  -1    5.57    0.31
   2  12  -1    5.95    0.26
  -2 -12   1    5.38    0.30
   1  12  -1   14.70    0.56
   1  12  -1   14.92    0.66
   1  12  -1   15.41    0.68
  -1 -12   1   16.12    0.67
   0  12  -1    6.16    0.28
   0  12  -1    6.65    0.34
   0  12  -1    6.16    0.33
   0 -12   1    6.26    0.32
  -1  12  -1    2.32    0.17
  -1  12  -1    2.11    0.19
  -1  12  -1    2.47    0.20
   1 -12   1    2.72    0.16
   1 -12   1    2.25    0.17
  -2  12  -1   18.55    0.83
  -2  12  -1   19.24    0.80
   2 -12   1   19.69    0.69
   2 -12   1   19.44    0.81
  -3  12  -1    6.40    0.35
  -3  12  -1    6.95    0.34
   3 -12   1    6.67    0.34
   3 -12   1    6.37    0.28
  -4  12  -1    0.88    0.13
   4 -12   1    0.55    0.08
  -5  12  -1   10.08    0.51
   5 -12   1   10.77    0.41
  -6  12  -1    7.72    0.41
   6 -12   1    7.76    0.32
  -7  12  -1    0.38    0.12
   7 -12   1    0.21    0.06
  -8  12  -1    6.81    0.39
  -9  12  -1    1.96    0.22
   8  11  -1    1.14    0.17
   7  11  -1    0.29    0.12
   7  11  -1    0.53    0.11
  -7 -11   1    0.54    0.12
   6  11  -1    7.85    0.42
   6  11  -1    8.73    0.45
   6  11  -1    8.70    0.33
   5  11  -1    4.37    0.28
   5  11  -1    5.02    0.22
   5  11  -1    4.86    0.31
  -5 -11   1    5.05    0.29
   4  11  -1    4.08    0.20
   4  11  -1    3.74    0.25
   4  11  -1    4.15    0.27
  -4 -11   1    3.92    0.25
   3  11  -1   17.86    0.82
   3  11  -1   18.92    0.80
   3  11  -1   19.48    0.68
  -3 -11   1   19.85    0.81
   2  11  -1    8.55    0.42
   2  11  -1    8.78    0.44
   2  11  -1    9.59    0.36
  -2 -11   1    9.15    0.43
   1  11  -1    7.11    0.29
   1  11  -1    6.54    0.34
   1  11  -1    6.91    0.35
  -1 -11   1    6.95    0.34
   0  11  -1   38.03    1.58
   0  11  -1   38.85    1.32
   0  11  -1   40.19    1.53
   0 -11   1   39.34    1.55
  -1  11  -1    9.29    0.43
  -1  11  -1    9.32    0.37
  -1  11  -1    8.91    0.44
   1 -11   1    9.61    0.43
   1 -11   1    9.08    0.36
  -2  11  -1    8.27    0.39
  -2  11  -1    7.51    0.36
   2 -11   1    7.19    0.36
   2 -11   1    7.80    0.31
  -3  11  -1   31.58    1.22
  -3  11  -1   30.20    1.26
   3 -11   1   30.40    1.24
   3 -11   1   31.19    1.06
  -4  11  -1    9.36    0.45
   4 -11   1    9.26    0.36
   4 -11   1    9.12    0.43
  -5  11  -1    3.04    0.23
   5 -11   1    3.11    0.17
  -6  11  -1   17.79    0.78
   6 -11   1   17.68    0.63
  -7  11  -1    5.69    0.34
   7 -11   1    5.73    0.25
  -8  11  -1    0.89    0.14
   8 -11   1    0.84    0.08
  -9  11  -1    5.84    0.35
   9  10  -1    2.63    0.25
  -9 -10   1    2.53    0.23
   8  10  -1    3.39    0.28
  -8 -10   1    3.34    0.25
   7  10  -1    0.34    0.12
   7  10  -1    0.22    0.09
  -7 -10   1    0.35    0.10
   6  10  -1    6.44    0.26
   6  10  -1    6.81    0.38
   6  10  -1    6.50    0.35
  -6 -10   1    6.68    0.36
   5  10  -1    8.96    0.44
   5  10  -1    9.52    0.36
   5  10  -1    9.20    0.47
  -5 -10   1    9.91    0.46
  -5 -10   1    9.15    0.45
   4  10  -1    1.39    0.15
   4  10  -1    1.36    0.12
   4  10  -1    0.97    0.13
  -4 -10   1    1.36    0.15
  -4 -10   1    1.24    0.14
   3  10  -1    6.06    0.34
   3  10  -1    7.07    0.29
   3  10  -1    6.84    0.36
  -3 -10   1    7.67    0.35
  -3 -10   1    6.54    0.42
  -3 -10   1    7.16    0.35
   2  10  -1   27.43    1.18
   2  10  -1   31.28    1.02
   2  10  -1   29.08    1.22
  -2 -10   1   31.40    1.22
  -2 -10   1   29.37    1.19
   1  10  -1    7.60    0.36
   1  10  -1    7.69    0.31
   1  10  -1    7.56    0.37
  -1 -10   1    7.70    0.36
   0  10  -1    9.28    0.42
   0  10  -1    9.31    0.36
   0  10  -1    9.11    0.43
   0 -10   1    9.26    0.42
  -1  10  -1   46.83    1.87
  -1  10  -1   46.12    1.57
  -1  10  -1   47.30    1.81
   1 -10   1   48.12    1.57
   1 -10   1   46.48    1.84
  -2  10  -1   16.97    0.74
  -2  10  -1   17.47    0.71
   2 -10   1   17.06    0.72
   2 -10   1   17.61    0.61
  -3  10  -1    7.24    0.37
  -3  10  -1    7.66    0.35
   3 -10   1    7.75    0.30
   3 -10   1    7.37    0.36
  -4  10  -1   39.55    1.64
   4 -10   1   40.06    1.62
   4 -10   1   43.11    1.38
  -5  10  -1   14.96    0.66
  -5  10  -1   14.69    0.65
   5 -10   1   14.32    0.53
  -6  10  -1    4.01    0.26
  -6  10  -1    3.83    0.25
   6 -10   1    3.68    0.19
  -7  10  -1   19.21    0.82
  -7  10  -1   17.60    0.80
   7 -10   1   18.74    0.65
  -8  10  -1    8.73    0.43
  -8  10  -1    8.29    0.44
   8 -10   1    8.23    0.32
  -9  10  -1    0.73    0.14
  -9  10  -1    0.63    0.14
 -10  10  -1    9.15    0.48
   9   9  -1    0.18    0.12
  -9  -9   1    0.13    0.10
   8   9  -1   10.63    0.53
  -8  -9   1   10.29    0.51
   7   9  -1   12.53    0.58
   7   9  -1   13.27    0.62
  -7  -9   1   13.68    0.61
   6   9  -1    0.11    0.05
   6   9  -1    0.22    0.08
   6   9  -1    0.14    0.09
  -6  -9   1    0.12    0.08
  -6  -9   1    0.00    0.07
   5   9  -1   19.38    0.82
   5   9  -1   19.66    0.86
   5   9  -1   20.11    0.69
  -5  -9   1   21.06    0.85
  -5  -9   1   19.28    0.84
   4   9  -1   30.02    0.99
   4   9  -1   29.45    1.20
   4   9  -1   28.45    1.16
  -4  -9   1   29.22    1.18
  -4  -9   1   29.02    1.52
   3   9  -1    0.26    0.06
   3   9  -1    0.37    0.08
   3   9  -1    0.22    0.08
  -3  -9   1    0.33    0.08
  -3  -9   1    0.29    0.08
  -3  -9   1    0.29    0.07
   2   9  -1   29.16    1.21
   2   9  -1   29.23    1.01
   2   9  -1   28.49    1.17
  -2  -9   1   31.02    1.22
  -2  -9   1   30.02    1.19
  -2  -9   1   30.27    1.53
   1   9  -1   42.09    1.43
   1   9  -1   41.52    1.71
   1   9  -1   41.38    1.66
  -1  -9   1   41.55    2.17
  -1  -9   1   42.38    1.68
  -1  -9   1   48.61    1.72
   0   9  -1    4.87    0.23
   0   9  -1    5.33    0.27
   0   9  -1    5.00    0.27
   0  -9   1    5.57    0.26
   0  -9   1    5.10    0.22
   0  -9   1    5.19    0.32
  -1   9  -1   17.30    0.67
  -1   9  -1   15.26    0.57
  -1   9  -1   15.69    0.68
   1  -9   1   15.99    0.67
   1  -9   1   17.16    0.58
  -2   9  -1   49.33    1.99
  -2   9  -1   52.50    1.93
  -2   9  -1   51.30    2.54
   2  -9   1   49.34    1.96
   2  -9   1   49.58    1.68
  -3   9  -1   17.94    0.69
  -3   9  -1   16.72    0.72
   3  -9   1   16.93    0.71
   3  -9   1   16.62    0.60
  -4   9  -1    7.52    0.47
  -4   9  -1    7.68    0.37
  -4   9  -1    8.18    0.38
   4  -9   1    7.32    0.36
   4  -9   1    7.94    0.30
  -5   9  -1   36.30    1.45
  -5   9  -1   35.76    1.47
   5  -9   1   35.83    1.21
  -6   9  -1   12.29    0.56
  -6   9  -1   12.56    0.58
   6  -9   1   12.70    0.46
  -7   9  -1    1.95    0.18
  -7   9  -1    1.51    0.18
   7  -9   1    1.72    0.12
  -8   9  -1   18.01    0.78
  -8   9  -1   17.92    0.79
   8  -9   1   17.06    0.77
   8  -9   1   18.02    0.62
  -9   9  -1    4.79    0.31
  -9   9  -1    5.41    0.32
   9  -9   1    5.09    0.30
 -10   9  -1    0.35    0.12
 -10   9  -1    0.39    0.12
  10  -9   1    0.46    0.11
  10   8  -1    3.98    0.31
 -10  -8   1    4.53    0.29
   9   8  -1    7.73    0.42
  -9  -8   1    7.41    0.40
   8   8  -1    0.04    0.09
  -8  -8   1   -0.10    0.08
   7   8  -1   12.20    0.53
   7   8  -1   11.52    0.55
  -7  -8   1   11.21    0.54
  -7  -8   1   11.51    0.53
   6   8  -1   23.49    0.96
   6   8  -1   23.23    0.99
   6   8  -1   22.98    0.80
  -6  -8   1   23.26    0.97
  -6  -8   1   24.57    0.99
   5   8  -1    1.37    0.10
   5   8  -1    1.32    0.14
   5   8  -1    1.02    0.13
  -5  -8   1    1.26    0.14
  -5  -8   1    0.97    0.12
  -5  -8   1    1.28    0.13
   4   8  -1   35.94    1.46
   4   8  -1   35.52    1.21
   4   8  -1   36.24    1.42
  -4  -8   1   36.94    1.44
  -4  -8   1   35.34    1.85
  -4  -8   1   37.90    1.47
   3   8  -1   67.56    2.24
   3   8  -1   68.49    2.59
   3   8  -1   67.46    2.67
  -3  -8   1   73.95    2.70
  -3  -8   1   68.38    2.63
  -3  -8   1   62.73    3.39
   2   8  -1    2.04    0.15
   2   8  -1    1.92    0.16
   2   8  -1    2.15    0.13
  -2  -8   1    1.94    0.17
  -2  -8   1    2.08    0.15
  -2  -8   1    2.47    0.15
   1   8  -1   51.73    2.00
   1   8  -1   53.05    2.06
   1   8  -1   52.15    1.73
  -1  -8   1   51.20    2.62
  -1  -8   1   54.10    2.08
  -1  -8   1   52.02    2.03
   0   8  -1   81.39    3.30
   0   8  -1   84.81    3.34
   0   8  -1   87.19    4.21
   0   8  -1   84.04    2.78
   0   8  -1   87.23    3.20
   0  -8   1   81.42    4.20
   0  -8   1   83.82    3.24
   0  -8   1   85.19    2.78
   0  -8   1   88.41    3.33
  -1   8  -1    6.38    0.28
  -1   8  -1    5.75    0.35
  -1   8  -1    5.17    0.23
  -1   8  -1    5.73    0.28
   1  -8   1    5.71    0.23
   1  -8   1    5.76    0.34
   1  -8   1    5.85    0.28
  -2   8  -1   35.34    1.23
  -2   8  -1   34.72    1.87
  -2   8  -1   36.31    1.46
  -2   8  -1   39.29    1.42
   2  -8   1   37.94    1.44
   2  -8   1   37.40    1.23
  -3   8  -1   54.19    2.74
  -3   8  -1   58.72    2.08
  -3   8  -1   54.35    2.15
   3  -8   1   52.87    2.11
   3  -8   1   53.18    1.81
  -4   8  -1    7.22    0.44
  -4   8  -1    7.26    0.35
  -4   8  -1    7.52    0.35
   4  -8   1    7.04    0.33
   4  -8   1    7.22    0.28
  -5   8  -1    5.86    0.32
  -5   8  -1    6.38    0.31
   5  -8   1    6.50    0.25
  -6   8  -1   32.45    1.32
  -6   8  -1   31.90    1.30
   6  -8   1   31.33    1.08
   6  -8   1   32.90    1.30
  -7   8  -1    7.02    0.36
  -7   8  -1    6.59    0.36
   7  -8   1    7.11    0.35
   7  -8   1    7.09    0.27
  -8   8  -1    3.51    0.23
   8  -8   1    3.10    0.16
   8  -8   1    3.38    0.22
  -9   8  -1    9.97    0.48
   9  -8   1    9.66    0.47
 -10   8  -1    4.15    0.27
  10  -8   1    3.79    0.26
 -11   8  -1    0.81    0.14
  11  -8   1    0.85    0.14
  11   7  -1    2.61    0.25
  10   7  -1    0.96    0.16
 -10  -7   1    0.71    0.12
   9   7  -1    7.65    0.42
  -9  -7   1    8.04    0.40
   8   7  -1    8.60    0.44
  -8  -7   1    8.37    0.42
   7   7  -1    0.10    0.07
   7   7  -1    0.05    0.08
  -7  -7   1    0.05    0.07
  -7  -7   1    0.01    0.07
   6   7  -1   32.24    1.09
   6   7  -1   33.42    1.29
   6   7  -1   32.77    1.34
  -6  -7   1   32.44    1.32
  -6  -7   1   33.40    1.34
   5   7  -1   32.33    1.34
   5   7  -1   33.86    1.31
   5   7  -1   32.98    1.11
  -5  -7   1   35.19    1.35
  -5  -7   1   32.78    1.70
  -5  -7   1   32.48    1.32
   4   7  -1    0.63    0.09
   4   7  -1    0.55    0.08
  -4  -7   1    0.47    0.07
  -4  -7   1    0.33    0.07
  -4  -7   1    0.31    0.08
   3   7  -1   37.06    1.41
   3   7  -1   36.77    1.45
   3   7  -1   35.69    1.21
  -3  -7   1   33.66    1.83
  -3  -7   1   37.44    1.45
  -3  -7   1   37.12    1.43
   2   7  -1   76.52    2.78
   2   7  -1   71.35    2.86
   2   7  -1   73.53    2.41
  -2  -7   1   70.67    2.88
  -2  -7   1   75.34    2.81
  -2  -7   1   72.72    3.64
   1   7  -1    9.38    0.40
   1   7  -1    8.82    0.41
   1   7  -1    9.42    0.36
   1   7  -1   10.59    0.54
   1   7  -1    9.81    0.43
  -1  -7   1   10.07    0.42
  -1  -7   1    9.96    0.53
  -1  -7   1   10.12    0.43
   0   7  -1   66.47    2.70
   0   7  -1   68.01    3.40
   0   7  -1   70.19    2.67
   0   7  -1   65.84    2.24
   0   7  -1   69.76    2.59
   0  -7   1   67.14    3.39
   0  -7   1   68.43    2.24
   0  -7   1   70.60    2.62
   0  -7   1   69.28    2.69
  -1   7  -1   92.86    4.98
  -1   7  -1  104.66    3.90
  -1   7  -1   97.56    3.29
   1  -7   1  101.84    3.83
   1  -7   1  107.04    4.98
   1  -7   1  100.30    3.29
  -2   7  -1    7.46    0.34
  -2   7  -1    7.90    0.33
  -2   7  -1    7.49    0.44
   2  -7   1    7.42    0.33
   2  -7   1    7.14    0.28
   2  -7   1    7.99    0.42
  -3   7  -1   35.90    1.86
  -3   7  -1   37.00    1.45
  -3   7  -1   37.53    1.40
   3  -7   1   37.75    1.43
   3  -7   1   35.67    1.22
  -4   7  -1   75.18    2.91
  -4   7  -1   77.01    2.94
  -4   7  -1   71.45    3.72
   4  -7   1   74.72    2.45
   4  -7   1   74.79    2.86
  -5   7  -1    2.94    0.19
  -5   7  -1    3.16    0.20
   5  -7   1    3.57    0.19
   5  -7   1    3.07    0.15
  -6   7  -1   20.38    0.85
   6  -7   1   19.61    0.69
   6  -7   1   20.17    0.83
  -7   7  -1   15.08    0.68
   7  -7   1   16.27    0.68
   7  -7   1   15.98    0.55
  -8   7  -1    3.56    0.24
   8  -7   1    4.03    0.24
   8  -7   1    3.70    0.17
  -9   7  -1    3.12    0.23
   9  -7   1    3.08    0.22
 -10   7  -1   10.86    0.52
  10  -7   1   10.55    0.51
 -11   7  -1    0.96    0.14
  11  -7   1    0.91    0.13
  11   6  -1    5.43    0.36
 -11  -6   1    6.56    0.35
  10   6  -1    4.64    0.31
 -10  -6   1    5.14    0.29
   9   6  -1    0.61    0.13
  -9  -6   1    0.62    0.11
   8   6  -1   23.07    1.00
  -8  -6   1   23.17    0.99
  -8  -6   1   24.85    0.99
   7   6  -1   13.18    0.62
  -7  -6   1   14.53    0.61
  -7  -6   1   13.91    0.61
   6   6  -1    2.94    0.18
   6   6  -1    2.46    0.13
   6   6  -1    2.57    0.19
  -6  -6   1    2.67    0.18
  -6  -6   1    2.57    0.17
  -6  -6   1    2.69    0.20
   5   6  -1   36.96    1.41
   5   6  -1   36.21    1.20
   5   6  -1   36.50    1.45
  -5  -6   1   35.70    1.43
  -5  -6   1   37.74    1.45
  -5  -6   1   34.48    1.83
   4   6  -1   67.32    2.65
   4   6  -1   70.22    2.57
   4   6  -1   67.48    2.22
  -4  -6   1   69.13    2.61
  -4  -6   1   63.46    3.37
  -4  -6   1   69.69    2.67
   3   6  -1    0.09    0.05
   3   6  -1    0.08    0.05
   3   6  -1    0.02    0.03
  -3  -6   1    0.05    0.04
  -3  -6   1    0.08    0.05
  -3  -6   1    0.06    0.05
   2   6  -1  148.74    5.38
   2   6  -1  136.44    6.85
   2   6  -1  134.90    4.53
   2   6  -1  142.61    5.21
  -2  -6   1  128.79    6.85
  -2  -6   1  132.48    5.43
  -2  -6   1  149.35    5.29
  -2  -6   1  141.46    6.86
   1   6  -1   69.57    3.28
   1   6  -1   66.55    2.50
   1   6  -1   65.06    2.16
   1   6  -1   71.78    2.57
   1   6  -1   60.18    2.60
  -1  -6   1   66.12    3.28
  -1  -6   1   64.16    2.59
  -1  -6   1   68.27    2.53
  -1  -6   1   63.22    3.27
   0   6  -1    0.10    0.04
   0   6  -1    0.06    0.04
   0   6  -1    0.13    0.04
   0  -6   1    0.26    0.06
   0  -6   1    0.04    0.03
  -1   6  -1   46.85    1.86
  -1   6  -1   50.33    1.80
  -1   6  -1   46.91    2.37
   1  -6   1   45.28    1.56
   1  -6   1   44.90    1.87
   1  -6   1   50.00    2.37
   1  -6   1   48.54    1.83
  -2   6  -1  120.71    4.75
  -2   6  -1  118.62    6.07
  -2   6  -1  130.85    6.07
   2  -6   1  124.33    6.06
   2  -6   1  123.97    4.01
   2  -6   1  120.44    4.67
  -3   6  -1    4.24    0.21
  -3   6  -1    4.17    0.27
  -3   6  -1    4.66    0.27
   3  -6   1    4.32    0.26
   3  -6   1    4.33    0.21
   3  -6   1    4.32    0.21
   3  -6   1    4.35    0.18
  -4   6  -1   46.56    2.38
  -4   6  -1   50.46    1.89
   4  -6   1   48.14    1.57
   4  -6   1   44.94    1.86
  -5   6  -1   50.35    2.01
   5  -6   1   50.46    1.98
   5  -6   1   50.65    1.66
  -6   6  -1    5.16    0.27
   6  -6   1    5.39    0.26
   6  -6   1    5.27    0.21
  -7   6  -1   21.80    0.92
   7  -6   1   21.72    0.75
   7  -6   1   23.13    0.92
  -8   6  -1   29.89    1.24
   8  -6   1   30.66    1.23
   8  -6   1   29.58    1.00
  -9   6  -1    0.10    0.09
   9  -6   1   -0.01    0.07
 -10   6  -1    4.14    0.27
  10  -6   1    4.60    0.27
 -11   6  -1    5.64    0.34
  11  -6   1    5.94    0.33
  11   5  -1    1.45    0.18
 -11  -5   1    1.52    0.18
  10   5  -1    4.15    0.29
 -10  -5   1    4.15    0.26
   9   5  -1    6.98    0.38
  -9  -5   1    6.98    0.35
   8   5  -1    2.77    0.20
  -8  -5   1    2.21    0.17
  -8  -5   1    2.33    0.18
   7   5  -1   34.31    1.39
  -7  -5   1   34.48    1.37
  -7  -5   1   34.14    1.38
   6   5  -1   30.48    1.22
   6   5  -1   28.80    1.00
   6   5  -1   30.55    1.17
  -6  -5   1   30.45    1.20
  -6  -5   1   30.43    1.21
  -6  -5   1   30.15    1.53
   5   5  -1    6.14    0.28
   5   5  -1    5.22    0.21
   5   5  -1    5.53    0.26
  -5  -5   1    5.29    0.32
  -5  -5   1    5.69    0.27
  -5  -5   1    5.68    0.25
  -5  -5   1    5.49    0.27
   4   5  -1   95.63    3.11
   4   5  -1   94.66    3.70
   4   5  -1   97.10    3.59
  -4  -5   1  100.12    4.72
  -4  -5   1   91.17    4.71
  -4  -5   1   93.63    3.64
  -4  -5   1   94.95    3.75
  -4  -5   1   96.68    3.73
   3   5  -1   54.24    2.13
   3   5  -1   51.45    1.79
   3   5  -1   58.03    2.07
  -3  -5   1   56.72    2.72
  -3  -5   1   52.72    2.15
  -3  -5   1   53.73    2.71
  -3  -5   1   55.93    2.10
  -3  -5   1   54.68    2.15
   2   5  -1    0.94    0.09
   2   5  -1    1.17    0.10
   2   5  -1    1.11    0.08
   2   5  -1    1.26    0.10
  -2  -5   1    0.98    0.09
  -2  -5   1    0.82    0.08
  -2  -5   1    1.07    0.09
   1   5  -1  108.56    4.07
   1   5  -1  111.29    5.36
   1   5  -1  110.90    3.53
   1   5  -1  104.74    4.26
   1   5  -1  105.67    3.54
   1   5  -1  108.87    4.20
  -1  -5   1  104.21    4.24
  -1  -5   1  115.93    4.13
  -1  -5   1  105.66    5.36
  -1  -5   1  112.24    5.36
   0   5  -1  255.64   13.33
   0   5  -1  274.09   13.32
   0   5  -1  262.58   10.43
   0   5  -1  273.71   10.11
   0  -5   1  285.42   10.57
   0  -5   1  279.84   10.32
   0  -5   1  253.86   13.33
   0  -5   1  289.68   13.40
  -1   5  -1    3.62    0.19
  -1   5  -1    4.23    0.24
  -1   5  -1    3.93    0.25
  -1   5  -1    4.20    0.19
   1  -5   1    3.87    0.19
   1  -5   1    3.87    0.24
   1  -5   1    4.70    0.25
   1  -5   1    4.03    0.19
  -2   5  -1  138.90    7.25
  -2   5  -1  159.28    7.25
  -2   5  -1  144.29    5.68
   2  -5   1  149.73    7.24
   2  -5   1  155.08    5.58
   2  -5   1  138.07    4.79
  -3   5  -1   62.33    2.49
  -3   5  -1   67.90    3.14
  -3   5  -1   61.87    3.14
   3  -5   1   67.48    2.42
   3  -5   1   62.43    3.13
   3  -5   1   60.83    2.07
   3  -5   1   60.86    2.46
  -4   5  -1    4.46    0.25
  -4   5  -1    3.90    0.21
  -4   5  -1    3.84    0.26
   4  -5   1    4.01    0.20
   4  -5   1    3.88    0.16
   4  -5   1    4.26    0.23
  -5   5  -1   47.77    1.91
   5  -5   1   47.70    1.58
   5  -5   1   48.86    1.89
  -6   5  -1   59.83    2.30
   6  -5   1   58.40    1.91
   6  -5   1   56.00    2.27
  -7   5  -1    0.37    0.08
   7  -5   1    0.24    0.04
   7  -5   1    0.47    0.08
  -8   5  -1   13.52    0.61
   8  -5   1   14.74    0.62
   8  -5   1   13.89    0.48
  -9   5  -1   21.15    0.92
   9  -5   1   22.70    0.93
 -10   5  -1    2.22    0.20
  10  -5   1    2.46    0.20
 -11   5  -1    9.67    0.49
  11  -5   1   10.60    0.50
  12  -5   1    5.99    0.34
  12   4  -1    7.54    0.42
  11   4  -1    4.08    0.29
 -11  -4   1    4.06    0.26
  10   4  -1   20.02    0.85
 -10  -4   1   18.87    0.83
   9   4  -1   21.92    0.96
  -9  -4   1   23.04    0.95
  -9  -4   1   23.15    0.95
   8   4  -1    0.50    0.10
  -8  -4   1    0.38    0.09
  -8  -4   1    0.45    0.08
   7   4  -1    7.20    0.34
  -7  -4   1    7.16    0.32
  -7  -4   1    6.43    0.39
  -7  -4   1    6.39    0.32
   6   4  -1   59.14    2.41
   6   4  -1   60.49    2.00
  -6  -4   1   60.76    3.05
  -6  -4   1   63.42    2.37
  -6  -4   1   62.14    2.44
  -6  -4   1   62.91    2.42
   5   4  -1   40.24    1.62
   5   4  -1   39.44    1.34
   5   4  -1   43.47    1.56
  -5  -4   1   40.55    1.62
  -5  -4   1   42.18    1.63
  -5  -4   1   42.07    1.59
  -5  -4   1   39.00    2.04
   4   4  -1   11.67    0.47
   4   4  -1   11.61    0.48
   4   4  -1   11.13    0.39
  -4  -4   1   10.70    0.47
  -4  -4   1   10.79    0.60
  -4  -4   1   11.62    0.48
  -4  -4   1   11.59    0.47
  -4  -4   1   12.96    0.61
   3   4  -1  144.05    4.92
   3   4  -1  138.18    5.84
   3   4  -1  161.31    5.66
  -3  -4   1  149.47    5.95
  -3  -4   1  152.19    5.90
  -3  -4   1  162.40    7.45
  -3  -4   1  153.82    7.45
  -3  -4   1  152.28    5.74
   2   4  -1  102.89    3.46
   2   4  -1  108.70    4.11
   2   4  -1  111.50    3.98
   2   4  -1  106.67    5.23
  -2  -4   1  105.80    4.15
  -2  -4   1  106.94    5.24
  -2  -4   1  104.49    4.17
  -2  -4   1  106.22    5.24
  -2  -4   1  105.85    4.03
   1   4  -1   13.45    0.52
   1   4  -1   13.99    0.68
   1   4  -1   13.07    0.67
  -1  -4   1   13.26    0.68
  -1  -4   1   12.01    0.53
  -1  -4   1   12.76    0.68
  -1  -4   1   13.14    0.53
   0   4  -1   98.52    4.65
   0   4  -1   95.33    4.64
   0  -4   1   95.69    3.58
   0  -4   1   83.01    3.68
   0  -4   1   94.24    4.65
   0  -4   1   99.60    4.65
  -1   4  -1  122.79    5.54
  -1   4  -1  110.28    5.54
   1  -4   1  117.93    5.54
   1  -4   1  113.60    4.26
   1  -4   1   98.49    5.54
   1  -4   1  113.07    4.38
  -2   4  -1   32.18    1.65
   2  -4   1   34.17    1.65
   2  -4   1   30.90    1.09
   2  -4   1   34.85    1.66
   2  -4   1   33.51    1.28
  -3   4  -1  134.47    5.32
  -3   4  -1  130.24    6.73
  -3   4  -1  142.52    6.72
   3  -4   1  125.41    5.26
   3  -4   1  150.34    6.72
   3  -4   1  137.91    4.44
  -4   4  -1  117.15    5.00
  -4   4  -1  136.59    6.24
  -4   4  -1  122.02    4.95
   4  -4   1  126.09    4.89
   4  -4   1  126.46    4.12
   4  -4   1  133.15    6.23
  -5   4  -1    0.70    0.10
  -5   4  -1    0.90    0.11
  -5   4  -1    0.60    0.07
   5  -4   1    0.65    0.07
   5  -4   1    0.56    0.05
  -6   4  -1   36.00    1.39
   6  -4   1   32.80    1.37
   6  -4   1   34.93    1.14
  -7   4  -1   35.71    1.40
   7  -4   1   35.31    1.15
   7  -4   1   33.51    1.39
  -8   4  -1    1.84    0.16
   8  -4   1    2.05    0.16
   8  -4   1    1.67    0.10
  -9   4  -1   15.41    0.69
   9  -4   1   16.29    0.69
 -10   4  -1   12.11    0.56
  10  -4   1   12.26    0.56
 -11   4  -1    0.88    0.14
  11  -4   1    0.89    0.14
 -12   4  -1    1.80    0.20
  12  -4   1    2.11    0.20
  12   3  -1    4.57    0.31
 -12  -3   1    4.72    0.29
  11   3  -1    8.44    0.45
 -11  -3   1    8.73    0.43
  10   3  -1    5.71    0.33
 -10  -3   1    5.94    0.31
   9   3  -1    3.28    0.23
  -9  -3   1    3.08    0.22
  -9  -3   1    3.36    0.20
   8   3  -1  104.26    4.10
  -8  -3   1  106.11    4.12
   7   3  -1   20.86    0.85
  -7  -3   1   20.57    0.85
  -7  -3   1   20.87    0.84
  -7  -3   1   19.52    1.05
   6   3  -1   69.30    2.67
  -6  -3   1   69.00    2.69
  -6  -3   1   65.87    3.39
  -6  -3   1   69.90    2.72
   5   3  -1  105.93    4.01
   5   3  -1  101.22    3.36
  -5  -3   1  103.38    4.04
  -5  -3   1  106.78    5.10
  -5  -3   1   99.23    5.09
  -5  -3   1  105.08    4.08
   4   3  -1   59.41    2.15
   4   3  -1   52.37    2.22
   4   3  -1   55.18    1.86
  -4  -3   1   56.13    2.24
  -4  -3   1   55.40    2.82
  -4  -3   1   58.92    2.19
  -4  -3   1   59.36    2.83
  -4  -3   1   60.72    1.86
  -4  -3   1   57.50    2.26
   3   3  -1   13.37    0.55
   3   3  -1   12.94    0.45
   3   3  -1   14.44    0.53
  -3  -3   1   13.99    0.69
  -3  -3   1   13.11    0.54
  -3  -3   1   13.46    0.54
  -3  -3   1   13.06    0.68
  -3  -3   1   13.73    0.54
   2   3  -1  266.79   13.34
   2   3  -1  293.10   13.35
  -2  -3   1  280.26   10.32
  -2  -3   1  261.39   13.35
  -2  -3   1  241.55   10.55
  -2  -3   1  284.96   10.67
  -2  -3   1  276.91   13.88
   1   3  -1  141.38    7.09
   1   3  -1  148.68    7.09
  -1  -3   1  143.23    5.60
  -1  -3   1  141.91    7.08
  -1  -3   1  147.72    7.10
  -1  -3   1  142.74    5.47
   0   3  -1   18.25    0.88
   0   3  -1   16.83    0.88
   0  -3   1   19.82    0.88
   0  -3   1   16.93    0.68
   0  -3   1   15.45    0.69
   0  -3   1   17.28    0.88
  -1   3  -1  215.97   10.12
  -1   3  -1  195.93   10.14
   1  -3   1  196.22   10.29
   1  -3   1  214.31    8.01
   1  -3   1  202.47   10.15
   1  -3   1  210.86    7.81
  -2   3  -1   42.77    1.86
  -2   3  -1   47.33    2.36
  -2   3  -1   49.32    2.35
   2  -3   1   50.78    2.35
   2  -3   1   47.03    1.81
   2  -3   1   48.53    2.35
  -3   3  -1    2.28    0.14
  -3   3  -1    2.60    0.13
  -3   3  -1    2.05    0.15
  -3   3  -1    2.18    0.12
   3  -3   1    2.09    0.13
   3  -3   1    2.22    0.10
   3  -3   1    2.10    0.14
   3  -3   1    1.69    0.11
  -4   3  -1   34.19    1.29
  -4   3  -1   31.01    1.31
  -4   3  -1   32.77    1.62
   4  -3   1   32.23    1.07
   4  -3   1   29.31    1.27
   4  -3   1   34.70    1.60
  -5   3  -1   68.55    2.66
  -5   3  -1   71.94    3.35
  -5   3  -1   65.04    2.69
   5  -3   1   64.94    2.63
   5  -3   1   68.04    2.21
  -6   3  -1    0.65    0.08
   6  -3   1    0.85    0.09
   6  -3   1    0.72    0.05
  -7   3  -1   35.98    1.88
  -7   3  -1   38.43    1.49
   7  -3   1   37.76    1.23
   7  -3   1   36.93    1.49
  -8   3  -1   20.74    0.87
   8  -3   1   20.43    0.70
   8  -3   1   22.01    0.88
  -9   3  -1   -0.13    0.08
   9  -3   1    0.00    0.07
 -10   3  -1    6.64    0.36
  10  -3   1    7.44    0.37
 -11   3  -1    7.74    0.41
  11  -3   1    8.19    0.42
 -12   3  -1   -0.01    0.11
  12  -3   1    0.08    0.10
  12   2  -1    0.73    0.14
 -12  -2   1    0.82    0.13
  11   2  -1    5.46    0.33
 -11  -2   1    5.59    0.31
  10   2  -1   23.95    1.03
 -10  -2   1   24.65    1.01
   9   2  -1    1.95    0.18
  -9  -2   1    1.81    0.15
   8   2  -1    6.35    0.31
  -8  -2   1    5.73    0.29
   7   2  -1   40.18    1.58
  -7  -2   1   39.42    1.99
  -7  -2   1   39.06    1.60
  -7  -2   1   40.38    1.58
   6   2  -1  115.61    4.65
  -6  -2   1  119.00    4.74
  -6  -2   1  124.35    4.69
  -6  -2   1  122.32    5.92
   5   2  -1   14.80    0.64
  -5  -2   1   16.46    0.80
  -5  -2   1   15.91    0.80
  -5  -2   1   15.61    0.63
  -5  -2   1   15.68    0.65
   4   2  -1  424.40   15.50
   4   2  -1  371.95   13.03
  -4  -2   1  408.70   15.81
  -4  -2   1  393.06   19.72
  -4  -2   1  401.08   15.62
  -4  -2   1  415.69   19.74
   3   2  -1   66.12    2.28
  -3  -2   1   67.15    3.44
  -3  -2   1   72.76    3.44
  -3  -2   1   75.67    2.76
  -3  -2   1   68.87    2.73
  -2  -2   1   23.56    1.16
  -2  -2   1   23.31    0.92
  -2  -2   1   23.44    0.92
  -2  -2   1   23.32    1.16
   1   2  -1  228.71    8.26
  -1  -2   1  212.83    8.48
  -1  -2   1  226.88   10.72
  -1  -2   1  226.44   10.73
  -1  -2   1  194.55    8.26
   0   2  -1  256.41   12.44
   0   2  -1  244.88   12.44
   0   2  -1  242.22    9.57
   0   2  -1  283.17   10.12
   0  -2   1  242.88    9.57
   0  -2   1  250.79   12.44
  -1   2  -1   15.32    0.77
  -1   2  -1   14.67    0.62
  -1   2  -1   13.96    0.61
  -1   2  -1   14.66    0.77
   1  -2   1   16.21    0.59
   1  -2   1   16.26    0.77
   1  -2   1   16.01    0.77
  -2   2  -1  254.89   10.17
  -2   2  -1  247.90   10.03
  -2   2  -1  248.70   12.67
   2  -2   1  263.68   12.70
   2  -2   1  276.27   12.70
  -3   2  -1   65.42    2.64
  -3   2  -1   64.66    2.67
  -3   2  -1   69.78    3.33
   3  -2   1   70.91    3.33
   3  -2   1   64.94    2.20
   3  -2   1   70.27    3.33
  -4   2  -1   32.63    1.29
  -4   2  -1   33.08    1.27
  -4   2  -1   33.87    1.60
   4  -2   1   27.12    1.25
   4  -2   1   31.74    1.05
   4  -2   1   33.43    1.58
  -5   2  -1   76.45    3.47
  -5   2  -1   66.36    2.79
  -5   2  -1   70.60    2.75
   5  -2   1   68.35    2.29
   5  -2   1   68.92    2.72
  -6   2  -1   13.54    0.54
  -6   2  -1   12.00    0.67
   6  -2   1   12.81    0.54
   6  -2   1   12.59    0.44
  -7   2  -1    0.89    0.09
  -7   2  -1    0.83    0.12
   7  -2   1    0.96    0.10
   7  -2   1    0.83    0.08
  -8   2  -1   20.03    0.82
   8  -2   1   19.24    0.82
  -9   2  -1   12.18    0.56
   9  -2   1   13.16    0.57
 -10   2  -1   -0.06    0.08
  10  -2   1    0.13    0.09
 -11   2  -1    6.73    0.35
  11  -2   1    6.01    0.36
 -12   2  -1    2.96    0.24
  12  -2   1    3.45    0.25
  12   1  -1    4.62    0.31
 -12  -1   1    5.43    0.30
  11   1  -1    0.28    0.11
 -11  -1   1    0.37    0.10
  10   1  -1    8.46    0.42
 -10  -1   1    8.15    0.39
   9   1  -1   30.07    1.26
  -9  -1   1   31.43    1.25
   8   1  -1    6.38    0.33
  -8  -1   1    7.04    0.31
  -8  -1   1    6.81    0.39
   7   1  -1   33.24    1.34
  -7  -1   1   33.17    1.68
  -7  -1   1   34.39    1.34
   6   1  -1   44.24    1.92
  -6  -1   1   53.44    2.43
  -6  -1   1   50.09    2.43
  -6  -1   1   47.88    1.96
  -6  -1   1   49.22    1.92
   5   1  -1    7.57    0.34
  -5  -1   1    7.56    0.40
  -5  -1   1    8.02    0.32
  -5  -1   1    7.60    0.34
  -5  -1   1    8.12    0.41
   4   1  -1   12.08    0.53
  -4  -1   1   13.25    0.54
  -4  -1   1   13.49    0.65
  -4  -1   1   13.20    0.52
  -3  -1   1  146.29    5.68
  -2  -1   1  398.63   12.94
   1   1  -1   47.22    1.53
  -1  -1   1   46.78    1.53
   0   1  -1  230.89    9.46
   0   1  -1  258.74   11.44
   0   1  -1  261.03   11.44
   0  -1   1  224.30    9.43
   0  -1   1  210.37    8.79
   0  -1   1  209.61   11.43
  -1   1  -1   68.00    3.04
  -1   1  -1   58.07    2.41
  -1   1  -1   59.45    2.44
   1  -1   1   59.93    3.04
   1  -1   1   64.69    2.44
  -2   1  -1    8.68    0.49
  -2   1  -1   10.71    0.39
  -2   1  -1    8.28    0.40
   2  -1   1    9.78    0.49
   2  -1   1   10.12    0.49
  -3   1  -1  137.53    7.32
  -3   1  -1  150.60    5.86
  -3   1  -1  148.09    5.79
   3  -1   1  141.70    4.84
   3  -1   1  156.41    7.32
   3  -1   1  160.71    7.33
  -4   1  -1   67.54    2.63
  -4   1  -1   69.50    3.33
  -4   1  -1   68.89    2.67
  -4   1  -1   67.32    3.33
   4  -1   1   67.01    3.31
   4  -1   1   62.48    2.19
   4  -1   1   66.89    2.61
   4  -1   1   70.01    3.31
  -5   1  -1   16.81    0.68
  -5   1  -1   18.16    0.85
  -5   1  -1   16.83    0.70
  -5   1  -1   16.34    0.85
   5  -1   1   16.77    0.56
   5  -1   1   14.87    0.67
  -6   1  -1   98.56    3.80
  -6   1  -1   93.40    4.80
   6  -1   1  102.27    3.77
   6  -1   1   94.75    3.16
  -7   1  -1   13.62    0.74
  -7   1  -1   14.03    0.59
   7  -1   1   13.96    0.48
   7  -1   1   14.26    0.60
  -8   1  -1    7.96    0.39
   8  -1   1    8.99    0.41
  -9   1  -1   19.81    0.86
   9  -1   1   21.12    0.87
 -10   1  -1    5.97    0.32
  10  -1   1    6.25    0.34
 -11   1  -1    0.62    0.12
  11  -1   1    0.48    0.12
 -12   1  -1    4.79    0.30
  12  -1   1    5.07    0.32
  12   0  -1    8.80    0.47
 -12   0   1    9.74    0.46
  11   0  -1   13.09    0.62
 -11   0   1   13.41    0.59
  10   0  -1   -0.09    0.08
 -10   0   1   -0.05    0.07
   9   0  -1   15.79    0.69
  -9   0   1   15.81    0.67
   8   0  -1   35.36    1.46
  -8   0   1   37.37    1.46
  -8   0   1   36.68    1.83
   7   0  -1    6.90    0.33
  -7   0   1    7.11    0.31
  -7   0   1    6.88    0.38
   6   0  -1   38.59    1.62
  -6   0   1   41.61    1.66
  -6   0   1   43.35    2.05
  -6   0   1   41.61    1.62
   5   0  -1  139.84    5.50
  -5   0   1  144.50    5.54
  -5   0   1  143.35    7.00
  -5   0   1  143.41    5.62
   4   0  -1    0.31    0.05
  -4   0   1    0.38    0.05
  -4   0   1    0.50    0.05
  -2   0   1    3.66    0.14
  -1   0   1   20.05    0.67
   0   0  -1    1.56    0.08
   0   0  -1    1.62    0.09
   0   0   1    1.75    0.09
   0   0   1    1.67    0.07
   0   0   1    1.63    0.09
  -1   0  -1  209.67   10.22
  -1   0  -1  230.38   10.22
  -1   0  -1  194.41    8.08
  -1   0  -1  209.39    8.18
   1   0   1  206.72   10.22
   1   0   1  204.67    8.19
   1   0   1  198.72   10.22
  -2   0  -1   21.02    0.97
  -2   0  -1   16.88    0.76
  -2   0  -1   18.62    0.78
  -2   0  -1   19.97    0.97
   2   0   1   19.75    0.96
   2   0   1   20.04    0.78
  -3   0  -1   49.15    1.91
  -3   0  -1   48.55    2.38
  -3   0  -1   48.99    1.88
  -3   0  -1   47.52    2.38
   3   0   1   46.63    1.57
   3   0   1   48.23    2.37
  -4   0  -1   98.15    5.06
  -4   0  -1  107.68    5.06
  -4   0  -1   98.44    4.01
  -4   0  -1  103.15    4.06
   4   0   1   97.91    3.34
   4   0   1   99.92    3.97
   4   0   1  108.49    5.05
   4   0   1  109.67    5.05
  -5   0  -1   23.19    1.18
  -5   0  -1   23.59    0.96
  -5   0  -1   23.45    0.94
  -5   0  -1   23.46    1.18
   5   0   1   23.62    0.94
   5   0   1   22.99    0.78
  -6   0  -1   10.41    0.45
  -6   0  -1   10.57    0.55
  -6   0  -1   10.66    0.44
   6   0   1   10.36    0.36
   6   0   1    9.00    0.44
  -7   0  -1   53.24    2.08
  -7   0  -1   52.27    2.63
   7   0   1   52.69    2.07
   7   0   1   52.21    1.72
  -8   0  -1   22.15    0.95
   8   0   1   24.13    0.96
  -9   0  -1    4.96    0.27
   9   0   1    5.04    0.29
 -10   0  -1   20.62    0.88
  10   0   1   20.80    0.89
 -11   0  -1    3.83    0.26
  11   0   1    4.07    0.28
 -12   0  -1    0.46    0.12
  12   0   1    0.49    0.12
  12  -1  -1    0.02    0.09
 -12   1   1   -0.23    0.08
  11  -1  -1    7.39    0.38
 -11   1   1    6.35    0.35
  10  -1  -1   21.65    0.90
 -10   1   1   20.49    0.88
   9  -1  -1    0.41    0.10
  -9   1   1    0.22    0.08
   8  -1  -1   36.34    1.41
  -8   1   1   33.77    1.76
  -8   1   1   34.97    1.40
   7  -1  -1   47.46    1.86
  -7   1   1   46.93    1.86
   6  -1  -1    1.69    0.13
  -6   1   1    1.76    0.13
  -6   1   1    1.54    0.11
   5  -1  -1   43.82    1.80
  -5   1   1   46.73    1.80
  -5   1   1   46.70    2.28
  -5   1   1   46.89    2.27
   4  -1  -1  144.53    5.95
  -4   1   1  157.26    7.58
  -4   1   1  162.38    7.59
  -3   1   1   28.27    1.37
  -3   1   1   26.98    1.09
  -2   1   1  285.11    9.28
   1  -1  -1  324.05   11.63
  -1   1   1  298.02   10.00
  -1   1   1  300.64   15.07
  -1   1   1  318.63   11.62
  -1   1   1  292.38   11.94
  -1   1   1  309.65   15.38
   0  -1  -1   32.61    1.60
   0  -1  -1   36.00    1.24
   0  -1  -1   30.58    1.60
   0  -1  -1   32.35    1.28
   0   1   1   32.65    1.28
   0   1   1   30.86    1.60
   0   1   1   31.94    1.60
   0   1   1   28.11    1.27
   0   1   1   32.73    1.23
  -1  -1  -1  159.10    7.31
  -1  -1  -1  151.68    7.30
  -1  -1  -1  150.48    5.85
  -1  -1  -1  142.70    5.62
   1   1   1  138.76    5.86
   1   1   1  153.50    7.31
   1   1   1  144.36    7.31
  -2  -1  -1  119.83    4.88
  -2  -1  -1  123.00    4.93
  -2  -1  -1  120.67    6.17
  -2  -1  -1  123.24    6.17
   2   1   1  133.85    6.18
   2   1   1  128.11    4.96
   2   1   1  131.98    6.56
  -3  -1  -1    9.83    0.40
  -3  -1  -1    9.72    0.41
  -3  -1  -1    9.78    0.51
  -3  -1  -1   10.06    0.51
   3   1   1    9.77    0.40
   3   1   1   10.10    0.41
   3   1   1    9.07    0.33
   3   1   1    9.95    0.50
  -4  -1  -1   66.90    3.16
  -4  -1  -1   62.82    2.53
  -4  -1  -1   63.84    3.16
  -4  -1  -1   66.77    2.50
   4   1   1   61.16    2.09
   4   1   1   66.77    3.15
   4   1   1   59.72    2.48
  -5  -1  -1   85.86    3.30
  -5  -1  -1   86.49    4.17
  -5  -1  -1   84.80    4.17
  -5  -1  -1   85.08    3.34
   5   1   1   81.51    3.27
   5   1   1   83.26    2.75
  -6  -1  -1   12.33    0.54
  -6  -1  -1   12.45    0.66
  -6  -1  -1   12.71    0.52
   6   1   1   11.95    0.43
   6   1   1   12.75    0.53
  -7  -1  -1   13.09    0.72
  -7  -1  -1   13.60    0.57
   7   1   1   13.20    0.46
   7   1   1   13.91    0.58
  -8  -1  -1   33.01    1.32
   8   1   1   32.35    1.33
  -9  -1  -1    7.45    0.36
   9   1   1    6.90    0.37
 -10  -1  -1    0.71    0.11
  10   1   1    0.56    0.12
 -11  -1  -1   12.42    0.58
  12  -2  -1    6.43    0.36
 -12   2   1    6.05    0.34
  11  -2  -1    0.57    0.12
 -11   2   1    0.39    0.11
  10  -2  -1   14.88    0.68
 -10   2   1   15.96    0.67
   9  -2  -1   16.72    0.72
  -9   2   1   16.55    0.70
   8  -2  -1    0.04    0.06
  -8   2   1    0.00    0.06
   7  -2  -1   40.62    1.61
  -7   2   1   40.50    1.61
   6  -2  -1   69.72    2.82
  -6   2   1   71.55    2.83
  -6   2   1   75.89    3.57
   5  -2  -1    0.01    0.03
  -5   2   1    0.01    0.03
  -5   2   1    0.11    0.04
  -5   2   1    0.05    0.04
   4  -2  -1   92.85    3.90
   4  -2  -1  100.94    3.28
  -4   2   1  105.48    4.97
  -4   2   1  105.61    4.97
   3  -2  -1  102.17    3.50
  -3   2   1  112.67    5.30
  -3   2   1  111.32    5.30
  -3   2   1  105.99    4.20
   2  -2  -1    7.08    0.29
  -2   2   1    6.94    0.26
  -2   2   1    7.00    0.30
  -2   2   1    7.40    0.37
  -2   2   1    6.99    0.37
   1  -2  -1  109.13    4.86
   1  -2  -1   99.46    3.74
   1  -2  -1   98.10    4.85
   1  -2  -1   90.60    3.21
  -1   2   1  107.91    4.87
  -1   2   1   89.65    3.83
  -1   2   1  100.99    4.84
  -1   2   1   94.21    3.21
   0  -2  -1  328.75   12.24
   0  -2  -1  348.47   15.89
   0  -2  -1  316.47   10.50
   0   2   1  301.81   12.70
   0   2   1  330.56   15.89
   0   2   1  308.76   15.87
   0   2   1  327.37   12.56
  -1  -2  -1    6.20    0.34
  -1  -2  -1    6.30    0.26
  -1  -2  -1    6.41    0.27
  -1  -2  -1    6.39    0.27
  -1  -2  -1    6.43    0.34
   1   2   1    6.23    0.27
   1   2   1    6.51    0.34
   1   2   1    6.52    0.34
   1   2   1    6.54    0.27
  -2  -2  -1  170.26    7.10
  -2  -2  -1  179.59    7.19
  -2  -2  -1  202.34    6.93
  -2  -2  -1  175.31    8.97
  -2  -2  -1  175.88    8.98
   2   2   1  193.31    9.01
   2   2   1  185.92    7.21
   2   2   1  182.02    9.00
  -3  -2  -1  138.09    5.65
  -3  -2  -1  144.09    7.34
  -3  -2  -1  149.84    7.34
  -3  -2  -1  150.45    5.87
  -3  -2  -1  142.11    5.81
   3   2   1  141.45    4.85
   3   2   1  157.42    5.87
   3   2   1  161.02    7.36
   3   2   1  157.33    7.33
   3   2   1  152.81    5.75
  -4  -2  -1    6.63    0.39
  -4  -2  -1    7.49    0.32
  -4  -2  -1    7.34    0.39
  -4  -2  -1    6.96    0.31
   4   2   1    7.25    0.32
   4   2   1    7.40    0.38
   4   2   1    7.25    0.32
   4   2   1    7.09    0.26
  -5  -2  -1   50.92    1.95
  -5  -2  -1   49.90    2.46
  -5  -2  -1   48.78    1.97
  -5  -2  -1   52.70    2.46
   5   2   1   47.91    1.62
   5   2   1   46.05    1.93
  -6  -2  -1   69.94    3.40
  -6  -2  -1   70.04    2.72
  -6  -2  -1   70.10    2.69
   6   2   1   69.05    2.24
   6   2   1   63.01    2.67
  -7  -2  -1    4.25    0.23
  -7  -2  -1    4.04    0.27
   7   2   1    4.42    0.24
   7   2   1    4.23    0.17
  -8  -2  -1    7.68    0.38
   8   2   1    8.00    0.29
   8   2   1    8.61    0.40
  -9  -2  -1   19.67    0.87
   9   2   1   21.47    0.88
 -10  -2  -1    3.63    0.25
  10   2   1    4.50    0.28
 -11  -2  -1    1.86    0.19
  11   2   1    1.74    0.20
  12  -3  -1    5.69    0.33
 -12   3   1    5.59    0.32
  11  -3  -1   10.95    0.52
 -11   3   1   10.33    0.49
  10  -3  -1    0.04    0.08
 -10   3   1   -0.11    0.07
   9  -3  -1   26.71    1.09
  -9   3   1   26.14    1.08
   8  -3  -1   32.15    1.28
  -8   3   1   31.11    1.27
   7  -3  -1    0.18    0.06
  -7   3   1    0.20    0.06
   6  -3  -1   67.71    2.65
  -6   3   1   69.44    2.67
  -6   3   1   66.97    3.37
   5  -3  -1   70.00    2.31
   5  -3  -1   69.14    2.76
  -5   3   1   68.75    3.51
  -5   3   1   76.47    3.51
   4  -3  -1    0.35    0.05
   4  -3  -1    0.22    0.03
  -4   3   1    0.38    0.06
  -4   3   1    0.40    0.06
  -4   3   1    0.37    0.05
   3  -3  -1  112.51    3.71
   3  -3  -1  107.28    4.40
   3  -3  -1  118.75    4.33
  -3   3   1  121.08    5.61
  -3   3   1  113.34    4.45
  -3   3   1  113.12    5.62
   2  -3  -1  151.38    5.86
   2  -3  -1  167.56    7.63
   2  -3  -1  160.59    7.61
  -2   3   1  154.35    7.61
  -2   3   1  142.73    6.02
  -2   3   1  153.53    7.61
   1  -3  -1    1.70    0.12
   1  -3  -1    1.55    0.10
   1  -3  -1    1.54    0.12
  -1   3   1    1.74    0.13
  -1   3   1    1.54    0.12
  -1   3   1    1.71    0.10
   0  -3  -1  153.86    4.93
   0  -3  -1  153.13    5.74
   0  -3  -1  151.54    7.45
   0  -3  -1  156.71    7.45
   0   3   1  158.60    7.43
   0   3   1  155.76    8.09
   0   3   1  139.60    5.96
   0   3   1  143.25    5.88
  -1  -3  -1  117.73    3.67
  -1  -3  -1  111.12    4.44
  -1  -3  -1  119.18    4.28
  -1  -3  -1  110.28    5.56
  -1  -3  -1  114.50    5.56
  -1  -3  -1  108.89    4.40
   1   3   1  101.38    4.40
   1   3   1  110.93    5.56
   1   3   1  124.10    5.56
  -2  -3  -1    2.69    0.13
  -2  -3  -1    2.60    0.14
  -2  -3  -1    2.91    0.14
  -2  -3  -1    2.93    0.18
  -2  -3  -1    2.57    0.18
   2   3   1    2.74    0.17
   2   3   1    3.10    0.12
   2   3   1    2.77    0.14
   2   3   1    3.04    0.17
   2   3   1    2.42    0.14
  -3  -3  -1   81.05    3.41
  -3  -3  -1   81.71    4.26
  -3  -3  -1   91.00    3.29
  -3  -3  -1   90.70    4.27
  -3  -3  -1   86.17    3.38
   3   3   1   84.70    4.26
   3   3   1   91.04    3.24
   3   3   1   88.76    3.35
   3   3   1   83.90    2.82
  -4  -3  -1  107.44    4.81
  -4  -3  -1   97.41    3.71
  -4  -3  -1   94.82    3.84
  -4  -3  -1   93.83    4.80
  -4  -3  -1   96.13    3.81
   4   3   1   94.29    3.17
   4   3   1  101.41    3.65
   4   3   1   93.49    3.77
   4   3   1   95.47    4.79
   4   3   1  100.66    3.85
  -5  -3  -1    4.07    0.20
  -5  -3  -1    4.13    0.25
  -5  -3  -1    4.17    0.21
  -5  -3  -1    4.07    0.21
   5   3   1    4.14    0.17
   5   3   1    4.27    0.22
  -6  -3  -1   27.13    1.09
  -6  -3  -1   27.60    1.08
  -6  -3  -1   26.04    1.06
  -6  -3  -1   25.90    1.35
   6   3   1   25.37    0.89
   6   3   1   26.92    1.08
  -7  -3  -1   41.47    2.14
  -7  -3  -1   41.15    1.67
  -7  -3  -1   43.90    1.70
   7   3   1   42.55    1.69
   7   3   1   42.96    1.40
  -8  -3  -1    3.30    0.21
  -8  -3  -1    3.37    0.21
   8   3   1    3.10    0.22
  -9  -3  -1    8.90    0.44
  -9  -3  -1    8.68    0.44
   9   3   1   10.02    0.47
 -10  -3  -1    8.45    0.44
  10   3   1    9.53    0.46
 -11  -3  -1    1.08    0.14
  11   3   1    1.12    0.16
  12  -4  -1    0.90    0.14
 -12   4   1    0.82    0.13
  11  -4  -1    6.59    0.36
 -11   4   1    6.42    0.34
  10  -4  -1    5.68    0.31
 -10   4   1    5.41    0.30
   9  -4  -1    0.03    0.07
  -9   4   1    0.06    0.07
   8  -4  -1   20.63    0.86
  -8   4   1   20.65    0.85
   7  -4  -1   21.60    0.92
  -7   4   1   23.69    0.92
  -7   4   1   22.39    1.16
   6  -4  -1    0.17    0.05
   6  -4  -1    0.06    0.02
  -6   4   1    0.07    0.06
  -6   4   1   -0.01    0.05
   5  -4  -1   57.99    2.28
   5  -4  -1   56.65    1.91
  -5   4   1   55.92    2.91
  -5   4   1   63.60    2.90
   4  -4  -1   90.12    3.54
   4  -4  -1   87.56    2.97
  -4   4   1   98.53    4.51
  -4   4   1   87.55    4.51
  -4   4   1   94.02    3.58
   3  -4  -1    1.73    0.09
   3  -4  -1    1.67    0.11
   3  -4  -1    1.79    0.11
   3  -4  -1    2.01    0.12
   3  -4  -1    1.83    0.11
  -3   4   1    1.91    0.13
  -3   4   1    2.26    0.12
  -3   4   1    1.57    0.13
   2  -4  -1  150.56    7.46
   2  -4  -1  142.75    4.93
   2  -4  -1  161.38    7.47
   2  -4  -1  161.29    5.77
  -2   4   1  153.55    7.47
  -2   4   1  147.91    5.85
  -2   4   1  150.26    5.92
  -2   4   1  149.41    7.47
   1  -4  -1   96.18    4.33
   1  -4  -1   86.45    4.33
   1  -4  -1   87.35    3.34
  -1   4   1   82.16    3.39
  -1   4   1   88.92    3.29
  -1   4   1   84.75    3.43
  -1   4   1   89.09    4.33
  -1   4   1   88.87    4.33
   0  -4  -1    1.14    0.06
   0  -4  -1    0.79    0.09
   0  -4  -1    0.82    0.08
   0  -4  -1    1.00    0.08
   0   4   1    0.80    0.08
   0   4   1    0.82    0.09
   0   4   1    1.04    0.09
   0   4   1    0.95    0.10
   0   4   1    0.89    0.08
  -1  -4  -1  140.58    6.59
  -1  -4  -1  141.08    5.08
  -1  -4  -1  134.90    4.35
  -1  -4  -1  131.09    5.21
  -1  -4  -1  136.51    6.59
   1   4   1  129.45    5.26
   1   4   1  124.62    5.16
   1   4   1  128.12    6.59
   1   4   1  141.02    6.59
   1   4   1  145.37    5.00
   1   4   1  121.75    5.21
  -2  -4  -1  107.20    4.36
  -2  -4  -1  111.02    4.21
  -2  -4  -1  112.64    5.46
  -2  -4  -1  104.22    4.32
  -2  -4  -1  108.14    5.46
  -2  -4  -1  112.36    3.60
   2   4   1  116.21    4.15
   2   4   1  111.65    4.28
   2   4   1  109.32    3.61
   2   4   1  114.32    5.46
   2   4   1  112.94    4.36
  -3  -4  -1    0.38    0.05
  -3  -4  -1    0.29    0.06
  -3  -4  -1    0.44    0.04
  -3  -4  -1    0.31    0.06
  -3  -4  -1    0.35    0.05
  -3  -4  -1    0.34    0.06
   3   4   1    0.67    0.07
   3   4   1    0.40    0.06
   3   4   1    0.47    0.06
  -4  -4  -1   72.79    2.92
  -4  -4  -1   76.93    3.79
  -4  -4  -1   77.23    3.02
  -4  -4  -1   76.50    3.79
  -4  -4  -1   81.85    3.00
   4   4   1   81.58    2.88
   4   4   1   74.27    2.50
   4   4   1   73.81    2.98
   4   4   1   73.68    3.02
  -5  -4  -1   54.82    2.16
  -5  -4  -1   54.73    2.71
  -5  -4  -1   54.87    2.14
  -5  -4  -1   54.18    2.09
   5   4   1   53.35    1.78
   5   4   1   53.33    2.13
  -6  -4  -1    0.19    0.06
  -6  -4  -1    0.31    0.07
  -6  -4  -1    0.26    0.08
   6   4   1    0.23    0.04
   6   4   1    0.19    0.07
  -7  -4  -1   18.04    0.75
  -7  -4  -1   17.49    0.74
   7   4   1   17.43    0.61
   7   4   1   17.62    0.75
  -8  -4  -1   19.07    0.80
  -8  -4  -1   18.31    0.79
   8   4   1   18.76    0.81
  -9  -4  -1    1.72    0.17
   9   4   1    1.76    0.19
 -10  -4  -1    5.54    0.33
  10   4   1    6.17    0.35
 -11  -4  -1    7.39    0.41
  11   4   1    7.71    0.42
  12  -5  -1    1.08    0.15
 -12   5   1    0.90    0.14
  11  -5  -1    2.13    0.20
 -11   5   1    2.28    0.19
  10  -5  -1   13.05    0.60
 -10   5   1   13.28    0.59
   9  -5  -1    2.66    0.20
  -9   5   1    2.71    0.19
   8  -5  -1    6.34    0.32
  -8   5   1    5.96    0.31
   7  -5  -1   26.52    1.05
  -7   5   1   26.34    1.06
  -7   5   1   24.67    1.33
   6  -5  -1    9.00    0.40
   6  -5  -1    8.85    0.31
  -6   5   1    8.73    0.50
   5  -5  -1   14.20    0.58
   5  -5  -1   13.83    0.47
  -5   5   1   13.81    0.74
   4  -5  -1   40.30    1.72
   4  -5  -1   44.04    1.69
   4  -5  -1   43.32    1.44
  -4   5   1   42.32    2.19
  -4   5   1   47.72    2.19
  -4   5   1   45.43    1.74
   3  -5  -1   26.14    1.13
   3  -5  -1   27.86    0.95
   3  -5  -1   29.66    1.43
   3  -5  -1   28.08    1.12
  -3   5   1   31.23    1.44
  -3   5   1   29.98    1.15
  -3   5   1   28.36    1.09
  -3   5   1   27.45    1.44
  -3   5   1   29.12    1.14
   2  -5  -1    0.85    0.07
   2  -5  -1    0.91    0.08
   2  -5  -1    1.02    0.09
  -2   5   1    1.05    0.11
  -2   5   1    1.15    0.09
  -2   5   1    1.36    0.10
  -2   5   1    1.39    0.10
  -2   5   1    1.10    0.11
   1  -5  -1  114.53    4.38
   1  -5  -1  113.68    3.76
   1  -5  -1  116.32    5.68
  -1   5   1  113.26    5.68
  -1   5   1  122.54    4.32
  -1   5   1  117.72    4.50
  -1   5   1  111.89    4.46
  -1   5   1  113.66    5.68
   0  -5  -1   91.30    4.62
   0  -5  -1   93.27    3.56
   0  -5  -1   97.14    4.62
   0  -5  -1   92.39    3.66
   0  -5  -1   91.08    3.05
   0   5   1   93.75    3.62
   0   5   1   90.51    4.62
   0   5   1   92.73    3.51
   0   5   1   93.03    3.66
   0   5   1  101.24    4.62
  -1  -5  -1    9.09    0.47
  -1  -5  -1    8.42    0.30
  -1  -5  -1    8.05    0.46
  -1  -5  -1    8.54    0.37
  -1  -5  -1    8.78    0.37
   1   5   1    8.22    0.37
   1   5   1    8.45    0.46
   1   5   1    8.85    0.36
   1   5   1    8.67    0.36
   1   5   1    8.47    0.31
  -2  -5  -1   94.17    3.74
  -2  -5  -1  103.44    4.70
  -2  -5  -1   95.00    3.62
  -2  -5  -1   96.67    3.09
  -2  -5  -1   89.18    3.71
  -2  -5  -1   89.13    4.69
   2   5   1   92.75    3.68
   2   5   1   97.15    3.74
   2   5   1   95.07    4.69
   2   5   1   95.35    3.10
   2   5   1   98.03    3.57
  -3  -5  -1   67.74    2.60
  -3  -5  -1   65.77    2.68
  -3  -5  -1   68.65    3.37
  -3  -5  -1   69.64    2.67
   3   5   1   68.29    2.68
   3   5   1   69.90    3.36
   3   5   1   69.46    2.57
   3   5   1   69.93    2.23
   3   5   1   61.71    2.64
  -4  -5  -1    0.16    0.06
  -4  -5  -1    0.28    0.05
  -4  -5  -1    0.11    0.05
  -4  -5  -1    0.18    0.06
   4   5   1    0.11    0.05
   4   5   1    0.09    0.05
   4   5   1    0.10    0.04
   4   5   1    0.24    0.04
  -5  -5  -1   51.22    1.91
  -5  -5  -1   46.47    1.86
  -5  -5  -1   46.82    2.41
   5   5   1   46.69    1.90
   5   5   1   49.04    1.84
   5   5   1   47.41    1.59
  -6  -5  -1   43.61    1.80
  -6  -5  -1   48.87    1.84
  -6  -5  -1   45.72    2.32
   6   5   1   44.46    1.83
   6   5   1   47.04    1.52
  -7  -5  -1    0.14    0.07
  -7  -5  -1    0.00    0.06
   7   5   1    0.14    0.04
   7   5   1    0.00    0.07
  -8  -5  -1   18.46    0.82
  -8  -5  -1   19.76    0.83
   8   5   1   19.52    0.84
  -9  -5  -1    9.80    0.49
   9   5   1   10.51    0.51
 -10  -5  -1    0.15    0.10
  10   5   1    0.16    0.11
  11   5   1    2.51    0.24
  12  -6  -1    7.60    0.41
  11  -6  -1    2.18    0.20
 -11   6   1    1.98    0.19
  10  -6  -1    5.78    0.32
 -10   6   1    5.41    0.31
   9  -6  -1   19.44    0.82
  -9   6   1   18.91    0.82
   8  -6  -1    4.48    0.26
  -8   6   1    4.40    0.25
   7  -6  -1   17.67    0.59
   7  -6  -1   17.55    0.74
  -7   6   1   16.82    0.93
  -7   6   1   17.96    0.74
   6  -6  -1   53.76    1.74
   6  -6  -1   53.16    2.09
  -6   6   1   51.90    2.66
   5  -6  -1   12.39    0.43
   5  -6  -1   12.62    0.53
  -5   6   1   12.07    0.67
   4  -6  -1   43.98    1.71
   4  -6  -1   42.73    1.45
   4  -6  -1   44.90    1.74
  -4   6   1   45.05    2.22
  -4   6   1   45.78    1.76
  -4   6   1   44.07    1.67
  -4   6   1   42.45    1.74
   3  -6  -1  126.90    4.81
   3  -6  -1  120.43    4.12
   3  -6  -1  131.11    6.23
  -3   6   1  133.31    4.74
  -3   6   1  133.03    6.25
  -3   6   1  116.51    6.24
  -3   6   1  121.21    4.89
  -3   6   1  131.19    4.95
   2  -6  -1    5.69    0.27
   2  -6  -1    5.54    0.22
   2  -6  -1    5.96    0.33
  -2   6   1    6.37    0.27
  -2   6   1    5.95    0.28
  -2   6   1    5.49    0.34
  -2   6   1    6.25    0.28
  -2   6   1    5.81    0.34
   1  -6  -1   30.54    1.52
   1  -6  -1   29.49    1.01
   1  -6  -1   30.67    1.19
  -1   6   1   30.63    1.53
  -1   6   1   28.89    1.53
  -1   6   1   30.08    1.17
  -1   6   1   30.28    1.20
  -1   6   1   31.55    1.21
   0  -6  -1   67.03    3.28
   0  -6  -1   66.81    2.17
   0  -6  -1   67.06    2.53
   0  -6  -1   63.46    2.59
   0   6   1   68.02    2.17
   0   6   1   66.40    2.62
   0   6   1   66.27    2.49
   0   6   1   64.34    3.28
   0   6   1   68.17    2.58
   0   6   1   63.34    2.60
  -1  -6  -1   55.45    1.83
  -1  -6  -1   51.71    2.76
  -1  -6  -1   55.63    2.14
  -1  -6  -1   57.82    2.19
   1   6   1   56.48    1.83
   1   6   1   53.17    2.17
   1   6   1   54.32    2.10
   1   6   1   57.58    2.77
   1   6   1   57.51    2.20
  -2  -6  -1    3.29    0.23
  -2  -6  -1    3.40    0.19
  -2  -6  -1    3.46    0.19
   2   6   1    3.53    0.20
   2   6   1    3.21    0.16
   2   6   1    3.48    0.22
   2   6   1    3.64    0.19
   2   6   1    3.53    0.17
  -3  -6  -1   82.01    3.26
  -3  -6  -1   84.84    4.11
  -3  -6  -1   77.42    3.17
  -3  -6  -1   84.12    3.27
   3   6   1   84.75    3.27
   3   6   1   84.00    3.13
   3   6   1   84.69    2.72
   3   6   1   81.14    3.23
  -4  -6  -1   34.29    1.39
  -4  -6  -1   35.61    1.42
  -4  -6  -1   35.49    1.80
   4   6   1   34.60    1.42
   4   6   1   36.11    1.18
   4   6   1   36.32    1.38
  -5  -6  -1    0.43    0.09
  -5  -6  -1    0.40    0.08
  -5  -6  -1    0.51    0.09
   5   6   1    0.45    0.08
   5   6   1    0.48    0.06
   5   6   1    0.40    0.08
  -6  -6  -1   19.74    1.10
  -6  -6  -1   21.95    0.88
  -6  -6  -1   20.60    0.87
   6   6   1   20.70    0.72
   6   6   1   22.26    0.90
   6   6   1   20.75    0.85
  -7  -6  -1   18.48    0.80
  -7  -6  -1   18.24    0.80
   7   6   1   19.08    0.82
   7   6   1   19.31    0.65
  -8  -6  -1    1.34    0.16
   8   6   1    1.28    0.16
   8   6   1    1.42    0.10
  -9  -6  -1    9.24    0.46
   9   6   1    9.44    0.48
 -10  -6  -1    9.72    0.49
  10   6   1    9.89    0.51
  12  -7  -1    1.90    0.19
  11  -7  -1    5.43    0.31
 -11   7   1    4.74    0.30
  10  -7  -1    2.29    0.20
 -10   7   1    2.40    0.20
   9  -7  -1    6.22    0.33
  -9   7   1    5.66    0.32
   8  -7  -1   27.53    1.13
  -8   7   1   26.95    1.13
   7  -7  -1    5.83    0.22
   7  -7  -1    6.04    0.30
  -7   7   1    5.58    0.30
   6  -7  -1   19.21    0.79
   6  -7  -1   19.04    0.64
  -6   7   1   18.09    1.00
  -6   7   1   19.39    0.80
   5  -7  -1   82.27    2.97
   5  -7  -1   74.33    2.48
  -5   7   1   74.89    2.96
  -5   7   1   71.86    3.78
   4  -7  -1   17.32    0.58
   4  -7  -1   16.21    0.69
  -4   7   1   16.87    0.89
  -4   7   1   16.17    0.70
  -4   7   1   17.28    0.71
   3  -7  -1   21.27    0.88
   3  -7  -1   22.11    0.75
  -3   7   1   22.96    0.91
  -3   7   1   21.56    0.90
  -3   7   1   21.20    1.14
  -3   7   1   23.24    0.87
   2  -7  -1  153.57    5.95
   2  -7  -1  166.43    7.71
   2  -7  -1  152.33    5.10
  -2   7   1  153.24    6.05
  -2   7   1  158.53    5.86
  -2   7   1  162.79    6.12
  -2   7   1  150.04    7.72
   1  -7  -1   54.41    1.84
   1  -7  -1   58.54    2.78
   1  -7  -1   56.43    2.15
  -1   7   1   51.49    2.78
  -1   7   1   57.27    2.19
  -1   7   1   55.60    2.12
  -1   7   1   57.17    2.21
   0  -7  -1   63.70    3.22
   0  -7  -1   65.12    2.49
   0  -7  -1   62.41    2.13
   0   7   1   62.68    3.22
   0   7   1   67.85    2.54
   0   7   1   67.99    2.46
   0   7   1   63.93    2.57
   0   7   1   64.76    2.13
  -1  -7  -1  109.84    3.50
  -1  -7  -1  106.01    5.29
  -1  -7  -1  113.34    4.20
  -1  -7  -1  107.26    4.08
   1   7   1  104.62    5.29
   1   7   1  106.67    4.02
   1   7   1  108.98    3.50
   1   7   1  100.51    4.15
   1   7   1  106.53    4.22
  -2  -7  -1   13.59    0.73
  -2  -7  -1   13.21    0.57
  -2  -7  -1   13.78    0.58
   2   7   1   13.64    0.56
   2   7   1   13.01    0.58
   2   7   1   13.40    0.56
   2   7   1   13.60    0.48
  -3  -7  -1    2.03    0.15
  -3  -7  -1    1.84    0.17
  -3  -7  -1    2.02    0.15
   3   7   1    2.10    0.16
   3   7   1    1.92    0.12
   3   7   1    2.17    0.16
  -4  -7  -1   48.74    1.81
  -4  -7  -1   44.21    2.28
  -4  -7  -1   42.16    1.77
   4   7   1   46.37    1.74
   4   7   1   45.69    1.50
   4   7   1   43.66    1.80
  -5  -7  -1   26.95    1.09
  -5  -7  -1   25.77    1.08
  -5  -7  -1   25.86    1.38
   5   7   1   25.93    1.10
   5   7   1   27.57    1.06
   5   7   1   26.84    0.90
  -6  -7  -1    1.33    0.14
  -6  -7  -1    1.29    0.15
   6   7   1    1.22    0.13
   6   7   1    1.27    0.15
   6   7   1    1.26    0.11
  -7  -7  -1   15.79    0.68
  -7  -7  -1   14.56    0.67
   7   7   1   15.22    0.54
   7   7   1   15.27    0.69
  -8  -7  -1    6.24    0.34
   8   7   1    5.74    0.35
  -9  -7  -1    0.00    0.09
   9   7   1   -0.03    0.10
 -10  -7  -1    1.80    0.20
  10   7   1    1.48    0.19
  11  -8  -1    5.78    0.34
 -11   8   1    6.13    0.35
 -11   8   1    5.66    0.34
  10  -8  -1    6.27    0.35
 -10   8   1    6.69    0.36
 -10   8   1    6.51    0.37
   9  -8  -1    0.23    0.09
  -9   8   1    0.02    0.09
  -9   8   1    0.02    0.09
   8  -8  -1    7.04    0.36
  -8   8   1    6.92    0.36
  -8   8   1    6.60    0.36
   7  -8  -1   25.60    1.04
  -7   8   1   25.11    1.05
  -7   8   1   24.26    1.04
   6  -8  -1    5.58    0.22
  -6   8   1    5.59    0.30
   5  -8  -1   18.24    0.62
  -5   8   1   18.61    0.77
  -5   8   1   17.23    0.96
   4  -8  -1   63.87    2.03
   4  -8  -1   62.60    2.39
  -4   8   1   59.98    2.45
  -4   8   1   62.85    2.43
  -4   8   1   59.17    3.09
   3  -8  -1   18.59    0.64
   3  -8  -1   18.14    0.76
  -3   8   1   17.97    0.77
  -3   8   1   19.24    0.78
  -3   8   1   18.97    0.74
  -3   8   1   17.67    0.97
   2  -8  -1   19.03    0.66
   2  -8  -1   18.38    0.79
  -2   8   1   19.65    0.77
  -2   8   1   19.09    1.01
  -2   8   1   19.09    0.80
  -2   8   1   20.21    0.81
   1  -8  -1   64.62    2.14
   1  -8  -1   63.03    2.50
  -1   8   1   67.44    2.46
  -1   8   1   66.18    2.56
  -1   8   1   62.80    2.54
   0  -8  -1   54.62    1.77
   0  -8  -1   51.05    2.06
   0  -8  -1   53.69    2.67
   0   8   1   55.58    1.77
   0   8   1   52.45    2.12
   0   8   1   52.15    2.10
   0   8   1   54.78    2.67
   0   8   1   51.89    2.03
  -1  -8  -1    1.88    0.13
  -1  -8  -1    2.21    0.15
  -1  -8  -1    2.14    0.17
   1   8   1    2.26    0.13
   1   8   1    1.71    0.16
   1   8   1    2.09    0.16
  -2  -8  -1  123.16    6.12
  -2  -8  -1  117.44    4.72
  -2  -8  -1  121.59    4.85
   2   8   1  124.32    4.04
   2   8   1  120.46    4.65
   2   8   1  135.65    4.82
  -3  -8  -1   25.36    1.03
  -3  -8  -1   24.60    1.31
  -3  -8  -1   25.29    1.04
   3   8   1   25.16    0.86
   3   8   1   25.35    1.01
   3   8   1   25.62    1.05
  -4  -8  -1   13.17    0.57
  -4  -8  -1   13.00    0.72
  -4  -8  -1   12.80    0.57
   4   8   1   11.87    0.55
   4   8   1   12.66    0.58
   4   8   1   13.27    0.47
  -5  -8  -1   18.40    0.75
  -5  -8  -1   16.70    0.73
   5   8   1   15.99    0.72
   5   8   1   16.94    0.75
   5   8   1   17.69    0.61
  -6  -8  -1   11.20    0.56
  -6  -8  -1   12.58    0.56
   6   8   1   13.03    0.58
   6   8   1   12.28    0.45
   6   8   1   12.01    0.54
  -7  -8  -1    0.18    0.09
   7   8   1    0.01    0.07
   7   8   1    0.06    0.10
   7   8   1    0.40    0.07
  -8  -8  -1   12.00    0.57
   8   8   1   11.91    0.59
  -9  -8  -1    3.48    0.26
   9   8   1    3.77    0.28
 -11   9   1    0.09    0.11
 -10   9   1    7.19    0.40
 -10   9   1    7.51    0.41
  -9   9   1   14.94    0.68
  -9   9   1   14.92    0.68
  -8   9   1    0.05    0.10
  -8   9   1    0.09    0.09
   7  -9  -1   19.61    0.66
  -7   9   1   18.97    0.83
  -7   9   1   18.93    0.83
   6  -9  -1   19.31    0.66
  -6   9   1   19.06    0.82
   5  -9  -1    2.91    0.15
   5  -9  -1    2.60    0.18
  -5   9   1    2.60    0.23
  -5   9   1    3.12    0.20
   4  -9  -1   16.91    0.59
   4  -9  -1   16.47    0.71
  -4   9   1   16.75    0.92
  -4   9   1   17.52    0.73
   3  -9  -1   53.15    1.73
   3  -9  -1   51.89    2.04
  -3   9   1   51.88    2.63
  -3   9   1   51.70    2.00
  -3   9   1   50.12    2.07
  -3   9   1   54.26    2.09
   2  -9  -1    8.72    0.39
   2  -9  -1    8.51    0.33
  -2   9   1    8.31    0.38
  -2   9   1    8.24    0.49
  -2   9   1    8.57    0.40
   1  -9  -1   15.03    0.51
   1  -9  -1   13.75    0.60
  -1   9   1   13.66    0.61
  -1   9   1   14.03    0.59
   0  -9  -1   46.66    1.89
   0  -9  -1   50.12    1.62
   0   9   1   47.65    1.93
   0   9   1   49.22    1.62
   0   9   1   48.61    1.87
  -1  -9  -1    7.07    0.35
   1   9   1    7.55    0.37
   1   9   1    7.36    0.30
   1   9   1    7.66    0.36
  -2  -9  -1    1.21    0.12
   2   9   1    1.27    0.13
   2   9   1    0.95    0.12
   2   9   1    0.98    0.09
  -3  -9  -1   18.25    0.75
  -3  -9  -1   16.82    0.73
   3   9   1   17.53    0.75
   3   9   1   16.89    0.73
   3   9   1   17.24    0.62
  -4  -9  -1   34.29    1.39
  -4  -9  -1   33.06    1.36
   4   9   1   32.90    1.33
   4   9   1   33.24    1.38
   4   9   1   34.77    1.15
  -5  -9  -1    1.69    0.17
  -5  -9  -1    1.89    0.18
   5   9   1    2.21    0.21
   5   9   1    1.99    0.14
   5   9   1    2.03    0.18
   6   9   1   25.92    0.87
   6   9   1   24.79    1.08
   6   9   1   24.61    1.03
  -7  -9  -1    1.21    0.15
   7   9   1    1.44    0.18
   7   9   1    1.60    0.17
   7   9   1    1.53    0.12
   8   9   1    0.35    0.13
   9   9   1    3.92    0.30
 -10  10   1    0.10    0.11
 -10  10   1    0.25    0.11
  -9  10   1    6.34    0.37
  -9  10   1    6.19    0.36
  -8  10   1   11.23    0.53
  -8  10   1   10.57    0.53
   7 -10  -1    1.34    0.11
  -7  10   1    1.30    0.15
  -7  10   1    1.20    0.15
   6 -10  -1   22.61    0.76
  -6  10   1   22.13    0.94
  -6  10   1   20.96    0.93
   5 -10  -1   33.83    1.11
   5 -10  -1   31.19    1.32
  -5  10   1   33.46    1.35
   4 -10  -1    0.11    0.05
   4 -10  -1    0.06    0.06
  -4  10   1    0.01    0.08
  -4  10   1    0.11    0.07
   3 -10  -1   16.15    0.58
   3 -10  -1   16.00    0.69
  -3  10   1   16.35    0.70
  -3  10   1   15.64    0.67
  -3  10   1   16.35    0.71
   2 -10  -1   32.00    1.33
   2 -10  -1   34.68    1.14
  -2  10   1   32.01    1.36
  -2  10   1   35.04    1.32
   1 -10  -1    7.41    0.30
   1 -10  -1    7.14    0.35
  -1  10   1    7.39    0.35
  -1  10   1    7.19    0.37
   0 -10  -1   16.37    0.58
   0 -10  -1   15.19    0.68
   0  10   1   16.21    0.70
   0  10   1   16.04    0.58
   0  10   1   16.11    0.67
  -1 -10  -1   32.94    1.31
   1  10   1   33.02    1.34
   1  10   1   32.67    1.12
   1  10   1   32.40    1.30
  -2 -10  -1    3.57    0.22
   2  10   1    3.63    0.19
   2  10   1    3.44    0.24
   2  10   1    3.41    0.22
  -3 -10  -1    9.44    0.47
   3  10   1    9.72    0.47
   3  10   1   10.76    0.49
   3  10   1   10.69    0.40
  -4 -10  -1    9.13    0.44
   4  10   1    9.55    0.46
   4  10   1    8.76    0.44
   4  10   1    9.39    0.36
   5  10   1    0.69    0.08
   5  10   1    0.61    0.13
   5  10   1    0.51    0.10
   6  10   1    0.04    0.06
   6  10   1   -0.01    0.08
   6  10   1    0.14    0.11
   7  10   1    7.27    0.29
   7  10   1    7.18    0.38
   7  10   1    7.73    0.43
   8  10   1    4.80    0.34
  -9  11   1    0.09    0.11
  -9  11   1    0.17    0.11
  -8  11   1   12.40    0.60
  -8  11   1   12.21    0.59
   7 -11  -1    8.44    0.32
  -7  11   1    8.14    0.43
  -7  11   1    8.22    0.43
   6 -11  -1    0.08    0.05
  -6  11   1    0.01    0.09
  -6  11   1    0.04    0.09
   5 -11  -1    9.06    0.35
   5 -11  -1    8.41    0.43
  -5  11   1    9.37    0.46
   4 -11  -1   27.95    0.94
   4 -11  -1   26.42    1.12
  -4  11   1   27.40    1.14
   3 -11  -1    1.91    0.16
   3 -11  -1    1.92    0.14
  -3  11   1    1.86    0.19
  -3  11   1    2.13    0.18
   2 -11  -1   25.15    1.07
   2 -11  -1   26.06    0.91
  -2  11   1   26.71    1.10
  -2  11   1   26.98    1.06
   1 -11  -1   20.14    0.85
   1 -11  -1   21.14    0.72
  -1  11   1   19.86    0.84
  -1  11   1   19.76    0.86
   0 -11  -1    1.03    0.12
   0 -11  -1    1.00    0.09
   0  11   1    1.15    0.13
   0  11   1    0.81    0.11
   0  11   1    0.98    0.10
  -1 -11  -1    6.15    0.32
   1  11   1    5.97    0.32
   1  11   1    6.19    0.27
   1  11   1    6.33    0.34
  -2 -11  -1   22.10    0.92
   2  11   1   22.24    0.95
   2  11   1   21.88    0.91
   2  11   1   22.29    0.78
   3  11   1    2.74    0.17
   3  11   1    2.63    0.23
   3  11   1    2.88    0.21
   4  11   1    7.48    0.40
   4  11   1    7.50    0.31
   4  11   1    6.97    0.37
   5  11   1   12.09    0.57
   5  11   1   13.01    0.61
   5  11   1   12.88    0.47
   6  11   1    0.18    0.07
   6  11   1    0.24    0.09
   6  11   1    0.13    0.12
   7  11   1    3.99    0.31
   7  11   1    4.53    0.20
   7  11   1    4.23    0.27
  -9  12   1    5.22    0.34
  -8  12   1    0.35    0.13
   7 -12  -1   12.27    0.44
  -7  12   1   11.45    0.58
   6 -12  -1   14.36    0.52
  -6  12   1   13.99    0.66
   5 -12  -1    0.34    0.06
  -5  12   1    0.30    0.11
   4 -12  -1   18.78    0.67
  -4  12   1   18.64    0.83
   3 -12  -1   10.95    0.42
  -3  12   1   10.80    0.49
  -3  12   1   10.66    0.52
   2 -12  -1    0.63    0.08
  -2  12   1    0.53    0.11
  -2  12   1    0.33    0.11
   1 -12  -1   10.47    0.40
  -1  12   1   10.03    0.49
  -1  12   1    9.62    0.47
   0 -12  -1   25.73    0.86
   0  12   1   23.80    0.86
   0  12   1   23.71    1.03
   0  12   1   23.64    0.99
   1  12   1    0.10    0.08
   1  12   1    0.07    0.09
   1  12   1    0.10    0.07
   2  12   1    9.51    0.38
   2  12   1    9.38    0.47
   2  12   1    8.79    0.44
   3  12   1    6.19    0.34
   3  12   1    6.37    0.28
   3  12   1    6.18    0.36
   4  12   1    0.90    0.13
   4  12   1    1.37    0.13
   4  12   1    0.94    0.15
   5  12   1    2.63    0.24
   5  12   1    2.81    0.17
   5  12   1    2.49    0.21
   6  12   1    6.79    0.41
   6  12   1    6.87    0.38
   6  12   1    7.44    0.30
  -8  13   1    5.55    0.36
   7 -13  -1    0.03    0.05
  -7  13   1    0.03    0.11
   6 -13  -1   10.56    0.40
  -6  13   1   10.45    0.53
   5 -13  -1   11.26    0.43
  -5  13   1   11.33    0.56
   4 -13  -1    0.05    0.05
  -4  13   1   -0.01    0.10
   3 -13  -1   14.79    0.54
  -3  13   1   14.58    0.63
  -3  13   1   13.73    0.66
   2 -13  -1   15.79    0.57
  -2  13   1   15.48    0.71
  -2  13   1   15.05    0.67
   1 -13  -1    0.14    0.06
  -1  13   1    0.01    0.09
  -1  13   1    0.21    0.09
   0 -13  -1   10.38    0.40
   0  13   1    9.72    0.49
   0  13   1    9.30    0.47
   0  13   1    9.85    0.40
   1  13   1    8.18    0.41
   1  13   1    7.89    0.35
   1  13   1    8.51    0.44
   2  13   1    0.46    0.09
   2  13   1    0.46    0.11
   2  13   1    0.37    0.12
   3  13   1    7.91    0.33
   3  13   1    7.81    0.41
   3  13   1    6.95    0.39
   4  13   1    6.84    0.38
   4  13   1    7.09    0.31
   4  13   1    7.72    0.41
   5  13   1    0.09    0.07
   5  13   1   -0.08    0.10
   5  13   1    0.07    0.09
   6 -14  -1    0.16    0.06
  -6  14   1    0.22    0.12
   5 -14  -1    5.16    0.24
  -5  14   1    5.18    0.33
   4 -14  -1    5.58    0.25
  -4  14   1    5.48    0.34
   3 -14  -1    0.08    0.06
  -3  14   1    0.07    0.11
  -3  14   1    0.00    0.09
   2 -14  -1    6.47    0.28
  -2  14   1    6.10    0.36
  -2  14   1    5.69    0.33
   1 -14  -1    7.87    0.33
  -1  14   1    7.82    0.42
  -1  14   1    7.35    0.39
   0 -14  -1    0.20    0.07
   0  14   1    0.13    0.10
   0  14   1    0.11    0.09
   0  14   1    0.08    0.07
   1  14   1    6.92    0.37
   1  14   1    6.57    0.30
   1  14   1    6.53    0.38
   2  14   1    6.27    0.37
   2  14   1    5.79    0.34
   2  14   1    6.45    0.29
   3  14   1    0.07    0.10
   3  14   1   -0.01    0.07
   3  14   1   -0.12    0.08
   4 -15  -1    5.31    0.25
   3 -15  -1    1.63    0.13
  -3  15   1    1.19    0.17
  -3  15   1    1.30    0.15
   2 -15  -1    0.68    0.09
  -2  15   1    0.37    0.12
  -2  15   1    0.55    0.12
   1 -15  -1    3.37    0.19
  -1  15   1    2.84    0.23
  -1  15   1    3.12    0.25
   0 -15  -1    2.16    0.16
   0  15   1    2.03    0.17
   0  15   1    1.93    0.20
   0  15   1    2.26    0.22
   1  15   1    0.15    0.08
   1  15   1    0.14    0.10
   1  15   1    0.17    0.11
   0  16  -2    4.99    0.31
   0  16  -2    4.80    0.25
  -1  16  -2    0.83    0.11
  -1  16  -2    0.71    0.14
   3  15  -2    4.68    0.30
   3  15  -2    4.04    0.28
   3  15  -2    4.34    0.22
   2  15  -2    4.46    0.29
   2  15  -2    4.93    0.24
   1  15  -2    0.04    0.10
   1  15  -2    0.04    0.07
   0  15  -2    8.72    0.43
   0  15  -2    8.49    0.36
  -1  15  -2    3.18    0.20
  -1  15  -2    3.23    0.24
  -2  15  -2    0.07    0.08
  -2  15  -2   -0.17    0.09
   2 -15   2    0.06    0.06
   3 -15   2    2.83    0.18
   4 -15   2    5.77    0.27
   5 -15   2    0.01    0.06
   5  14  -2    7.93    0.31
   5  14  -2    7.24    0.40
   5  14  -2    7.70    0.42
   4  14  -2    3.08    0.24
   4  14  -2    2.67    0.23
   4  14  -2    2.91    0.17
   3  14  -2    1.14    0.11
   3  14  -2    1.30    0.16
   3  14  -2    1.60    0.19
   2  14  -2   10.79    0.53
   2  14  -2   11.29    0.54
   2  14  -2   11.72    0.44
   1  14  -2    4.63    0.29
   1  14  -2    4.75    0.24
   1  14  -2    4.87    0.30
   0  14  -2    1.03    0.12
   0  14  -2    1.04    0.14
   0  14  -2    1.22    0.15
  -1  14  -2    9.71    0.41
  -1  14  -2    9.54    0.47
   1 -14   2   10.31    0.40
  -2  14  -2    8.66    0.37
  -2  14  -2    8.53    0.42
   2 -14   2    8.59    0.36
   3 -14   2    0.66    0.09
   4 -14   2   10.79    0.43
   5 -14   2    3.79    0.20
   6 -14   2    0.04    0.06
   6  13  -2    2.58    0.22
   6  13  -2    2.92    0.25
   5  13  -2    2.19    0.14
   5  13  -2    2.05    0.20
   5  13  -2    2.26    0.21
   4  13  -2   13.27    0.62
   4  13  -2   13.87    0.49
   4  13  -2   12.65    0.60
   3  13  -2    7.42    0.39
   3  13  -2    6.88    0.38
   3  13  -2    7.38    0.31
   2  13  -2    2.98    0.22
   2  13  -2    3.03    0.18
   2  13  -2    2.80    0.23
   1  13  -2   19.72    0.83
   1  13  -2   18.72    0.81
   1  13  -2   18.84    0.69
   0  13  -2    9.51    0.39
   0  13  -2    9.99    0.47
   0  13  -2    9.67    0.47
  -1  13  -2    1.27    0.15
  -1  13  -2    1.63    0.15
  -1  13  -2    1.53    0.18
   1 -13   2    1.37    0.13
  -2  13  -2   23.43    0.84
  -2  13  -2   23.71    0.97
  -2  13  -2   23.03    0.99
   2 -13   2   24.09    0.84
   3 -13   2    6.70    0.30
   4 -13   2    0.60    0.08
   5 -13   2   11.61    0.45
   6 -13   2   10.11    0.40
   7 -13   2    0.40    0.07
   8  12  -2    0.24    0.10
   7  12  -2    3.03    0.25
   7  12  -2    2.91    0.23
   6  12  -2    6.85    0.38
   6  12  -2    7.22    0.40
   6  12  -2    7.21    0.28
   5  12  -2    4.63    0.20
   5  12  -2    4.11    0.27
   5  12  -2    4.25    0.29
   4  12  -2    2.46    0.21
   4  12  -2    2.84    0.23
   4  12  -2    3.00    0.16
   3  12  -2   21.33    0.73
   3  12  -2   19.70    0.87
   3  12  -2   21.19    0.89
   2  12  -2    7.89    0.33
   2  12  -2    7.94    0.40
   2  12  -2    7.85    0.40
  -2 -12   2    8.09    0.39
   1  12  -2    1.63    0.17
   1  12  -2    1.71    0.14
   1  12  -2    1.65    0.17
  -1 -12   2    1.74    0.15
   0  12  -2   27.37    1.15
   0  12  -2   27.34    1.13
   0  12  -2   28.48    0.97
   0 -12   2   28.68    1.14
  -1  12  -2   11.49    0.44
  -1  12  -2   11.26    0.52
  -1  12  -2   11.20    0.51
   1 -12   2   11.35    0.51
  -2  12  -2    1.80    0.17
  -2  12  -2    1.53    0.18
  -2  12  -2    1.65    0.15
   2 -12   2    1.84    0.14
   2 -12   2    1.66    0.15
  -3  12  -2   18.16    0.81
   3 -12   2   19.55    0.68
   3 -12   2   18.99    0.80
  -4  12  -2   18.42    0.78
   4 -12   2   17.42    0.77
   4 -12   2   17.89    0.65
  -5  12  -2    2.16    0.21
   5 -12   2    2.49    0.16
   6 -12   2   15.00    0.55
   7 -12   2    4.10    0.21
   8 -12   2   -0.01    0.06
   8  11  -2    8.73    0.47
   8  11  -2    7.97    0.43
  -8 -11   2    8.60    0.44
   7  11  -2    0.72    0.14
   7  11  -2    0.65    0.12
  -7 -11   2    0.57    0.12
   6  11  -2    8.54    0.44
   6  11  -2    8.33    0.31
   6  11  -2    7.85    0.41
  -6 -11   2    8.26    0.42
   5  11  -2   17.67    0.63
   5  11  -2   17.50    0.77
  -5 -11   2   18.63    0.79
   4  11  -2    0.95    0.13
   4  11  -2    1.13    0.13
   4  11  -2    0.97    0.09
  -4 -11   2    1.21    0.14
  -4 -11   2    1.04    0.13
   3  11  -2    3.77    0.25
   3  11  -2    3.99    0.25
   3  11  -2    3.83    0.19
  -3 -11   2    4.23    0.24
  -3 -11   2    4.22    0.24
   2  11  -2   24.00    0.81
   2  11  -2   22.96    0.94
   2  11  -2   21.94    0.97
  -2 -11   2   23.51    0.95
   1  11  -2   10.09    0.48
   1  11  -2   10.29    0.47
   1  11  -2   10.63    0.40
  -1 -11   2   10.45    0.47
   0  11  -2    7.10    0.30
   0  11  -2    6.87    0.35
   0  11  -2    6.81    0.35
   0 -11   2    7.45    0.35
  -1  11  -2   22.51    0.84
  -1  11  -2   23.64    0.97
   1 -11   2   24.66    0.84
   1 -11   2   25.30    0.99
  -2  11  -2   11.55    0.55
  -2  11  -2   12.39    0.54
  -2  11  -2   12.82    0.47
   2 -11   2   12.38    0.46
   2 -11   2   12.36    0.54
  -3  11  -2    4.01    0.22
  -3  11  -2    3.63    0.24
   3 -11   2    3.89    0.22
   3 -11   2    3.31    0.19
  -4  11  -2   21.19    0.90
   4 -11   2   20.50    0.88
   4 -11   2   21.61    0.75
  -5  11  -2    6.78    0.36
   5 -11   2    6.76    0.29
  -6  11  -2    0.09    0.09
   6 -11   2    0.06    0.05
  -7  11  -2   17.32    0.78
   7 -11   2   17.98    0.63
  -8  11  -2    7.62    0.41
   8 -11   2    7.49    0.30
   9  10  -2    0.45    0.13
  -9 -10   2    0.54    0.12
   8  10  -2    4.92    0.33
   8  10  -2    5.32    0.31
  -8 -10   2    5.51    0.32
   7  10  -2   17.61    0.78
   7  10  -2   18.79    0.82
  -7 -10   2   18.56    0.81
   6  10  -2    1.27    0.10
   6  10  -2    1.21    0.14
   6  10  -2    1.64    0.19
  -6 -10   2    1.40    0.16
   5  10  -2   11.46    0.53
   5  10  -2   10.60    0.51
   5  10  -2   11.30    0.41
  -5 -10   2   10.73    0.51
  -5 -10   2   11.16    0.51
   4  10  -2   30.14    1.22
   4  10  -2   31.40    1.04
   4  10  -2   29.27    1.26
  -4 -10   2   31.90    1.27
  -4 -10   2   30.51    1.24
   3  10  -2    4.65    0.26
   3  10  -2    4.47    0.21
   3  10  -2    4.38    0.27
  -3 -10   2    4.76    0.26
  -3 -10   2    4.60    0.26
  -3 -10   2    4.87    0.32
   2  10  -2   23.25    0.94
   2  10  -2   23.02    0.96
   2  10  -2   22.73    0.80
  -2 -10   2   23.29    0.97
  -2 -10   2   23.62    1.22
  -2 -10   2   23.14    0.95
   1  10  -2   26.16    0.86
   1  10  -2   24.40    1.02
   1  10  -2   25.09    1.00
  -1 -10   2   23.07    1.29
  -1 -10   2   25.27    1.00
   0  10  -2    4.85    0.26
   0  10  -2    4.40    0.21
   0  10  -2    4.39    0.25
   0 -10   2    4.74    0.24
  -1  10  -2    7.01    0.33
  -1  10  -2    6.56    0.29
  -1  10  -2    6.90    0.34
   1 -10   2    7.17    0.33
   1 -10   2    6.88    0.28
  -2  10  -2   41.87    1.69
  -2  10  -2   44.14    1.64
  -2  10  -2   41.79    1.43
   2 -10   2   40.18    1.66
   2 -10   2   44.09    1.43
  -3  10  -2    5.09    0.28
  -3  10  -2    5.63    0.27
   3 -10   2    5.31    0.28
   3 -10   2    5.35    0.23
  -4  10  -2    6.30    0.33
   4 -10   2    6.41    0.31
   4 -10   2    6.23    0.26
  -5  10  -2   24.61    1.02
   5 -10   2   24.39    0.85
  -6  10  -2    6.31    0.33
   6 -10   2    6.11    0.26
  -7  10  -2    3.35    0.24
   7 -10   2    3.33    0.17
  -8  10  -2    5.97    0.34
   8 -10   2    6.24    0.26
 -10  10  -2    0.06    0.10
  10   9  -2    5.45    0.36
   9   9  -2    6.70    0.39
  -9  -9   2    6.57    0.37
   8   9  -2    0.01    0.08
   8   9  -2    0.03    0.10
  -8  -9   2    0.05    0.08
   7   9  -2    8.60    0.45
   7   9  -2    8.79    0.43
  -7  -9   2    8.94    0.43
   6   9  -2   17.11    0.72
   6   9  -2   16.64    0.58
   6   9  -2   16.79    0.75
  -6  -9   2   16.90    0.73
   5   9  -2    3.10    0.15
   5   9  -2    3.16    0.22
   5   9  -2    2.88    0.21
  -5  -9   2    2.83    0.20
  -5  -9   2    2.98    0.20
   4   9  -2   19.89    0.83
   4   9  -2   19.55    0.69
   4   9  -2   19.81    0.85
  -4  -9   2   19.34    1.06
  -4  -9   2   20.46    0.85
  -4  -9   2   21.28    0.84
   3   9  -2   40.42    1.33
   3   9  -2   40.04    1.59
   3   9  -2   36.51    1.55
  -3  -9   2   38.59    2.02
  -3  -9   2   38.60    1.57
  -3  -9   2   44.62    1.61
   2   9  -2    4.03    0.23
   2   9  -2    3.76    0.23
   2   9  -2    3.78    0.18
  -2  -9   2    3.73    0.22
  -2  -9   2    4.00    0.27
  -2  -9   2    4.21    0.22
   1   9  -2   24.88    1.01
   1   9  -2   23.46    0.85
   1   9  -2   26.31    0.99
  -1  -9   2   24.29    1.28
  -1  -9   2   25.79    1.02
  -1  -9   2   24.30    0.99
   0   9  -2   74.04    2.72
   0   9  -2   70.68    2.36
   0   9  -2   71.92    2.79
   0  -9   2   68.44    3.56
   0  -9   2   72.43    2.75
  -1   9  -2    0.83    0.10
  -1   9  -2    0.64    0.09
  -1   9  -2    0.53    0.07
   1  -9   2    0.62    0.10
   1  -9   2    0.64    0.07
   1  -9   2    0.65    0.08
  -2   9  -2   27.85    0.97
  -2   9  -2   27.18    1.14
  -2   9  -2   30.46    1.11
   2  -9   2   27.24    1.13
   2  -9   2   29.12    0.97
  -3   9  -2   30.07    1.19
   3  -9   2   28.90    1.17
   3  -9   2   29.09    1.00
  -4   9  -2    8.55    0.40
   4  -9   2    8.72    0.33
   4  -9   2    8.57    0.39
  -5   9  -2   12.92    0.57
  -5   9  -2   12.78    0.59
   5  -9   2   13.27    0.47
  -6   9  -2   27.40    1.18
  -6   9  -2   28.91    1.16
   6  -9   2   28.30    0.96
  -7   9  -2    4.43    0.28
  -7   9  -2    4.31    0.27
   7  -9   2    4.62    0.21
  -8   9  -2    3.38    0.25
  -8   9  -2    3.54    0.24
   8  -9   2    3.37    0.17
   8  -9   2    3.38    0.23
  -9   9  -2   10.65    0.53
  -9   9  -2   10.91    0.52
   9  -9   2   11.00    0.51
 -10   9  -2    1.23    0.17
  10  -9   2    1.17    0.14
  10   8  -2    0.03    0.11
 -10  -8   2    0.06    0.09
   9   8  -2   10.16    0.53
  -9  -8   2   11.00    0.51
   8   8  -2   15.74    0.71
  -8  -8   2   15.75    0.69
   7   8  -2    0.07    0.07
   7   8  -2   -0.07    0.08
  -7  -8   2    0.12    0.08
  -7  -8   2    0.13    0.07
   6   8  -2   27.22    0.91
   6   8  -2   26.63    1.13
   6   8  -2   26.64    1.09
  -6  -8   2   26.16    1.10
  -6  -8   2   28.90    1.12
   5   8  -2   27.66    0.93
   5   8  -2   27.09    1.11
   5   8  -2   26.93    1.14
  -5  -8   2   29.79    1.14
  -5  -8   2   29.14    1.13
  -5  -8   2   26.34    1.43
   4   8  -2    0.05    0.04
   4   8  -2    0.23    0.07
   4   8  -2    0.09    0.06
  -4  -8   2    0.16    0.07
  -4  -8   2    0.03    0.06
  -4  -8   2    0.11    0.06
   3   8  -2   31.89    1.23
   3   8  -2   30.98    1.26
   3   8  -2   30.96    1.05
  -3  -8   2   30.44    1.60
  -3  -8   2   33.10    1.25
  -3  -8   2   30.50    1.27
   2   8  -2   57.85    1.89
   2   8  -2   57.62    2.25
   2   8  -2   58.96    2.19
  -2  -8   2   56.15    2.86
  -2  -8   2   55.21    2.27
  -2  -8   2   58.16    2.21
   1   8  -2    2.39    0.16
   1   8  -2    2.46    0.17
   1   8  -2    2.59    0.14
  -1  -8   2    2.61    0.15
  -1  -8   2    2.20    0.18
   0   8  -2   43.19    1.61
   0   8  -2   44.66    2.12
   0   8  -2   41.28    1.66
   0   8  -2   40.90    1.40
   0   8  -2   37.10    1.66
   0  -8   2   42.42    1.40
   0  -8   2   43.56    1.63
   0  -8   2   42.65    1.67
   0  -8   2   42.24    2.11
  -1   8  -2   63.21    2.72
  -1   8  -2   72.10    2.61
  -1   8  -2   69.04    3.43
  -1   8  -2   67.88    2.68
  -1   8  -2   69.84    2.27
   1  -8   2   71.15    2.27
   1  -8   2   68.51    2.64
   1  -8   2   69.50    3.43
  -2   8  -2    9.96    0.43
  -2   8  -2    9.24    0.55
  -2   8  -2    9.72    0.37
  -2   8  -2    9.94    0.42
  -2   8  -2   10.12    0.43
   2  -8   2    9.68    0.54
   2  -8   2    9.69    0.36
   2  -8   2    9.94    0.42
  -3   8  -2   55.66    2.14
  -3   8  -2   51.30    2.10
  -3   8  -2   56.27    2.16
   3  -8   2   51.14    1.77
   3  -8   2   54.09    2.08
  -4   8  -2   58.70    2.42
  -4   8  -2   63.04    2.46
   4  -8   2   63.94    2.04
  -5   8  -2    0.54    0.10
  -5   8  -2    0.70    0.09
   5  -8   2    0.45    0.06
  -6   8  -2    9.01    0.44
  -6   8  -2    9.22    0.43
   6  -8   2    9.50    0.43
   6  -8   2    9.47    0.35
  -7   8  -2   24.77    1.05
   7  -8   2   24.94    0.85
   7  -8   2   25.01    1.03
  -8   8  -2    4.77    0.30
   8  -8   2    5.07    0.28
   8  -8   2    5.11    0.22
  -9   8  -2    3.94    0.27
   9  -8   2    3.95    0.25
 -10   8  -2    8.59    0.45
  10  -8   2    9.08    0.44
  11  -8   2    1.20    0.15
  11   7  -2    8.52    0.46
  10   7  -2    4.73    0.32
 -10  -7   2    5.23    0.30
   9   7  -2    1.16    0.16
  -9  -7   2    1.34    0.15
   8   7  -2   11.19    0.51
  -8  -7   2   10.21    0.50
  -8  -7   2   10.36    0.49
   7   7  -2   20.86    0.89
   7   7  -2   20.80    0.85
  -7  -7   2   21.57    0.88
  -7  -7   2   20.28    0.87
   6   7  -2    1.10    0.12
   6   7  -2    0.98    0.11
   6   7  -2    0.94    0.08
  -6  -7   2    0.79    0.10
  -6  -7   2    0.84    0.11
   5   7  -2   43.81    1.74
   5   7  -2   43.93    1.44
   5   7  -2   44.68    1.69
  -5  -7   2   42.09    2.19
  -5  -7   2   44.18    1.71
  -5  -7   2   43.19    1.74
   4   7  -2   55.58    2.18
   4   7  -2   54.56    1.82
   4   7  -2   55.94    2.12
  -4  -7   2   53.78    2.76
  -4  -7   2   56.27    2.19
  -4  -7   2   55.98    2.14
   3   7  -2    0.34    0.07
   3   7  -2    0.13    0.06
   3   7  -2    0.11    0.04
  -3  -7   2    0.14    0.06
  -3  -7   2    0.09    0.05
  -3  -7   2    0.17    0.06
   2   7  -2   68.22    2.19
   2   7  -2   66.17    2.52
   2   7  -2   68.06    2.60
  -2  -7   2   71.46    3.31
  -2  -7   2   63.07    3.31
  -2  -7   2   63.86    2.55
  -2  -7   2   65.08    2.62
   1   7  -2   75.16    2.92
   1   7  -2   78.58    2.84
   1   7  -2   74.19    3.72
   1   7  -2   75.99    2.46
  -1  -7   2   79.31    2.87
  -1  -7   2   76.92    3.73
  -1  -7   2   69.07    3.72
  -1  -7   2   71.85    2.95
   0   7  -2    0.95    0.09
   0   7  -2    1.40    0.11
   0   7  -2    0.96    0.10
   0   7  -2    0.95    0.07
   0  -7   2    0.92    0.09
   0  -7   2    0.87    0.10
  -1   7  -2   56.75    1.99
  -1   7  -2   53.50    2.05
  -1   7  -2   50.14    1.73
  -1   7  -2   48.80    2.07
  -1   7  -2   52.02    2.62
   1  -7   2   52.52    1.73
   1  -7   2   52.14    2.07
   1  -7   2   50.43    2.61
   1  -7   2   54.79    2.01
  -2   7  -2   81.70    3.04
  -2   7  -2   77.61    3.00
  -2   7  -2   71.07    3.05
  -2   7  -2   76.18    2.90
  -2   7  -2   77.18    2.53
   2  -7   2   76.64    2.53
   2  -7   2   79.60    2.95
   2  -7   2   77.49    3.82
  -3   7  -2    4.57    0.22
  -3   7  -2    4.84    0.23
  -3   7  -2    4.67    0.24
  -3   7  -2    4.54    0.25
   3  -7   2    4.67    0.23
   3  -7   2    4.66    0.19
  -4   7  -2   26.31    1.06
  -4   7  -2   26.47    1.04
   4  -7   2   24.64    1.04
   4  -7   2   26.17    0.88
  -5   7  -2   73.91    2.88
   5  -7   2   72.80    2.39
   5  -7   2   71.43    2.83
  -6   7  -2    6.43    0.33
   6  -7   2    6.45    0.26
   6  -7   2    6.54    0.31
  -7   7  -2   21.59    0.94
   7  -7   2   23.27    0.76
   7  -7   2   21.88    0.92
  -8   7  -2   16.74    0.76
   8  -7   2   18.38    0.75
  -9   7  -2    1.96    0.19
   9  -7   2    2.14    0.18
 -10   7  -2    1.90    0.20
  10  -7   2    2.43    0.20
 -11   7  -2    7.11    0.40
  11  -7   2    7.21    0.38
  11   6  -2    1.63    0.19
 -11  -6   2    1.73    0.17
  10   6  -2    9.21    0.49
 -10  -6   2    9.81    0.46
   9   6  -2   10.69    0.52
  -9  -6   2   10.60    0.49
   8   6  -2    1.45    0.16
  -8  -6   2    1.63    0.15
  -8  -6   2    1.57    0.15
   7   6  -2   40.93    1.60
   7   6  -2   40.02    1.54
  -7  -6   2   38.38    1.57
  -7  -6   2   40.00    1.60
   6   6  -2   10.91    0.49
   6   6  -2   10.94    0.47
  -6  -6   2   11.83    0.48
  -6  -6   2   10.45    0.48
  -6  -6   2   10.85    0.60
   5   6  -2    0.55    0.08
   5   6  -2    0.52    0.05
  -5  -6   2    0.57    0.07
  -5  -6   2    0.59    0.08
  -5  -6   2    0.52    0.08
   4   6  -2   27.08    0.91
   4   6  -2   26.48    1.06
   4   6  -2   29.13    1.09
  -4  -6   2   27.67    1.09
  -4  -6   2   25.49    1.37
  -4  -6   2   27.10    1.07
   3   6  -2   74.29    2.44
   3   6  -2   77.19    2.90
   3   6  -2   75.33    2.81
  -3  -6   2   72.00    3.69
  -3  -6   2   75.68    3.69
  -3  -6   2   73.70    2.85
  -3  -6   2   73.53    2.92
   2   6  -2    0.19    0.05
   2   6  -2    0.21    0.05
   2   6  -2    0.16    0.04
  -2  -6   2    0.16    0.05
  -2  -6   2    0.20    0.05
  -2  -6   2    0.17    0.05
   1   6  -2   72.07    2.62
   1   6  -2   68.33    3.44
   1   6  -2   68.49    2.27
   1   6  -2   69.57    2.70
  -1  -6   2   66.23    3.44
  -1  -6   2   67.48    2.65
  -1  -6   2   73.09    3.44
  -1  -6   2   70.71    2.73
   0   6  -2   85.63    2.78
   0   6  -2   84.43    4.20
   0   6  -2   76.78    3.34
   0   6  -2   87.74    3.19
   0   6  -2   85.47    3.29
   0  -6   2   94.42    4.21
   0  -6   2   83.36    4.20
   0  -6   2   80.66    3.33
   0  -6   2   87.22    3.24
  -1   6  -2    1.47    0.13
  -1   6  -2    1.10    0.08
  -1   6  -2    1.02    0.10
  -1   6  -2    1.24    0.10
  -1   6  -2    1.19    0.10
   1  -6   2    1.13    0.11
   1  -6   2    1.11    0.10
   1  -6   2    1.29    0.09
  -2   6  -2   75.85    2.76
  -2   6  -2   67.90    2.88
  -2   6  -2   77.24    2.85
  -2   6  -2   70.06    2.91
  -2   6  -2   71.18    2.41
   2  -6   2   72.82    2.40
   2  -6   2   72.42    3.63
   2  -6   2   80.67    2.80
  -3   6  -2   65.45    2.49
  -3   6  -2   63.21    2.45
  -3   6  -2   60.07    2.51
   3  -6   2   62.73    2.45
   3  -6   2   64.71    2.07
   3  -6   2   62.04    2.41
   3  -6   2   63.88    3.13
  -4   6  -2    1.22    0.12
  -4   6  -2    1.30    0.13
   4  -6   2    1.12    0.10
   4  -6   2    1.09    0.09
  -5   6  -2   24.73    0.99
   5  -6   2   23.08    0.97
   5  -6   2   24.38    0.81
  -6   6  -2   31.75    1.30
   6  -6   2   31.44    1.07
   6  -6   2   32.61    1.28
  -7   6  -2    7.23    0.36
   7  -6   2    7.29    0.28
   7  -6   2    7.06    0.34
  -8   6  -2    6.64    0.35
   8  -6   2    6.76    0.34
   8  -6   2    6.88    0.26
  -9   6  -2   20.89    0.93
   9  -6   2   22.82    0.93
 -10   6  -2    0.60    0.13
  10  -6   2    0.71    0.12
 -11   6  -2    2.82    0.23
  11  -6   2    2.84    0.22
  12   5  -2   11.51    0.57
  11   5  -2    4.40    0.30
 -11  -5   2    4.67    0.28
  10   5  -2    2.43    0.22
 -10  -5   2    2.29    0.18
   9   5  -2   25.89    1.06
  -9  -5   2   23.96    1.04
  -9  -5   2   25.46    1.04
   8   5  -2   10.42    0.48
  -8  -5   2   10.10    0.47
  -8  -5   2    9.90    0.45
   7   5  -2    1.78    0.16
  -7  -5   2    1.83    0.16
  -7  -5   2    1.99    0.14
  -7  -5   2    1.94    0.15
   6   5  -2   48.43    1.88
   6   5  -2   48.29    1.81
  -6  -5   2   47.38    1.85
  -6  -5   2   46.41    1.88
  -6  -5   2   46.72    2.37
   5   5  -2   50.79    2.05
   5   5  -2   54.09    1.99
   5   5  -2   52.74    1.71
  -5  -5   2   53.22    2.07
  -5  -5   2   52.37    2.02
  -5  -5   2   52.78    2.06
  -5  -5   2   50.50    2.60
   4   5  -2   28.26    1.12
   4   5  -2   28.21    0.94
   4   5  -2   28.66    1.09
  -4  -5   2   29.80    1.43
  -4  -5   2   27.38    1.42
  -4  -5   2   28.84    1.11
  -4  -5   2   26.45    1.12
  -4  -5   2   28.62    1.12
   3   5  -2   94.06    3.37
   3   5  -2   92.50    3.47
   3   5  -2   88.38    2.92
  -3  -5   2   85.94    3.41
  -3  -5   2   85.54    4.42
  -3  -5   2   89.11    3.50
  -3  -5   2   92.32    4.43
   2   5  -2   11.83    0.41
   2   5  -2   11.69    0.49
   2   5  -2   12.87    0.50
  -2  -5   2   11.74    0.50
  -2  -5   2   12.34    0.49
  -2  -5   2   11.96    0.63
  -2  -5   2   12.24    0.63
   1   5  -2    0.50    0.07
   1   5  -2    0.53    0.06
  -1  -5   2    0.44    0.06
  -1  -5   2    0.43    0.07
  -1  -5   2    0.44    0.05
   0   5  -2   90.04    3.76
   0   5  -2   98.02    3.58
   0   5  -2  101.47    4.72
   0   5  -2   95.85    4.72
   0   5  -2   92.02    3.12
   0  -5   2   86.13    4.71
   0  -5   2   99.51    4.72
   0  -5   2  102.20    3.63
   0  -5   2   96.27    3.73
  -1   5  -2   50.81    2.63
  -1   5  -2   54.38    2.63
  -1   5  -2   55.24    2.00
  -1   5  -2   47.45    2.10
  -1   5  -2   56.43    2.09
   1  -5   2   51.28    2.63
   1  -5   2   54.75    2.63
   1  -5   2   52.34    2.08
   1  -5   2   55.44    2.03
  -2   5  -2    3.16    0.16
  -2   5  -2    3.12    0.20
  -2   5  -2    2.84    0.16
  -2   5  -2    3.17    0.16
   2  -5   2    2.86    0.15
   2  -5   2    3.25    0.15
   2  -5   2    3.10    0.13
   2  -5   2    3.38    0.20
  -3   5  -2   56.51    2.80
  -3   5  -2   57.82    2.25
  -3   5  -2   55.51    2.22
   3  -5   2   60.03    2.80
   3  -5   2   54.31    2.19
   3  -5   2   54.49    1.85
  -4   5  -2   60.01    2.41
  -4   5  -2   65.93    3.04
  -4   5  -2   63.77    2.44
   4  -5   2   62.42    3.02
   4  -5   2   55.33    2.37
   4  -5   2   59.55    2.00
  -5   5  -2    0.22    0.06
   5  -5   2    0.20    0.05
   5  -5   2    0.15    0.04
  -6   5  -2   34.71    1.37
   6  -5   2   33.48    1.13
   6  -5   2   33.26    1.35
  -7   5  -2   16.36    0.71
  -7   5  -2   16.13    0.89
   7  -5   2   16.73    0.58
   7  -5   2   17.42    0.70
  -8   5  -2   -0.05    0.07
   8  -5   2   -0.02    0.04
   8  -5   2    0.14    0.07
  -9   5  -2    3.92    0.25
   9  -5   2    3.83    0.17
   9  -5   2    4.09    0.25
 -10   5  -2    5.94    0.34
  10  -5   2    6.39    0.34
 -11   5  -2    0.94    0.14
  11  -5   2    0.91    0.13
  12   4  -2    0.26    0.12
 -12  -4   2    0.05    0.09
  11   4  -2    7.79    0.42
 -11  -4   2    8.05    0.40
  10   4  -2   11.42    0.55
 -10  -4   2   11.42    0.52
   9   4  -2    2.84    0.22
  -9  -4   2    2.66    0.20
  -9  -4   2    2.95    0.19
   8   4  -2   24.97    1.04
  -8  -4   2   25.33    1.02
  -8  -4   2   24.97    1.02
   7   4  -2   23.14    0.92
  -7  -4   2   22.01    0.91
  -7  -4   2   22.52    0.91
  -7  -4   2   21.50    1.14
   6   4  -2    9.54    0.39
   6   4  -2    9.71    0.42
  -6  -4   2    9.33    0.40
  -6  -4   2    9.20    0.50
  -6  -4   2    9.54    0.40
  -6  -4   2    9.29    0.41
   5   4  -2   76.02    2.80
   5   4  -2   75.48    2.90
  -5  -4   2   71.56    3.68
  -5  -4   2   77.36    3.69
  -5  -4   2   73.70    2.91
  -5  -4   2   73.71    2.85
  -5  -4   2   74.29    2.94
   4   4  -2   30.94    1.07
   4   4  -2   34.96    1.29
   4   4  -2   33.12    1.25
  -4  -4   2   31.44    1.29
  -4  -4   2   32.78    1.27
  -4  -4   2   31.89    1.63
  -4  -4   2   34.01    1.63
  -4  -4   2   32.80    1.29
   3   4  -2    3.49    0.14
   3   4  -2    3.84    0.18
   3   4  -2    3.51    0.18
  -3  -4   2    4.17    0.18
  -3  -4   2    3.58    0.17
  -3  -4   2    3.91    0.22
  -3  -4   2    3.77    0.21
   2   4  -2  299.28   10.75
   2   4  -2  274.88    9.34
  -2  -4   2  296.58   14.15
  -2  -4   2  291.42   14.15
  -2  -4   2  277.01   11.19
  -2  -4   2  290.02   10.92
   1   4  -2   68.57    2.38
   1   4  -2   65.77    3.12
  -1  -4   2   57.66    2.47
  -1  -4   2   63.59    2.41
  -1  -4   2   59.22    3.12
  -1  -4   2   65.43    3.13
   0   4  -2  120.50    5.91
   0   4  -2  110.72    4.72
   0  -4   2  128.96    5.91
   0  -4   2  121.17    5.91
   0  -4   2  119.14    4.68
   0  -4   2  120.96    4.55
  -1   4  -2  122.92    5.68
  -1   4  -2  115.39    4.50
   1  -4   2  123.26    5.68
   1  -4   2  113.12    4.50
   1  -4   2  113.07    4.37
   1  -4   2  105.43    5.68
  -2   4  -2   62.99    2.96
  -2   4  -2   57.67    2.35
  -2   4  -2   52.46    2.37
   2  -4   2   64.72    2.96
   2  -4   2   54.31    2.34
   2  -4   2   62.88    2.96
   2  -4   2   64.51    2.28
  -3   4  -2   14.86    0.62
  -3   4  -2   13.68    0.63
  -3   4  -2   16.20    0.78
   3  -4   2   14.20    0.61
   3  -4   2   16.18    0.77
   3  -4   2   15.57    0.51
  -4   4  -2   99.54    4.16
  -4   4  -2  115.17    5.19
  -4   4  -2  107.35    4.11
   4  -4   2   94.48    4.06
   4  -4   2  104.27    3.42
   4  -4   2  110.18    5.17
  -5   4  -2   26.96    1.11
   5  -4   2   27.26    0.92
   5  -4   2   28.37    1.10
  -6   4  -2    0.53    0.08
  -6   4  -2    0.45    0.09
   6  -4   2    0.54    0.05
   6  -4   2    0.58    0.08
  -7   4  -2   31.98    1.29
  -7   4  -2   29.63    1.63
   7  -4   2   33.98    1.29
   7  -4   2   32.03    1.06
  -8   4  -2   18.36    0.79
   8  -4   2   18.94    0.79
   8  -4   2   18.56    0.64
  -9   4  -2    0.56    0.11
   9  -4   2    0.76    0.11
 -10   4  -2    9.44    0.45
  10  -4   2    8.84    0.45
 -11   4  -2    2.97    0.25
  11  -4   2    3.46    0.24
  12  -4   2    0.01    0.09
  12   3  -2    0.00    0.10
 -12  -3   2    0.10    0.09
  11   3  -2    9.61    0.48
 -11  -3   2    9.14    0.45
  10   3  -2    2.22    0.20
 -10  -3   2    1.72    0.16
   9   3  -2    1.92    0.18
  -9  -3   2    2.13    0.15
   8   3  -2    2.53    0.18
  -8  -3   2    2.33    0.15
   7   3  -2   41.86    1.71
  -7  -3   2   44.10    1.73
  -7  -3   2   43.05    1.71
  -7  -3   2   43.72    2.15
   6   3  -2    5.68    0.26
  -6  -3   2    5.10    0.29
  -6  -3   2    5.06    0.24
  -6  -3   2    5.21    0.24
   5   3  -2   13.60    0.53
   5   3  -2   12.51    0.50
  -5  -3   2   12.38    0.52
  -5  -3   2   12.51    0.65
  -5  -3   2   13.02    0.53
  -5  -3   2   12.53    0.66
   4   3  -2  114.55    4.23
   4   3  -2  109.25    4.09
  -4  -3   2  111.39    4.31
  -4  -3   2  108.19    5.39
  -4  -3   2  104.61    4.26
  -4  -3   2  110.35    5.38
   3   3  -2   45.91    1.55
   3   3  -2   48.45    1.80
   3   3  -2   47.96    1.86
  -3  -3   2   47.79    2.36
  -3  -3   2   51.04    1.83
  -3  -3   2   48.32    2.35
  -3  -3   2   47.62    1.88
  -3  -3   2   45.60    1.86
  -2  -3   2   75.56    3.56
  -2  -3   2   68.61    2.82
  -2  -3   2   71.35    3.56
  -2  -3   2   74.15    2.74
  -1  -3   2  127.65    5.17
  -1  -3   2  129.56    6.53
  -1  -3   2  141.57    5.05
   0   3  -2  197.94    7.22
   0   3  -2  191.41    9.01
   0  -3   2  156.86    7.12
   0  -3   2  175.38    9.02
   0  -3   2  206.49    9.05
   0  -3   2  173.74    6.95
  -1   3  -2   28.82    1.24
  -1   3  -2   32.71    1.56
  -1   3  -2   31.47    1.25
   1  -3   2   32.38    1.20
   1  -3   2   31.00    1.24
   1  -3   2   32.14    1.56
   1  -3   2   31.23    1.56
  -2   3  -2  403.25   14.42
  -2   3  -2  362.27   14.57
  -2   3  -2  377.56   18.19
   2  -3   2  385.05   18.23
   2  -3   2  342.43   14.40
   2  -3   2  355.08   18.22
  -3   3  -2   49.27    1.98
  -3   3  -2   49.06    1.95
  -3   3  -2   52.71    2.46
   3  -3   2   44.50    1.92
   3  -3   2   53.20    2.46
   3  -3   2   49.18    1.62
  -4   3  -2   12.96    0.58
  -4   3  -2   14.16    0.72
  -4   3  -2   13.53    0.57
   4  -3   2   13.37    0.47
   4  -3   2   14.24    0.70
   4  -3   2   14.19    0.56
  -5   3  -2   92.44    4.75
  -5   3  -2  106.99    4.75
  -5   3  -2   97.13    3.81
  -5   3  -2   98.85    3.76
   5  -3   2   85.52    3.72
   5  -3   2   96.28    3.13
  -6   3  -2   42.73    1.65
  -6   3  -2   39.14    2.08
   6  -3   2   41.23    1.37
   6  -3   2   42.59    1.64
  -7   3  -2    4.25    0.30
  -7   3  -2    4.61    0.25
   7  -3   2    4.40    0.19
   7  -3   2    4.88    0.25
  -8   3  -2   26.13    1.05
   8  -3   2   25.44    1.05
   8  -3   2   24.82    0.85
  -9   3  -2   12.75    0.61
   9  -3   2   15.06    0.63
 -10   3  -2   -0.18    0.09
  10  -3   2   -0.03    0.08
 -11   3  -2    8.80    0.46
  11  -3   2    9.64    0.47
  12  -3   2    3.51    0.26
  12   2  -2    4.12    0.29
 -12  -2   2    4.12    0.26
  11   2  -2    2.14    0.21
 -11  -2   2    2.38    0.18
  10   2  -2   12.07    0.57
 -10  -2   2   12.36    0.54
   9   2  -2   43.66    1.71
  -9  -2   2   41.53    1.70
   8   2  -2    3.00    0.20
  -8  -2   2    2.81    0.20
  -8  -2   2    2.80    0.16
   7   2  -2   25.59    1.14
  -7  -2   2   29.74    1.13
  -7  -2   2   28.75    1.16
  -7  -2   2   29.31    1.42
   6   2  -2   38.79    1.52
  -6  -2   2   38.40    1.91
  -6  -2   2   37.81    1.51
  -6  -2   2   37.73    1.54
  -6  -2   2   39.78    1.91
   5   2  -2   15.78    0.61
  -5  -2   2   15.04    0.60
  -5  -2   2   15.32    0.75
  -5  -2   2   14.80    0.75
  -5  -2   2   13.79    0.61
   4   2  -2  113.39    4.47
  -4  -2   2  118.91    4.51
  -3  -2   2  118.86    4.72
  -3  -2   2  124.40    3.95
   2   2  -2   20.21    0.65
  -2  -2   2   19.37    0.78
  -1  -2   2   43.12    2.11
  -1  -2   2   43.99    1.62
  -1  -2   2   44.27    1.69
  -1  -2   2   39.99    1.67
   0   2  -2  412.54   16.01
   0   2  -2  389.81   20.00
   0  -2   2  416.66   15.38
   0  -2   2  365.97   15.84
   0  -2   2  450.26   20.03
   0  -2   2  411.79   16.64
  -1   2  -2   42.39    1.62
  -1   2  -2   41.45    2.02
  -1   2  -2   41.27    2.02
  -1   2  -2   40.69    1.60
   1  -2   2   37.22    1.60
   1  -2   2   42.42    2.02
   1  -2   2   41.54    1.62
  -2   2  -2   15.16    0.74
  -2   2  -2   14.27    0.58
  -2   2  -2   14.45    0.73
  -2   2  -2   14.32    0.59
   2  -2   2   13.46    0.58
   2  -2   2   13.93    0.73
   2  -2   2   15.70    0.74
  -3   2  -2  139.19    5.98
  -3   2  -2  153.13    7.47
  -3   2  -2  149.76    7.47
  -3   2  -2  144.37    5.91
   3  -2   2  160.32    7.46
   3  -2   2  168.00    7.48
   3  -2   2  150.10    4.93
  -4   2  -2   99.18    4.11
  -4   2  -2  105.73    5.13
  -4   2  -2  104.85    5.13
  -4   2  -2  104.01    4.06
   4  -2   2  109.77    5.12
   4  -2   2   98.85    4.02
   4  -2   2  106.84    3.39
  -5   2  -2   14.06    0.70
  -5   2  -2   13.43    0.69
  -5   2  -2   13.08    0.57
  -5   2  -2   13.14    0.55
   5  -2   2   12.91    0.45
   5  -2   2   12.78    0.55
  -6   2  -2   66.96    2.64
  -6   2  -2   63.80    3.33
   6  -2   2   70.04    2.62
   6  -2   2   67.64    2.20
  -7   2  -2   24.14    1.27
  -7   2  -2   24.59    1.01
   7  -2   2   25.04    0.83
   7  -2   2   25.37    1.01
  -8   2  -2    0.66    0.10
   8  -2   2    0.74    0.11
   8  -2   2    0.75    0.07
  -9   2  -2   22.81    0.95
   9  -2   2   22.52    0.95
 -10   2  -2    6.56    0.36
  10  -2   2    6.80    0.36
 -11   2  -2   -0.13    0.10
  11  -2   2    0.04    0.10
  12  -2   2    4.78    0.30
  13   1  -2   -0.15    0.09
  12   1  -2    4.54    0.30
 -12  -1   2    4.74    0.28
  11   1  -2   10.03    0.51
 -11  -1   2   10.96    0.49
  10   1  -2   -0.03    0.08
 -10  -1   2    0.05    0.07
   9   1  -2   11.58    0.52
  -9  -1   2   11.39    0.50
   8   1  -2   36.86    1.51
  -8  -1   2   39.42    1.50
  -8  -1   2   37.12    1.89
   7   1  -2   11.24    0.50
  -7  -1   2   11.78    0.47
  -7  -1   2   11.55    0.59
  -7  -1   2   11.13    0.50
   6   1  -2  115.37    4.45
  -6  -1   2  116.19    5.66
  -6  -1   2  113.44    4.48
  -6  -1   2  115.94    4.55
   5   1  -2  120.47    4.89
  -5  -1   2  133.36    4.93
   4   1  -2    0.06    0.03
  -3  -1   2   86.48    2.81
   2   1  -2  548.71   17.60
  -2  -1   2  535.13   17.59
  -1  -1   2   15.07    0.60
   0   1  -2  225.01   10.16
   0   1  -2  197.23   10.15
   0   1  -2  220.49    8.15
   0  -1   2  181.18    8.03
   0  -1   2  219.29   10.16
   0  -1   2  197.60   10.16
   0  -1   2  206.89    8.14
  -1   1  -2  182.04    8.01
  -1   1  -2  151.54    7.98
  -1   1  -2  147.10    6.31
   1  -1   2  168.98    6.42
   1  -1   2  164.66    8.01
   1  -1   2  151.84    8.00
   1  -1   2  172.31    6.33
  -2   1  -2  103.74    4.81
  -2   1  -2  103.98    4.81
  -2   1  -2   93.88    3.85
  -2   1  -2   94.28    3.81
   2  -1   2   96.89    3.85
   2  -1   2   94.56    4.80
  -3   1  -2   43.00    2.08
  -3   1  -2   40.20    1.67
  -3   1  -2   44.08    1.65
  -3   1  -2   41.38    2.08
   3  -1   2   43.49    1.67
   3  -1   2   40.71    1.37
   3  -1   2   38.13    1.63
   3  -1   2   44.55    2.08
  -4   1  -2  101.47    4.93
  -4   1  -2  104.70    3.95
  -4   1  -2   96.90    3.90
  -4   1  -2   99.87    4.93
   4  -1   2   97.59    3.25
   4  -1   2  108.11    4.92
   4  -1   2   92.11    3.86
  -5   1  -2   28.53    1.35
  -5   1  -2   25.94    1.09
  -5   1  -2   26.11    1.07
  -5   1  -2   26.88    1.35
   5  -1   2   25.59    1.06
   5  -1   2   26.83    0.89
  -6   1  -2    1.57    0.14
  -6   1  -2    1.69    0.13
   6  -1   2    1.75    0.10
   6  -1   2    1.43    0.13
  -7   1  -2   46.57    1.84
  -7   1  -2   44.12    2.31
   7  -1   2   47.44    1.52
   7  -1   2   46.10    1.83
  -8   1  -2   14.17    0.62
   8  -1   2   14.33    0.62
   8  -1   2   14.01    0.49
  -9   1  -2    1.27    0.14
   9  -1   2    1.80    0.18
 -10   1  -2   10.58    0.52
  10  -1   2   11.40    0.53
 -11   1  -2    5.00    0.32
  11  -1   2    5.68    0.33
  12  -1   2    0.25    0.11
  13   0  -2    4.02    0.28
  12   0  -2    0.00    0.09
 -12   0   2   -0.06    0.08
  11   0  -2   11.24    0.54
 -11   0   2   11.21    0.51
  10   0  -2   10.73    0.50
 -10   0   2   10.16    0.46
   9   0  -2    0.08    0.07
  -9   0   2    0.07    0.06
   8   0  -2   35.77    1.44
  -8   0   2   34.65    1.79
  -8   0   2   36.94    1.42
   7   0  -2   45.45    1.86
  -7   0   2   49.11    1.86
   6   0  -2   -0.01    0.04
  -6   0   2   -0.06    0.03
  -6   0   2   -0.03    0.03
   5   0  -2   49.41    1.96
  -5   0   2   51.13    1.96
   4   0  -2  211.89    8.14
  -3   0   2   20.46    0.68
   2   0  -2  288.78    9.41
  -2   0   2  288.30    9.40
   1   0  -2  265.54    8.97
  -1   0   2  273.38    8.98
  -1   0   2  280.52   10.40
  -1   0   2  282.99   10.86
   0   0  -2  102.56    3.66
   0   0  -2   95.96    3.83
   0   0  -2  100.93    4.76
   0   0  -2   95.89    4.76
   0   0   2   94.73    3.82
   0   0   2   89.88    4.76
   0   0   2  104.07    4.77
   0   0   2   98.25    3.66
   0   0   2   88.98    3.76
  -1   0  -2  133.61    5.28
  -1   0  -2  144.90    6.68
  -1   0  -2  123.64    6.67
  -1   0  -2  135.60    5.38
   1   0   2  130.24    6.69
   1   0   2  125.06    5.28
   1   0   2  149.89    6.71
   1   0   2  148.03    5.70
  -2   0  -2  273.54   12.04
  -2   0  -2  234.30    9.50
  -2   0  -2  241.40    9.62
  -2   0  -2  241.60   12.32
   2   0   2  229.48    9.64
   2   0   2  239.65   12.03
   2   0   2  253.89   12.05
  -3   0  -2    8.18    0.42
  -3   0  -2    7.96    0.34
  -3   0  -2    7.80    0.42
  -3   0  -2    8.40    0.33
   3   0   2    7.01    0.33
   3   0   2    7.68    0.28
   3   0   2    8.10    0.41
   3   0   2    7.92    0.34
  -4   0  -2   21.72    0.85
  -4   0  -2   20.67    0.87
  -4   0  -2   20.50    1.07
  -4   0  -2   21.21    1.07
   4   0   2   21.15    0.71
   4   0   2   21.47    0.85
   4   0   2   21.83    1.06
  -5   0  -2   77.68    3.73
  -5   0  -2   72.18    2.95
  -5   0  -2   74.41    2.99
  -5   0  -2   75.62    3.73
   5   0   2   76.22    2.46
   5   0   2   76.13    2.93
  -6   0  -2   12.85    0.52
  -6   0  -2   12.22    0.65
   6   0   2   11.54    0.43
   6   0   2   12.34    0.53
  -7   0  -2    8.38    0.50
  -7   0  -2    9.24    0.41
   7   0   2    9.28    0.42
   7   0   2    9.08    0.33
  -8   0  -2   18.90    0.80
   8   0   2   19.29    0.81
   8   0   2   18.70    0.65
  -9   0  -2    6.48    0.36
   9   0   2    7.72    0.37
 -10   0  -2    1.58    0.17
  10   0   2    1.38    0.16
 -11   0  -2    7.98    0.43
  11   0   2    8.78    0.44
  12   0   2    1.91    0.20
  13  -1  -2    5.07    0.32
  12  -1  -2    4.28    0.29
 -12   1   2    4.46    0.26
  11  -1  -2   -0.01    0.09
 -11   1   2   -0.24    0.07
  10  -1  -2   17.08    0.76
 -10   1   2   17.58    0.73
   9  -1  -2   25.87    1.05
  -9   1   2   24.77    1.03
   8  -1  -2    2.71    0.19
  -8   1   2    2.75    0.16
   7  -1  -2   48.31    1.93
  -7   1   2   49.63    1.92
   6  -1  -2   61.18    2.54
  -6   1   2   65.45    2.55
  -6   1   2   64.93    3.22
  -6   1   2   69.60    3.22
   5  -1  -2    0.95    0.09
  -5   1   2    0.83    0.06
   4  -1  -2  210.89    8.10
   2  -1  -2    0.38    0.05
  -2   1   2    0.45    0.05
   1  -1  -2  125.31    4.12
   1  -1  -2  133.67    4.78
  -1   1   2  129.15    4.77
  -1   1   2  118.77    6.18
  -1   1   2  139.80    6.19
  -1   1   2  107.62    4.89
  -1   1   2  127.89    4.10
   0  -1  -2  340.14   11.20
   0  -1  -2  361.87   16.92
   0  -1  -2  361.27   13.02
   0  -1  -2  363.21   16.91
   0   1   2  298.99   16.91
   0   1   2  332.14   13.01
   0   1   2  353.87   16.92
  -1  -1  -2   10.43    0.50
  -1  -1  -2    9.89    0.39
  -1  -1  -2    9.51    0.50
  -1  -1  -2    9.54    0.40
   1   1   2    8.69    0.39
   1   1   2   10.33    0.50
   1   1   2    9.34    0.50
   1   1   2    9.45    0.40
  -2  -1  -2   83.25    3.37
  -2  -1  -2   85.01    3.34
  -2  -1  -2   89.84    4.22
  -2  -1  -2   80.14    4.21
   2   1   2   81.43    4.21
   2   1   2   88.79    4.21
   2   1   2   91.62    3.38
  -3  -1  -2  148.31    5.64
  -3  -1  -2  144.38    7.12
  -3  -1  -2  145.10    5.70
  -3  -1  -2  149.09    7.12
   3   1   2  133.49    5.58
   3   1   2  145.67    7.12
   3   1   2  150.99    5.70
   3   1   2  142.83    4.70
  -4  -1  -2   11.42    0.50
  -4  -1  -2   12.75    0.49
  -4  -1  -2   11.12    0.62
  -4  -1  -2   11.58    0.62
   4   1   2   11.31    0.41
   4   1   2   11.76    0.49
   4   1   2   12.57    0.51
   4   1   2   12.05    0.61
  -5  -1  -2   46.75    1.83
  -5  -1  -2   47.10    2.32
  -5  -1  -2   45.72    2.32
  -5  -1  -2   47.28    1.86
   5   1   2   44.43    1.82
   5   1   2   47.16    1.53
  -6  -1  -2   48.57    1.86
  -6  -1  -2   45.95    2.34
   6   1   2   47.00    1.54
   6   1   2   45.30    1.84
  -7  -1  -2    2.76    0.22
  -7  -1  -2    3.26    0.19
   7   1   2    3.45    0.20
   7   1   2    3.20    0.15
  -8  -1  -2    9.77    0.46
   8   1   2   10.39    0.47
   8   1   2   10.17    0.36
  -9  -1  -2   14.72    0.68
   9   1   2   16.56    0.70
 -10  -1  -2    1.24    0.15
  10   1   2    1.35    0.16
 -11  -1  -2    0.93    0.14
  11   1   2    1.06    0.15
  13  -2  -2    0.71    0.14
  12  -2  -2    2.85    0.23
 -12   2   2    2.82    0.21
  11  -2  -2    4.77    0.30
 -11   2   2    4.94    0.27
  10  -2  -2    0.80    0.12
 -10   2   2    0.58    0.10
   9  -2  -2   23.72    0.98
  -9   2   2   23.43    0.96
   8  -2  -2   24.21    0.97
  -8   2   2   22.65    0.95
   7  -2  -2    0.32    0.07
   6  -2  -2  108.16    4.28
  -6   2   2  108.82    5.44
  -6   2   2  114.86    5.43
   5  -2  -2   80.83    3.23
  -5   2   2   83.46    3.25
  -5   2   2   86.24    4.10
  -5   2   2   83.73    4.11
   4  -2  -2    4.39    0.21
  -4   2   2    4.52    0.24
  -4   2   2    4.45    0.20
  -4   2   2    4.42    0.23
   3  -2  -2   94.41    4.10
  -3   2   2  119.80    5.23
  -3   2   2  103.88    4.14
  -3   2   2  107.98    5.22
   2  -2  -2  378.51   13.31
   2  -2  -2  419.74   15.47
  -2   2   2  424.36   20.05
  -2   2   2  455.91   20.06
  -2   2   2  365.86   15.86
   1  -2  -2    4.61    0.23
   1  -2  -2    4.46    0.23
   1  -2  -2    3.79    0.17
   1  -2  -2    4.16    0.18
   1  -2  -2    3.79    0.16
  -1   2   2    4.04    0.18
  -1   2   2    4.40    0.24
  -1   2   2    4.19    0.16
  -1   2   2    4.31    0.23
   0  -2  -2  396.91   14.44
   0  -2  -2  418.06   18.74
   0  -2  -2  396.90   12.40
   0  -2  -2  350.10   18.72
   0   2   2  329.83   18.73
   0   2   2  410.08   14.84
   0   2   2  378.45   18.74
   0   2   2  372.65   15.01
  -1  -2  -2  123.29    6.23
  -1  -2  -2  141.79    4.82
  -1  -2  -2  131.07    6.23
  -1  -2  -2  119.28    4.93
  -1  -2  -2  123.41    4.98
   1   2   2  124.65    4.93
   1   2   2  137.26    6.23
   1   2   2  125.35    4.99
   1   2   2  116.07    6.23
  -2  -2  -2    5.31    0.24
  -2  -2  -2    5.90    0.24
  -2  -2  -2    5.25    0.30
  -2  -2  -2    5.50    0.23
   2   2   2    5.34    0.30
   2   2   2    5.09    0.24
   2   2   2    5.29    0.29
   2   2   2    5.41    0.24
  -3  -2  -2   75.34    2.73
  -3  -2  -2   68.31    3.54
  -3  -2  -2   71.41    2.83
  -3  -2  -2   72.41    3.54
  -3  -2  -2   72.02    2.80
   3   2   2   74.75    2.83
   3   2   2   71.46    3.53
   3   2   2   67.81    2.34
   3   2   2   71.67    2.78
  -4  -2  -2  103.76    5.29
  -4  -2  -2  106.76    4.23
  -4  -2  -2  106.36    4.19
  -4  -2  -2  114.02    4.08
  -4  -2  -2  104.80    5.29
   4   2   2   98.14    4.15
   4   2   2  109.09    3.49
   4   2   2  113.39    5.28
   4   2   2  109.73    4.24
  -5  -2  -2    4.12    0.21
  -5  -2  -2    4.16    0.21
  -5  -2  -2    4.31    0.21
  -5  -2  -2    3.86    0.25
   5   2   2    3.90    0.17
   5   2   2    4.04    0.22
  -6  -2  -2   32.55    1.27
  -6  -2  -2   30.58    1.60
   6   2   2   31.05    1.05
   6   2   2   31.68    1.26
  -7  -2  -2   39.09    2.08
  -7  -2  -2   39.81    1.61
  -7  -2  -2   41.86    1.65
   7   2   2   41.90    1.36
   7   2   2   42.92    1.65
  -8  -2  -2    1.87    0.17
  -8  -2  -2    1.98    0.17
   8   2   2    2.22    0.12
   8   2   2    2.13    0.19
  -9  -2  -2   10.12    0.49
  -9  -2  -2   10.63    0.50
   9   2   2   10.74    0.50
 -10  -2  -2   12.86    0.60
 -11  -2  -2    0.62    0.13
  11   2   2    0.48    0.12
  13  -3  -2    1.27    0.16
  12  -3  -2    4.64    0.29
 -12   3   2    4.45    0.27
  11  -3  -2   19.03    0.83
 -11   3   2   18.98    0.81
  10  -3  -2    0.33    0.10
 -10   3   2    0.37    0.08
   9  -3  -2    7.24    0.36
  -9   3   2    7.07    0.34
   8  -3  -2   30.39    1.23
  -8   3   2   30.40    1.22
   7  -3  -2   27.71    1.14
  -7   3   2   28.90    1.13
  -7   3   2   28.17    1.43
   6  -3  -2    8.60    0.37
  -6   3   2    7.79    0.44
   5  -3  -2   87.93    3.55
  -5   3   2   90.72    3.57
  -5   3   2   89.08    4.51
  -5   3   2   98.69    4.51
   4  -3  -2  114.64    3.71
   4  -3  -2  102.92    4.41
  -4   3   2  116.19    5.63
  -4   3   2  117.58    4.46
  -4   3   2  121.37    5.62
   3  -3  -2    0.86    0.08
   3  -3  -2    0.98    0.07
   3  -3  -2    0.78    0.05
  -3   3   2    1.04    0.08
  -3   3   2    0.96    0.07
  -3   3   2    0.87    0.08
   2  -3  -2  223.85    7.49
   2  -3  -2  207.72   11.32
   2  -3  -2  252.91    8.77
   2  -3  -2  258.64   11.34
  -2   3   2  203.86    8.96
  -2   3   2  244.71   11.34
  -2   3   2  222.78    8.88
  -2   3   2  233.45   11.34
   1  -3  -2   95.64    3.55
   1  -3  -2   96.97    4.61
   1  -3  -2   92.84    3.05
   1  -3  -2   89.59    4.61
  -1   3   2   90.65    4.61
  -1   3   2   94.95    4.61
  -1   3   2   96.09    3.65
   0  -3  -2   27.85    0.89
   0  -3  -2   27.27    1.35
   0  -3  -2   25.58    1.07
   0  -3  -2   26.92    0.97
   0  -3  -2   30.24    1.35
   0  -3  -2   28.77    1.04
   0   3   2   26.75    1.35
   0   3   2   24.80    1.06
   0   3   2   24.33    1.34
   0   3   2   25.80    1.02
   0   3   2   27.10    1.08
  -1  -3  -2   87.33    4.24
  -1  -3  -2   90.47    3.27
  -1  -3  -2   88.13    2.80
  -1  -3  -2   87.63    3.36
  -1  -3  -2   82.09    3.39
  -1  -3  -2   82.77    4.24
   1   3   2   83.11    4.24
   1   3   2   88.14    3.22
   1   3   2   83.66    3.33
   1   3   2   91.97    4.24
   1   3   2   81.91    3.36
   1   3   2   86.35    3.39
  -2  -3  -2  249.84   10.29
  -2  -3  -2  258.16   12.99
  -2  -3  -2  280.51   10.03
  -2  -3  -2  263.51   13.00
  -2  -3  -2  257.76   10.41
   2   3   2  256.62   10.18
   2   3   2  260.70   13.04
   2   3   2  281.49    8.61
   2   3   2  269.14    9.90
   2   3   2  274.07   10.44
  -3  -3  -2    0.22    0.04
  -3  -3  -2    0.04    0.04
  -3  -3  -2    0.09    0.05
  -3  -3  -2    0.09    0.04
  -3  -3  -2    0.10    0.05
   3   3   2    0.09    0.03
   3   3   2    0.23    0.04
   3   3   2    0.17    0.05
   3   3   2    0.16    0.04
   3   3   2    0.13    0.04
  -4  -3  -2   61.16    2.55
  -4  -3  -2   64.30    2.46
  -4  -3  -2   67.34    3.19
  -4  -3  -2   61.74    3.19
  -4  -3  -2   67.91    2.53
   4   3   2   65.87    2.55
   4   3   2   65.94    2.11
   4   3   2   60.62    3.18
   4   3   2   63.87    2.51
  -5  -3  -2   46.52    1.78
  -5  -3  -2   41.93    2.30
  -5  -3  -2   46.09    1.84
  -5  -3  -2   49.17    1.83
   5   3   2   47.70    1.82
   5   3   2   44.96    1.52
   5   3   2   45.33    1.85
  -6  -3  -2    5.60    0.35
  -6  -3  -2    6.06    0.29
  -6  -3  -2    5.61    0.29
   6   3   2    5.46    0.29
   6   3   2    5.85    0.23
  -7  -3  -2   18.17    0.78
  -7  -3  -2   18.16    0.79
   7   3   2   18.37    0.64
   7   3   2   19.87    0.80
  -8  -3  -2   28.86    1.20
  -8  -3  -2   28.90    1.18
   8   3   2   30.58    1.20
   8   3   2   27.72    0.97
  -9  -3  -2    1.53    0.17
   9   3   2    1.78    0.19
 -10  -3  -2    4.34    0.29
  10   3   2    4.70    0.30
 -11  -3  -2    8.80    0.46
  11   3   2    8.93    0.47
  12  -4  -2    1.02    0.14
 -12   4   2    0.86    0.13
  11  -4  -2    2.61    0.22
 -11   4   2    3.18    0.21
  10  -4  -2   31.23    1.26
 -10   4   2   29.92    1.25
   9  -4  -2   22.48    0.95
  -9   4   2   23.01    0.94
   8  -4  -2   39.03    1.57
  -8   4   2   39.32    1.57
   7  -4  -2   77.72    3.11
  -7   4   2   81.76    3.13
  -7   4   2   79.46    3.95
   6  -4  -2   12.25    0.52
  -6   4   2   11.83    0.64
   5  -4  -2    4.48    0.24
   5  -4  -2    4.92    0.18
  -5   4   2    4.63    0.28
  -5   4   2    5.49    0.28
  -5   4   2    4.87    0.23
   4  -4  -2  136.20    5.48
   4  -4  -2  144.20    4.61
  -4   4   2  156.99    6.98
  -4   4   2  132.65    6.98
  -4   4   2  140.59    5.53
   3  -4  -2   81.20    2.71
   3  -4  -2   80.55    3.23
   3  -4  -2   86.67    3.17
  -3   4   2   89.87    4.11
  -3   4   2   83.00    3.26
  -3   4   2   79.64    4.11
  -3   4   2   86.21    3.12
  -3   4   2   80.55    3.23
   2  -4  -2    5.93    0.30
   2  -4  -2    5.54    0.30
   2  -4  -2    5.74    0.25
   2  -4  -2    4.90    0.21
  -2   4   2    5.50    0.25
  -2   4   2    5.89    0.32
  -2   4   2    5.78    0.26
  -2   4   2    6.08    0.32
  -2   4   2    5.60    0.24
   1  -4  -2  112.85    5.54
   1  -4  -2  117.08    4.27
   1  -4  -2  115.16    3.67
   1  -4  -2  110.13    3.66
   1  -4  -2  118.99    5.54
  -1   4   2  113.52    4.21
  -1   4   2  121.93    5.55
  -1   4   2  104.24    5.54
  -1   4   2  105.77    4.39
  -1   4   2  111.60    4.35
  -1   4   2  108.21    4.44
   0  -4  -2  132.49    6.62
   0  -4  -2  142.80    5.10
   0  -4  -2  133.33    4.38
   0  -4  -2  141.89    4.38
   0  -4  -2  131.88    6.62
   0  -4  -2  139.58    5.24
   0   4   2  117.57    5.24
   0   4   2  143.80    5.30
   0   4   2  136.73    5.19
   0   4   2  123.35    6.62
   0   4   2  138.24    5.02
   0   4   2  134.76    6.62
  -1  -4  -2    6.99    0.35
  -1  -4  -2    6.23    0.27
  -1  -4  -2    5.60    0.27
  -1  -4  -2    6.03    0.22
  -1  -4  -2    6.14    0.28
  -1  -4  -2    5.95    0.34
   1   4   2    6.13    0.35
   1   4   2    6.19    0.28
   1   4   2    6.20    0.28
   1   4   2    6.31    0.34
   1   4   2    6.10    0.27
  -2  -4  -2   40.00    1.54
  -2  -4  -2   37.94    1.57
  -2  -4  -2   39.53    1.99
  -2  -4  -2   38.03    1.59
  -2  -4  -2   41.24    1.31
  -2  -4  -2   40.02    1.99
   2   4   2   42.45    1.99
   2   4   2   39.62    1.32
   2   4   2   39.07    1.51
   2   4   2   40.34    1.57
  -3  -4  -2   47.34    1.80
  -3  -4  -2   45.77    1.84
  -3  -4  -2   50.73    2.33
  -3  -4  -2   45.74    1.52
  -3  -4  -2   42.25    2.32
  -3  -4  -2   45.81    1.85
   3   4   2   49.83    1.77
   3   4   2   48.63    2.32
   3   4   2   47.76    1.54
   3   4   2   46.83    1.86
   3   4   2   41.42    1.82
  -4  -4  -2   16.91    0.69
  -4  -4  -2   16.79    0.69
  -4  -4  -2   15.06    0.86
  -4  -4  -2   17.39    0.68
   4   4   2   16.64    0.67
   4   4   2   16.77    0.57
   4   4   2   16.87    0.69
  -5  -4  -2   43.40    2.30
  -5  -4  -2   46.45    1.78
  -5  -4  -2   49.13    1.83
  -5  -4  -2   46.44    1.84
   5   4   2   41.37    1.81
   5   4   2   48.77    1.85
   5   4   2   44.78    1.51
  -6  -4  -2   40.32    1.57
  -6  -4  -2   38.85    1.54
  -6  -4  -2   37.80    1.98
   6   4   2   38.86    1.56
   6   4   2   39.11    1.30
  -7  -4  -2    0.06    0.07
  -7  -4  -2    0.05    0.07
   7   4   2    0.13    0.05
   7   4   2    0.03    0.07
  -8  -4  -2    6.23    0.33
  -8  -4  -2    6.17    0.33
   8   4   2    5.86    0.24
   8   4   2    6.13    0.34
  -9  -4  -2   10.75    0.52
   9   4   2   10.97    0.53
 -10  -4  -2    1.11    0.15
  10   4   2    1.33    0.17
  11   4   2    2.63    0.24
  12  -5  -2    8.58    0.43
 -12   5   2    7.82    0.41
  11  -5  -2    4.87    0.30
 -11   5   2    5.10    0.29
  10  -5  -2    8.75    0.43
 -10   5   2    8.51    0.41
   9  -5  -2   25.12    1.03
  -9   5   2   24.41    1.02
   8  -5  -2   19.71    0.81
  -8   5   2   18.85    0.81
   7  -5  -2    0.15    0.06
  -7   5   2    0.21    0.08
   6  -5  -2  162.60    6.21
  -6   5   2  159.07    7.92
   5  -5  -2   64.42    2.11
   5  -5  -2   66.50    2.53
  -5   5   2   60.16    3.21
  -5   5   2   67.72    2.55
   4  -5  -2   52.66    1.76
   4  -5  -2   54.69    2.07
   4  -5  -2   51.45    2.10
  -4   5   2   58.17    2.68
  -4   5   2   54.26    2.03
  -4   5   2   52.50    2.12
  -4   5   2   53.51    2.11
  -4   5   2   53.74    2.68
   3  -5  -2   79.68    3.06
   3  -5  -2   73.12    2.61
   3  -5  -2   82.56    3.94
  -3   5   2   78.77    3.14
  -3   5   2   87.18    3.96
  -3   5   2   78.06    3.11
  -3   5   2   79.31    3.96
  -3   5   2   82.28    3.00
   2  -5  -2   84.05    3.89
   2  -5  -2   77.09    2.57
   2  -5  -2   78.90    3.01
  -2   5   2   73.81    2.96
  -2   5   2   78.61    3.06
  -2   5   2   72.23    3.09
  -2   5   2   77.65    3.90
  -2   5   2   88.92    3.91
   1  -5  -2    2.41    0.14
   1  -5  -2    2.47    0.16
   1  -5  -2    2.32    0.12
  -1   5   2    2.45    0.14
  -1   5   2    2.53    0.14
  -1   5   2    2.46    0.15
  -1   5   2    2.63    0.17
  -1   5   2    2.38    0.17
  -1   5   2    2.46    0.14
   0  -5  -2  140.65    4.36
   0  -5  -2  133.80    4.36
   0  -5  -2  136.03    5.08
   0  -5  -2  128.87    6.59
   0   5   2  128.57    6.59
   0   5   2  136.74    5.01
   0   5   2  128.17    5.22
   0   5   2  138.24    5.17
   0   5   2  134.96    6.59
  -1  -5  -2   43.27    1.73
  -1  -5  -2   41.16    2.18
  -1  -5  -2   44.54    1.43
  -1  -5  -2   44.35    1.69
  -1  -5  -2   44.00    1.44
   1   5   2   43.90    1.44
   1   5   2   42.77    2.18
   1   5   2   44.24    1.73
   1   5   2   45.13    1.66
   1   5   2   42.99    1.72
  -2  -5  -2    1.29    0.09
  -2  -5  -2    1.19    0.07
  -2  -5  -2    1.60    0.11
  -2  -5  -2    1.21    0.12
  -2  -5  -2    1.34    0.11
   2   5   2    1.30    0.09
   2   5   2    1.57    0.13
   2   5   2    1.60    0.12
   2   5   2    1.33    0.12
  -3  -5  -2   74.28    2.84
  -3  -5  -2   74.60    2.35
  -3  -5  -2   71.97    2.86
  -3  -5  -2   71.45    3.59
  -3  -5  -2   70.68    2.77
   3   5   2   76.13    3.58
   3   5   2   65.18    2.81
   3   5   2   70.76    2.37
   3   5   2   74.70    2.73
  -4  -5  -2   17.51    0.72
  -4  -5  -2   17.31    0.73
  -4  -5  -2   16.97    0.92
  -4  -5  -2   18.05    0.73
   4   5   2   17.85    0.71
   4   5   2   18.21    0.61
   4   5   2   17.47    0.74
  -5  -5  -2    2.90    0.18
  -5  -5  -2    2.82    0.18
  -5  -5  -2    2.65    0.21
   5   5   2    2.87    0.18
   5   5   2    2.82    0.15
   5   5   2    2.74    0.19
  -6  -5  -2    5.83    0.39
  -6  -5  -2    6.61    0.32
  -6  -5  -2    6.26    0.32
   6   5   2    6.19    0.25
   6   5   2    6.14    0.33
  -7  -5  -2   18.17    0.76
  -7  -5  -2   16.93    0.74
   7   5   2   18.15    0.61
   7   5   2   16.46    0.76
  -8  -5  -2    0.38    0.10
   8   5   2    0.37    0.06
   8   5   2    0.41    0.11
  -9  -5  -2   11.50    0.56
   9   5   2   12.13    0.57
 -10  -5  -2    3.22    0.25
  10   5   2    3.18    0.26
  12  -6  -2    2.99    0.24
 -12   6   2    2.97    0.22
  11  -6  -2    9.78    0.50
 -11   6   2   10.58    0.49
  10  -6  -2    2.14    0.19
 -10   6   2    1.93    0.18
   9  -6  -2    3.90    0.25
  -9   6   2    3.88    0.24
   8  -6  -2   40.69    1.62
  -8   6   2   39.65    1.62
   7  -6  -2    7.46    0.36
   6  -6  -2    6.83    0.33
   6  -6  -2    6.82    0.25
  -6   6   2    6.84    0.41
   5  -6  -2   20.33    0.83
   5  -6  -2   20.38    0.68
  -5   6   2   19.69    1.05
  -5   6   2   20.05    0.83
  -5   6   2   20.48    0.83
   4  -6  -2  102.14    3.89
   4  -6  -2  100.02    3.32
  -4   6   2   97.79    5.04
  -4   6   2  106.52    3.82
  -4   6   2  100.00    4.00
  -4   6   2  106.08    3.96
   3  -6  -2    1.12    0.10
   3  -6  -2    1.24    0.09
  -3   6   2    1.33    0.11
  -3   6   2    1.16    0.13
  -3   6   2    1.16    0.12
  -3   6   2    1.56    0.14
  -3   6   2    1.19    0.11
   2  -6  -2  198.36    6.67
   2  -6  -2  186.53    7.77
   2  -6  -2  220.14   10.08
  -2   6   2  226.43   10.10
  -2   6   2  200.18    7.99
  -2   6   2  237.49    7.66
  -2   6   2  187.99   10.09
  -2   6   2  186.47    7.91
   1  -6  -2   15.16    0.54
   1  -6  -2   15.55    0.81
   1  -6  -2   15.17    0.64
  -1   6   2   15.30    0.81
  -1   6   2   15.76    0.65
  -1   6   2   16.10    0.63
  -1   6   2   15.72    0.65
  -1   6   2   15.87    0.65
   0  -6  -2    6.75    0.26
   0  -6  -2    6.60    0.38
   0  -6  -2    6.55    0.30
   0   6   2    6.70    0.31
   0   6   2    6.40    0.31
   0   6   2    6.52    0.38
   0   6   2    6.65    0.26
   0   6   2    6.96    0.30
  -1  -6  -2   48.64    1.92
  -1  -6  -2   52.77    1.63
  -1  -6  -2   48.10    2.49
  -1  -6  -2   51.12    1.65
   1   6   2   47.96    2.48
   1   6   2   49.45    1.96
   1   6   2   51.84    1.98
   1   6   2   49.86    1.90
   1   6   2   47.80    1.64
  -2  -6  -2   55.82    1.77
  -2  -6  -2   55.65    2.09
  -2  -6  -2   52.33    2.70
  -2  -6  -2   52.88    2.14
  -2  -6  -2   51.59    1.79
   2   6   2   52.84    1.79
   2   6   2   53.96    2.06
   2   6   2   54.60    2.13
   2   6   2   55.74    2.70
   2   6   2   55.69    2.15
  -3  -6  -2    8.10    0.37
  -3  -6  -2    7.72    0.46
  -3  -6  -2    7.95    0.37
  -3  -6  -2    8.48    0.36
   3   6   2    7.90    0.31
   3   6   2    8.37    0.36
   3   6   2    8.94    0.39
   3   6   2    8.03    0.37
  -4  -6  -2   44.63    1.75
  -4  -6  -2   42.96    2.20
  -4  -6  -2   41.96    1.71
   4   6   2   42.65    1.74
   4   6   2   44.67    1.68
   4   6   2   44.68    1.45
  -5  -6  -2   17.67    0.73
  -5  -6  -2   16.01    0.91
  -5  -6  -2   17.01    0.72
   5   6   2   17.30    0.70
   5   6   2   16.46    0.73
   5   6   2   17.38    0.60
  -6  -6  -2    3.59    0.23
  -6  -6  -2    3.65    0.23
   6   6   2    4.20    0.25
   6   6   2    3.67    0.18
  -7  -6  -2   20.28    0.88
  -7  -6  -2   20.09    0.87
   7   6   2   20.92    0.89
   7   6   2   20.84    0.71
  -8  -6  -2    2.01    0.19
   8   6   2    2.30    0.21
   8   6   2    2.22    0.13
  -9  -6  -2    0.12    0.10
   9   6   2    0.13    0.11
 -10  -6  -2    3.28    0.26
  10   6   2    3.23    0.26
  12  -7  -2    0.04    0.09
  11  -7  -2    5.54    0.33
 -11   7   2    5.28    0.31
  10  -7  -2   11.44    0.53
 -10   7   2   10.31    0.51
   9  -7  -2    3.43    0.23
  -9   7   2    3.00    0.22
   8  -7  -2   12.29    0.55
  -8   7   2   12.04    0.55
   7  -7  -2   28.46    1.19
  -7   7   2   30.06    1.20
   6  -7  -2    9.80    0.43
   6  -7  -2    8.96    0.32
  -6   7   2    9.02    0.43
  -6   7   2    8.70    0.53
   5  -7  -2   19.03    0.65
  -5   7   2   18.91    0.80
  -5   7   2   18.45    1.01
  -5   7   2   20.40    0.81
   4  -7  -2   48.69    1.61
   4  -7  -2   47.10    1.89
  -4   7   2   47.91    1.92
  -4   7   2   52.13    1.94
  -4   7   2   49.99    1.85
  -4   7   2   46.39    2.45
   3  -7  -2    0.25    0.04
  -3   7   2    0.55    0.08
  -3   7   2    0.33    0.06
  -3   7   2    0.43    0.09
  -3   7   2    0.39    0.07
   2  -7  -2    0.21    0.06
   2  -7  -2    0.18    0.04
  -2   7   2    0.38    0.07
  -2   7   2    0.17    0.07
  -2   7   2    0.14    0.05
  -2   7   2    0.20    0.06
   1  -7  -2   33.60    1.37
   1  -7  -2   35.09    1.77
   1  -7  -2   33.97    1.17
  -1   7   2   37.73    1.78
  -1   7   2   32.66    1.40
  -1   7   2   34.54    1.35
  -1   7   2   37.82    1.41
   0  -7  -2   69.60    2.78
   0  -7  -2   72.48    3.60
   0  -7  -2   76.14    2.38
   0   7   2   68.49    2.83
   0   7   2   72.26    2.38
   0   7   2   74.32    2.74
   0   7   2   73.73    3.60
  -1  -7  -2   29.51    1.19
  -1  -7  -2   31.81    1.02
  -1  -7  -2   28.29    1.52
   1   7   2   29.98    1.21
   1   7   2   29.45    1.17
   1   7   2   29.12    1.21
   1   7   2   32.43    1.53
   1   7   2   28.90    1.01
  -2  -7  -2   46.96    1.93
  -2  -7  -2   51.09    1.65
  -2  -7  -2   49.53    1.65
  -2  -7  -2   47.70    2.49
   2   7   2   49.71    1.97
   2   7   2   50.92    1.90
   2   7   2   51.37    1.65
  -3  -7  -2    5.32    0.26
  -3  -7  -2    4.74    0.32
  -3  -7  -2    4.77    0.26
   3   7   2    4.51    0.27
   3   7   2    4.91    0.22
   3   7   2    5.06    0.26
  -4  -7  -2    0.61    0.09
  -4  -7  -2    0.59    0.11
  -4  -7  -2    0.61    0.10
   4   7   2    0.49    0.08
   4   7   2    0.68    0.07
   4   7   2    0.48    0.10
  -5  -7  -2   32.69    1.26
  -5  -7  -2   29.47    1.58
  -5  -7  -2   29.13    1.24
   5   7   2   33.52    1.04
   5   7   2   27.44    1.25
   5   7   2   31.34    1.21
  -6  -7  -2   12.96    0.58
  -6  -7  -2   11.83    0.57
   6   7   2   12.93    0.56
   6   7   2   12.59    0.59
   6   7   2   13.23    0.47
  -7  -7  -2    2.25    0.20
   7   7   2    2.31    0.21
   7   7   2    2.07    0.14
  -8  -7  -2   14.34    0.65
   8   7   2   14.24    0.66
   8   7   2   13.57    0.50
  -9  -7  -2    5.33    0.33
   9   7   2    5.32    0.34
  11  -8  -2    1.33    0.16
 -11   8   2    1.25    0.17
 -11   8   2    1.24    0.16
  10  -8  -2   12.65    0.58
 -10   8   2   11.83    0.57
 -10   8   2   12.27    0.59
   9  -8  -2   14.16    0.66
  -9   8   2   14.89    0.66
  -9   8   2   14.90    0.67
   8  -8  -2    0.28    0.09
  -8   8   2    0.13    0.09
  -8   8   2    0.26    0.10
  -7   8   2    6.97    0.36
   6  -8  -2   35.84    1.17
  -6   8   2   34.79    1.43
   5  -8  -2    4.74    0.26
   5  -8  -2    5.17    0.21
  -5   8   2    5.35    0.28
  -5   8   2    5.35    0.28
  -5   8   2    5.10    0.34
   4  -8  -2   20.51    0.71
   4  -8  -2   20.41    0.85
  -4   8   2   20.00    1.10
  -4   8   2   21.17    0.83
  -4   8   2   21.62    0.87
  -4   8   2   21.11    0.87
   3  -8  -2   53.57    2.08
   3  -8  -2   52.57    1.76
  -3   8   2   52.48    2.68
  -3   8   2   52.19    2.11
  -3   8   2   53.91    2.04
  -3   8   2   55.42    2.13
   2  -8  -2    5.58    0.28
   2  -8  -2    5.47    0.23
  -2   8   2    4.99    0.27
  -2   8   2    5.57    0.27
  -2   8   2    5.29    0.34
  -2   8   2    5.10    0.28
  -2   8   2    6.53    0.29
   1  -8  -2   48.52    1.59
   1  -8  -2   46.87    1.87
  -1   8   2   49.16    1.91
  -1   8   2   45.95    1.90
  -1   8   2   47.66    2.41
  -1   8   2   49.53    1.84
   0  -8  -2   19.98    0.81
   0  -8  -2   19.89    0.69
   0   8   2   19.60    0.80
   0   8   2   19.65    0.83
   0   8   2   20.34    1.04
   0   8   2   19.35    0.69
  -1  -8  -2    1.58    0.13
  -1  -8  -2    1.67    0.12
   1   8   2    1.66    0.14
   1   8   2    1.39    0.14
   1   8   2    1.61    0.12
  -2  -8  -2    0.49    0.08
   2   8   2    0.61    0.10
   2   8   2    0.54    0.09
   2   8   2    0.48    0.07
  -3  -8  -2   55.01    2.09
   3   8   2   54.91    1.78
   3   8   2   53.79    2.06
   3   8   2   50.13    2.13
  -4  -8  -2    9.05    0.43
   4   8   2    8.79    0.44
   4   8   2    8.87    0.35
   4   8   2    8.87    0.42
  -5  -8  -2   12.11    0.56
  -5  -8  -2   11.84    0.55
   5   8   2   11.57    0.57
   5   8   2   12.51    0.54
   5   8   2   12.75    0.46
  -6  -8  -2   11.31    0.51
   6   8   2   10.43    0.40
   6   8   2   10.63    0.52
   6   8   2   10.05    0.48
  -7  -8  -2    5.67    0.32
   7   8   2    5.54    0.24
   7   8   2    5.13    0.33
   8   8   2    0.34    0.06
   8   8   2    0.25    0.12
   9   8   2    7.31    0.42
 -11   9   2    3.57    0.27
 -10   9   2    0.03    0.10
 -10   9   2    0.28    0.11
  -9   9   2    3.78    0.27
  -9   9   2    4.16    0.27
  -8   9   2   22.28    0.94
  -8   9   2   21.14    0.93
   7  -9  -2    0.63    0.06
  -7   9   2    0.64    0.12
   6  -9  -2   23.54    0.79
  -6   9   2   22.95    0.98
   5  -9  -2   14.41    0.51
   5  -9  -2   13.61    0.63
  -5   9   2   14.56    0.64
  -5   9   2   15.48    0.65
   4  -9  -2    2.73    0.19
   4  -9  -2    2.79    0.15
  -4   9   2    2.73    0.20
  -4   9   2    3.17    0.21
  -4   9   2    3.01    0.19
  -4   9   2    2.85    0.23
   3  -9  -2   11.96    0.44
   3  -9  -2   11.80    0.53
  -3   9   2   12.18    0.55
  -3   9   2   12.05    0.68
  -3   9   2   12.49    0.55
  -3   9   2   12.27    0.52
   2  -9  -2   46.99    1.55
   2  -9  -2   44.92    1.82
  -2   9   2   46.12    1.86
  -2   9   2   45.30    2.35
  -2   9   2   48.74    1.79
  -2   9   2   45.96    1.85
   1  -9  -2    4.32    0.20
   1  -9  -2    4.10    0.23
  -1   9   2    4.22    0.25
  -1   9   2    4.04    0.23
   0  -9  -2   19.67    0.85
   0  -9  -2   21.13    0.72
   0   9   2   20.79    0.72
   0   9   2   20.80    0.87
   0   9   2   20.82    0.84
  -1  -9  -2   50.20    2.06
  -1  -9  -2   56.67    1.77
   1   9   2   52.80    1.76
   1   9   2   52.31    2.10
   1   9   2   52.50    2.04
  -2  -9  -2    0.75    0.10
   2   9   2    0.54    0.11
   2   9   2    0.53    0.09
   2   9   2    0.56    0.08
  -3  -9  -2   17.95    0.76
   3   9   2   18.21    0.64
   3   9   2   17.47    0.75
   3   9   2   17.93    0.78
  -4  -9  -2    9.65    0.47
   4   9   2   10.03    0.38
   4   9   2   10.39    0.49
   4   9   2    9.51    0.46
   5   9   2    6.33    0.33
   5   9   2    6.01    0.36
   5   9   2    6.37    0.27
   6   9   2    2.37    0.15
   6   9   2    2.07    0.19
   6   9   2    2.47    0.22
   7   9   2   16.19    0.74
   7   9   2   15.37    0.56
   8   9   2    1.41    0.19
 -10  10   2    8.53    0.47
 -10  10   2    9.35    0.47
  -9  10   2    0.06    0.10
  -9  10   2    0.13    0.10
  -8  10   2   11.62    0.55
  -8  10   2   11.45    0.56
  -7  10   2    7.84    0.42
  -7  10   2    8.26    0.42
   6 -10  -2    1.17    0.11
  -6  10   2    0.96    0.14
   5 -10  -2   14.27    0.65
   5 -10  -2   14.90    0.53
  -5  10   2   15.61    0.68
   4 -10  -2   33.47    1.11
   4 -10  -2   30.86    1.32
  -4  10   2   33.98    1.35
  -4  10   2   32.51    1.29
  -4  10   2   33.07    1.35
   3 -10  -2    0.89    0.11
   3 -10  -2    0.87    0.08
  -3  10   2    0.70    0.11
  -3  10   2    0.69    0.12
  -3  10   2    0.68    0.10
   2 -10  -2   16.62    0.75
   2 -10  -2   18.30    0.64
  -2  10   2   18.47    0.75
  -2  10   2   18.56    0.78
   1 -10  -2   15.39    0.55
   1 -10  -2   14.39    0.65
  -1  10   2   15.11    0.64
  -1  10   2   15.47    0.67
   0 -10  -2    3.01    0.19
   0 -10  -2    3.02    0.17
   0  10   2    2.96    0.20
   0  10   2    2.73    0.17
   0  10   2    3.17    0.22
  -1 -10  -2   13.34    0.60
  -1 -10  -2   14.76    0.52
   1  10   2   13.04    0.60
   1  10   2   14.10    0.51
   1  10   2   13.69    0.62
  -2 -10  -2   24.13    1.01
   2  10   2   23.55    1.00
   2  10   2   24.38    1.03
   2  10   2   25.75    0.86
  -3 -10  -2    3.10    0.21
   3  10   2    2.79    0.21
   3  10   2    2.81    0.23
   3  10   2    2.90    0.17
   4  10   2    9.36    0.46
   4  10   2   10.11    0.49
   4  10   2    9.88    0.39
   5  10   2   17.09    0.76
   5  10   2   16.71    0.60
   5  10   2   15.76    0.71
   6  10   2    0.40    0.13
   6  10   2    0.24    0.09
   6  10   2    0.30    0.07
   7  10   2    2.00    0.14
   7  10   2    2.18    0.23
  -9  11   2    6.13    0.38
  -9  11   2    6.91    0.38
  -8  11   2    0.05    0.10
  -8  11   2    0.19    0.11
   7 -11  -2    9.42    0.35
  -7  11   2    9.33    0.49
  -7  11   2   10.12    0.48
   6 -11  -2   14.05    0.51
  -6  11   2   13.91    0.65
   5 -11  -2    0.32    0.06
  -5  11   2    0.30    0.11
   4 -11  -2   13.26    0.49
   4 -11  -2   12.65    0.59
  -4  11   2   13.20    0.61
  -4  11   2   13.52    0.57
   3 -11  -2   13.53    0.62
   3 -11  -2   14.05    0.52
  -3  11   2   14.64    0.62
  -3  11   2   14.41    0.65
   2 -11  -2    0.77    0.11
   2 -11  -2    0.73    0.08
  -2  11   2    0.73    0.11
  -2  11   2    0.56    0.12
   1 -11  -2   26.59    1.10
   1 -11  -2   27.97    0.94
  -1  11   2   26.89    1.09
  -1  11   2   26.37    1.13
   0 -11  -2   18.45    0.80
   0 -11  -2   20.47    0.69
   0  11   2   17.92    0.79
   0  11   2   18.98    0.82
  -1 -11  -2    0.84    0.11
  -1 -11  -2    0.78    0.09
   1  11   2    0.93    0.12
   1  11   2    0.77    0.13
   1  11   2    0.93    0.10
   2  11   2    9.31    0.46
   2  11   2    9.58    0.45
   2  11   2    8.91    0.37
   3  11   2   12.00    0.57
   3  11   2   13.21    0.60
   3  11   2   12.72    0.48
   4  11   2    0.58    0.11
   4  11   2    0.61    0.09
   4  11   2    0.71    0.14
   5  11   2    6.02    0.26
   5  11   2    5.49    0.32
   5  11   2    5.76    0.35
   6  11   2    6.93    0.38
   6  11   2    7.77    0.31
   6  11   2    7.16    0.42
   7  11   2    0.71    0.09
   7  11   2    0.90    0.16
  -9  12   2    2.87    0.26
  -8  12   2    2.00    0.22
   7 -12  -2    0.12    0.05
  -7  12   2    0.29    0.12
   6 -12  -2    6.75    0.28
  -6  12   2    6.63    0.39
   5 -12  -2    5.15    0.23
  -5  12   2    5.38    0.33
   4 -12  -2   -0.01    0.05
  -4  12   2   -0.01    0.09
  -4  12   2   -0.07    0.07
   3 -12  -2   12.94    0.48
  -3  12   2   12.77    0.57
  -3  12   2   12.74    0.60
   2 -12  -2   12.72    0.47
  -2  12   2   11.86    0.58
  -2  12   2   12.61    0.56
   1 -12  -2    0.45    0.07
  -1  12   2    0.57    0.11
  -1  12   2    0.41    0.12
   0 -12  -2   11.41    0.43
   0  12   2   10.95    0.52
   0  12   2   10.46    0.50
   0  12   2   10.39    0.43
  -1 -12  -2   17.52    0.60
   1  12   2   16.42    0.60
   1  12   2   15.20    0.72
   1  12   2   14.87    0.69
   2  12   2    0.10    0.08
   2  12   2    0.14    0.07
   2  12   2    0.01    0.09
   3  12   2   15.70    0.69
   3  12   2   14.20    0.66
   3  12   2   14.82    0.56
   4  12   2    7.83    0.33
   4  12   2    7.69    0.40
   4  12   2    7.46    0.42
   5  12   2    0.16    0.09
   5  12   2   -0.04    0.06
   5  12   2   -0.11    0.10
   6  12   2    3.72    0.29
   6  12   2    3.85    0.26
   6  12   2    4.08    0.20
  -7  13   2    0.77    0.15
   6 -13  -2    2.98    0.17
  -6  13   2    3.11    0.26
   5 -13  -2    7.58    0.32
  -5  13   2    7.95    0.43
   4 -13  -2    3.25    0.18
  -4  13   2    3.13    0.23
  -4  13   2    3.05    0.25
   3 -13  -2    3.42    0.19
  -3  13   2    3.34    0.24
  -3  13   2    3.56    0.27
   2 -13  -2    8.80    0.37
  -2  13   2    8.98    0.44
  -2  13   2    9.57    0.47
   1 -13  -2    4.92    0.24
  -1  13   2    4.82    0.29
  -1  13   2    4.50    0.30
   0 -13  -2    0.13    0.06
   0  13   2    0.17    0.10
   0  13   2    0.00    0.07
   0  13   2    0.13    0.09
  -1 -13  -2   14.01    0.52
   1  13   2   12.46    0.60
   1  13   2   13.39    0.52
   1  13   2   13.03    0.63
   2  13   2    6.85    0.36
   2  13   2    5.97    0.37
   2  13   2    6.82    0.30
   3  13   2   -0.05    0.08
   3  13   2    0.09    0.10
   3  13   2    0.02    0.07
   4  13   2    4.35    0.22
   4  13   2    3.69    0.27
   4  13   2    4.09    0.29
   6 -14  -2    3.44    0.18
   5 -14  -2    4.46    0.21
  -5  14   2    4.16    0.30
   4 -14  -2   14.71    0.55
   3 -14  -2    2.77    0.17
  -3  14   2    2.80    0.22
  -3  14   2    2.84    0.25
   2 -14  -2    2.78    0.17
  -2  14   2    2.33    0.24
  -2  14   2    2.78    0.22
   1 -14  -2   16.90    0.62
  -1  14   2   16.47    0.74
  -1  14   2   17.02    0.77
   0 -14  -2    3.08    0.19
   0  14   2    2.71    0.22
   0  14   2    2.75    0.25
   0  14   2    3.16    0.20
   1  14   2    2.02    0.19
   1  14   2    2.10    0.17
   1  14   2    2.10    0.21
   2  14   2    4.15    0.23
   2  14   2    4.09    0.29
   2  14   2    4.04    0.27
   3  14   2    5.76    0.34
   3 -15  -2   11.40    0.44
  -3  15   2   10.83    0.52
   2 -15  -2    5.36    0.25
  -2  15   2    4.94    0.33
  -2  15   2    5.20    0.31
   1 -15  -2    1.83    0.15
  -1  15   2    1.93    0.19
  -1  15   2    1.41    0.18
   1  16  -3    0.21    0.11
   0  16  -3    7.89    0.34
   0  16  -3    7.54    0.41
  -1  16  -3    6.58    0.36
  -1  16  -3    6.34    0.30
  -2  16  -3    0.24    0.09
   2 -16   3    0.17    0.07
   4  15  -3    4.84    0.31
   3  15  -3    0.71    0.09
   3  15  -3    0.62    0.13
   2  15  -3    9.63    0.48
   2  15  -3    9.92    0.39
   1  15  -3    4.29    0.29
   1  15  -3    5.02    0.24
   0  15  -3    0.09    0.10
   0  15  -3    0.00    0.07
  -1  15  -3    9.73    0.47
  -1  15  -3    9.56    0.40
  -2  15  -3   10.26    0.50
  -2  15  -3    9.98    0.43
   2 -15   3   10.97    0.43
   3 -15   3    0.07    0.06
   4 -15   3    9.43    0.39
   5 -15   3    8.55    0.36
   6  14  -3    1.86    0.20
   5  14  -3    0.80    0.14
   5  14  -3    1.22    0.11
   4  14  -3    5.99    0.35
   4  14  -3    6.63    0.27
   3  14  -3    3.62    0.26
   3  14  -3    4.17    0.21
   2  14  -3   -0.02    0.06
   2  14  -3    0.05    0.08
   1  14  -3   15.08    0.67
   1  14  -3   15.25    0.57
   0  14  -3    9.91    0.41
   0  14  -3   10.22    0.49
  -1  14  -3    2.06    0.17
  -1  14  -3    1.98    0.19
  -2  14  -3    9.14    0.45
  -2  14  -3    8.89    0.39
   2 -14   3    9.54    0.38
   3 -14   3    7.37    0.32
   4 -14   3    0.09    0.06
   5 -14   3    6.44    0.29
   6 -14   3    8.54    0.35
   7  13  -3    1.22    0.17
   7  13  -3    1.22    0.16
   6  13  -3    6.08    0.35
   6  13  -3    5.95    0.36
   5  13  -3    2.19    0.14
   5  13  -3    1.74    0.20
   5  13  -3    2.37    0.22
   4  13  -3    2.00    0.20
   4  13  -3    2.31    0.15
   4  13  -3    2.41    0.21
   3  13  -3   14.01    0.64
   3  13  -3   14.57    0.53
   2  13  -3    2.92    0.18
   2  13  -3    2.59    0.22
   1  13  -3    3.46    0.20
   1  13  -3    3.43    0.24
   0  13  -3    8.07    0.41
   0  13  -3    8.52    0.35
  -1  13  -3   11.97    0.47
  -1  13  -3   12.49    0.55
  -2  13  -3    0.00    0.07
  -2  13  -3    0.27    0.10
   2 -13   3    0.20    0.06
   3 -13   3   27.30    0.96
   4 -13   3    4.65    0.23
   5 -13   3    1.04    0.10
   6 -13   3    3.74    0.20
   7 -13   3    4.61    0.23
   8  12  -3    7.74    0.41
   8  12  -3    7.92    0.43
   7  12  -3    0.24    0.11
   7  12  -3    0.25    0.12
  -7 -12   3    0.28    0.10
   6  12  -3    6.66    0.37
   6  12  -3    5.74    0.35
  -6 -12   3    6.73    0.36
   5  12  -3   10.45    0.50
   5  12  -3    9.90    0.37
   5  12  -3    9.64    0.48
  -5 -12   3   10.24    0.49
   4  12  -3    1.55    0.12
   4  12  -3    1.39    0.16
   4  12  -3    1.52    0.17
  -4 -12   3    1.57    0.16
   3  12  -3    6.13    0.27
   3  12  -3    6.08    0.33
   3  12  -3    5.99    0.33
  -3 -12   3    6.47    0.33
   2  12  -3   20.35    0.71
   2  12  -3   19.27    0.85
   2  12  -3   20.05    0.84
  -2 -12   3   19.88    0.83
   1  12  -3    7.30    0.37
   1  12  -3    7.25    0.31
   1  12  -3    7.49    0.38
  -1 -12   3    7.68    0.36
   0  12  -3    8.16    0.41
   0  12  -3    8.49    0.35
   0  12  -3    8.49    0.41
   0 -12   3    8.75    0.40
  -1  12  -3   29.21    1.15
  -1  12  -3   28.73    1.18
  -1  12  -3   29.04    1.00
   1 -12   3   28.09    1.16
  -2  12  -3    1.85    0.17
  -2  12  -3    1.75    0.18
  -2  12  -3    1.87    0.16
   2 -12   3    1.91    0.14
   2 -12   3    1.89    0.15
   3 -12   3    0.31    0.07
   3 -12   3    0.33    0.08
   4 -12   3   11.19    0.44
   5 -12   3   20.57    0.74
   6 -12   3    2.23    0.15
   7 -12   3   12.49    0.47
   8 -12   3    1.17    0.12
   9  11  -3    0.00    0.11
   8  11  -3    3.25    0.26
   8  11  -3    3.17    0.24
  -8 -11   3    3.14    0.24
   7  11  -3   10.77    0.51
   7  11  -3   10.95    0.54
  -7 -11   3   10.44    0.52
   6  11  -3    1.94    0.19
   6  11  -3    2.19    0.22
  -6 -11   3    2.11    0.18
   5  11  -3   14.53    0.51
   5  11  -3   13.59    0.63
   5  11  -3   14.16    0.65
  -5 -11   3   14.67    0.64
   4  11  -3   26.92    0.93
   4  11  -3   25.47    1.10
   4  11  -3   27.84    1.14
  -4 -11   3   28.78    1.14
  -4 -11   3   27.26    1.12
   3  11  -3    0.51    0.11
   3  11  -3    0.73    0.11
   3  11  -3    0.77    0.08
  -3 -11   3    0.95    0.11
  -3 -11   3    1.05    0.12
   2  11  -3   13.98    0.50
   2  11  -3   13.17    0.60
   2  11  -3   13.13    0.60
  -2 -11   3   14.13    0.59
  -2 -11   3   14.01    0.61
   1  11  -3   31.90    1.29
   1  11  -3   31.21    1.27
   1  11  -3   32.55    1.09
  -1 -11   3   31.89    1.27
   0  11  -3    5.30    0.25
   0  11  -3    6.04    0.31
   0 -11   3    5.80    0.29
  -1  11  -3    6.73    0.33
  -1  11  -3    6.21    0.28
   1 -11   3    6.38    0.32
  -2  11  -3   36.95    1.41
  -2  11  -3   35.23    1.23
   2 -11   3   37.04    1.23
   2 -11   3   35.34    1.43
   3 -11   3   11.16    0.43
   3 -11   3   11.00    0.50
  -4  11  -3   10.82    0.52
   4 -11   3   11.92    0.44
   5 -11   3    8.57    0.35
   6 -11   3    1.85    0.14
   7 -11   3    0.67    0.08
   8 -11   3   10.46    0.40
   9  10  -3    6.68    0.41
  -9 -10   3    7.78    0.39
   8  10  -3    0.00    0.09
   8  10  -3    0.11    0.09
  -8 -10   3    0.08    0.08
   7  10  -3   11.33    0.53
   7  10  -3   11.03    0.55
  -7 -10   3   11.34    0.53
   6  10  -3   12.01    0.56
   6  10  -3   12.31    0.57
  -6 -10   3   12.75    0.56
  -6 -10   3   11.61    0.55
   5  10  -3    1.05    0.14
   5  10  -3    1.11    0.13
   5  10  -3    1.26    0.10
  -5 -10   3    1.27    0.14
  -5 -10   3    1.29    0.14
   4  10  -3    9.76    0.37
   4  10  -3    9.63    0.46
   4  10  -3    9.52    0.46
  -4 -10   3    9.57    0.45
  -4 -10   3   10.16    0.46
   3  10  -3   51.82    1.69
   3  10  -3   51.74    2.02
   3  10  -3   52.63    1.97
  -3 -10   3   49.29    2.57
  -3 -10   3   48.94    2.04
  -3 -10   3   50.99    1.99
   2  10  -3    5.72    0.30
   2  10  -3    6.13    0.25
   2  10  -3    5.49    0.30
  -2 -10   3    5.48    0.28
  -2 -10   3    5.73    0.29
  -2 -10   3    5.53    0.36
   1  10  -3   30.83    1.25
   1  10  -3   30.41    1.22
   1  10  -3   30.77    1.05
  -1 -10   3   31.44    1.26
  -1 -10   3   30.30    1.58
  -1 -10   3   31.51    1.23
   0  10  -3   45.85    1.73
   0  10  -3   43.64    1.77
   0  10  -3   44.33    1.50
   0 -10   3   44.60    1.74
  -1  10  -3    5.65    0.29
  -1  10  -3    5.76    0.29
  -1  10  -3    5.70    0.25
   1 -10   3    5.94    0.29
  -2  10  -3   13.16    0.58
  -2  10  -3   13.31    0.50
  -2  10  -3   13.92    0.57
   2 -10   3   13.77    0.58
   2 -10   3   13.76    0.50
  -3  10  -3   29.13    1.19
   3 -10   3   29.98    1.01
   3 -10   3   28.99    1.18
   4 -10   3    7.25    0.30
  -5  10  -3    4.30    0.26
   5 -10   3    4.42    0.21
  -6  10  -3   24.49    1.05
   6 -10   3   25.96    0.88
   7 -10   3    0.28    0.06
   8 -10   3    4.01    0.20
   9 -10   3    0.55    0.07
  10   9  -3    0.03    0.11
 -10  -9   3   -0.03    0.08
   9   9  -3    6.72    0.41
  -9  -9   3    8.03    0.39
   8   9  -3    7.98    0.40
   8   9  -3    7.55    0.41
  -8  -9   3    8.02    0.40
   7   9  -3    0.28    0.10
   7   9  -3    0.29    0.11
  -7  -9   3    0.41    0.10
  -7  -9   3    0.27    0.08
   6   9  -3   15.71    0.66
   6   9  -3   14.37    0.67
  -6  -9   3   15.70    0.67
  -6  -9   3   15.07    0.67
   5   9  -3   31.39    1.26
   5   9  -3   31.87    1.29
   5   9  -3   32.11    1.06
  -5  -9   3   31.15    1.27
   4   9  -3    0.19    0.08
   4   9  -3   -0.02    0.06
   4   9  -3    0.12    0.05
  -4  -9   3    0.13    0.06
  -4  -9   3    0.00    0.06
  -4  -9   3    0.09    0.07
   3   9  -3   22.29    0.92
   3   9  -3   23.65    0.94
   3   9  -3   22.21    0.78
  -3  -9   3   23.32    0.93
  -3  -9   3   22.30    0.94
  -3  -9   3   22.70    1.19
   2   9  -3   29.10    1.16
   2   9  -3   29.45    0.99
   2   9  -3   29.54    1.18
  -2  -9   3   29.03    1.50
  -2  -9   3   27.98    1.19
  -2  -9   3   30.95    1.17
   1   9  -3   13.67    0.57
   1   9  -3   13.33    0.48
   1   9  -3   13.69    0.57
  -1  -9   3   11.63    0.71
  -1  -9   3   13.39    0.56
  -1  -9   3   13.69    0.57
   0   9  -3   22.46    0.91
   0   9  -3   22.86    0.90
   0   9  -3   22.41    0.77
   0  -9   3   23.13    0.90
   0  -9   3   22.21    0.92
   0  -9   3   21.46    1.16
  -1   9  -3   69.64    2.36
  -1   9  -3   75.58    2.72
   1  -9   3   72.25    2.75
   1  -9   3   72.77    2.36
   1  -9   3   67.97    3.57
  -2   9  -3    4.14    0.22
  -2   9  -3    3.85    0.19
   2  -9   3    3.81    0.21
   2  -9   3    3.74    0.18
  -3   9  -3   16.16    0.70
   3  -9   3   17.20    0.69
   3  -9   3   17.04    0.59
  -4   9  -3   31.88    1.28
   4  -9   3   31.59    1.08
   5  -9   3    3.07    0.16
  -6   9  -3    7.45    0.37
  -6   9  -3    7.59    0.39
   6  -9   3    7.27    0.30
  -7   9  -3   14.35    0.62
   7  -9   3   13.42    0.50
   7  -9   3   13.75    0.61
   8  -9   3    3.62    0.23
   8  -9   3    3.49    0.18
   9  -9   3    8.70    0.43
  11   8  -3    5.67    0.35
  10   8  -3    0.97    0.15
 -10  -8   3    0.89    0.12
   9   8  -3    0.34    0.11
  -9  -8   3    0.06    0.08
   8   8  -3    9.15    0.43
   8   8  -3    9.69    0.46
  -8  -8   3    8.83    0.44
   7   8  -3   13.62    0.60
   7   8  -3   14.17    0.63
  -7  -8   3   14.18    0.61
  -7  -8   3   13.22    0.61
   6   8  -3    1.05    0.12
   6   8  -3    1.38    0.15
  -6  -8   3    1.16    0.13
  -6  -8   3    1.43    0.14
   5   8  -3   20.78    0.87
   5   8  -3   20.94    0.85
   5   8  -3   21.63    0.70
  -5  -8   3   19.70    1.08
  -5  -8   3   20.77    0.86
  -5  -8   3   20.60    0.86
   4   8  -3   26.59    1.07
   4   8  -3   26.63    1.09
   4   8  -3   26.77    0.90
  -4  -8   3   27.38    1.38
  -4  -8   3   26.79    1.10
  -4  -8   3   27.30    1.08
   3   8  -3    0.96    0.11
   3   8  -3    0.96    0.10
   3   8  -3    0.98    0.10
  -3  -8   3    0.95    0.11
  -3  -8   3    0.96    0.11
  -3  -8   3    1.16    0.12
   2   8  -3   60.62    2.23
   2   8  -3   57.15    2.17
   2   8  -3   56.74    1.87
  -2  -8   3   53.72    2.83
  -2  -8   3   57.03    2.19
  -2  -8   3   54.87    2.24
   1   8  -3   41.33    1.39
   1   8  -3   41.15    1.65
   1   8  -3   42.72    1.61
  -1  -8   3   42.16    1.67
  -1  -8   3   41.05    2.10
  -1  -8   3   42.31    1.62
   0   8  -3    0.60    0.07
   0   8  -3    0.55    0.06
   0   8  -3    0.67    0.08
   0  -8   3    0.38    0.07
   0  -8   3    0.34    0.07
   0  -8   3    0.41    0.06
  -1   8  -3   14.75    0.53
  -1   8  -3   15.13    0.62
  -1   8  -3   14.45    0.63
  -1   8  -3   15.51    0.63
   1  -8   3   15.31    0.62
   1  -8   3   15.47    0.64
   1  -8   3   15.24    0.53
   1  -8   3   15.52    0.80
  -2   8  -3   39.81    1.39
  -2   8  -3   41.58    1.64
  -2   8  -3   40.96    1.68
  -2   8  -3   43.00    1.59
   2  -8   3   43.01    1.62
   2  -8   3   41.95    1.39
   2  -8   3   41.71    2.10
  -3   8  -3    8.14    0.33
  -3   8  -3    8.88    0.38
  -3   8  -3    8.22    0.39
   3  -8   3    8.51    0.37
   3  -8   3    8.64    0.32
  -4   8  -3   25.68    1.05
  -4   8  -3   25.77    1.03
   4  -8   3   24.83    0.87
  -5   8  -3   28.53    1.18
  -5   8  -3   29.52    1.20
   5  -8   3   29.34    0.99
   5  -8   3   29.50    1.18
  -6   8  -3    0.87    0.12
  -6   8  -3    1.30    0.14
   6  -8   3    1.01    0.09
   6  -8   3    1.15    0.12
  -7   8  -3    8.24    0.42
   7  -8   3    8.13    0.32
   7  -8   3    8.61    0.40
  -8   8  -3   14.51    0.66
   8  -8   3   14.85    0.64
   8  -8   3   13.89    0.52
  -9   8  -3    0.84    0.14
   9  -8   3    0.90    0.08
   9  -8   3    1.16    0.13
  10  -8   3    3.11    0.23
  11   7  -3    0.25    0.12
 -11  -7   3    0.30    0.10
  10   7  -3   11.33    0.56
 -10  -7   3   11.64    0.54
   9   7  -3    7.56    0.40
  -9  -7   3    7.47    0.37
   8   7  -3    8.13    0.41
  -8  -7   3    8.05    0.39
  -8  -7   3    8.53    0.41
   7   7  -3   24.33    0.99
   7   7  -3   25.02    1.03
  -7  -7   3   23.84    1.01
  -7  -7   3   25.44    1.01
   6   7  -3   11.11    0.48
   6   7  -3   10.76    0.49
  -6  -7   3   10.88    0.49
  -6  -7   3   11.25    0.48
  -6  -7   3   10.46    0.60
   5   7  -3    2.50    0.18
   5   7  -3    2.62    0.12
  -5  -7   3    2.47    0.19
  -5  -7   3    2.41    0.16
  -5  -7   3    2.42    0.17
   4   7  -3   65.49    2.59
   4   7  -3   68.20    2.17
   4   7  -3   66.20    2.52
  -4  -7   3   64.64    3.29
  -4  -7   3   65.27    2.61
  -4  -7   3   67.79    2.55
   3   7  -3   30.13    1.24
   3   7  -3   29.98    1.21
   3   7  -3   31.60    1.04
  -3  -7   3   31.80    1.25
  -3  -7   3   31.81    1.22
  -3  -7   3   31.33    1.58
   2   7  -3    4.84    0.23
   2   7  -3    4.81    0.24
   2   7  -3    4.85    0.19
  -2  -7   3    4.47    0.23
  -2  -7   3    4.26    0.28
  -2  -7   3    4.93    0.29
  -2  -7   3    4.65    0.23
   1   7  -3   59.10    2.11
   1   7  -3   54.96    2.06
   1   7  -3   52.15    1.78
  -1  -7   3   50.67    2.69
  -1  -7   3   51.81    2.70
  -1  -7   3   56.35    2.08
  -1  -7   3   53.83    2.14
   0   7  -3   78.27    2.93
   0   7  -3   77.19    2.55
   0   7  -3   79.49    3.07
   0  -7   3   80.69    2.97
   0  -7   3   76.43    3.86
   0  -7   3   75.41    3.06
  -1   7  -3    1.25    0.10
  -1   7  -3    1.33    0.11
  -1   7  -3    1.21    0.09
   1  -7   3    1.36    0.10
   1  -7   3    1.47    0.13
   1  -7   3    1.37    0.09
   1  -7   3    1.34    0.11
  -2   7  -3   76.71    2.56
  -2   7  -3   77.34    3.10
  -2   7  -3   79.11    2.93
   2  -7   3   75.74    2.56
   2  -7   3   78.34    3.87
   2  -7   3   81.81    2.98
  -3   7  -3   22.73    0.95
  -3   7  -3   22.88    0.93
  -3   7  -3   23.53    0.79
  -3   7  -3   24.44    0.96
   3  -7   3   22.41    1.19
   3  -7   3   23.33    0.79
   3  -7   3   23.10    0.92
  -4   7  -3    0.23    0.06
  -4   7  -3    0.18    0.07
   4  -7   3    0.17    0.04
   4  -7   3    0.26    0.05
  -5   7  -3   15.66    0.66
   5  -7   3   15.36    0.54
   5  -7   3   14.90    0.64
  -6   7  -3   28.79    1.17
   6  -7   3   27.18    1.14
   6  -7   3   29.19    0.96
  -7   7  -3    0.14    0.09
   7  -7   3    0.21    0.05
   7  -7   3    0.31    0.07
  -8   7  -3   11.40    0.55
   8  -7   3   12.01    0.53
   8  -7   3   11.87    0.43
  -9   7  -3    8.35    0.43
   9  -7   3    8.58    0.41
 -10   7  -3    0.55    0.13
  10  -7   3    0.67    0.12
  11  -7   3    2.32    0.20
  12   6  -3    3.34    0.27
  11   6  -3    2.35    0.23
 -11  -6   3    2.63    0.20
  10   6  -3    2.99    0.24
 -10  -6   3    2.92    0.20
   9   6  -3   14.81    0.67
  -9  -6   3   14.63    0.64
   8   6  -3   10.23    0.49
  -8  -6   3   10.66    0.47
  -8  -6   3   10.57    0.48
   7   6  -3    3.45    0.21
   7   6  -3    3.09    0.19
  -7  -6   3    3.45    0.19
  -7  -6   3    3.11    0.20
   6   6  -3   79.99    2.91
   6   6  -3   77.94    3.01
  -6  -6   3   74.24    3.02
  -6  -6   3   80.35    2.96
  -6  -6   3   72.69    3.81
   5   6  -3   31.19    1.24
   5   6  -3   31.72    1.21
  -5  -6   3   31.56    1.23
  -5  -6   3   30.05    1.56
  -5  -6   3   30.93    1.24
   4   6  -3   18.03    0.61
   4   6  -3   17.95    0.73
   4   6  -3   18.38    0.74
  -4  -6   3   18.50    0.74
  -4  -6   3   18.56    0.74
  -4  -6   3   17.52    0.93
   3   6  -3  104.49    3.43
   3   6  -3  105.20    3.96
   3   6  -3  105.11    4.08
  -3  -6   3  105.65    4.01
  -3  -6   3  109.04    5.20
  -3  -6   3  103.71    5.20
  -3  -6   3  105.78    4.12
   2   6  -3   73.32    2.45
   2   6  -3   77.51    2.83
   2   6  -3   78.32    2.91
  -2  -6   3   74.95    2.87
  -2  -6   3   79.91    3.72
  -2  -6   3   67.81    2.94
  -2  -6   3   74.29    3.72
   1   6  -3   13.47    0.52
   1   6  -3   11.92    0.44
  -1  -6   3   13.07    0.66
  -1  -6   3   12.65    0.51
  -1  -6   3   12.64    0.66
  -1  -6   3   12.23    0.53
   0   6  -3  134.18    5.50
   0   6  -3  140.45    4.55
   0   6  -3  139.30    5.23
   0  -6   3  135.67    5.46
   0  -6   3  148.41    5.30
   0  -6   3  134.83    6.89
   0  -6   3  148.00    6.89
  -1   6  -3   56.97    2.03
  -1   6  -3   53.84    1.77
  -1   6  -3   50.21    2.13
   1  -6   3   50.42    2.11
   1  -6   3   58.74    2.06
   1  -6   3   55.25    2.67
   1  -6   3   50.79    1.76
  -2   6  -3    0.44    0.05
  -2   6  -3    0.40    0.06
  -2   6  -3    0.45    0.05
  -2   6  -3    0.62    0.07
   2  -6   3    0.49    0.07
   2  -6   3    0.43    0.06
   2  -6   3    0.49    0.05
   2  -6   3    0.47    0.06
  -3   6  -3   74.84    3.05
  -3   6  -3   79.18    3.10
  -3   6  -3   75.08    3.13
   3  -6   3   81.36    3.05
   3  -6   3   79.14    2.58
   3  -6   3   83.47    3.90
  -4   6  -3   63.36    2.57
  -4   6  -3   67.67    2.54
   4  -6   3   64.90    2.11
   4  -6   3   61.35    2.50
  -5   6  -3    2.67    0.18
   5  -6   3    2.68    0.14
   5  -6   3    2.81    0.16
  -6   6  -3   42.37    1.63
  -6   6  -3   39.69    2.05
   6  -6   3   38.24    1.60
   6  -6   3   41.26    1.35
  -7   6  -3   14.32    0.65
   7  -6   3   15.11    0.63
   7  -6   3   14.72    0.52
  -8   6  -3   -0.04    0.08
   8  -6   3    0.04    0.05
   8  -6   3    0.14    0.07
  -9   6  -3   10.51    0.51
   9  -6   3   10.57    0.38
   9  -6   3   10.23    0.48
 -10   6  -3    9.01    0.47
  10  -6   3    9.71    0.46
 -11   6  -3   -0.16    0.10
  11  -6   3    0.03    0.08
  12   5  -3    2.63    0.24
  11   5  -3    7.84    0.43
 -11  -5   3    8.28    0.40
  10   5  -3    0.61    0.12
 -10  -5   3    0.55    0.09
   9   5  -3    4.52    0.28
  -9  -5   3    4.83    0.27
  -9  -5   3    4.58    0.25
   8   5  -3   29.22    1.25
  -8  -5   3   30.88    1.23
  -8  -5   3   31.41    1.23
   7   5  -3   11.99    0.53
   7   5  -3   12.33    0.50
  -7  -5   3   11.76    0.64
  -7  -5   3   12.33    0.51
  -7  -5   3   12.02    0.53
   6   5  -3   10.01    0.42
   6   5  -3    9.92    0.44
  -6  -5   3    9.87    0.42
  -6  -5   3   10.00    0.53
  -6  -5   3    9.56    0.43
   5   5  -3   76.63    2.86
   5   5  -3   80.30    2.95
  -5  -5   3   71.88    3.74
  -5  -5   3   75.58    2.98
  -5  -5   3   76.42    2.90
  -5  -5   3   74.19    2.96
   4   5  -3   72.17    2.35
   4   5  -3   74.52    2.73
   4   5  -3   71.59    2.81
  -4  -5   3   74.12    3.58
  -4  -5   3   70.51    3.57
  -4  -5   3   71.79    2.83
  -4  -5   3   72.18    2.76
   3   5  -3    8.93    0.37
   3   5  -3    8.70    0.37
   3   5  -3    8.46    0.30
  -3  -5   3    8.96    0.37
  -3  -5   3    8.46    0.46
  -3  -5   3    9.12    0.46
  -3  -5   3    8.68    0.37
   2   5  -3  201.76    7.08
   2   5  -3  188.90    6.16
  -2  -5   3  183.62    9.32
  -2  -5   3  191.19    9.32
  -2  -5   3  174.05    7.38
  -2  -5   3  200.25    7.18
   1   5  -3   98.17    3.11
   1   5  -3  103.41    3.58
  -1  -5   3   93.75    4.71
  -1  -5   3   89.55    4.71
  -1  -5   3   90.74    3.73
  -1  -5   3   98.87    3.63
   0   5  -3    7.47    0.32
   0   5  -3    7.57    0.32
   0   5  -3    7.49    0.27
   0  -5   3    7.49    0.42
   0  -5   3    7.73    0.32
   0  -5   3    7.70    0.33
   0  -5   3    8.33    0.42
  -1   5  -3  146.69    4.67
  -1   5  -3  149.37    5.35
  -1   5  -3  135.82    5.64
   1  -5   3  152.59    5.43
   1  -5   3  148.48    7.06
   1  -5   3  133.98    7.06
   1  -5   3  138.19    5.59
  -2   5  -3   92.48    3.63
  -2   5  -3   93.19    3.59
   2  -5   3   93.45    3.59
   2  -5   3   86.80    4.53
   2  -5   3   88.57    3.54
   2  -5   3   93.22    3.00
   2  -5   3   96.30    3.49
  -3   5  -3    3.81    0.19
  -3   5  -3    4.18    0.20
   3  -5   3    3.34    0.18
   3  -5   3    3.55    0.22
   3  -5   3    3.65    0.16
  -4   5  -3   72.92    2.98
  -4   5  -3   70.47    2.94
   4  -5   3   76.55    2.45
   4  -5   3   81.63    3.71
   4  -5   3   73.10    2.90
  -5   5  -3   45.01    1.71
  -5   5  -3   39.89    2.15
   5  -5   3   42.52    1.68
   5  -5   3   43.54    1.42
  -6   5  -3    0.04    0.07
  -6   5  -3    0.17    0.07
   6  -5   3   -0.01    0.04
   6  -5   3    0.12    0.05
  -7   5  -3   30.09    1.22
  -7   5  -3   27.96    1.53
   7  -5   3   30.10    1.20
   7  -5   3   30.47    1.00
  -8   5  -3   25.24    1.07
   8  -5   3   26.04    0.87
   8  -5   3   25.67    1.05
  -9   5  -3   -0.03    0.09
   9  -5   3   -0.05    0.07
   9  -5   3   -0.06    0.04
 -10   5  -3    9.18    0.48
  10  -5   3   10.02    0.47
 -11   5  -3    6.28    0.37
  11  -5   3    6.49    0.35
  12   4  -3    0.00    0.10
 -12  -4   3   -0.01    0.08
  11   4  -3    6.22    0.36
 -11  -4   3    6.32    0.33
  10   4  -3   17.55    0.78
 -10  -4   3   17.67    0.75
   9   4  -3    3.14    0.22
  -9  -4   3    2.67    0.20
  -9  -4   3    2.73    0.18
   8   4  -3   24.13    0.98
  -8  -4   3   24.48    0.96
  -8  -4   3   22.43    0.96
   7   4  -3   48.91    1.88
  -7  -4   3   46.54    2.36
  -7  -4   3   47.51    1.85
  -7  -4   3   47.26    1.87
   6   4  -3   14.59    0.60
   6   4  -3   15.20    0.57
  -6  -4   3   13.71    0.58
  -6  -4   3   14.16    0.73
  -6  -4   3   13.88    0.59
   5   4  -3   20.45    0.79
   5   4  -3   19.38    0.76
  -5  -4   3   18.50    0.97
  -5  -4   3   19.15    0.77
  -5  -4   3   18.52    0.77
  -5  -4   3   19.85    0.78
  -5  -4   3   19.76    0.98
   4   4  -3  117.23    4.43
   4   4  -3  120.22    4.29
  -4  -4   3  120.70    4.35
  -4  -4   3  109.02    4.50
  -4  -4   3  112.58    5.63
  -4  -4   3  107.72    4.46
  -4  -4   3  116.01    5.63
   3   4  -3   52.24    2.03
   3   4  -3   51.99    1.70
   3   4  -3   53.66    1.98
  -3  -4   3   52.13    2.59
  -3  -4   3   52.17    2.00
  -3  -4   3   51.84    2.05
  -3  -4   3   52.95    2.59
   2   4  -3   13.98    0.48
   2   4  -3   15.20    0.56
  -2  -4   3   13.64    0.73
  -2  -4   3   14.75    0.57
  -2  -4   3   13.58    0.58
  -2  -4   3   15.00    0.73
   1   4  -3  123.71    4.05
   1   4  -3  122.29    4.65
   1   4  -3  135.28    6.13
   1   4  -3  124.97    4.89
  -1  -4   3  130.23    4.72
  -1  -4   3  118.27    4.85
  -1  -4   3  118.04    6.13
  -1  -4   3  125.38    6.13
   0   4  -3  105.00    4.23
   0   4  -3  107.65    5.30
   0  -4   3  113.45    4.20
   0  -4   3  110.81    4.07
   0  -4   3  115.88    5.30
   0  -4   3   94.22    5.30
  -1   4  -3    4.13    0.24
  -1   4  -3    4.15    0.19
  -1   4  -3    4.04    0.19
   1  -4   3    4.33    0.19
   1  -4   3    4.10    0.24
   1  -4   3    4.35    0.24
   1  -4   3    4.11    0.18
  -2   4  -3  140.05    5.71
  -2   4  -3  147.09    5.65
  -2   4  -3  143.25    7.14
   2  -4   3  150.29    7.14
   2  -4   3  148.80    7.14
   2  -4   3  147.15    5.65
   2  -4   3  140.38    4.72
  -3   4  -3   60.63    2.38
  -3   4  -3   56.08    2.35
  -3   4  -3   59.29    2.97
   3  -4   3   64.85    2.97
   3  -4   3   63.93    1.96
   3  -4   3   54.66    2.32
  -4   4  -3    4.04    0.26
  -4   4  -3    4.23    0.21
  -4   4  -3    4.19    0.22
  -4   4  -3    4.38    0.26
   4  -4   3    4.20    0.25
   4  -4   3    4.09    0.20
   4  -4   3    3.91    0.17
  -5   4  -3   55.34    2.17
  -5   4  -3   54.27    2.75
   5  -4   3   53.03    2.15
   5  -4   3   57.34    1.81
  -6   4  -3   33.13    1.68
  -6   4  -3   34.50    1.33
   6  -4   3   29.08    1.31
   6  -4   3   34.95    1.10
  -7   4  -3    0.81    0.13
  -7   4  -3    0.76    0.11
   7  -4   3    0.74    0.07
   7  -4   3    1.02    0.11
  -8   4  -3   20.64    0.88
   8  -4   3   20.62    0.87
   8  -4   3   20.87    0.71
  -9   4  -3    8.13    0.44
   9  -4   3    9.47    0.43
   9  -4   3    8.97    0.33
 -10   4  -3    0.11    0.11
  10  -4   3    0.21    0.09
 -11   4  -3    4.99    0.32
  11  -4   3    5.27    0.31
  12   3  -3    8.60    0.46
 -12  -3   3    9.04    0.43
  11   3  -3    1.66    0.19
 -11  -3   3    1.77    0.16
  10   3  -3   15.70    0.70
 -10  -3   3   15.50    0.66
   9   3  -3   29.10    1.23
  -9  -3   3   31.03    1.21
   8   3  -3    5.14    0.28
  -8  -3   3    4.89    0.29
  -8  -3   3    5.21    0.24
  -7  -3   3   25.98    1.28
  -7  -3   3   25.36    1.04
  -7  -3   3   25.11    1.02
   6   3  -3   98.28    3.95
  -6  -3   3  102.86    4.02
  -6  -3   3  101.06    3.97
  -6  -3   3  104.81    5.01
  -6  -3   3  103.11    5.02
   5   3  -3   16.25    0.63
   5   3  -3   17.06    0.66
  -5  -3   3   16.13    0.81
  -5  -3   3   15.91    0.66
  -5  -3   3   15.93    0.81
  -5  -3   3   15.71    0.64
   4   3  -3   55.65    2.04
   4   3  -3   52.32    1.97
  -4  -3   3   52.25    2.04
  -4  -3   3   49.64    1.71
   3   3  -3  129.74    4.16
   3   3  -3  126.92    4.78
  -3  -3   3  125.41    4.98
  -3  -3   3  130.92    4.85
   2   3  -3   36.18    1.16
   2   3  -3   35.97    1.34
  -2  -3   3   36.31    1.40
  -2  -3   3   33.67    1.39
  -2  -3   3   36.58    1.36
  -2  -3   3   35.06    1.76
   1   3  -3   23.87    0.96
   1   3  -3   24.98    1.20
  -1  -3   3   24.81    0.93
  -1  -3   3   24.82    0.96
  -1  -3   3   23.24    0.96
  -1  -3   3   23.72    1.21
   0   3  -3  207.53   10.26
   0   3  -3  211.28    8.22
   0   3  -3  206.54   10.24
   0  -3   3  199.22    8.21
   0  -3   3  206.15    8.11
   0  -3   3  217.82   10.28
   0  -3   3  210.83    7.89
  -1   3  -3   40.15    1.93
  -1   3  -3   39.76    1.93
  -1   3  -3   38.87    1.54
  -1   3  -3   34.89    1.53
   1  -3   3   39.03    1.93
   1  -3   3   40.92    1.48
   1  -3   3   40.50    1.54
   1  -3   3   37.20    1.53
  -2   3  -3   23.50    0.98
  -2   3  -3   23.94    1.22
  -2   3  -3   23.20    0.96
  -2   3  -3   25.96    1.22
   2  -3   3   23.98    1.22
   2  -3   3   24.86    1.22
   2  -3   3   23.76    0.96
  -3   3  -3   78.30    4.07
  -3   3  -3   91.59    4.08
  -3   3  -3   81.69    3.27
  -3   3  -3   81.50    3.22
   3  -3   3   84.95    2.69
   3  -3   3   75.49    3.18
   3  -3   3   84.19    4.07
  -4   3  -3   46.03    1.79
  -4   3  -3   42.74    2.25
  -4   3  -3   43.49    1.81
  -4   3  -3   47.53    2.25
   4  -3   3   46.60    1.49
   4  -3   3   48.24    2.24
   4  -3   3   41.56    1.76
  -5   3  -3    6.80    0.40
  -5   3  -3    6.82    0.32
   5  -3   3    7.30    0.26
   5  -3   3    6.92    0.31
  -6   3  -3   51.44    2.68
  -6   3  -3   58.24    2.13
   6  -3   3   53.96    1.76
   6  -3   3   50.59    2.10
  -7   3  -3   13.42    0.56
  -7   3  -3   11.74    0.69
   7  -3   3   12.99    0.45
   7  -3   3   12.24    0.55
  -8   3  -3    0.19    0.10
   8  -3   3    0.34    0.08
   8  -3   3    0.20    0.05
  -9   3  -3   17.50    0.77
   9  -3   3   18.11    0.77
 -10   3  -3    8.20    0.44
  10  -3   3    9.48    0.45
 -11   3  -3    0.30    0.13
  11  -3   3    0.90    0.14
  13   2  -3   -0.04    0.10
 -12  -2   3    7.87    0.39
  11   2  -3   10.39    0.51
 -11  -2   3   10.17    0.47
  10   2  -3   -0.01    0.08
 -10  -2   3    0.02    0.06
   9   2  -3   14.71    0.64
  -9  -2   3   14.33    0.61
   8   2  -3   42.60    1.72
  -8  -2   3   43.49    2.15
  -8  -2   3   43.71    1.71
   7   2  -3    6.71    0.32
  -7  -2   3    6.43    0.31
  -7  -2   3    6.58    0.28
  -7  -2   3    6.46    0.35
   6   2  -3   46.97    1.82
  -6  -2   3   47.31    2.27
  -6  -2   3   45.59    1.80
  -6  -2   3   44.97    1.84
   5   2  -3  132.12    4.91
   5   2  -3  122.23    4.74
   4   2  -3   16.61    0.64
   4   2  -3   16.58    0.67
   3   2  -3   79.85    2.55
  -3  -2   3   76.78    2.55
   2   2  -3  251.54    8.32
  -2  -2   3  260.10   10.06
   1   2  -3   14.88    0.59
  -1  -2   3   14.47    0.56
  -1  -2   3   14.49    0.58
  -1  -2   3   14.61    0.58
  -1  -2   3   15.02    0.73
  -1  -2   3   13.60    0.73
   0   2  -3  140.61    7.12
   0   2  -3  143.66    7.11
   0   2  -3  146.49    5.70
   0  -2   3  148.30    5.47
   0  -2   3  155.63    7.13
   0  -2   3  141.24    5.72
   0  -2   3  129.55    5.63
   0  -2   3  155.85    7.15
  -1   2  -3  105.53    5.15
  -1   2  -3  107.42    4.12
  -1   2  -3  104.83    5.15
  -1   2  -3   97.49    4.07
   1  -2   3  108.34    4.12
   1  -2   3  101.87    4.08
   1  -2   3  108.26    5.15
  -2   2  -3   31.83    1.63
  -2   2  -3   31.54    1.29
  -2   2  -3   33.30    1.31
  -2   2  -3   33.44    1.63
   2  -2   3   31.51    1.31
   2  -2   3   35.35    1.63
   2  -2   3   32.15    1.29
  -3   2  -3   28.87    1.18
  -3   2  -3   30.55    1.46
  -3   2  -3   28.92    1.46
  -3   2  -3   28.21    1.16
   3  -2   3   28.52    1.46
   3  -2   3   29.08    0.97
   3  -2   3   30.75    1.18
   3  -2   3   28.54    1.14
  -4   2  -3  113.23    4.36
  -4   2  -3  118.04    5.44
  -4   2  -3  105.67    4.30
  -4   2  -3  104.58    5.43
   4  -2   3  112.12    3.59
   4  -2   3   98.24    4.25
   4  -2   3  120.61    5.43
  -5   2  -3   15.35    0.63
  -5   2  -3   14.52    0.79
   5  -2   3   14.70    0.62
   5  -2   3   15.73    0.52
  -6   2  -3    6.65    0.39
  -6   2  -3    6.84    0.32
   6  -2   3    6.45    0.31
   6  -2   3    6.39    0.25
  -7   2  -3   34.05    1.77
  -7   2  -3   35.44    1.41
   7  -2   3   33.58    1.39
   7  -2   3   36.14    1.16
  -8   2  -3   15.43    0.68
   8  -2   3   15.85    0.55
   8  -2   3   15.96    0.68
  -9   2  -3    1.92    0.18
   9  -2   3    1.99    0.13
   9  -2   3    2.41    0.20
 -10   2  -3    8.29    0.43
  10  -2   3    8.77    0.43
 -11   2  -3    5.97    0.36
  11  -2   3    6.63    0.36
  13   1  -3    4.79    0.32
  12   1  -3    0.23    0.11
 -12  -1   3    0.21    0.09
  11   1  -3   10.89    0.54
 -11  -1   3   11.73    0.51
  10   1  -3   21.45    0.91
 -10  -1   3   21.19    0.88
   9   1  -3    0.28    0.09
  -9  -1   3    0.52    0.07
   8   1  -3   49.62    2.05
  -8  -1   3   53.02    2.58
  -8  -1   3   53.35    2.04
   7   1  -3   58.79    2.30
  -7  -1   3   60.31    2.29
  -7  -1   3   56.97    2.34
   6   1  -3    0.13    0.05
   5   1  -3   53.48    2.08
   4   1  -3  168.48    6.06
   4   1  -3  175.10    6.60
   3   1  -3   21.53    0.81
   3   1  -3   22.69    0.75
  -3  -1   3   23.00    0.75
   2   1  -3  222.49    7.28
  -2  -1   3  224.15    7.27
   1   1  -3  249.67    9.91
  -1  -1   3  254.08   12.34
  -1  -1   3  245.62   12.33
  -1  -1   3  251.26    9.77
  -1  -1   3  256.70    9.92
   0   1  -3   24.08    1.20
   0   1  -3   25.51    1.20
   0   1  -3   24.75    0.97
   0  -1   3   25.07    0.97
   0  -1   3   23.24    1.21
   0  -1   3   23.65    1.21
   0  -1   3   23.63    0.95
  -1   1  -3  129.31    5.23
  -1   1  -3  132.40    6.54
  -1   1  -3  136.76    6.56
  -1   1  -3  133.80    5.18
   1  -1   3  137.46    6.55
   1  -1   3  138.61    6.57
   1  -1   3  139.05    5.26
   1  -1   3  119.57    5.18
  -2   1  -3  267.67   10.93
  -2   1  -3  284.30   14.01
  -2   1  -3  249.99   13.64
  -2   1  -3  270.98   10.79
   2  -1   3  317.38   10.84
   2  -1   3  273.44   13.68
   2  -1   3  289.71   13.68
   2  -1   3  273.41   10.97
  -3   1  -3    3.24    0.16
  -3   1  -3    2.94    0.19
  -3   1  -3    3.16    0.19
  -3   1  -3    3.18    0.16
   3  -1   3    2.79    0.13
   3  -1   3    3.16    0.19
   3  -1   3    3.37    0.15
   3  -1   3    3.17    0.16
  -4   1  -3   48.97    2.28
  -4   1  -3   44.88    1.83
  -4   1  -3   43.85    2.27
  -4   1  -3   46.41    1.80
   4  -1   3   43.46    1.78
   4  -1   3   46.87    2.27
   4  -1   3   46.52    1.83
   4  -1   3   44.66    1.50
  -5   1  -3   60.36    2.27
  -5   1  -3   56.44    2.30
  -5   1  -3   56.12    2.86
   5  -1   3   60.37    1.89
   5  -1   3   53.86    2.24
  -6   1  -3   18.46    0.98
  -6   1  -3   19.60    0.78
   6  -1   3   19.22    0.64
   6  -1   3   17.64    0.77
  -7   1  -3   10.04    0.59
  -7   1  -3   10.50    0.47
   7  -1   3   10.97    0.47
   7  -1   3   10.60    0.38
  -8   1  -3   24.32    1.05
   8  -1   3   25.79    0.86
   8  -1   3   25.95    1.05
  -9   1  -3    4.73    0.29
   9  -1   3    5.28    0.30
   9  -1   3    5.20    0.21
 -10   1  -3    0.16    0.10
  10  -1   3    0.30    0.10
 -11   1  -3    6.12    0.37
  11  -1   3    7.19    0.38
  13   0  -3    5.32    0.33
  12   0  -3    6.42    0.37
 -12   0   3    6.64    0.33
  11   0  -3   -0.11    0.09
 -11   0   3   -0.04    0.07
  10   0  -3   25.59    1.05
 -10   0   3   24.33    1.01
   9   0  -3   25.34    1.02
  -9   0   3   23.87    0.99
   8   0  -3    0.23    0.07
  -8   0   3    0.22    0.05
   7   0  -3   34.18    1.38
  -7   0   3   34.63    1.72
  -7   0   3   35.40    1.37
   6   0  -3  143.53    5.54
   5   0  -3    4.57    0.22
   4   0  -3  200.96    7.58
   4   0  -3  193.88    7.00
   3   0  -3  141.76    4.50
   3   0  -3  133.79    4.88
   2   0  -3   16.36    0.55
  -2   0   3   16.17    0.55
   1   0  -3   96.54    3.21
   1   0  -3   97.02    3.72
  -1   0   3   99.76    3.88
  -1   0   3   92.92    3.83
  -1   0   3   98.70    4.84
  -1   0   3  103.86    4.84
  -1   0   3  102.30    3.73
   0   0  -3  453.21   21.28
   0   0  -3  446.36   16.36
   0   0  -3  427.87   21.29
   0   0   3  375.60   16.85
   0   0   3  427.60   16.35
   0   0   3  462.36   21.32
   0   0   3  435.35   21.30
   0   0   3  444.09   17.08
  -1   0  -3   14.04    0.55
  -1   0  -3   13.41    0.68
  -1   0  -3   13.15    0.54
  -1   0  -3   13.24    0.52
  -1   0  -3   12.92    0.68
   1   0   3   14.04    0.68
   1   0   3   13.23    0.68
   1   0   3   13.30    0.54
   1   0   3   13.48    0.55
  -2   0  -3   99.31    4.84
  -2   0  -3   98.30    3.88
  -2   0  -3   94.17    3.83
  -2   0  -3   98.28    4.84
   2   0   3  101.05    4.84
   2   0   3  100.58    4.84
   2   0   3  100.66    3.88
   2   0   3   95.85    3.83
  -3   0  -3  142.01    6.01
  -3   0  -3  141.17    7.50
  -3   0  -3  157.99    7.51
  -3   0  -3  158.74    5.94
   3   0   3  159.71    7.50
   3   0   3  157.77    6.01
   3   0   3  157.79    4.96
   3   0   3  146.91    5.88
  -4   0  -3   36.54    1.47
  -4   0  -3   35.24    1.85
  -4   0  -3   36.56    1.86
  -4   0  -3   34.96    1.49
   4   0   3   37.28    1.46
   4   0   3   38.32    1.50
   4   0   3   39.81    1.85
   4   0   3   38.02    1.23
  -5   0  -3   51.78    2.63
  -5   0  -3   49.52    2.11
  -5   0  -3   54.47    2.08
   5   0   3   53.22    1.73
   5   0   3   54.27    2.06
  -6   0  -3   69.75    3.64
  -6   0  -3   75.23    2.89
   6   0   3   77.41    2.86
   6   0   3   70.79    2.40
  -7   0  -3    1.94    0.16
  -7   0  -3    1.95    0.19
   7   0   3    2.08    0.13
   7   0   3    2.23    0.17
  -8   0  -3    4.19    0.25
   8   0   3    4.31    0.19
   8   0   3    4.12    0.25
  -9   0  -3   15.66    0.71
   9   0   3   16.05    0.56
   9   0   3   16.68    0.71
 -10   0  -3    3.40    0.24
  10   0   3    3.66    0.25
 -11   0  -3    1.40    0.17
  11   0   3    1.71    0.19
  13  -1  -3    0.74    0.14
  12  -1  -3    8.99    0.47
 -12   1   3    9.63    0.44
  11  -1  -3    8.79    0.45
 -11   1   3    9.36    0.42
  10  -1  -3    1.03    0.13
 -10   1   3    0.84    0.10
   9  -1  -3   27.40    1.11
  -9   1   3   26.50    1.08
   8  -1  -3   37.28    1.51
  -8   1   3   38.44    1.50
   7  -1  -3    0.56    0.08
  -7   1   3    0.58    0.06
  -7   1   3    0.64    0.08
   6  -1  -3   64.25    2.46
  -6   1   3   61.97    2.46
   5  -1  -3   52.97    2.06
   4  -1  -3   28.43    1.12
   3  -1  -3   74.91    2.71
   3  -1  -3   77.66    2.49
   2  -1  -3  368.20   13.50
   2  -1  -3  377.61   12.42
   2  -1  -3  394.78   14.42
  -2   1   3  404.51   14.80
  -2   1   3  361.93   14.79
   1  -1  -3    0.23    0.04
   1  -1  -3    0.10    0.03
   1  -1  -3    0.13    0.03
  -1   1   3    0.20    0.04
   0  -1  -3  132.12    4.67
   0  -1  -3  128.47    6.05
   0  -1  -3  108.68    4.36
   0  -1  -3  124.16    6.06
   0   1   3  125.03    4.88
   0   1   3  119.49    4.79
   0   1   3  119.26    6.08
   0   1   3  130.88    6.07
  -1  -1  -3  113.18    3.93
  -1  -1  -3   96.66    4.05
  -1  -1  -3  104.47    5.11
  -1  -1  -3  107.08    5.12
  -1  -1  -3   95.69    3.68
  -1  -1  -3  101.16    4.10
   1   1   3  110.41    4.10
   1   1   3   98.88    5.11
   1   1   3  111.31    5.12
   1   1   3  102.59    4.05
  -2  -1  -3   34.54    1.34
  -2  -1  -3   36.73    1.75
  -2  -1  -3   35.26    1.75
  -2  -1  -3   32.70    1.38
  -2  -1  -3   33.83    1.25
  -2  -1  -3   32.84    1.40
   2   1   3   35.22    1.38
   2   1   3   35.37    1.37
   2   1   3   36.63    1.75
   2   1   3   35.93    1.75
   2   1   3   37.32    1.41
  -3  -1  -3   62.71    2.37
  -3  -1  -3   61.20    2.99
  -3  -1  -3   61.86    2.99
  -3  -1  -3   58.85    2.39
   3   1   3   63.04    2.40
   3   1   3   58.21    1.97
   3   1   3   57.37    2.34
   3   1   3   59.50    2.98
  -4  -1  -3  102.30    3.83
  -4  -1  -3  100.95    4.84
  -4  -1  -3   93.72    4.83
  -4  -1  -3   93.43    3.87
   4   1   3   98.35    3.88
   4   1   3   97.41    3.19
   4   1   3   93.45    3.79
   4   1   3  104.55    4.83
  -5  -1  -3    7.52    0.44
  -5  -1  -3    7.64    0.35
  -5  -1  -3    7.41    0.36
   5   1   3    8.07    0.29
   5   1   3    8.38    0.37
   5   1   3    7.81    0.35
  -6  -1  -3    7.60    0.34
  -6  -1  -3    7.49    0.42
   6   1   3    6.46    0.34
   6   1   3    7.26    0.28
  -7  -1  -3   47.78    1.86
  -7  -1  -3   41.68    2.33
   7   1   3   47.82    1.84
   7   1   3   47.90    1.54
  -8  -1  -3    8.23    0.39
  -8  -1  -3    7.80    0.39
   8   1   3    8.51    0.31
   8   1   3    7.76    0.40
  -9  -1  -3   10.31    0.50
   9   1   3   10.27    0.38
   9   1   3   11.33    0.51
 -10  -1  -3    7.55    0.40
  10   1   3    7.75    0.41
 -11  -1  -3    0.71    0.14
  11   1   3    1.00    0.15
  13  -2  -3    7.34    0.40
  12  -2  -3    5.25    0.32
 -12   2   3    5.05    0.29
  11  -2  -3   15.99    0.74
 -11   2   3   17.22    0.71
  10  -2  -3    9.35    0.45
 -10   2   3    8.99    0.41
   9  -2  -3    0.59    0.10
  -9   2   3    0.56    0.08
   8  -2  -3   46.43    1.88
  -8   2   3   47.15    2.36
  -8   2   3   48.47    1.87
   7  -2  -3   33.76    1.38
  -7   2   3   35.29    1.72
   6  -2  -3    2.49    0.15
  -6   2   3    2.44    0.15
  -6   2   3    2.29    0.13
  -6   2   3    2.46    0.15
   5  -2  -3  103.79    3.91
  -5   2   3   98.97    3.93
  -5   2   3  100.42    4.95
   4  -2  -3   59.34    2.27
  -4   2   3   57.63    2.28
   3  -2  -3   18.77    0.64
   3  -2  -3   18.03    0.75
  -3   2   3   19.47    0.94
  -3   2   3   20.48    0.94
  -3   2   3   18.06    0.75
   2  -2  -3   38.86    1.29
   2  -2  -3   42.74    1.50
   2  -2  -3   38.46    1.40
   2  -2  -3   37.58    1.27
  -2   2   3   42.77    1.93
  -2   2   3   36.75    1.93
  -2   2   3   36.94    1.53
   1  -2  -3   65.20    3.21
   1  -2  -3   62.04    2.32
   1  -2  -3   68.99    2.48
   1  -2  -3   68.87    3.22
  -1   2   3   64.03    2.59
  -1   2   3   67.26    3.22
  -1   2   3   58.60    2.55
  -1   2   3   68.15    3.22
   0  -2  -3   16.99    0.91
   0  -2  -3   16.92    0.65
   0  -2  -3   18.79    0.91
   0  -2  -3   18.41    0.74
   0  -2  -3   20.14    0.71
   0   2   3   17.10    0.74
   0   2   3   17.65    0.69
   0   2   3   17.70    0.91
   0   2   3   19.12    0.91
   0   2   3   17.30    0.72
  -1  -2  -3  125.91    6.30
  -1  -2  -3  125.31    4.99
  -1  -2  -3  141.09    4.85
  -1  -2  -3  129.26    5.04
  -1  -2  -3  124.54    4.53
  -1  -2  -3  138.71    6.30
   1   2   3  128.85    5.04
   1   2   3  128.89    4.94
   1   2   3  123.51    6.30
   1   2   3  118.29    4.99
   1   2   3  134.49    6.30
   1   2   3  120.43    4.78
  -2  -2  -3  101.23    3.54
  -2  -2  -3   90.90    4.60
  -2  -2  -3   92.75    4.60
  -2  -2  -3   89.42    3.68
  -2  -2  -3   92.55    3.64
   2   2   3   92.46    3.04
   2   2   3   94.06    3.49
   2   2   3   87.10    3.64
   2   2   3   96.90    4.60
   2   2   3   98.73    3.68
   2   2   3   90.55    3.60
  -3  -2  -3    0.71    0.08
  -3  -2  -3    0.56    0.07
  -3  -2  -3    0.74    0.09
  -3  -2  -3    0.48    0.08
  -3  -2  -3    0.71    0.07
   3   2   3    0.40    0.06
   3   2   3    0.40    0.04
   3   2   3    0.50    0.06
  -4  -2  -3   25.93    1.02
  -4  -2  -3   26.01    1.06
  -4  -2  -3   24.53    1.31
  -4  -2  -3   26.82    1.05
   4   2   3   25.39    0.87
   4   2   3   26.00    1.06
   4   2   3   26.70    1.31
   4   2   3   25.69    1.04
  -5  -2  -3   44.02    1.70
  -5  -2  -3   43.37    2.19
  -5  -2  -3   45.14    1.74
   5   2   3   40.43    1.72
   5   2   3   45.42    1.45
  -6  -2  -3    2.84    0.22
  -6  -2  -3    3.03    0.19
  -6  -2  -3    3.15    0.19
   6   2   3    3.36    0.15
   6   2   3    2.96    0.19
  -7  -2  -3   13.06    0.59
  -7  -2  -3   13.69    0.60
   7   2   3   13.79    0.49
   7   2   3   13.88    0.60
  -8  -2  -3    9.50    0.46
  -8  -2  -3    9.62    0.46
   8   2   3   10.44    0.47
   8   2   3    9.79    0.37
  -9  -2  -3    2.85    0.22
   9   2   3    2.93    0.15
   9   2   3    2.79    0.22
 -10  -2  -3    0.98    0.14
  10   2   3    1.08    0.15
 -11  -2  -3    8.26    0.45
  11   2   3    8.70    0.45
  13  -3  -3    2.30    0.21
  12  -3  -3    8.74    0.45
 -12   3   3    8.77    0.42
  11  -3  -3    0.10    0.09
 -11   3   3    0.03    0.08
  10  -3  -3   39.60    1.62
 -10   3   3   40.70    1.61
   9  -3  -3   13.89    0.61
  -9   3   3   13.81    0.59
   8  -3  -3    7.24    0.35
  -8   3   3    7.17    0.32
  -8   3   3    6.92    0.40
   7  -3  -3   36.52    1.43
  -7   3   3   35.13    1.79
   6  -3  -3   42.42    1.70
  -6   3   3   43.51    2.14
  -6   3   3   43.11    1.70
   5  -3  -3    5.11    0.25
  -5   3   3    5.54    0.29
  -5   3   3    5.19    0.24
  -5   3   3    5.42    0.29
   4  -3  -3  131.95    5.13
  -4   3   3  124.40    5.17
  -4   3   3  143.23    6.53
  -4   3   3  132.10    4.96
  -4   3   3  133.62    6.53
   3  -3  -3   78.47    2.88
   3  -3  -3   77.29    2.83
   3  -3  -3   73.76    2.41
  -3   3   3   68.35    3.66
  -3   3   3   74.94    2.88
  -3   3   3   78.85    3.66
  -3   3   3   68.82    2.90
  -3   3   3   75.00    2.78
   2  -3  -3   34.82    1.26
   2  -3  -3   32.65    1.18
   2  -3  -3   31.48    1.08
  -2   3   3   31.05    1.29
  -2   3   3   31.76    1.24
  -2   3   3   34.92    1.63
  -2   3   3   32.79    1.29
  -2   3   3   32.44    1.63
   1  -3  -3  188.27    6.36
   1  -3  -3  199.81    9.62
   1  -3  -3  196.58    6.37
   1  -3  -3  199.49    9.63
   1  -3  -3  203.48    7.47
   1  -3  -3  182.34    6.93
  -1   3   3  182.09    7.62
  -1   3   3  197.04    7.30
  -1   3   3  204.49    9.64
  -1   3   3  197.68    7.54
  -1   3   3  206.23    9.66
  -1   3   3  196.72    7.72
   0  -3  -3   24.30    1.00
   0  -3  -3   24.26    0.89
   0  -3  -3   25.79    0.83
   0  -3  -3   27.24    1.25
   0  -3  -3   25.26    1.24
   0  -3  -3   25.10    0.83
   0  -3  -3   26.00    0.97
   0   3   3   24.78    0.95
   0   3   3   23.73    0.98
   0   3   3   22.61    0.99
   0   3   3   25.06    1.00
   0   3   3   23.64    1.25
   0   3   3   25.42    1.25
  -1  -3  -3   13.11    0.68
  -1  -3  -3   13.82    0.53
  -1  -3  -3   12.87    0.45
  -1  -3  -3   13.42    0.68
  -1  -3  -3   13.58    0.45
  -1  -3  -3   13.92    0.54
  -1  -3  -3   12.36    0.55
  -1  -3  -3   12.11    0.48
   1   3   3   12.71    0.68
   1   3   3   13.99    0.54
   1   3   3   12.18    0.54
   1   3   3   13.45    0.55
   1   3   3   13.43    0.68
   1   3   3   13.56    0.52
  -2  -3  -3   58.29    2.20
  -2  -3  -3   53.69    2.74
  -2  -3  -3   55.96    2.12
  -2  -3  -3   54.25    2.17
   2   3   3   57.03    2.08
   2   3   3   54.14    2.74
   2   3   3   53.77    2.15
   2   3   3   53.38    1.81
   2   3   3   57.01    2.20
  -3  -3  -3   70.13    2.79
  -3  -3  -3   69.95    3.48
  -3  -3  -3   66.65    2.76
  -3  -3  -3   69.61    2.68
   3   3   3   73.40    2.65
   3   3   3   69.15    2.30
   3   3   3   75.72    3.48
   3   3   3   67.42    2.73
   3   3   3   70.65    2.79
  -4  -3  -3    0.20    0.07
  -4  -3  -3    0.19    0.06
  -4  -3  -3    0.27    0.06
  -4  -3  -3    0.20    0.06
   4   3   3    0.20    0.05
   4   3   3    0.35    0.06
   4   3   3    0.24    0.06
  -5  -3  -3   49.83    1.96
  -5  -3  -3   46.10    1.90
  -5  -3  -3   47.45    2.47
   5   3   3   50.93    1.94
   5   3   3   51.42    1.63
  -6  -3  -3   19.70    0.81
  -6  -3  -3   20.83    0.83
  -6  -3  -3   18.86    1.03
   6   3   3   19.17    0.82
   6   3   3   19.46    0.68
  -7  -3  -3    0.19    0.08
  -7  -3  -3    0.06    0.07
   7   3   3    0.12    0.05
   7   3   3   -0.02    0.07
  -8  -3  -3    9.90    0.46
  -8  -3  -3    9.18    0.46
   8   3   3   10.57    0.48
   8   3   3    9.39    0.37
   9   3   3    8.52    0.33
   9   3   3    9.21    0.46
 -10  -3  -3    0.05    0.10
  10   3   3   -0.05    0.09
  11   3   3    1.93    0.21
  12  -4  -3    6.40    0.37
 -12   4   3    6.78    0.35
  11  -4  -3    0.03    0.08
 -11   4   3   -0.01    0.08
  10  -4  -3    0.27    0.09
 -10   4   3    0.04    0.07
   9  -4  -3    6.85    0.36
  -9   4   3    7.27    0.34
   8  -4  -3   32.57    1.28
  -8   4   3   30.68    1.27
   7  -4  -3    7.57    0.35
  -7   4   3    7.47    0.42
   6  -4  -3   76.01    3.05
  -6   4   3   79.21    3.87
  -6   4   3   79.52    3.07
   5  -4  -3   14.09    0.59
  -5   4   3   14.33    0.58
  -5   4   3   13.30    0.73
  -5   4   3   14.86    0.73
   4  -4  -3   11.24    0.48
   4  -4  -3   10.52    0.48
   4  -4  -3   11.14    0.39
  -4   4   3   12.22    0.46
  -4   4   3   11.85    0.48
  -4   4   3   11.43    0.60
  -4   4   3   12.30    0.60
   3  -4  -3   93.89    3.20
   3  -4  -3   99.51    3.74
  -3   4   3  105.36    4.85
  -3   4   3   94.41    3.84
  -3   4   3  108.74    3.68
  -3   4   3   97.49    3.81
  -3   4   3   89.70    4.84
   2  -4  -3   85.39    3.08
   2  -4  -3   86.22    3.98
   2  -4  -3   76.98    2.64
   2  -4  -3   80.70    2.65
  -2   4   3   76.87    3.99
  -2   4   3   87.15    4.00
  -2   4   3   77.56    3.14
  -2   4   3   80.56    3.03
  -2   4   3   77.52    3.16
   1  -4  -3   11.95    0.43
   1  -4  -3   12.47    0.51
   1  -4  -3   12.50    0.43
   1  -4  -3   12.67    0.64
  -1   4   3   12.54    0.51
  -1   4   3   11.76    0.49
  -1   4   3   12.71    0.53
  -1   4   3   12.77    0.65
  -1   4   3   12.51    0.65
  -1   4   3   11.99    0.51
   0  -4  -3  204.33    7.53
   0  -4  -3  200.40    6.47
   0  -4  -3  201.32    6.47
   0  -4  -3  194.47    9.79
   0  -4  -3  199.25    7.04
   0  -4  -3  193.78    6.47
   0   4   3  209.49    9.79
   0   4   3  198.92    7.75
   0   4   3  197.91    7.43
   0   4   3  184.19    9.78
   0   4   3  205.52    7.67
   0   4   3  203.29    7.83
  -1  -4  -3   77.09    2.88
  -1  -4  -3   75.84    2.67
  -1  -4  -3   76.75    2.95
  -1  -4  -3   74.91    3.73
  -1  -4  -3   74.27    2.47
  -1  -4  -3   73.21    2.98
  -1  -4  -3   78.95    2.46
   1   4   3   70.32    3.73
   1   4   3   81.36    2.84
   1   4   3   74.89    2.93
   1   4   3   73.85    2.98
   1   4   3   73.80    2.95
  -2  -4  -3   21.48    0.76
  -2  -4  -3   21.93    1.15
  -2  -4  -3   22.56    0.91
  -2  -4  -3   22.30    0.89
  -2  -4  -3   23.76    0.75
  -2  -4  -3   21.34    0.92
   2   4   3   23.21    0.92
   2   4   3   21.97    0.91
   2   4   3   23.12    1.15
   2   4   3   23.33    0.88
   2   4   3   22.94    0.76
  -3  -4  -3   86.71    3.40
  -3  -4  -3   89.22    3.53
  -3  -4  -3   85.68    4.42
  -3  -4  -3   90.30    2.91
  -3  -4  -3   90.91    3.50
   3   4   3   88.52    3.53
   3   4   3   91.47    3.47
   3   4   3   90.13    4.41
   3   4   3   91.82    3.36
   3   4   3   88.10    2.92
  -4  -4  -3   27.10    1.42
  -4  -4  -3   28.34    1.13
  -4  -4  -3   28.09    1.14
  -4  -4  -3   26.56    1.10
   4   4   3   28.27    0.94
   4   4   3   28.24    1.14
   4   4   3   28.61    1.09
   4   4   3   27.22    1.12
  -5  -4  -3    0.49    0.09
  -5  -4  -3    0.40    0.08
   5   4   3    0.54    0.09
   5   4   3    0.49    0.06
  -6  -4  -3   27.38    1.13
  -6  -4  -3   30.46    1.16
  -6  -4  -3   26.41    1.45
   6   4   3   27.80    0.95
   6   4   3   27.77    1.15
  -7  -4  -3   18.50    0.83
  -7  -4  -3   19.99    0.85
   7   4   3   20.43    0.85
   7   4   3   20.70    0.70
  -8  -4  -3    0.13    0.09
  -8  -4  -3    0.14    0.09
   8   4   3    0.39    0.11
   8   4   3    0.11    0.05
  -9  -4  -3    9.38    0.48
   9   4   3    9.86    0.36
   9   4   3   10.17    0.50
 -10  -4  -3    5.30    0.34
  10   4   3    5.70    0.34
  12  -5  -3    2.36    0.21
 -12   5   3    2.35    0.19
  11  -5  -3   13.37    0.62
 -11   5   3   13.27    0.60
  10  -5  -3    1.24    0.15
 -10   5   3    1.25    0.14
   9  -5  -3   20.37    0.88
  -9   5   3   21.01    0.87
   8  -5  -3   13.23    0.58
   7  -5  -3    0.26    0.07
  -7   5   3    0.33    0.08
   6  -5  -3    2.08    0.15
  -6   5   3    2.18    0.17
  -6   5   3    1.75    0.15
   5  -5  -3   71.92    2.86
   5  -5  -3   72.80    2.39
  -5   5   3   75.21    2.89
  -5   5   3   74.27    2.87
  -5   5   3   73.41    3.64
   4  -5  -3   31.70    1.30
   4  -5  -3   32.22    1.10
  -4   5   3   33.19    1.33
  -4   5   3   32.41    1.68
  -4   5   3   36.37    1.68
  -4   5   3   32.70    1.33
  -4   5   3   35.60    1.28
   3  -5  -3   39.49    1.55
   3  -5  -3   39.39    1.32
  -3   5   3   38.82    1.52
  -3   5   3   40.81    1.59
  -3   5   3   38.66    2.00
  -3   5   3   40.20    1.58
  -3   5   3   43.46    2.01
   2  -5  -3  110.33    5.05
   2  -5  -3  102.38    3.90
   2  -5  -3  102.10    3.34
  -2   5   3  103.20    4.06
  -2   5   3   95.51    5.06
  -2   5   3  108.32    3.98
  -2   5   3   94.97    4.01
  -2   5   3  102.97    3.84
  -2   5   3  104.05    5.07
   1  -5  -3   27.96    1.11
   1  -5  -3   29.77    1.42
   1  -5  -3   28.05    0.94
   1  -5  -3   26.90    0.94
  -1   5   3   29.23    1.13
  -1   5   3   28.02    1.43
  -1   5   3   27.49    1.12
  -1   5   3   28.02    1.15
  -1   5   3   26.89    1.08
  -1   5   3   29.82    1.43
   0  -5  -3    6.64    0.30
   0  -5  -3    6.84    0.25
   0  -5  -3    6.48    0.26
   0  -5  -3    6.84    0.26
   0  -5  -3    7.11    0.38
   0   5   3    6.10    0.38
   0   5   3    6.57    0.31
   0   5   3    7.08    0.31
   0   5   3    6.86    0.31
   0   5   3    7.04    0.30
  -1  -5  -3   96.02    3.53
  -1  -5  -3   91.05    4.58
  -1  -5  -3   90.35    3.02
  -1  -5  -3   90.73    3.03
   1   5   3   87.92    3.62
   1   5   3   89.65    4.58
   1   5   3   96.45    3.03
   1   5   3   94.88    3.66
   1   5   3   95.21    3.60
   1   5   3   94.06    3.48
  -2  -5  -3   66.05    2.61
  -2  -5  -3   69.27    2.70
  -2  -5  -3   65.48    2.68
  -2  -5  -3   68.42    2.23
  -2  -5  -3   68.86    2.24
  -2  -5  -3   67.99    3.38
   2   5   3   65.64    3.37
   2   5   3   68.95    2.24
   2   5   3   72.05    2.71
   2   5   3   67.70    2.57
   2   5   3   68.07    2.66
  -3  -5  -3    4.60    0.23
  -3  -5  -3    4.64    0.29
  -3  -5  -3    4.14    0.22
  -3  -5  -3    4.53    0.17
  -3  -5  -3    4.38    0.23
   3   5   3    4.54    0.22
   3   5   3    4.65    0.23
   3   5   3    4.21    0.24
   3   5   3    4.24    0.19
  -4  -5  -3   67.52    2.72
  -4  -5  -3   67.89    3.43
  -4  -5  -3   66.38    2.74
  -4  -5  -3   67.10    2.65
   4   5   3   69.54    2.70
   4   5   3   71.04    2.27
   4   5   3   71.87    2.61
  -5  -5  -3   22.47    0.94
  -5  -5  -3   23.25    1.21
  -5  -5  -3   24.01    0.96
   5   5   3   21.44    0.95
   5   5   3   23.26    0.92
   5   5   3   23.63    0.79
  -6  -5  -3    1.48    0.17
  -6  -5  -3    1.17    0.14
  -6  -5  -3    1.29    0.14
   6   5   3    1.06    0.13
   6   5   3    1.50    0.12
  -7  -5  -3   16.97    0.73
  -7  -5  -3   16.22    0.74
   7   5   3   17.21    0.60
   7   5   3   16.71    0.74
  -8  -5  -3    9.14    0.45
   8   5   3    8.90    0.35
   8   5   3    9.38    0.46
  -9  -5  -3   -0.05    0.09
   9   5   3    0.09    0.05
   9   5   3   -0.02    0.10
  10   5   3    4.89    0.33
  12  -6  -3    0.15    0.09
 -12   6   3    0.13    0.10
  11  -6  -3    3.51    0.25
 -11   6   3    3.47    0.23
  10  -6  -3   11.85    0.54
 -10   6   3   10.80    0.52
   9  -6  -3    3.98    0.25
  -9   6   3    3.74    0.24
   8  -6  -3   15.19    0.66
   7  -6  -3   60.79    2.40
   6  -6  -3    0.31    0.07
  -6   6   3    0.28    0.07
  -6   6   3    0.32    0.08
  -6   6   3    0.23    0.07
   5  -6  -3   43.75    1.42
  -5   6   3   42.30    2.17
  -5   6   3   44.39    1.72
  -5   6   3   42.21    1.71
   4  -6  -3   37.00    1.50
   4  -6  -3   38.10    1.27
  -4   6   3   38.73    1.93
  -4   6   3   39.54    1.47
  -4   6   3   39.94    1.53
  -4   6   3   37.01    1.52
   3  -6  -3   18.03    0.76
   3  -6  -3   18.11    0.63
  -3   6   3   19.28    0.77
  -3   6   3   19.10    0.74
  -3   6   3   18.58    0.97
  -3   6   3   19.12    0.77
   2  -6  -3   18.23    0.65
   2  -6  -3   19.43    0.78
   2  -6  -3   19.98    0.98
  -2   6   3   19.72    0.76
  -2   6   3   19.29    1.00
  -2   6   3   20.35    0.79
  -2   6   3   18.48    0.79
  -2   6   3   19.80    1.00
  -2   6   3   17.51    0.80
   1  -6  -3  121.96    5.61
   1  -6  -3  108.08    4.33
   1  -6  -3  113.93    3.71
  -1   6   3  110.14    5.61
  -1   6   3  113.37    4.41
  -1   6   3  120.25    4.50
  -1   6   3  107.72    4.44
  -1   6   3  114.22    4.26
   0  -6  -3   23.07    0.93
   0  -6  -3   22.88    1.20
   0  -6  -3   24.08    0.80
   0  -6  -3   24.62    0.79
   0   6   3   24.20    0.96
   0   6   3   22.86    0.95
   0   6   3   23.28    0.92
   0   6   3   22.85    1.20
   0   6   3   23.16    0.96
  -1  -6  -3   19.24    0.66
  -1  -6  -3   18.71    1.00
  -1  -6  -3   18.49    0.66
  -1  -6  -3   18.28    0.77
  -1  -6  -3   20.36    0.65
   1   6   3   18.76    0.79
   1   6   3   18.89    0.99
   1   6   3   19.87    0.77
   1   6   3   19.45    0.66
  -2  -6  -3   55.50    1.75
  -2  -6  -3   53.99    1.76
  -2  -6  -3   53.05    2.66
  -2  -6  -3   53.22    2.06
   2   6   3   51.06    2.10
   2   6   3   52.75    2.03
   2   6   3   52.56    1.76
  -3  -6  -3   20.74    0.86
  -3  -6  -3   21.06    1.10
  -3  -6  -3   21.63    0.87
  -3  -6  -3   20.66    0.87
   3   6   3   21.82    0.85
   3   6   3   21.10    0.73
   3   6   3   20.03    0.87
  -4  -6  -3    0.49    0.10
  -4  -6  -3    0.62    0.09
  -4  -6  -3    0.54    0.09
   4   6   3    0.52    0.09
   4   6   3    0.69    0.10
   4   6   3    0.55    0.07
  -5  -6  -3   27.47    1.19
  -5  -6  -3   29.86    1.21
  -5  -6  -3   28.20    1.53
   5   6   3   31.09    1.22
   5   6   3   30.97    1.01
   5   6   3   29.15    1.17
  -6  -6  -3   18.61    0.80
  -6  -6  -3   18.10    0.78
   6   6   3   18.40    0.80
   6   6   3   18.63    0.65
  -7  -6  -3    1.10    0.14
   7   6   3    1.12    0.15
   7   6   3    0.92    0.09
   8   6   3   10.56    0.41
   8   6   3   11.16    0.54
   9   6   3    4.79    0.32
  12  -7  -3    6.10    0.35
  11  -7  -3    0.17    0.10
 -11   7   3    0.09    0.09
  10  -7  -3    9.20    0.47
 -10   7   3    9.86    0.46
   9  -7  -3    9.93    0.47
  -9   7   3    9.47    0.46
  -9   7   3    9.63    0.48
   8  -7  -3    0.36    0.09
  -8   7   3    0.39    0.10
   7  -7  -3   10.33    0.47
  -7   7   3    9.55    0.46
   6  -7  -3   40.34    1.31
  -6   7   3   40.96    1.61
  -6   7   3   40.96    1.61
  -6   7   3   37.73    2.03
   5  -7  -3   10.60    0.37
   5  -7  -3    9.87    0.45
  -5   7   3   10.45    0.47
  -5   7   3    9.83    0.58
  -5   7   3   10.74    0.46
   4  -7  -3   45.11    1.81
   4  -7  -3   45.33    1.53
  -4   7   3   46.96    1.85
  -4   7   3   46.53    2.33
  -4   7   3   49.29    1.77
  -4   7   3   44.60    1.84
   3  -7  -3   76.68    3.02
   3  -7  -3   75.84    2.57
  -3   7   3   81.36    3.09
  -3   7   3   87.23    2.97
  -3   7   3   74.63    3.07
  -3   7   3   75.47    3.90
   2  -7  -3    2.39    0.13
   2  -7  -3    2.34    0.16
  -2   7   3    2.65    0.16
  -2   7   3    2.68    0.17
  -2   7   3    2.19    0.17
  -2   7   3    2.42    0.19
  -2   7   3    2.62    0.16
   1  -7  -3   18.88    0.80
   1  -7  -3   19.38    0.68
  -1   7   3   21.38    0.82
  -1   7   3   19.85    0.79
  -1   7   3   19.37    0.82
  -1   7   3   18.51    0.82
  -1   7   3   20.44    1.03
   0  -7  -3   61.26    1.95
   0  -7  -3   58.94    2.27
   0   7   3   56.35    2.32
   0   7   3   60.76    1.95
   0   7   3   59.08    2.33
   0   7   3   57.58    2.94
   0   7   3   58.35    2.24
  -1  -7  -3   16.87    0.75
  -1  -7  -3   18.54    0.65
  -1  -7  -3   20.04    0.63
   1   7   3   17.57    0.77
   1   7   3   18.11    0.75
   1   7   3   18.85    0.97
   1   7   3   18.83    0.65
  -2  -7  -3   12.48    0.45
  -2  -7  -3   12.53    0.45
  -2  -7  -3   11.61    0.52
   2   7   3   11.34    0.51
   2   7   3   12.06    0.44
   2   7   3   11.63    0.53
  -3  -7  -3   40.82    1.62
   3   7   3   41.60    1.38
   3   7   3   38.90    1.59
   3   7   3   43.31    1.66
  -4  -7  -3    8.28    0.40
   4   7   3    8.62    0.34
   4   7   3    8.25    0.41
   4   7   3    8.54    0.40
  -5  -7  -3    3.98    0.24
  -5  -7  -3    3.39    0.23
   5   7   3    4.03    0.25
   5   7   3    3.77    0.19
   5   7   3    3.60    0.23
   6   7   3   10.78    0.53
   6   7   3   11.29    0.42
   7   7   3    5.13    0.24
   7   7   3    5.86    0.34
   8   7   3    0.11    0.10
   8   7   3    0.39    0.07
   9   7   3    6.72    0.40
  11  -8  -3    4.67    0.30
 -11   8   3    4.71    0.29
 -11   8   3    4.54    0.31
  10  -8  -3    0.18    0.10
 -10   8   3    0.24    0.10
 -10   8   3    0.23    0.10
   9  -8  -3   13.70    0.62
  -9   8   3   13.07    0.62
  -9   8   3   13.56    0.62
  -8   8   3   17.42    0.77
  -7   8   3    0.42    0.10
   6  -8  -3   24.46    0.82
  -6   8   3   24.29    1.02
  -6   8   3   24.95    1.03
   5  -8  -3   25.01    0.83
   5  -8  -3   22.97    1.00
  -5   8   3   25.76    1.03
  -5   8   3   24.62    1.02
   4  -8  -3    1.47    0.13
   4  -8  -3    1.90    0.11
  -4   8   3    1.55    0.17
  -4   8   3    1.79    0.16
  -4   8   3    1.77    0.14
  -4   8   3    1.78    0.15
   3  -8  -3   21.04    0.73
   3  -8  -3   20.06    0.87
  -3   8   3   21.55    1.12
  -3   8   3   21.15    0.89
  -3   8   3   21.83    0.89
  -3   8   3   22.58    0.86
   2  -8  -3   60.85    2.53
   2  -8  -3   67.59    2.16
  -2   8   3   56.48    3.26
  -2   8   3   72.73    2.60
  -2   8   3   64.76    2.57
  -2   8   3   69.81    2.49
   1  -8  -3    5.46    0.23
   1  -8  -3    4.93    0.27
  -1   8   3    5.29    0.26
  -1   8   3    5.44    0.27
  -1   8   3    5.64    0.27
  -1   8   3    5.10    0.28
  -1   8   3    4.97    0.33
   0  -8  -3   28.97    1.21
   0  -8  -3   32.55    1.03
   0   8   3   28.85    1.19
   0   8   3   30.87    1.24
  -1  -8  -3   40.83    1.32
  -1  -8  -3   37.54    1.53
   1   8   3   37.17    1.56
   1   8   3   39.56    1.52
   1   8   3   39.77    1.31
  -2  -8  -3    5.00    0.27
   2   8   3    4.88    0.27
   2   8   3    5.34    0.29
   2   8   3    4.90    0.23
  -3  -8  -3    9.29    0.45
   3   8   3    9.84    0.45
   3   8   3    9.80    0.38
   3   8   3   10.15    0.47
  -4  -8  -3   22.47    0.95
   4   8   3   22.97    0.94
   4   8   3   23.07    0.98
   4   8   3   23.07    0.80
  -5  -8  -3    3.23    0.23
   5   8   3    2.91    0.21
   5   8   3    3.05    0.24
   5   8   3    3.55    0.18
   6   8   3    3.15    0.18
   6   8   3    3.77    0.26
   6   8   3    2.99    0.22
   7   8   3    9.90    0.50
   7   8   3    9.64    0.38
   8   8   3    0.94    0.16
   8   8   3    0.96    0.09
 -11   9   3    4.96    0.33
 -10   9   3    5.05    0.33
 -10   9   3    5.24    0.32
  -9   9   3    0.18    0.10
  -9   9   3    0.20    0.10
  -8   9   3   12.01    0.56
  -8   9   3   11.06    0.54
  -7   9   3   19.41    0.85
   6  -9  -3    0.12    0.04
  -6   9   3    0.04    0.08
  -6   9   3    0.11    0.09
   5  -9  -3   35.22    1.17
   5  -9  -3   32.96    1.39
  -5   9   3   35.71    1.42
  -5   9   3   35.12    1.42
   4  -9  -3   33.34    1.41
   4  -9  -3   35.33    1.19
  -4   9   3   37.67    1.45
  -4   9   3   34.69    1.44
  -4   9   3   37.50    1.39
  -4   9   3   33.80    1.82
   3  -9  -3    0.08    0.04
   3  -9  -3    0.02    0.06
  -3   9   3   -0.07    0.07
  -3   9   3    0.17    0.08
  -3   9   3    0.33    0.08
  -3   9   3    0.06    0.06
   2  -9  -3   29.20    1.22
   2  -9  -3   30.39    1.03
  -2   9   3   31.51    1.20
  -2   9   3   29.99    1.25
  -2   9   3   30.80    1.25
   1  -9  -3   35.72    1.44
   1  -9  -3   36.91    1.22
  -1   9   3   36.64    1.42
  -1   9   3   35.63    1.47
   0  -9  -3    2.47    0.15
   0  -9  -3    2.36    0.17
   0   9   3    2.24    0.18
   0   9   3    2.36    0.19
  -1  -9  -3   19.66    0.82
  -1  -9  -3   20.29    0.70
   1   9   3   19.83    0.84
   1   9   3   19.21    0.81
   1   9   3   19.18    0.70
  -2  -9  -3   31.26    1.29
   2   9   3   32.26    1.28
   2   9   3   33.64    1.10
   2   9   3   31.44    1.32
  -3  -9  -3    1.96    0.17
   3   9   3    2.12    0.15
   3   9   3    2.04    0.19
   3   9   3    2.08    0.18
  -4  -9  -3    9.53    0.46
   4   9   3    9.61    0.38
   4   9   3    9.73    0.48
   4   9   3    9.29    0.45
   5   9   3   15.31    0.71
   5   9   3   17.12    0.60
   5   9   3   17.18    0.76
   6   9   3    0.97    0.16
   6   9   3    1.07    0.13
   6   9   3    1.00    0.10
   7   9   3    4.64    0.31
   7   9   3    4.12    0.21
   8   9   3    5.62    0.36
   8   9   3    5.57    0.24
 -10  10   3    5.00    0.34
 -10  10   3    5.59    0.33
  -9  10   3    4.11    0.27
  -9  10   3    3.46    0.27
  -8  10   3    0.42    0.12
  -8  10   3    0.42    0.12
  -7  10   3   15.04    0.69
   6 -10  -3   13.84    0.48
  -6  10   3   13.29    0.63
   5 -10  -3    0.02    0.04
   5 -10  -3    0.09    0.07
  -5  10   3    0.03    0.09
  -5  10   3    0.09    0.09
   4 -10  -3   21.30    0.91
   4 -10  -3   21.20    0.75
  -4  10   3   21.86    0.93
  -4  10   3   22.12    0.88
  -4  10   3   21.29    0.92
   3 -10  -3   32.74    1.10
   3 -10  -3   30.10    1.30
  -3  10   3   32.38    1.33
  -3  10   3   32.86    1.28
  -3  10   3   33.90    1.34
   2 -10  -3    0.61    0.10
   2 -10  -3    0.84    0.08
  -2  10   3    0.74    0.12
  -2  10   3    0.65    0.11
   1 -10  -3   24.98    0.84
   1 -10  -3   24.49    1.00
  -1  10   3   24.19    0.98
  -1  10   3   23.27    1.02
   0 -10  -3   32.34    1.31
   0 -10  -3   33.56    1.12
   0  10   3   32.37    1.30
   0  10   3   32.07    1.34
  -1 -10  -3    1.40    0.14
  -1 -10  -3    1.33    0.13
   1  10   3    1.46    0.13
   1  10   3    1.33    0.15
   1  10   3    1.28    0.14
  -2 -10  -3   14.84    0.64
   2  10   3   15.29    0.55
   2  10   3   14.54    0.67
   2  10   3   13.94    0.64
   3  10   3   18.95    0.82
   3  10   3   19.74    0.70
   3  10   3   19.69    0.86
   4  10   3    1.23    0.11
   4  10   3    1.35    0.15
   4  10   3    1.27    0.16
   5  10   3    5.19    0.34
   5  10   3    5.46    0.31
   5  10   3    5.54    0.25
   6  10   3   10.89    0.53
   6  10   3   10.52    0.40
   6  10   3    9.31    0.48
   7  10   3    1.45    0.13
   7  10   3    1.27    0.18
  -9  11   3   13.01    0.61
  -9  11   3   12.16    0.61
  -8  11   3    3.72    0.26
  -8  11   3    3.31    0.27
  -7  11   3    2.77    0.24
   6 -11  -3   13.56    0.48
  -6  11   3   13.22    0.63
   5 -11  -3   12.02    0.45
  -5  11   3   12.80    0.59
   4 -11  -3    0.13    0.05
  -4  11   3    0.17    0.08
  -4  11   3    0.22    0.10
   3 -11  -3   19.09    0.83
   3 -11  -3   19.26    0.69
  -3  11   3   19.36    0.81
  -3  11   3   19.98    0.85
   2 -11  -3   16.93    0.59
   2 -11  -3   15.77    0.71
  -2  11   3   16.00    0.70
  -2  11   3   16.56    0.73
   1 -11  -3    0.10    0.07
   1 -11  -3    0.32    0.06
  -1  11   3    0.19    0.10
  -1  11   3    0.23    0.09
   0 -11  -3   11.57    0.53
   0 -11  -3   11.76    0.45
   0  11   3   11.62    0.55
   0  11   3   11.82    0.54
  -1 -11  -3   16.81    0.59
   1  11   3   16.57    0.59
   1  11   3   15.22    0.71
   1  11   3   14.86    0.69
   2  11   3    1.31    0.12
   2  11   3    0.98    0.13
   2  11   3    1.12    0.15
   3  11   3    7.21    0.39
   3  11   3    6.36    0.36
   3  11   3    6.81    0.30
   4  11   3   12.45    0.47
   4  11   3   12.12    0.59
   4  11   3   11.85    0.56
   5  11   3    0.52    0.09
   5  11   3    0.22    0.09
   5  11   3    0.45    0.13
   6  11   3    3.30    0.24
   6  11   3    3.64    0.19
   6  11   3    3.60    0.28
  -8  12   3   13.19    0.64
  -7  12   3   10.27    0.53
   6 -12  -3    3.40    0.17
  -6  12   3    2.83    0.26
   5 -12  -3   23.14    0.80
  -5  12   3   23.11    1.01
   4 -12  -3    5.96    0.26
  -4  12   3    5.71    0.32
  -4  12   3    5.75    0.35
   3 -12  -3    0.38    0.07
  -3  12   3    0.58    0.11
  -3  12   3    0.24    0.11
   2 -12  -3   12.94    0.49
  -2  12   3   12.81    0.58
  -2  12   3   13.09    0.61
   1 -12  -3   13.27    0.49
  -1  12   3   12.95    0.61
  -1  12   3   12.72    0.59
   0 -12  -3    0.21    0.06
   0  12   3    0.28    0.10
   0  12   3    0.13    0.10
  -1 -12  -3   10.51    0.40
   1  12   3    9.42    0.47
   1  12   3    9.25    0.49
   1  12   3    9.73    0.40
   2  12   3    6.04    0.28
   2  12   3    5.67    0.33
   2  12   3    5.63    0.35
   3  12   3   -0.05    0.08
   3  12   3    0.00    0.10
   3  12   3    0.04    0.07
   4  12   3    2.76    0.24
   4  12   3    2.80    0.22
   4  12   3    2.94    0.18
   5  12   3    3.94    0.21
   5  12   3    3.97    0.26
   5  12   3    3.62    0.28
  -7  13   3    8.39    0.46
   6 -13  -3    6.48    0.27
  -6  13   3    6.47    0.39
   5 -13  -3    0.03    0.05
  -5  13   3   -0.22    0.09
   4 -13  -3   18.24    0.66
  -4  13   3   18.69    0.78
  -4  13   3   17.96    0.83
   3 -13  -3   12.17    0.47
  -3  13   3   12.54    0.60
   2 -13  -3    3.20    0.18
  -2  13   3    2.89    0.25
  -2  13   3    3.13    0.24
   1 -13  -3    9.00    0.38
  -1  13   3    9.25    0.48
  -1  13   3    9.39    0.46
   0 -13  -3    4.92    0.24
   0  13   3    4.39    0.29
   0  13   3    4.65    0.31
  -1 -13  -3    0.06    0.06
   1  13   3    0.07    0.07
   1  13   3    0.03    0.10
   1  13   3   -0.05    0.08
   2  13   3    7.58    0.41
   2  13   3    8.00    0.44
   2  13   3    8.28    0.35
   3  13   3    4.76    0.32
   3  13   3    4.82    0.24
   3  13   3    4.71    0.30
   5 -14  -3    1.93    0.14
  -5  14   3    2.05    0.23
   4 -14  -3    0.59    0.08
  -4  14   3    0.55    0.14
  -4  14   3    0.49    0.12
   3 -14  -3    3.52    0.19
  -3  14   3    3.22    0.27
  -3  14   3    3.40    0.24
   2 -14  -3    7.75    0.32
  -2  14   3    6.93    0.39
  -2  14   3    7.83    0.42
   1 -14  -3    0.12    0.06
  -1  14   3   -0.02    0.10
  -1  14   3    0.04    0.09
   0 -14  -3   14.13    0.53
   0  14   3   13.23    0.62
   0  14   3   13.56    0.65
  -1 -14  -3    2.46    0.18
   1  14   3    2.36    0.18
   1  14   3    2.42    0.21
   1  14   3    2.27    0.23
   1  16  -4    3.04    0.25
   1  16  -4    3.49    0.20
   0  16  -4   -0.06    0.07
   0  16  -4   -0.11    0.10
  -1  16  -4    2.48    0.18
  -1  16  -4    2.71    0.23
   4  15  -4    3.00    0.24
   4  15  -4    3.34    0.17
   3  15  -4    8.59    0.44
   3  15  -4    8.67    0.35
   2  15  -4    0.97    0.15
   2  15  -4    1.02    0.11
   1  15  -4   11.83    0.46
   1  15  -4   11.34    0.55
   0  15  -4    2.31    0.17
   0  15  -4    2.28    0.22
  -1  15  -4    0.28    0.11
  -1  15  -4    0.52    0.10
  -2  15  -4    5.78    0.29
  -3  15  -4    2.50    0.20
   3 -15   4    2.78    0.18
   4 -15   4    0.02    0.06
   6  14  -4    7.27    0.40
   5  14  -4    3.94    0.28
   4  14  -4    6.08    0.26
   4  14  -4    6.01    0.35
   3  14  -4    6.06    0.37
   3  14  -4    7.11    0.29
   2  14  -4    0.23    0.11
   2  14  -4    0.55    0.09
   1  14  -4    0.43    0.09
   1  14  -4    0.38    0.11
   0  14  -4   13.06    0.50
   0  14  -4   12.73    0.59
  -1  14  -4   10.73    0.44
  -1  14  -4   10.97    0.51
  -2  14  -4    3.40    0.24
  -2  14  -4    2.98    0.21
   2 -14   4    3.71    0.20
  -3  14  -4    9.48    0.40
   3 -14   4    9.54    0.39
   4 -14   4    3.21    0.19
   5 -14   4    0.71    0.09
   6 -14   4    5.01    0.24
   7  13  -4    0.77    0.14
  -7 -13   4    0.81    0.13
   6  13  -4    3.73    0.27
  -6 -13   4    4.02    0.26
   5  13  -4    7.93    0.44
   5  13  -4    8.56    0.33
  -5 -13   4    9.37    0.44
   4  13  -4    2.36    0.22
   4  13  -4    2.63    0.15
   3  13  -4    0.88    0.14
   3  13  -4    1.33    0.12
   2  13  -4   25.77    1.07
   2  13  -4   25.98    0.90
   1  13  -4    1.78    0.15
   1  13  -4    1.40    0.17
  -1 -13   4    1.94    0.16
   0  13  -4   11.22    0.45
   0  13  -4   11.21    0.52
   0 -13   4   11.68    0.52
  -1  13  -4    1.54    0.16
  -1  13  -4    1.55    0.15
   1 -13   4    1.81    0.15
  -2  13  -4    5.64    0.31
  -2  13  -4    5.48    0.27
   2 -13   4    5.32    0.26
  -3  13  -4    0.18    0.08
   3 -13   4    0.11    0.06
   4 -13   4   16.63    0.62
   5 -13   4    3.13    0.19
   6 -13   4    1.48    0.14
   7 -13   4    6.56    0.29
   8  12  -4    1.95    0.20
   8  12  -4    1.62    0.19
  -8 -12   4    1.96    0.19
   7  12  -4   12.53    0.59
  -7 -12   4   12.87    0.60
   6  12  -4    1.00    0.15
  -6 -12   4    0.98    0.13
   5  12  -4    6.05    0.25
   5  12  -4    6.10    0.35
  -5 -12   4    6.32    0.33
   4  12  -4   14.42    0.69
   4  12  -4   16.17    0.56
  -4 -12   4   16.68    0.70
   3  12  -4    1.81    0.19
   3  12  -4    2.14    0.15
  -3 -12   4    2.16    0.18
  -3 -12   4    2.39    0.17
   2  12  -4    7.59    0.32
   2  12  -4    7.51    0.39
  -2 -12   4    8.33    0.38
   1  12  -4   13.17    0.50
   1  12  -4   13.15    0.59
  -1 -12   4   13.83    0.59
   0  12  -4    8.78    0.44
   0  12  -4    9.12    0.37
   0 -12   4    9.66    0.43
  -1  12  -4   12.51    0.55
  -1  12  -4   12.37    0.48
   1 -12   4   12.29    0.54
  -2  12  -4   36.54    1.31
  -2  12  -4   39.78    1.50
   2 -12   4   38.66    1.30
   2 -12   4   37.53    1.51
  -3  12  -4    0.83    0.11
   3 -12   4    0.80    0.11
   3 -12   4    0.93    0.10
   4 -12   4    4.94    0.24
   5 -12   4    5.82    0.27
   6 -12   4    5.88    0.27
   7 -12   4    2.84    0.17
   8 -12   4    7.59    0.32
   9  11  -4    5.97    0.36
  -9 -11   4    5.61    0.34
   8  11  -4    0.31    0.12
   8  11  -4    0.21    0.11
  -8 -11   4    0.22    0.09
   7  11  -4    3.05    0.26
   7  11  -4    3.14    0.25
  -7 -11   4    3.73    0.24
   6  11  -4    6.63    0.36
   6  11  -4    5.82    0.34
  -6 -11   4    6.20    0.34
   5  11  -4    4.25    0.27
   5  11  -4    4.21    0.18
   5  11  -4    3.75    0.26
  -5 -11   4    4.13    0.25
  -5 -11   4    3.94    0.25
   4  11  -4   10.27    0.49
   4  11  -4   10.75    0.39
   4  11  -4   10.25    0.49
  -4 -11   4   10.50    0.49
  -4 -11   4   10.73    0.48
   3  11  -4   23.08    0.79
   3  11  -4   21.06    0.93
  -3 -11   4   22.55    0.95
  -3 -11   4   23.93    0.94
   2  11  -4    1.03    0.10
   2  11  -4    1.00    0.13
  -2 -11   4    1.28    0.13
  -2 -11   4    1.28    0.15
  -2 -11   4    1.40    0.14
   1  11  -4   12.75    0.56
   1  11  -4   12.35    0.47
  -1 -11   4   12.53    0.55
  -1 -11   4   12.82    0.56
   0  11  -4   29.66    1.03
   0  11  -4   30.02    1.19
   0 -11   4   30.32    1.20
  -1  11  -4    1.05    0.11
  -1  11  -4    1.05    0.12
   1 -11   4    1.39    0.12
  -2  11  -4    8.44    0.39
  -2  11  -4    8.13    0.35
   2 -11   4    8.56    0.34
   2 -11   4    8.29    0.39
   3 -11   4   34.79    1.40
   3 -11   4   35.55    1.20
   4 -11   4    9.23    0.37
   5 -11   4   25.91    0.90
   6 -11   4   19.12    0.69
   7 -11   4    0.24    0.07
   8 -11   4    1.45    0.13
  10  10  -4    0.42    0.13
   9  10  -4    4.95    0.32
  -9 -10   4    4.86    0.30
   8  10  -4    6.98    0.39
   8  10  -4    6.92    0.38
  -8 -10   4    7.39    0.38
   7  10  -4   -0.10    0.09
   7  10  -4    0.11    0.10
  -7 -10   4    0.02    0.07
   6  10  -4   22.03    0.94
   6  10  -4   21.81    0.92
  -6 -10   4   22.56    0.93
  -6 -10   4   21.56    0.93
   5  10  -4   10.67    0.51
   5  10  -4   11.36    0.52
   5  10  -4   11.25    0.40
  -5 -10   4   11.35    0.51
  -5 -10   4   10.76    0.51
   4  10  -4    1.29    0.11
   4  10  -4    1.39    0.15
  -4 -10   4    1.40    0.14
  -4 -10   4    1.44    0.14
   3  10  -4   10.01    0.45
   3  10  -4    9.98    0.46
   3  10  -4    9.63    0.37
  -3 -10   4    9.80    0.44
  -3 -10   4    9.43    0.56
  -3 -10   4    9.84    0.45
   2  10  -4   28.25    0.98
   2  10  -4   29.23    1.17
   2  10  -4   29.58    1.15
  -2 -10   4   29.13    1.15
  -2 -10   4   26.63    1.48
  -2 -10   4   30.05    1.18
   1  10  -4    1.11    0.10
   1  10  -4    1.11    0.12
  -1 -10   4    1.26    0.13
  -1 -10   4    1.33    0.14
  -1 -10   4    1.31    0.12
   0  10  -4   30.68    1.03
   0  10  -4   32.31    1.19
   0 -10   4   29.26    1.19
   0 -10   4   27.81    1.54
  -1  10  -4   29.26    1.04
  -1  10  -4   31.97    1.20
   1 -10   4   29.75    1.20
  -2  10  -4    2.86    0.17
  -2  10  -4    2.41    0.18
   2 -10   4    2.89    0.16
   2 -10   4    2.43    0.16
  -3  10  -4   17.73    0.64
   3 -10   4   17.76    0.74
   3 -10   4   17.95    0.63
   4 -10   4   27.35    0.94
   5 -10   4    6.42    0.27
   6 -10   4    3.61    0.19
   7 -10   4   33.16    1.13
   8 -10   4    4.51    0.22
  10   9  -4    4.02    0.30
 -10  -9   4    4.40    0.27
   9   9  -4    1.04    0.15
  -9  -9   4    0.94    0.12
   8   9  -4   15.97    0.73
   8   9  -4   16.49    0.70
   7   9  -4   10.19    0.48
   7   9  -4   10.74    0.50
  -7  -9   4   10.13    0.47
  -7  -9   4    9.78    0.48
   6   9  -4    0.52    0.11
   6   9  -4    0.69    0.11
  -6  -9   4    0.62    0.10
  -6  -9   4    0.71    0.10
   5   9  -4   27.45    0.87
   5   9  -4   26.06    1.07
   5   9  -4   25.70    1.05
  -5  -9   4   24.50    1.05
  -5  -9   4   25.88    1.07
   4   9  -4   36.94    1.50
   4   9  -4   38.94    1.25
   4   9  -4   36.93    1.47
  -4  -9   4   37.51    1.51
  -4  -9   4   37.13    1.48
  -4  -9   4   37.66    1.91
   3   9  -4    1.12    0.11
   3   9  -4    1.28    0.11
   3   9  -4    1.62    0.15
  -3  -9   4    1.00    0.13
  -3  -9   4    0.88    0.10
  -3  -9   4    1.08    0.12
   2   9  -4   64.35    2.42
   2   9  -4   65.03    2.09
  -2  -9   4   65.51    2.51
  -2  -9   4   57.43    3.16
  -2  -9   4   64.65    2.44
   1   9  -4   24.56    0.84
   1   9  -4   26.05    0.98
  -1  -9   4   24.69    0.98
  -1  -9   4   23.36    1.27
  -1  -9   4   24.29    1.01
   0   9  -4   -0.07    0.05
   0   9  -4    0.08    0.05
   0  -9   4    0.07    0.05
   0  -9   4    0.02    0.05
   0  -9   4    0.03    0.05
  -1   9  -4   32.22    1.26
  -1   9  -4   32.37    1.10
   1  -9   4   30.94    1.65
   1  -9   4   33.77    1.27
  -2   9  -4   57.70    2.11
  -2   9  -4   55.85    1.84
   2  -9   4   53.94    1.84
   2  -9   4   54.22    2.14
  -3   9  -4    0.22    0.06
   3  -9   4    0.30    0.06
   3  -9   4    0.25    0.05
   4  -9   4   19.94    0.70
   5  -9   4   25.14    0.87
   6  -9   4    3.74    0.19
   7  -9   4    3.98    0.20
   8  -9   4    9.22    0.36
   9  -9   4    6.17    0.26
  11   8  -4    0.60    0.14
  10   8  -4   10.53    0.53
 -10  -8   4   10.43    0.50
   9   8  -4    8.61    0.45
  -9  -8   4    8.73    0.42
   8   8  -4    1.05    0.12
   8   8  -4    0.86    0.13
  -8  -8   4    0.93    0.11
  -8  -8   4    0.94    0.13
   7   8  -4   28.58    1.22
   7   8  -4   30.23    1.18
  -7  -8   4   30.40    1.22
  -7  -8   4   29.39    1.20
   6   8  -4   20.63    0.88
   6   8  -4   21.68    0.86
  -6  -8   4   20.41    0.87
  -6  -8   4   21.51    0.87
   5   8  -4    1.40    0.14
   5   8  -4    0.94    0.11
  -5  -8   4    1.16    0.13
  -5  -8   4    1.05    0.12
  -5  -8   4    1.27    0.13
   4   8  -4   51.97    1.95
   4   8  -4   51.85    1.67
   4   8  -4   51.61    2.00
  -4  -8   4   49.80    2.02
  -4  -8   4   48.04    2.54
  -4  -8   4   51.35    1.97
   3   8  -4   40.08    1.62
   3   8  -4   42.37    1.59
   3   8  -4   42.60    1.36
  -3  -8   4   39.35    1.64
  -3  -8   4   39.74    2.06
  -3  -8   4   41.92    1.60
   2   8  -4    0.16    0.06
   2   8  -4    0.18    0.04
  -2  -8   4    0.18    0.06
  -2  -8   4    0.20    0.05
  -2  -8   4    0.36    0.06
   1   8  -4   63.03    2.00
   1   8  -4   60.78    2.31
  -1  -8   4   57.34    3.03
  -1  -8   4   61.85    2.33
  -1  -8   4   60.97    2.40
   0   8  -4   86.47    2.84
   0   8  -4   87.99    3.26
   0  -8   4   84.17    4.29
   0  -8   4   85.43    3.30
   0  -8   4   88.98    3.40
  -1   8  -4    0.83    0.08
  -1   8  -4    0.90    0.08
  -1   8  -4    0.92    0.09
   1  -8   4    1.07    0.09
   1  -8   4    0.98    0.11
   1  -8   4    0.94    0.09
   1  -8   4    0.87    0.11
  -2   8  -4   59.69    2.21
  -2   8  -4   56.43    2.33
  -2   8  -4   59.03    1.93
   2  -8   4   58.06    1.93
   2  -8   4   58.99    2.92
   2  -8   4   58.16    2.24
  -3   8  -4   41.73    1.39
  -3   8  -4   41.21    1.68
   3  -8   4   41.38    1.38
   4  -8   4    2.13    0.13
   5  -8   4   28.81    0.97
   5  -8   4   28.02    1.14
   6  -8   4   26.14    1.04
   6  -8   4   24.97    0.88
   7  -8   4    0.48    0.07
   8  -8   4    3.90    0.20
   8  -8   4    4.51    0.25
   9  -8   4    7.06    0.29
  11   7  -4    2.62    0.24
 -11  -7   4    2.63    0.20
  10   7  -4    0.82    0.13
 -10  -7   4    0.47    0.10
   9   7  -4   16.90    0.75
  -9  -7   4   16.65    0.72
   8   7  -4    9.50    0.45
  -8  -7   4    9.33    0.44
  -8  -7   4    8.94    0.42
   7   7  -4    0.77    0.10
   7   7  -4    1.05    0.12
  -7  -7   4    0.95    0.11
  -7  -7   4    0.81    0.09
   6   7  -4   37.58    1.44
   6   7  -4   36.93    1.40
  -6  -7   4   34.29    1.43
  -6  -7   4   36.29    1.42
  -6  -7   4   34.12    1.81
   5   7  -4   34.92    1.44
   5   7  -4   36.69    1.41
  -5  -7   4   34.73    1.82
  -5  -7   4   37.41    1.45
  -5  -7   4   37.36    1.42
   4   7  -4    4.45    0.17
   4   7  -4    4.90    0.24
   4   7  -4    4.40    0.23
  -4  -7   4    4.29    0.22
  -4  -7   4    4.53    0.23
  -4  -7   4    4.08    0.27
   3   7  -4   63.60    1.94
   3   7  -4   60.17    2.25
   3   7  -4   57.01    2.30
  -3  -7   4   60.08    2.27
  -3  -7   4   57.22    2.94
  -3  -7   4   56.72    2.33
   2   7  -4   62.81    2.26
   2   7  -4   57.11    1.95
  -2  -7   4   56.48    2.96
  -2  -7   4   60.46    2.96
  -2  -7   4   61.61    2.34
  -2  -7   4   58.39    2.28
   1   7  -4    0.98    0.11
   1   7  -4    0.69    0.06
   1   7  -4    0.83    0.10
  -1  -7   4    0.86    0.10
  -1  -7   4    1.18    0.12
  -1  -7   4    0.82    0.10
  -1  -7   4    0.95    0.09
   0   7  -4   87.19    3.63
   0   7  -4   99.58    3.47
   0   7  -4   88.72    3.02
   0  -7   4   97.21    3.62
   0  -7   4   90.38    4.57
   0  -7   4   91.59    3.51
  -1   7  -4   48.08    1.95
  -1   7  -4   47.89    1.62
  -1   7  -4   51.44    1.86
   1  -7   4   46.57    2.45
   1  -7   4   49.85    1.94
   1  -7   4   50.59    1.88
  -2   7  -4    1.02    0.10
  -2   7  -4    1.05    0.10
  -2   7  -4    1.25    0.10
   2  -7   4    0.76    0.07
   2  -7   4    0.97    0.11
   2  -7   4    0.79    0.08
  -3   7  -4   48.08    1.58
  -3   7  -4   46.04    1.91
   3  -7   4   48.59    1.58
  -4   7  -4   59.39    2.95
  -4   7  -4   57.77    2.34
   4  -7   4   58.58    2.29
   4  -7   4   59.64    1.94
  -5   7  -4    0.14    0.07
  -5   7  -4    0.19    0.09
   5  -7   4    0.13    0.05
  -6   7  -4   16.05    0.95
  -6   7  -4   18.48    0.77
   6  -7   4   17.51    0.74
   6  -7   4   18.72    0.63
  -7   7  -4   22.79    0.98
   7  -7   4   23.25    0.80
  -8   7  -4    0.63    0.12
   8  -7   4    0.60    0.10
   8  -7   4    0.47    0.07
   9  -7   4    6.98    0.36
   9  -7   4    6.83    0.28
  12   6  -4    2.22    0.22
  11   6  -4    9.94    0.51
 -11  -6   4   10.12    0.47
  10   6  -4    1.12    0.15
 -10  -6   4    1.51    0.14
   9   6  -4    3.38    0.24
  -9  -6   4    3.61    0.21
  -9  -6   4    3.64    0.23
   8   6  -4   18.15    0.76
  -8  -6   4   17.18    0.75
  -8  -6   4   17.68    0.74
   7   6  -4   14.94    0.61
   7   6  -4   14.77    0.64
  -7  -6   4   14.77    0.62
  -7  -6   4   14.70    0.63
   6   6  -4    9.75    0.43
   6   6  -4    9.71    0.42
  -6  -6   4    9.75    0.43
  -6  -6   4    9.22    0.42
  -6  -6   4    9.69    0.52
   5   6  -4   51.40    1.93
   5   6  -4   49.29    1.88
  -5  -6   4   46.79    2.44
  -5  -6   4   50.05    1.90
  -5  -6   4   48.28    1.94
   4   6  -4   27.25    1.09
   4   6  -4   30.25    1.12
  -4  -6   4   28.78    1.13
  -4  -6   4   26.14    1.42
  -4  -6   4   28.44    1.11
   3   6  -4    3.56    0.19
   3   6  -4    3.50    0.14
  -3  -6   4    3.19    0.17
  -3  -6   4    3.68    0.22
  -3  -6   4    3.23    0.17
  -3  -6   4    3.07    0.21
   2   6  -4  119.16    3.92
   2   6  -4  125.39    4.52
  -2  -6   4  126.48    4.58
  -2  -6   4  134.84    5.95
  -2  -6   4  108.69    5.94
  -2  -6   4  110.13    4.71
   1   6  -4   42.12    1.43
   1   6  -4   41.44    2.15
   1   6  -4   44.10    1.66
   1   6  -4   41.75    1.71
  -1  -6   4   41.95    1.72
  -1  -6   4   45.05    1.67
  -1  -6   4   44.37    2.17
  -1  -6   4   47.70    2.17
   0   6  -4    5.03    0.22
   0   6  -4    4.35    0.18
   0   6  -4    4.55    0.27
   0   6  -4    4.45    0.20
   0  -6   4    4.87    0.22
   0  -6   4    4.27    0.27
   0  -6   4    4.85    0.28
   0  -6   4    4.53    0.21
  -1   6  -4   82.30    2.99
  -1   6  -4   77.25    3.15
  -1   6  -4   75.89    2.61
   1  -6   4   82.22    3.03
   1  -6   4   82.71    3.95
   1  -6   4   78.32    3.12
  -2   6  -4   79.15    3.16
  -2   6  -4   80.40    2.61
  -2   6  -4   82.05    2.99
   2  -6   4   81.38    2.61
   2  -6   4   80.22    3.95
   2  -6   4   81.47    3.03
   2  -6   4   74.11    3.13
  -3   6  -4    6.42    0.31
  -3   6  -4    6.82    0.31
  -3   6  -4    6.02    0.38
  -3   6  -4    6.08    0.25
   3  -6   4    6.87    0.37
   3  -6   4    6.45    0.28
   3  -6   4    6.17    0.25
  -4   6  -4   41.85    2.17
  -4   6  -4   43.75    1.72
   4  -6   4   44.26    1.69
   4  -6   4   42.55    1.43
  -5   6  -4   21.45    0.89
  -5   6  -4   19.83    1.12
   5  -6   4   23.19    0.74
  -6   6  -4    1.77    0.16
  -6   6  -4    1.64    0.18
   6  -6   4    2.02    0.14
   6  -6   4    1.64    0.12
  -7   6  -4   16.15    0.72
   7  -6   4   17.59    0.70
   7  -6   4   15.85    0.58
  -8   6  -4   15.20    0.68
   8  -6   4   14.18    0.54
   8  -6   4   15.83    0.65
  -9   6  -4    0.20    0.11
   9  -6   4    0.09    0.08
   9  -6   4    0.14    0.06
  10  -6   4    4.49    0.27
  12   5  -4    0.74    0.14
 -12  -5   4    0.69    0.11
  11   5  -4    4.89    0.31
 -11  -5   4    5.05    0.28
  10   5  -4   14.42    0.64
 -10  -5   4   13.68    0.61
   9   5  -4    4.28    0.27
  -9  -5   4    4.27    0.23
  -9  -5   4    4.48    0.26
   8   5  -4   16.29    0.71
  -8  -5   4   16.48    0.69
  -8  -5   4   16.45    0.68
   7   5  -4   36.41    1.49
   7   5  -4   38.00    1.43
  -7  -5   4   37.31    1.48
  -7  -5   4   37.17    1.46
  -7  -5   4   36.95    1.86
   6   5  -4    4.34    0.24
   6   5  -4    4.67    0.23
  -6  -5   4    4.99    0.24
  -6  -5   4    4.50    0.22
  -6  -5   4    5.32    0.28
   5   5  -4   11.67    0.48
   5   5  -4   11.25    0.49
  -5  -5   4   11.92    0.61
  -5  -5   4   11.63    0.48
  -5  -5   4   12.07    0.49
   4   5  -4  107.47    4.20
   4   5  -4  110.69    4.08
  -4  -5   4  104.06    5.35
  -4  -5   4  109.91    4.24
  -4  -5   4  108.40    4.13
  -4  -5   4  112.37    5.35
   3   5  -4   26.92    1.04
   3   5  -4   26.95    0.88
  -3  -5   4   26.93    1.07
  -3  -5   4   27.72    1.35
  -3  -5   4   25.96    1.35
  -3  -5   4   27.49    1.05
   2   5  -4   31.78    1.04
   2   5  -4   31.99    1.21
  -2  -5   4   32.80    1.58
  -2  -5   4   32.74    1.23
  -2  -5   4   29.95    1.26
  -2  -5   4   31.23    1.59
   1   5  -4  101.96    3.73
   1   5  -4  105.77    4.89
   1   5  -4   98.98    3.91
   1   5  -4   97.79    3.24
  -1  -5   4   88.96    4.90
  -1  -5   4   99.53    3.88
  -1  -5   4  104.35    4.90
  -1  -5   4   99.06    3.77
   0   5  -4   78.44    3.03
   0   5  -4   82.16    3.19
   0   5  -4   80.92    2.64
   0   5  -4   80.80    3.99
   0  -5   4   84.43    3.07
   0  -5   4   76.14    3.99
   0  -5   4   85.81    3.99
   0  -5   4   78.94    3.16
  -1   5  -4   18.16    0.69
  -1   5  -4   17.58    0.73
  -1   5  -4   19.77    0.92
  -1   5  -4   17.63    0.61
   1  -5   4   17.04    0.92
   1  -5   4   17.87    0.70
   1  -5   4   17.67    0.92
   1  -5   4   17.69    0.73
  -2   5  -4   93.58    4.68
  -2   5  -4   91.65    3.09
  -2   5  -4  100.38    3.70
  -2   5  -4   95.03    3.74
   2  -5   4   91.24    4.67
   2  -5   4   98.61    3.70
   2  -5   4   92.79    3.09
  -3   5  -4   40.67    1.40
  -3   5  -4   41.89    1.68
  -3   5  -4   41.58    1.70
  -3   5  -4   41.72    2.12
   3  -5   4   42.88    1.40
   3  -5   4   40.80    2.11
   3  -5   4   46.21    1.65
  -4   5  -4    0.21    0.06
  -4   5  -4    0.39    0.08
   4  -5   4    0.14    0.04
   4  -5   4    0.31    0.05
  -5   5  -4   69.29    3.71
  -5   5  -4   75.67    2.94
   5  -5   4   76.09    2.89
   5  -5   4   77.01    2.45
  -6   5  -4   21.43    1.20
  -6   5  -4   24.57    0.96
   6  -5   4   23.34    0.79
   6  -5   4   23.09    0.94
  -7   5  -4    3.38    0.27
  -7   5  -4    3.62    0.23
   7  -5   4    3.66    0.18
   7  -5   4    3.70    0.22
  -8   5  -4    6.26    0.34
   8  -5   4    6.15    0.32
   8  -5   4    6.27    0.26
  -9   5  -4    6.55    0.37
   9  -5   4    7.25    0.36
   9  -5   4    7.01    0.28
 -10   5  -4   -0.04    0.10
  10  -5   4    0.08    0.09
  11  -5   4    4.20    0.27
  12   4  -4    4.90    0.32
 -12  -4   4    5.27    0.29
  11   4  -4    1.26    0.15
 -11  -4   4    0.86    0.11
  10   4  -4    8.34    0.43
 -10  -4   4    8.72    0.39
   9   4  -4   26.37    1.13
  -9  -4   4   28.11    1.10
   8   4  -4    2.52    0.18
  -8  -4   4    1.98    0.13
   7   4  -4   18.98    0.80
  -7  -4   4   19.48    0.78
  -7  -4   4   19.85    0.98
   6   4  -4   93.62    3.66
   6   4  -4   96.54    3.54
  -6  -4   4   92.08    4.64
  -6  -4   4   98.52    3.72
  -6  -4   4   91.33    3.68
   5   4  -4    9.75    0.40
   5   4  -4    9.29    0.39
  -5  -4   4    9.53    0.39
  -5  -4   4    9.30    0.48
  -5  -4   4    9.24    0.39
  -5  -4   4    9.77    0.49
  -5  -4   4    9.15    0.40
   4   4  -4   78.18    3.16
   4   4  -4   81.78    3.07
  -4  -4   4   81.35    3.18
  -4  -4   4   83.58    3.11
  -4  -4   4   84.02    4.02
  -4  -4   4   81.85    4.02
   3   4  -4   98.35    3.54
   3   4  -4   96.25    3.08
  -3  -4   4   92.84    3.58
  -3  -4   4   93.33    4.65
  -3  -4   4   92.34    3.68
  -3  -4   4   94.71    3.71
   2   4  -4   52.47    1.99
   2   4  -4   52.39    1.72
  -2  -4   4   55.77    2.08
  -2  -4   4   53.71    2.02
  -2  -4   4   50.02    2.61
  -2  -4   4   53.42    2.07
   1   4  -4   33.30    1.29
   1   4  -4   33.63    1.11
   1   4  -4   34.46    1.35
  -1  -4   4   34.08    1.30
  -1  -4   4   33.08    1.34
  -1  -4   4   35.49    1.69
  -1  -4   4   34.01    1.34
   0   4  -4  199.98    7.63
   0   4  -4  219.51   10.09
   0   4  -4  208.55    6.65
   0   4  -4  203.76   10.06
   0   4  -4  216.14    8.05
   0  -4   4  192.42   10.06
   0  -4   4  198.53    7.97
   0  -4   4  213.11    8.08
   0  -4   4  195.05    7.74
  -1   4  -4   32.95    1.60
  -1   4  -4   31.33    1.29
  -1   4  -4   33.01    1.21
  -1   4  -4   32.97    1.06
   1  -4   4   33.22    1.27
   1  -4   4   28.52    1.28
   1  -4   4   34.06    1.23
   1  -4   4   30.87    1.60
  -2   4  -4    7.24    0.27
  -2   4  -4    7.37    0.41
  -2   4  -4    7.33    0.33
  -2   4  -4    7.64    0.34
   2  -4   4    7.56    0.33
   2  -4   4    8.01    0.41
  -3   4  -4   94.89    4.77
  -3   4  -4   90.19    3.82
  -3   4  -4   99.38    3.78
  -3   4  -4   96.62    3.15
   3  -4   4   99.58    3.15
   3  -4   4   99.07    4.77
  -4   4  -4   30.88    1.67
  -4   4  -4   32.72    1.35
  -4   4  -4   33.82    1.32
   4  -4   4   35.35    1.66
   4  -4   4   31.04    1.30
   4  -4   4   34.22    1.10
  -5   4  -4    2.32    0.17
  -5   4  -4    2.28    0.19
   5  -4   4    2.28    0.13
   5  -4   4    2.38    0.15
  -6   4  -4   18.20    0.72
  -6   4  -4   15.38    0.89
   6  -4   4   17.03    0.59
   6  -4   4   16.70    0.70
  -7   4  -4   30.58    1.70
  -7   4  -4   34.22    1.36
   7  -4   4   33.71    1.33
   7  -4   4   34.10    1.12
  -8   4  -4    0.04    0.09
   8  -4   4    0.12    0.05
   8  -4   4    0.22    0.08
  -9   4  -4   20.49    0.92
   9  -4   4   21.18    0.74
   9  -4   4   22.94    0.91
 -10   4  -4    1.17    0.16
  10  -4   4    1.71    0.18
  11  -4   4    0.05    0.09
  12   3  -4    7.38    0.40
 -12  -3   4    7.03    0.36
  11   3  -4   13.05    0.60
 -11  -3   4   12.50    0.56
  10   3  -4    0.03    0.08
 -10  -3   4    0.06    0.06
   9   3  -4   13.87    0.60
  -9  -3   4   13.20    0.57
   8   3  -4   42.57    1.67
  -8  -3   4   42.03    2.08
  -8  -3   4   40.92    1.65
   7   3  -4    6.79    0.34
  -7  -3   4    7.65    0.31
  -7  -3   4    7.30    0.33
  -7  -3   4    7.41    0.38
   6   3  -4   55.09    2.04
   6   3  -4   51.84    2.11
  -6  -3   4   55.07    2.11
   5   3  -4  111.58    4.04
   5   3  -4  104.87    4.18
   4   3  -4   39.33    1.29
   4   3  -4   38.07    1.53
   4   3  -4   40.37    1.49
   3   3  -4   87.25    3.22
   3   3  -4   92.77    2.96
   3   3  -4   93.23    3.40
  -3  -3   4   86.76    3.53
  -3  -3   4   91.57    3.58
  -3  -3   4   94.75    3.45
   2   3  -4  342.34   13.14
   2   3  -4  352.63   12.47
  -2  -3   4  360.35   13.86
  -2  -3   4  375.39   17.32
  -2  -3   4  312.92   13.70
  -2  -3   4  361.15   13.33
  -2  -3   4  365.78   17.31
   1   3  -4    4.99    0.22
   1   3  -4    4.46    0.21
   1   3  -4    5.13    0.18
  -1  -3   4    5.03    0.28
  -1  -3   4    5.17    0.21
  -1  -3   4    5.13    0.22
  -1  -3   4    5.37    0.22
  -1  -3   4    5.33    0.27
   0   3  -4   48.03    1.63
   0   3  -4   53.48    2.47
   0   3  -4   50.76    1.98
   0   3  -4   51.67    2.47
   0  -3   4   46.92    1.89
   0  -3   4   48.45    2.47
   0  -3   4   52.36    1.97
   0  -3   4   48.26    1.96
  -1   3  -4  123.37    5.67
  -1   3  -4  114.97    4.54
  -1   3  -4  120.96    5.67
  -1   3  -4  113.48    3.74
   1  -3   4  108.02    4.49
   1  -3   4  111.19    4.53
   1  -3   4  114.70    5.67
  -2   3  -4   59.02    2.49
  -2   3  -4   63.18    2.46
  -2   3  -4   60.75    3.11
  -2   3  -4   66.79    3.11
   2  -3   4   65.37    3.11
   2  -3   4   57.79    2.46
   2  -3   4   67.31    2.49
  -3   3  -4   25.01    1.04
  -3   3  -4   25.05    1.06
  -3   3  -4   27.54    1.32
   3  -3   4   26.20    0.87
   3  -3   4   23.97    1.02
   3  -3   4   28.05    1.32
   3  -3   4   26.46    1.06
  -4   3  -4   67.76    2.45
  -4   3  -4   57.29    3.08
  -4   3  -4   58.92    2.48
   4  -3   4   62.67    2.41
   4  -3   4   63.86    3.08
   4  -3   4   61.88    2.04
  -5   3  -4   18.10    0.72
  -5   3  -4   15.90    0.89
   5  -3   4   18.34    0.59
   5  -3   4   16.20    0.70
  -6   3  -4    4.39    0.31
  -6   3  -4    5.07    0.26
   6  -3   4    4.77    0.21
   6  -3   4    5.12    0.25
  -7   3  -4   14.50    0.88
  -7   3  -4   16.75    0.71
   7  -3   4   17.60    0.70
   7  -3   4   16.72    0.58
  -8   3  -4    1.68    0.18
   8  -3   4    1.76    0.13
   8  -3   4    1.66    0.16
  -9   3  -4    0.41    0.12
   9  -3   4    0.43    0.10
   9  -3   4    0.32    0.07
 -10   3  -4    4.86    0.31
  10  -3   4    5.29    0.30
  11  -3   4    7.44    0.40
  13   2  -4    3.80    0.28
  12   2  -4    0.26    0.11
 -12  -2   4    0.23    0.08
  11   2  -4    8.63    0.44
 -11  -2   4    8.53    0.40
  10   2  -4   20.78    0.90
 -10  -2   4   21.22    0.86
   9   2  -4    0.77    0.11
  -9  -2   4    0.90    0.10
   8   2  -4   30.88    1.30
  -8  -2   4   33.13    1.28
  -8  -2   4   33.18    1.61
   7   2  -4   51.56    2.03
   6   2  -4    5.99    0.26
   6   2  -4    4.89    0.23
   5   2  -4   49.67    1.85
   5   2  -4   45.41    1.79
   4   2  -4  181.54    6.56
   4   2  -4  184.87    5.73
   4   2  -4  161.90    6.77
   4   2  -4  176.48    6.22
   3   2  -4   27.38    0.87
   3   2  -4   24.74    0.95
   3   2  -4   26.74    1.00
   2   2  -4   43.80    1.63
   2   2  -4   40.44    1.54
   2   2  -4   44.94    1.42
  -2  -2   4   41.83    1.69
  -2  -2   4   45.99    1.72
   1   2  -4  262.08    9.48
   1   2  -4  269.55   10.55
  -1  -2   4  274.08   10.42
  -1  -2   4  256.98   13.15
  -1  -2   4  275.20   10.55
  -1  -2   4  269.40   13.16
   0   2  -4  140.11    5.61
   0   2  -4  144.91    7.00
   0   2  -4  149.28    7.01
   0  -2   4  139.28    7.01
   0  -2   4  140.30    7.03
   0  -2   4  140.76    5.55
   0  -2   4  145.18    5.64
  -1   2  -4  128.52    6.32
  -1   2  -4  129.25    6.32
  -1   2  -4  133.92    5.06
   1  -2   4  128.85    6.32
   1  -2   4  126.96    6.32
   1  -2   4  125.92    5.06
   1  -2   4  128.23    5.01
  -2   2  -4  147.73    6.95
  -2   2  -4  131.35    5.56
  -2   2  -4  148.02    6.95
  -2   2  -4  137.98    5.50
   2  -2   4  145.67    5.56
   2  -2   4  138.84    5.50
   2  -2   4  140.40    6.95
  -3   2  -4    6.99    0.33
  -3   2  -4    7.06    0.32
  -3   2  -4    7.38    0.41
  -3   2  -4    7.46    0.41
   3  -2   4    7.12    0.27
   3  -2   4    7.31    0.31
   3  -2   4    8.10    0.33
   3  -2   4    7.40    0.40
  -4   2  -4   10.39    0.57
  -4   2  -4   10.25    0.46
  -4   2  -4   11.22    0.45
   4  -2   4   10.68    0.37
   4  -2   4   10.71    0.46
   4  -2   4    9.85    0.44
   4  -2   4   10.60    0.56
  -5   2  -4   56.12    2.94
  -5   2  -4   62.27    2.33
   5  -2   4   61.30    1.94
   5  -2   4   56.12    2.30
  -6   2  -4    7.70    0.37
  -6   2  -4    7.65    0.45
   6  -2   4    7.76    0.30
   6  -2   4    7.79    0.36
  -7   2  -4    8.61    0.54
  -7   2  -4    9.14    0.44
   7  -2   4    9.88    0.36
   7  -2   4   10.35    0.44
  -8   2  -4   18.37    0.81
   8  -2   4   19.76    0.81
   8  -2   4   18.71    0.66
  -9   2  -4    0.37    0.12
   9  -2   4    0.81    0.12
   9  -2   4    0.48    0.07
 -10   2  -4    4.47    0.30
  10  -2   4    5.01    0.30
  11  -2   4    1.08    0.15
  13   1  -4    6.37    0.37
  12   1  -4    3.05    0.25
 -12  -1   4    3.30    0.21
  11   1  -4    0.52    0.12
 -11  -1   4    0.42    0.08
  10   1  -4    7.47    0.40
 -10  -1   4    8.03    0.35
   9   1  -4   18.59    0.80
  -9  -1   4   18.84    0.76
   8   1  -4    0.52    0.09
  -8  -1   4    0.62    0.07
   7   1  -4   36.64    1.46
   6   1  -4   68.57    2.67
   5   1  -4    1.00    0.08
   5   1  -4    0.92    0.08
   5   1  -4    0.89    0.09
   4   1  -4   90.51    3.45
   4   1  -4   91.36    3.34
   4   1  -4   88.95    2.92
   4   1  -4   86.88    3.17
   3   1  -4  109.59    3.48
   3   1  -4  101.44    3.78
   3   1  -4  109.34    3.98
   2   1  -4   14.84    0.51
   2   1  -4   14.05    0.55
  -2  -1   4   15.56    0.61
   1   1  -4   51.91    1.93
   1   1  -4   55.53    2.15
  -1  -1   4   49.24    2.11
  -1  -1   4   55.96    2.67
  -1  -1   4   57.43    2.14
  -1  -1   4   55.57    2.67
   0   1  -4  105.98    4.25
   0   1  -4  109.03    5.30
   0   1  -4  113.72    5.30
   0  -1   4  111.99    4.20
   0  -1   4  107.12    5.30
   0  -1   4  106.55    4.25
   0  -1   4  101.22    5.30
  -1   1  -4   30.50    1.26
  -1   1  -4   31.36    1.56
  -1   1  -4   31.48    1.56
   1  -1   4   31.86    1.26
   1  -1   4   30.95    1.24
   1  -1   4   33.02    1.57
   1  -1   4   30.92    1.57
  -2   1  -4    9.57    0.41
  -2   1  -4    9.70    0.51
  -2   1  -4    9.06    0.40
  -2   1  -4    9.79    0.51
   2  -1   4    9.61    0.51
   2  -1   4    9.75    0.40
   2  -1   4    9.65    0.41
   2  -1   4   10.09    0.51
  -3   1  -4  151.57    5.66
  -3   1  -4  143.21    7.14
  -3   1  -4  145.60    7.15
  -3   1  -4  139.70    5.72
   3  -1   4  151.59    5.72
   3  -1   4  147.84    4.72
   3  -1   4  130.41    5.59
   3  -1   4  153.02    7.14
  -4   1  -4   11.96    0.51
  -4   1  -4   11.99    0.53
  -4   1  -4   12.20    0.65
   4  -1   4   12.66    0.53
   4  -1   4   12.71    0.43
   4  -1   4   11.24    0.50
   4  -1   4   12.57    0.64
  -5   1  -4   33.18    1.76
  -5   1  -4   37.35    1.40
   5  -1   4   35.93    1.17
   5  -1   4   33.31    1.38
  -6   1  -4   28.30    1.16
  -6   1  -4   28.36    1.47
   6  -1   4   28.34    0.96
   6  -1   4   29.24    1.15
  -7   1  -4    4.31    0.31
  -7   1  -4    4.37    0.26
   7  -1   4    4.91    0.26
   7  -1   4    4.76    0.21
  -8   1  -4    6.46    0.34
   8  -1   4    6.38    0.33
   8  -1   4    6.45    0.26
  -9   1  -4   19.45    0.85
   9  -1   4   19.69    0.84
   9  -1   4   19.73    0.68
 -10   1  -4    1.66    0.20
  10  -1   4    2.23    0.20
  11  -1   4    5.07    0.31
  13   0  -4    0.32    0.12
  12   0  -4    7.12    0.39
 -12   0   4    7.49    0.36
  11   0  -4   10.70    0.53
 -11   0   4   11.44    0.49
  10   0  -4    4.11    0.25
 -10   0   4    3.79    0.21
   9   0  -4   37.46    1.56
  -9   0   4   40.33    1.54
   8   0  -4    8.57    0.41
  -8   0   4    9.27    0.37
  -8   0   4    8.86    0.46
   7   0  -4    2.36    0.16
   6   0  -4   64.25    2.50
   5   0  -4   75.83    2.94
   4   0  -4    2.86    0.13
   4   0  -4    2.69    0.14
   4   0  -4    2.74    0.13
   4   0  -4    2.47    0.13
   3   0  -4  110.77    3.96
   3   0  -4  115.41    3.65
   3   0  -4  109.61    4.17
   2   0  -4  159.40    5.88
   2   0  -4  165.73    5.41
  -2   0   4  174.05    6.57
   1   0  -4    0.41    0.06
   1   0  -4    0.69    0.05
   1   0  -4    0.60    0.06
   1   0  -4    0.60    0.06
  -1   0   4    0.54    0.05
  -1   0   4    0.59    0.06
  -1   0   4    0.76    0.05
  -1   0   4    0.58    0.07
   0   0  -4  138.45    6.69
   0   0  -4  145.60    5.15
   0   0  -4  134.53    5.37
   0   0  -4  126.20    4.82
   0   0  -4  137.70    6.69
   0   0   4  132.04    5.36
   0   0   4  131.38    6.70
   0   0   4  147.09    5.30
   0   0   4  135.98    6.70
  -1   0  -4   68.91    2.74
  -1   0  -4   73.34    3.41
  -1   0  -4   73.84    3.42
  -1   0  -4   72.29    2.62
  -1   0  -4   64.15    2.46
   1   0   4   70.48    3.42
   1   0   4   71.49    2.74
   1   0   4   60.07    2.70
   1   0   4   68.62    3.42
  -2   0  -4    0.10    0.04
  -2   0  -4    0.16    0.04
  -2   0  -4    0.09    0.04
  -2   0  -4    0.10    0.03
  -2   0  -4    0.21    0.05
   2   0   4    0.12    0.04
   2   0   4    0.07    0.03
   2   0   4    0.15    0.04
  -3   0  -4   38.52    1.91
  -3   0  -4   36.88    1.54
  -3   0  -4   41.20    1.52
   3   0   4   39.76    1.91
   3   0   4   38.07    1.26
   3   0   4   37.24    1.54
   3   0   4   35.89    1.49
  -4   0  -4   31.19    1.29
  -4   0  -4   30.62    1.60
  -4   0  -4   31.87    1.27
   4   0   4   31.85    1.26
   4   0   4   35.00    1.60
   4   0   4   31.35    1.29
   4   0   4   30.69    1.06
  -5   0  -4    8.65    0.37
  -5   0  -4    7.61    0.45
   5   0   4    8.23    0.30
   5   0   4    7.61    0.36
  -6   0  -4   16.53    0.69
  -6   0  -4   15.51    0.86
   6   0   4   16.61    0.57
   6   0   4   16.33    0.68
  -7   0  -4   31.98    1.73
  -7   0  -4   33.57    1.37
   7   0   4   33.96    1.36
   7   0   4   35.29    1.14
  -8   0  -4    0.64    0.11
   8   0   4    0.56    0.07
   8   0   4    0.77    0.11
  -9   0  -4    4.75    0.29
   9   0   4    4.78    0.21
   9   0   4    5.09    0.29
 -10   0  -4    8.03    0.44
  10   0   4    8.72    0.43
  11   0   4    2.82    0.23
  13  -1  -4    2.35    0.22
  12  -1  -4    1.14    0.15
 -12   1   4    1.30    0.14
  11  -1  -4   13.45    0.62
 -11   1   4   13.40    0.58
  10  -1  -4    7.27    0.37
 -10   1   4    7.04    0.33
   9  -1  -4    0.71    0.10
  -9   1   4    0.61    0.08
   8  -1  -4   65.94    2.56
  -8   1   4   66.01    2.55
  -8   1   4   63.79    3.22
   7  -1  -4   52.22    2.05
   6  -1  -4   35.66    1.41
   5  -1  -4  129.09    4.98
   4  -1  -4   69.89    2.53
   4  -1  -4   71.46    2.34
   4  -1  -4   69.35    2.66
   4  -1  -4   73.96    2.75
   3  -1  -4    2.48    0.13
   3  -1  -4    2.47    0.13
   3  -1  -4    2.61    0.12
   3  -1  -4    2.60    0.13
   2  -1  -4  240.20    7.94
   2  -1  -4  252.22    9.23
   2  -1  -4  239.31    9.10
   2  -1  -4  229.82    8.63
  -2   1   4  262.80   11.97
  -2   1   4  210.13    9.46
  -2   1   4  272.31   11.97
  -2   1   4  244.35    9.60
   1  -1  -4   96.90    3.63
   1  -1  -4   99.35    4.04
   1  -1  -4  112.44    3.89
   1  -1  -4  106.00    3.34
   1  -1  -4   98.91    3.33
   1  -1  -4  106.58    5.03
   1  -1  -4  100.27    3.83
  -1   1   4  105.56    5.04
  -1   1   4  105.32    5.04
  -1   1   4   97.44    3.99
  -1   1   4  100.30    4.04
   0  -1  -4    0.33    0.04
   0  -1  -4    0.31    0.05
   0  -1  -4    0.21    0.04
   0  -1  -4    0.18    0.04
   0  -1  -4    0.31    0.04
   0  -1  -4    0.11    0.03
   0   1   4    0.07    0.03
   0   1   4    0.27    0.04
   0   1   4    0.07    0.03
  -1  -1  -4  119.78    4.02
  -1  -1  -4  124.04    4.88
  -1  -1  -4  121.21    4.82
  -1  -1  -4  125.62    6.09
  -1  -1  -4  135.03    4.68
  -1  -1  -4  118.45    4.38
  -1  -1  -4  122.62    6.09
   1   1   4  119.66    4.82
   1   1   4  123.80    4.88
   1   1   4  119.09    6.09
   1   1   4  127.10    4.62
   1   1   4  130.65    6.09
  -2  -1  -4  121.78    5.79
  -2  -1  -4  106.22    4.16
  -2  -1  -4  115.88    4.59
  -2  -1  -4  129.32    5.79
  -2  -1  -4  120.41    4.45
  -2  -1  -4  115.41    4.64
   2   1   4  119.62    4.39
   2   1   4  104.66    4.58
   2   1   4  116.37    4.53
   2   1   4  123.58    4.64
   2   1   4  121.90    5.79
  -3  -1  -4    2.22    0.12
  -3  -1  -4    1.96    0.15
  -3  -1  -4    1.99    0.10
  -3  -1  -4    2.12    0.13
  -3  -1  -4    1.99    0.13
   3   1   4    1.84    0.10
   3   1   4    2.13    0.15
   3   1   4    1.99    0.12
   3   1   4    2.02    0.11
   3   1   4    1.93    0.13
  -4  -1  -4   70.83    2.72
  -4  -1  -4   67.54    2.75
  -4  -1  -4   68.44    2.64
  -4  -1  -4   63.66    3.42
   4   1   4   67.69    2.68
   4   1   4   70.73    2.75
   4   1   4   71.27    3.42
   4   1   4   72.09    2.26
  -5  -1  -4   33.53    1.74
  -5  -1  -4   34.72    1.34
  -5  -1  -4   36.03    1.38
   5   1   4   32.13    1.36
   5   1   4   35.21    1.15
  -6  -1  -4    0.29    0.07
  -6  -1  -4    0.28    0.09
  -6  -1  -4    0.32    0.08
   6   1   4    0.23    0.05
   6   1   4    0.52    0.08
  -7  -1  -4   13.48    0.58
  -7  -1  -4   12.43    0.56
   7   1   4   12.78    0.57
   7   1   4   13.11    0.47
  -8  -1  -4   14.86    0.67
  -8  -1  -4   14.39    0.65
   8   1   4   15.64    0.54
   8   1   4   15.09    0.67
  -9  -1  -4    1.10    0.14
   9   1   4    1.41    0.12
   9   1   4    1.62    0.18
 -10  -1  -4    5.39    0.33
  10   1   4    5.36    0.32
  11   1   4    5.31    0.33
  13  -2  -4    5.03    0.32
  12  -2  -4    2.36    0.21
 -12   2   4    2.10    0.17
  11  -2  -4    3.46    0.24
 -11   2   4    3.36    0.21
  10  -2  -4   20.99    0.88
 -10   2   4   20.15    0.84
   9  -2  -4   12.20    0.54
  -9   2   4   11.62    0.50
   8  -2  -4   10.94    0.48
  -8   2   4   10.41    0.56
   7  -2  -4   49.27    1.94
  -7   2   4   49.20    2.44
  -7   2   4   49.37    1.93
   6  -2  -4   61.68    2.41
  -6   2   4   61.82    2.41
   5  -2  -4    0.59    0.06
   5  -2  -4    0.55    0.06
  -5   2   4    0.51    0.05
  -5   2   4    0.50    0.05
  -5   2   4    0.48    0.05
   4  -2  -4  284.51    9.05
   4  -2  -4  287.19   10.70
   4  -2  -4  275.54   10.33
  -4   2   4  276.48   10.32
  -4   2   4  264.15   10.77
   3  -2  -4   99.27    3.78
   3  -2  -4  112.84    3.84
   3  -2  -4  102.46    3.91
   3  -2  -4  101.85    3.31
   3  -2  -4   96.57    3.59
  -3   2   4   94.50    3.93
  -3   2   4  100.22    4.97
  -3   2   4   91.21    3.78
  -3   2   4  112.88    4.97
   2  -2  -4   19.17    0.64
   2  -2  -4   18.28    0.71
   2  -2  -4   20.88    0.75
   2  -2  -4   20.07    0.65
   2  -2  -4   18.19    0.74
  -2   2   4   19.65    0.80
  -2   2   4   18.53    0.76
  -2   2   4   17.71    0.74
  -2   2   4   20.82    0.97
  -2   2   4   19.27    0.77
  -2   2   4   19.03    0.96
   1  -2  -4  133.19    6.05
   1  -2  -4  132.59    4.68
   1  -2  -4  130.41    4.02
   1  -2  -4  122.68    4.36
   1  -2  -4  119.44    4.00
   1  -2  -4  118.22    6.04
  -1   2   4  119.49    4.79
  -1   2   4  124.71    6.06
  -1   2   4  126.39    6.06
  -1   2   4  109.74    4.60
  -1   2   4  120.12    4.86
   0  -2  -4  152.52    7.78
   0  -2  -4  164.77    5.15
   0  -2  -4  158.95    6.23
   0  -2  -4  167.37    7.78
   0  -2  -4  158.20    5.60
   0  -2  -4  150.97    5.14
   0  -2  -4  166.63    5.99
   0   2   4  156.04    6.10
   0   2   4  155.76    7.79
   0   2   4  148.38    7.78
   0   2   4  163.63    6.23
   0   2   4  157.59    5.91
   0   2   4  160.70    6.16
  -1  -2  -4    4.70    0.18
  -1  -2  -4    4.46    0.19
  -1  -2  -4    4.45    0.22
  -1  -2  -4    5.23    0.21
  -1  -2  -4    4.52    0.27
   1   2   4    4.43    0.21
   1   2   4    5.22    0.27
   1   2   4    4.62    0.27
   1   2   4    4.59    0.22
   1   2   4    4.27    0.21
   1   2   4    4.40    0.21
  -2  -2  -4   81.27    3.00
  -2  -2  -4   86.07    2.76
  -2  -2  -4   89.24    3.22
  -2  -2  -4   82.62    4.18
  -2  -2  -4   85.24    3.35
  -2  -2  -4   82.52    3.31
   2   2   4   74.94    3.31
   2   2   4   90.89    4.18
   2   2   4   86.78    3.35
   2   2   4   89.11    3.17
   2   2   4   81.26    3.27
   2   2   4   86.07    2.76
  -3  -2  -4   59.56    2.23
  -3  -2  -4   63.89    3.12
  -3  -2  -4   60.09    2.50
  -3  -2  -4   61.68    2.47
  -3  -2  -4   65.03    2.40
   3   2   4   66.92    2.36
   3   2   4   64.19    2.50
   3   2   4   65.59    2.06
   3   2   4   61.02    2.44
   3   2   4   59.33    3.11
  -4  -2  -4    1.80    0.14
  -4  -2  -4    1.25    0.11
  -4  -2  -4    1.37    0.11
  -4  -2  -4    1.19    0.12
   4   2   4    1.37    0.12
   4   2   4    1.39    0.10
   4   2   4    1.35    0.12
  -5  -2  -4   47.51    2.50
  -5  -2  -4   49.63    1.98
  -5  -2  -4   49.54    1.93
   5   2   4   49.98    1.96
   5   2   4   52.29    1.65
  -6  -2  -4   36.04    1.99
  -6  -2  -4   40.93    1.58
  -6  -2  -4   38.61    1.54
   6   2   4   39.66    1.31
   6   2   4   40.58    1.57
  -7  -2  -4    0.10    0.07
  -7  -2  -4    0.00    0.07
   7   2   4    0.02    0.04
   7   2   4    0.07    0.07
  -8  -2  -4   16.43    0.74
  -8  -2  -4   16.42    0.72
   8   2   4   18.18    0.74
   8   2   4   16.01    0.59
  -9  -2  -4   10.29    0.50
   9   2   4   10.36    0.50
   9   2   4   10.23    0.39
  10   2   4    0.10    0.10
  13  -3  -4    6.11    0.36
  12  -3  -4    3.70    0.26
 -12   3   4    3.62    0.22
  11  -3  -4    2.76    0.22
 -11   3   4    2.61    0.18
  10  -3  -4    7.09    0.36
 -10   3   4    6.52    0.32
   9  -3  -4   36.92    1.48
  -9   3   4   36.16    1.46
   8  -3  -4    7.94    0.38
  -8   3   4    7.96    0.44
   7  -3  -4    9.64    0.41
  -7   3   4    8.65    0.39
  -7   3   4    8.95    0.48
   6  -3  -4   89.98    3.58
  -6   3   4   92.58    4.54
  -6   3   4   93.94    3.60
   5  -3  -4   31.09    1.29
  -5   3   4   35.52    1.62
  -5   3   4   31.97    1.23
  -5   3   4   33.35    1.62
  -5   3   4   30.67    1.28
   4  -3  -4    7.18    0.31
  -4   3   4    6.83    0.30
  -4   3   4    7.62    0.37
  -4   3   4    6.60    0.29
  -4   3   4    6.86    0.37
   3  -3  -4   76.75    2.51
   3  -3  -4   74.76    2.73
   3  -3  -4   74.38    2.48
   3  -3  -4   81.78    2.91
  -3   3   4   76.78    2.96
  -3   3   4   72.49    2.98
  -3   3   4   80.66    3.77
  -3   3   4   75.18    2.87
  -3   3   4   75.95    3.77
   2  -3  -4  194.10    6.95
   2  -3  -4  180.51    5.98
   2  -3  -4  180.13    6.50
   2  -3  -4  180.54    5.96
  -2   3   4  190.38    6.85
  -2   3   4  179.13    7.23
  -2   3   4  186.74    7.08
  -2   3   4  177.35    7.14
  -2   3   4  180.26    9.04
  -2   3   4  190.80    9.03
   1  -3  -4    5.60    0.22
   1  -3  -4    5.42    0.21
   1  -3  -4    6.00    0.31
   1  -3  -4    5.96    0.25
   1  -3  -4    5.14    0.23
   1  -3  -4    5.44    0.21
  -1   3   4    6.20    0.25
  -1   3   4    5.89    0.32
  -1   3   4    5.78    0.27
  -1   3   4    5.50    0.26
  -1   3   4    5.69    0.31
  -1   3   4    5.60    0.25
   0  -3  -4  159.76    6.53
   0  -3  -4  177.95    5.40
   0  -3  -4  168.08    8.15
   0  -3  -4  161.71    5.39
   0  -3  -4  169.29    5.87
   0  -3  -4  165.56    6.27
   0   3   4  169.34    6.53
   0   3   4  163.22    8.15
   0   3   4  161.19    6.45
   0   3   4  164.43    6.18
   0   3   4  166.40    6.39
   0   3   4  164.93    8.15
  -1  -3  -4   44.82    1.71
  -1  -3  -4   50.48    2.39
  -1  -3  -4   46.73    1.92
  -1  -3  -4   46.87    1.58
  -1  -3  -4   47.65    1.58
  -1  -3  -4   48.66    1.85
   1   3   4   48.82    1.89
   1   3   4   49.35    1.92
   1   3   4   50.31    1.82
   1   3   4   47.86    2.39
   1   3   4   48.81    1.88
   1   3   4   46.44    2.39
  -2  -3  -4    0.07    0.03
  -2  -3  -4    0.07    0.05
  -2  -3  -4    0.20    0.05
  -2  -3  -4    0.11    0.04
  -2  -3  -4    0.14    0.04
   2   3   4    0.07    0.05
   2   3   4    0.14    0.04
   2   3   4    0.11    0.04
   2   3   4    0.11    0.04
   2   3   4    0.20    0.05
   2   3   4    0.09    0.04
  -3  -3  -4   76.48    2.88
  -3  -3  -4   72.24    3.74
  -3  -3  -4   74.45    2.99
  -3  -3  -4   80.54    2.96
   3   3   4   70.76    2.93
   3   3   4   77.29    3.73
   3   3   4   74.70    2.99
   3   3   4   71.72    2.47
   3   3   4   79.80    2.84
  -4  -3  -4   36.10    1.47
  -4  -3  -4   38.96    1.51
  -4  -3  -4   34.98    1.90
   4   3   4   38.24    1.44
   4   3   4   38.36    1.49
   4   3   4   38.93    1.26
  -5  -3  -4    0.84    0.10
  -5  -3  -4    1.09    0.12
  -5  -3  -4    0.98    0.13
   5   3   4    1.15    0.10
   5   3   4    1.14    0.13
  -6  -3  -4   17.69    0.74
  -6  -3  -4   16.30    0.92
  -6  -3  -4   16.90    0.72
   6   3   4   17.04    0.74
   6   3   4   17.98    0.61
  -7  -3  -4   20.46    0.88
  -7  -3  -4   20.46    0.86
   7   3   4   20.77    0.72
   7   3   4   21.11    0.88
  -8  -3  -4    0.29    0.10
  -8  -3  -4    0.14    0.09
   8   3   4    0.38    0.11
   8   3   4    0.33    0.07
  -9  -3  -4    8.74    0.45
   9   3   4    8.79    0.45
   9   3   4    8.39    0.33
  10   3   4    7.09    0.40
  13  -4  -4    2.51    0.22
  12  -4  -4    7.63    0.40
 -12   4   4    7.30    0.37
  11  -4  -4   23.39    0.99
 -11   4   4   22.85    0.96
  10  -4  -4    0.09    0.08
 -10   4   4    0.05    0.07
   9  -4  -4    7.57    0.37
  -9   4   4    7.27    0.34
   8  -4  -4   36.95    1.48
   7  -4  -4   17.74    0.76
  -7   4   4   18.59    0.94
  -7   4   4   17.98    0.75
   6  -4  -4   28.50    1.13
  -6   4   4   27.74    1.41
  -6   4   4   27.49    1.12
   5  -4  -4   68.81    2.78
  -5   4   4   69.90    2.79
  -5   4   4   75.28    2.68
  -5   4   4   71.41    3.53
   4  -4  -4   38.90    1.45
   4  -4  -4   36.84    1.48
  -4   4   4   35.41    1.87
  -4   4   4   36.58    1.48
  -4   4   4   35.00    1.48
  -4   4   4   38.68    1.42
  -4   4   4   40.83    1.87
   3  -4  -4   18.20    0.71
   3  -4  -4   17.61    0.61
   3  -4  -4   16.70    0.59
  -3   4   4   17.55    0.90
  -3   4   4   16.89    0.72
  -3   4   4   19.65    0.91
  -3   4   4   18.49    0.72
  -3   4   4   16.98    0.69
   2  -4  -4  108.17    3.57
   2  -4  -4  116.20    5.36
   2  -4  -4  112.04    4.14
   2  -4  -4  105.36    3.55
  -2   4   4  113.53    4.22
  -2   4   4  112.08    4.08
  -2   4   4  105.26    4.26
  -2   4   4  118.79    5.38
  -2   4   4   92.39    5.37
  -2   4   4  107.95    4.32
   1  -4  -4   23.34    1.14
   1  -4  -4   22.06    0.77
   1  -4  -4   22.43    0.76
   1  -4  -4   23.12    0.90
   1  -4  -4   23.62    0.83
  -1   4   4   22.65    1.15
  -1   4   4   20.32    0.88
  -1   4   4   21.80    0.91
  -1   4   4   24.01    1.16
  -1   4   4   22.32    0.93
  -1   4   4   23.97    0.91
   0  -4  -4    0.16    0.05
   0  -4  -4    0.13    0.04
   0  -4  -4    0.23    0.04
   0  -4  -4    0.18    0.04
   0  -4  -4    0.35    0.04
   0   4   4    0.12    0.05
   0   4   4    0.37    0.07
   0   4   4    0.29    0.05
   0   4   4    0.14    0.04
   0   4   4    0.14    0.04
  -1  -4  -4   85.25    4.11
  -1  -4  -4   87.46    3.17
  -1  -4  -4   82.50    2.71
  -1  -4  -4   79.97    2.71
  -1  -4  -4   80.57    2.94
  -1  -4  -4   83.58    3.29
   1   4   4   84.46    4.10
   1   4   4   81.31    3.29
   1   4   4   89.83    3.12
   1   4   4   76.70    3.25
   1   4   4   81.58    3.22
   1   4   4   82.66    2.71
  -2  -4  -4   55.87    1.78
  -2  -4  -4   51.86    2.16
  -2  -4  -4   54.02    2.70
  -2  -4  -4   55.13    2.08
  -2  -4  -4   51.75    1.78
   2   4   4   52.44    2.12
   2   4   4   53.23    2.69
   2   4   4   53.99    1.78
   2   4   4   56.88    2.05
   2   4   4   55.73    2.16
  -3  -4  -4    9.50    0.40
  -3  -4  -4    9.26    0.33
  -3  -4  -4    8.66    0.50
  -3  -4  -4    9.11    0.41
  -3  -4  -4    8.89    0.34
  -3  -4  -4    9.08    0.40
   3   4   4    9.26    0.41
   3   4   4    8.64    0.40
   3   4   4    8.89    0.39
   3   4   4    8.88    0.34
  -4  -4  -4   38.68    1.52
  -4  -4  -4   39.97    1.56
  -4  -4  -4   37.95    1.97
   4   4   4   40.20    1.50
   4   4   4   38.46    1.55
   4   4   4   37.86    1.30
  -5  -4  -4   23.03    1.22
  -5  -4  -4   21.93    0.95
  -5  -4  -4   24.02    0.97
   5   4   4   24.17    0.97
   5   4   4   23.63    0.81
  -6  -4  -4    1.38    0.14
  -6  -4  -4    1.02    0.12
   6   4   4    1.11    0.13
   6   4   4    1.16    0.11
  -7  -4  -4   19.60    0.88
  -7  -4  -4   21.03    0.90
   7   4   4   21.82    0.90
   7   4   4   21.70    0.74
  -8  -4  -4    6.32    0.35
   8   4   4    6.20    0.36
   8   4   4    6.31    0.27
   9   4   4    0.03    0.05
   9   4   4   -0.04    0.10
  10   4   4    4.08    0.29
  12  -5  -4   -0.01    0.09
 -12   5   4    0.02    0.08
  11  -5  -4    2.74    0.22
 -11   5   4    2.69    0.20
  10  -5  -4   22.28    0.94
 -10   5   4   21.47    0.91
   9  -5  -4    6.28    0.34
  -9   5   4    6.46    0.32
   8  -5  -4   30.40    1.24
   7  -5  -4   35.81    1.43
  -7   5   4   36.10    1.42
  -7   5   4   34.50    1.79
   6  -5  -4    7.27    0.34
  -6   5   4    7.09    0.33
  -6   5   4    7.44    0.41
   5  -5  -4   14.60    0.61
  -5   5   4   15.15    0.61
  -5   5   4   14.34    0.61
  -5   5   4   14.39    0.58
  -5   5   4   14.08    0.76
   4  -5  -4  100.25    3.91
   4  -5  -4  103.48    3.34
  -4   5   4  103.09    4.02
  -4   5   4  107.75    3.99
  -4   5   4   97.36    5.07
  -4   5   4  104.74    3.85
   3  -5  -4   11.79    0.43
   3  -5  -4   12.04    0.51
  -3   5   4   13.51    0.66
  -3   5   4   12.12    0.50
  -3   5   4   13.08    0.52
  -3   5   4   12.49    0.53
  -3   5   4   11.62    0.65
   2  -5  -4   24.49    0.95
   2  -5  -4   22.71    0.80
   2  -5  -4   24.14    0.82
  -2   5   4   25.21    0.94
  -2   5   4   25.54    1.23
  -2   5   4   23.55    0.97
  -2   5   4   23.28    0.99
  -2   5   4   23.94    0.97
  -2   5   4   23.27    1.22
   1  -5  -4   72.74    2.81
   1  -5  -4   72.34    3.64
   1  -5  -4   75.59    2.42
   1  -5  -4   75.75    2.41
  -1   5   4   71.29    3.65
  -1   5   4   68.54    2.92
  -1   5   4   76.92    2.77
  -1   5   4   75.47    2.87
  -1   5   4   70.99    2.89
  -1   5   4   76.12    3.65
   0  -5  -4   27.88    0.91
   0  -5  -4   28.01    0.92
   0  -5  -4   27.38    1.07
   0  -5  -4   27.24    0.92
   0  -5  -4   26.58    1.38
   0   5   4   27.65    1.06
   0   5   4   28.00    1.09
   0   5   4   25.92    1.11
   0   5   4   27.29    1.09
   0   5   4   25.87    1.38
  -1  -5  -4   22.72    0.76
  -1  -5  -4   22.78    0.77
  -1  -5  -4   22.13    1.15
  -1  -5  -4   21.24    0.89
   1   5   4   23.05    0.89
   1   5   4   23.46    0.93
   1   5   4   22.26    0.92
   1   5   4   21.83    1.15
  -2  -5  -4   43.73    1.41
  -2  -5  -4   42.10    2.13
  -2  -5  -4   42.88    1.40
  -2  -5  -4   40.92    1.64
  -2  -5  -4   41.16    1.70
   2   5   4   43.47    1.70
   2   5   4   39.46    1.67
   2   5   4   41.47    1.41
   2   5   4   44.03    1.62
   2   5   4   42.85    2.12
  -3  -5  -4   19.30    0.64
  -3  -5  -4   18.63    0.79
  -3  -5  -4   18.20    0.98
  -3  -5  -4   18.30    0.77
   3   5   4   18.82    0.78
   3   5   4   19.43    0.79
   3   5   4   18.99    0.76
   3   5   4   18.19    0.65
  -4  -5  -4    1.80    0.17
  -4  -5  -4    1.82    0.15
   4   5   4    1.81    0.12
   4   5   4    1.85    0.15
   4   5   4    1.58    0.15
  -5  -5  -4   39.67    1.54
  -5  -5  -4   35.69    1.50
   5   5   4   39.26    1.53
   5   5   4   37.50    1.28
   5   5   4   37.24    1.47
  -6  -5  -4   11.97    0.54
  -6  -5  -4   11.10    0.53
   6   5   4   11.96    0.44
   6   5   4   11.76    0.54
  -7  -5  -4    0.68    0.12
   7   5   4    0.76    0.08
   7   5   4    0.58    0.12
   8   5   4   12.71    0.48
   8   5   4   13.17    0.61
   9   5   4    6.99    0.40
   9   5   4    6.71    0.28
  12  -6  -4    7.09    0.39
 -12   6   4    7.09    0.37
  11  -6  -4    0.08    0.09
 -11   6   4    0.08    0.08
  10  -6  -4   15.36    0.68
 -10   6   4   14.90    0.66
   9  -6  -4   16.20    0.70
  -9   6   4   15.23    0.68
   8  -6  -4    1.35    0.16
   7  -6  -4   14.39    0.61
  -7   6   4   13.14    0.59
  -7   6   4   13.60    0.61
   6  -6  -4   70.66    2.73
  -6   6   4   66.92    3.46
  -6   6   4   69.99    2.74
  -6   6   4   70.10    2.73
   5  -6  -4    3.69    0.15
  -5   6   4    3.68    0.19
  -5   6   4    3.57    0.21
  -5   6   4    3.53    0.21
  -5   6   4    3.81    0.25
   4  -6  -4   35.53    1.19
   4  -6  -4   35.32    1.42
  -4   6   4   35.24    1.82
  -4   6   4   36.00    1.44
  -4   6   4   37.41    1.39
  -4   6   4   37.12    1.45
   3  -6  -4   56.66    1.89
   3  -6  -4   57.43    2.22
  -3   6   4   61.95    2.19
  -3   6   4   59.94    2.28
  -3   6   4   52.47    2.87
  -3   6   4   56.98    2.26
   2  -6  -4   17.85    0.61
   2  -6  -4   17.31    0.73
  -2   6   4   18.62    0.72
  -2   6   4   18.52    0.93
  -2   6   4   16.92    0.74
  -2   6   4   17.96    0.74
  -2   6   4   17.42    0.75
   1  -6  -4   35.62    1.21
   1  -6  -4   35.98    1.21
   1  -6  -4   35.77    1.42
  -1   6   4   37.20    1.47
  -1   6   4   37.27    1.40
  -1   6   4   37.93    1.45
  -1   6   4   34.30    1.83
  -1   6   4   35.99    1.45
   0  -6  -4   75.64    2.41
   0  -6  -4   71.81    2.81
   0  -6  -4   74.21    2.40
   0   6   4   74.93    2.88
   0   6   4   70.08    3.64
   0   6   4   71.55    2.91
   0   6   4   71.99    2.86
   0   6   4   75.76    2.77
  -1  -6  -4    6.02    0.27
  -1  -6  -4    6.72    0.25
  -1  -6  -4    6.28    0.31
  -1  -6  -4    6.52    0.27
   1   6   4    6.78    0.33
   1   6   4    7.00    0.39
   1   6   4    7.02    0.27
   1   6   4    6.67    0.31
   1   6   4    6.71    0.31
  -2  -6  -4   12.67    0.57
  -2  -6  -4   13.76    0.49
  -2  -6  -4   14.34    0.47
   2   6   4   13.04    0.49
   2   6   4   12.86    0.59
   2   6   4   13.56    0.58
   2   6   4   14.24    0.57
  -3  -6  -4   44.19    1.84
   3   6   4   47.45    1.88
   3   6   4   48.91    1.82
   3   6   4   48.13    1.58
  -4  -6  -4    5.81    0.31
   4   6   4    6.23    0.33
   4   6   4    6.58    0.27
   4   6   4    6.39    0.31
  -5  -6  -4    4.61    0.26
   5   6   4    4.52    0.27
   5   6   4    4.84    0.22
   5   6   4    4.47    0.26
  -6  -6  -4   14.10    0.65
   6   6   4   14.47    0.54
   6   6   4   15.39    0.67
   7   6   4    7.95    0.32
   7   6   4    7.81    0.42
   8   6   4    0.35    0.07
   8   6   4    0.42    0.12
   9   6   4    5.35    0.23
   9   6   4    6.03    0.36
  12  -7  -4    5.72    0.34
 -12   7   4    5.32    0.34
  11  -7  -4   10.53    0.52
 -11   7   4   10.50    0.53
 -11   7   4   10.51    0.50
  10  -7  -4    0.12    0.09
 -10   7   4    0.09    0.09
 -10   7   4    0.18    0.10
   9  -7  -4   11.77    0.55
  -9   7   4   11.90    0.54
  -9   7   4   11.64    0.56
   8  -7  -4   30.84    1.28
  -8   7   4   31.12    1.28
  -7   7   4    1.61    0.15
  -7   7   4    1.62    0.17
  -6   7   4   30.69    1.28
  -6   7   4   32.13    1.28
   5  -7  -4   39.55    1.31
   5  -7  -4   37.45    1.56
  -5   7   4   37.38    2.01
  -5   7   4   39.90    1.59
  -5   7   4   43.15    1.53
  -5   7   4   40.51    1.60
   4  -7  -4    6.18    0.24
   4  -7  -4    5.97    0.31
  -4   7   4    6.28    0.38
  -4   7   4    6.26    0.31
  -4   7   4    6.75    0.32
  -4   7   4    6.32    0.30
   3  -7  -4   28.84    0.99
   3  -7  -4   27.35    1.17
  -3   7   4   30.83    1.20
  -3   7   4   29.62    1.20
  -3   7   4   28.74    1.51
  -3   7   4   31.02    1.15
   2  -7  -4   68.97    2.88
   2  -7  -4   73.90    2.46
  -2   7   4   84.81    2.96
  -2   7   4   69.99    3.73
  -2   7   4   74.53    2.94
  -2   7   4   77.51    2.84
   1  -7  -4    5.18    0.26
   1  -7  -4    5.48    0.22
  -1   7   4    5.34    0.27
  -1   7   4    5.26    0.28
  -1   7   4    5.11    0.33
  -1   7   4    5.04    0.26
  -1   7   4    5.63    0.27
   0  -7  -4   21.07    0.88
   0  -7  -4   21.25    0.75
   0  -7  -4   23.22    0.75
   0   7   4   21.79    0.91
   0   7   4   21.50    0.90
   0   7   4   22.25    0.88
   0   7   4   21.22    1.14
  -1  -7  -4   60.94    2.43
  -1  -7  -4   64.89    2.09
   1   7   4   63.83    2.40
   1   7   4   63.94    2.48
   1   7   4   61.25    2.08
  -2  -7  -4    8.94    0.36
  -2  -7  -4    8.19    0.40
  -2  -7  -4    9.00    0.35
   2   7   4    9.17    0.43
   2   7   4    9.11    0.35
   2   7   4    8.62    0.41
  -3  -7  -4   16.78    0.77
   3   7   4   19.01    0.66
   3   7   4   19.07    0.77
   3   7   4   19.13    0.80
  -4  -7  -4   29.53    1.24
   4   7   4   31.65    1.06
   4   7   4   32.03    1.27
   4   7   4   29.62    1.22
  -5  -7  -4    4.83    0.29
   5   7   4    4.99    0.28
   5   7   4    5.25    0.23
   5   7   4    4.65    0.30
   6   7   4    5.47    0.33
   6   7   4    5.26    0.25
   7   7   4   10.27    0.42
   7   7   4   11.57    0.55
   8   7   4    1.78    0.21
   8   7   4    1.69    0.13
 -11   8   4    5.38    0.34
 -11   8   4    5.64    0.33
 -10   8   4    8.42    0.44
 -10   8   4    7.76    0.41
  -9   8   4    0.37    0.10
  -9   8   4    0.52    0.12
  -8   8   4   16.24    0.73
  -7   8   4   18.09    0.79
  -7   8   4   18.25    0.78
  -6   8   4    1.59    0.16
  -6   8   4    1.86    0.16
   5  -8  -4   12.73    0.58
   5  -8  -4   13.19    0.47
  -5   8   4   13.59    0.60
  -5   8   4   14.24    0.57
  -5   8   4   12.75    0.59
   4  -8  -4   54.73    1.81
   4  -8  -4   50.82    2.14
  -4   8   4   56.83    2.19
  -4   8   4   55.73    2.10
  -4   8   4   56.53    2.19
   3  -8  -4    1.95    0.15
   3  -8  -4    2.23    0.13
  -3   8   4    2.20    0.19
  -3   8   4    1.87    0.17
  -3   8   4    2.25    0.16
  -3   8   4    2.28    0.17
   2  -8  -4   26.27    1.09
   2  -8  -4   27.35    0.92
  -2   8   4   25.93    1.40
  -2   8   4   26.30    1.12
  -2   8   4   27.95    1.08
  -2   8   4   29.07    1.12
   1  -8  -4   33.59    1.38
   1  -8  -4   35.32    1.18
  -1   8   4   35.42    1.41
  -1   8   4   31.76    1.77
  -1   8   4   35.90    1.37
  -1   8   4   36.87    1.41
   0  -8  -4    7.58    0.30
   0  -8  -4    7.28    0.35
   0   8   4    7.31    0.35
   0   8   4    7.05    0.36
  -1  -8  -4   14.23    0.63
  -1  -8  -4   15.03    0.54
   1   8   4   15.14    0.64
   1   8   4   14.72    0.54
   1   8   4   15.22    0.66
  -2  -8  -4   33.39    1.43
  -2  -8  -4   38.29    1.24
   2   8   4   36.78    1.42
   2   8   4   37.61    1.23
   2   8   4   34.54    1.47
  -3  -8  -4    5.97    0.31
   3   8   4    5.59    0.31
   3   8   4    5.88    0.33
   3   8   4    5.81    0.26
  -4  -8  -4    6.08    0.33
   4   8   4    6.39    0.34
   4   8   4    6.99    0.36
   4   8   4    6.10    0.28
   5   8   4   21.24    0.73
   5   8   4   19.72    0.85
   5   8   4   19.91    0.89
   6   8   4    3.99    0.20
   6   8   4    3.49    0.24
   6   8   4    3.99    0.29
   7   8   4    3.11    0.26
   7   8   4    2.99    0.18
   8   8   4    7.55    0.31
   8   8   4    8.11    0.44
 -11   9   4    0.03    0.11
 -10   9   4    9.60    0.48
 -10   9   4    9.56    0.50
  -9   9   4    8.08    0.41
  -9   9   4    7.85    0.43
  -8   9   4    0.23    0.10
  -7   9   4   10.14    0.50
   6  -9  -4   18.41    0.63
  -6   9   4   17.77    0.80
  -6   9   4   18.89    0.80
   5  -9  -4    0.06    0.04
   5  -9  -4    0.06    0.06
  -5   9   4    0.12    0.09
  -5   9   4    0.14    0.07
  -5   9   4    0.06    0.08
   4  -9  -4   15.94    0.70
   4  -9  -4   15.94    0.57
  -4   9   4   16.56    0.70
  -4   9   4   15.97    0.71
  -4   9   4   15.90    0.67
   3  -9  -4   11.47    0.53
   3  -9  -4   11.73    0.44
  -3   9   4   11.99    0.55
  -3   9   4   12.75    0.53
  -3   9   4   11.97    0.54
   2  -9  -4    5.14    0.27
   2  -9  -4    5.31    0.22
  -2   9   4    4.88    0.27
  -2   9   4    5.26    0.28
  -2   9   4    4.51    0.28
  -2   9   4    4.69    0.33
   1  -9  -4   16.14    0.70
   1  -9  -4   16.59    0.59
  -1   9   4   16.71    0.72
  -1   9   4   16.36    0.70
   0  -9  -4   34.98    1.16
   0  -9  -4   32.51    1.36
   0   9   4   33.23    1.39
   0   9   4   35.53    1.35
  -1  -9  -4    0.02    0.05
  -1  -9  -4    0.06    0.06
   1   9   4    0.08    0.07
   1   9   4    0.14    0.08
  -2  -9  -4    8.34    0.40
  -2  -9  -4    8.95    0.36
   2   9   4    8.18    0.41
   2   9   4    8.33    0.43
   2   9   4    8.65    0.35
  -3  -9  -4   12.70    0.57
   3   9   4   12.83    0.48
   3   9   4   12.68    0.57
   3   9   4   12.64    0.59
   4   9   4    2.46    0.17
   4   9   4    2.93    0.23
   4   9   4    2.65    0.21
   5   9   4    3.53    0.24
   5   9   4    3.45    0.26
   5   9   4    3.89    0.20
   6   9   4    7.54    0.43
   6   9   4    7.48    0.39
   6   9   4    7.89    0.32
   7   9   4    1.42    0.13
   7   9   4    1.58    0.19
 -10  10   4    2.12    0.22
  -9  10   4    8.02    0.45
  -9  10   4    8.52    0.43
  -8  10   4    6.00    0.36
  -7  10   4    0.24    0.11
   6 -10  -4   18.64    0.64
  -6  10   4   18.77    0.82
  -6  10   4   18.84    0.83
   5 -10  -4   10.10    0.37
   5 -10  -4    9.19    0.47
  -5  10   4   10.15    0.49
  -5  10   4   10.09    0.45
  -5  10   4    9.91    0.48
   4 -10  -4    0.42    0.10
   4 -10  -4    0.24    0.05
  -4  10   4    0.41    0.11
  -4  10   4    0.50    0.10
  -4  10   4    0.44    0.10
   3 -10  -4   21.01    0.91
   3 -10  -4   20.96    0.76
  -3  10   4   22.16    0.94
  -3  10   4   22.43    0.93
  -3  10   4   22.55    0.90
   2 -10  -4   14.73    0.52
   2 -10  -4   14.02    0.63
  -2  10   4   14.07    0.62
  -2  10   4   14.24    0.65
   1 -10  -4    2.92    0.16
   1 -10  -4    2.85    0.19
  -1  10   4    2.75    0.22
  -1  10   4    2.78    0.21
   0 -10  -4    7.44    0.31
   0 -10  -4    6.96    0.36
   0  10   4    7.66    0.39
   0  10   4    7.12    0.37
  -1 -10  -4   11.65    0.54
  -1 -10  -4   13.00    0.47
   1  10   4   11.40    0.56
   1  10   4   12.40    0.47
   1  10   4   11.95    0.55
  -2 -10  -4    1.61    0.14
   2  10   4    1.18    0.15
   2  10   4    1.30    0.16
   2  10   4    1.18    0.12
   3  10   4   15.27    0.56
   3  10   4   14.04    0.65
   3  10   4   14.79    0.68
   4  10   4    8.24    0.34
   4  10   4    7.81    0.40
   4  10   4    7.69    0.42
   5  10   4    0.15    0.11
   5  10   4    0.09    0.08
   5  10   4   -0.03    0.06
   6  10   4    2.19    0.24
   6  10   4    2.27    0.20
   6  10   4    2.27    0.16
  -9  11   4    0.04    0.11
  -9  11   4    0.20    0.12
  -8  11   4   16.32    0.76
  -7  11   4    4.87    0.33
   6 -11  -4    2.79    0.14
  -6  11   4    2.63    0.24
   5 -11  -4    8.77    0.34
  -5  11   4    8.58    0.44
  -5  11   4    8.76    0.46
   4 -11  -4   12.21    0.46
  -4  11   4   12.53    0.60
  -4  11   4   12.95    0.56
   3 -11  -4    1.15    0.11
  -3  11   4    0.89    0.14
  -3  11   4    0.95    0.13
   2 -11  -4   21.39    0.75
  -2  11   4   20.61    0.92
  -2  11   4   21.38    0.89
   1 -11  -4   11.48    0.44
  -1  11   4   11.75    0.54
  -1  11   4   11.61    0.56
   0 -11  -4    0.75    0.09
   0  11   4    0.85    0.13
   0  11   4    0.70    0.12
  -1 -11  -4   22.61    0.79
   1  11   4   22.81    0.79
   1  11   4   21.08    0.95
   1  11   4   20.57    0.91
  -2 -11  -4    4.90    0.25
   2  11   4    4.91    0.25
   2  11   4    4.74    0.29
   2  11   4    4.22    0.30
   3  11   4    0.19    0.11
   3  11   4    0.17    0.09
   3  11   4    0.19    0.07
   4  11   4    3.57    0.20
   4  11   4    3.11    0.24
   4  11   4    3.22    0.26
   5  11   4    9.04    0.47
   5  11   4    8.24    0.44
   5  11   4    9.20    0.37
  -8  12   4    0.52    0.15
  -8  12   4    0.52    0.13
  -7  12   4    2.09    0.23
   6 -12  -4   11.24    0.41
  -6  12   4   11.22    0.56
   5 -12  -4    2.12    0.14
  -5  12   4    2.57    0.20
  -5  12   4    1.61    0.20
   4 -12  -4   21.64    0.75
  -4  12   4   21.06    0.89
  -4  12   4   20.72    0.93
   3 -12  -4    1.74    0.13
  -3  12   4    1.89    0.18
  -3  12   4    1.57    0.19
   2 -12  -4    0.63    0.08
  -2  12   4    0.48    0.13
  -2  12   4    0.54    0.12
   1 -12  -4   12.09    0.46
  -1  12   4   11.93    0.56
  -1  12   4   11.89    0.58
   0 -12  -4   11.51    0.44
   0  12   4   10.57    0.54
   0  12   4   11.08    0.53
  -1 -12  -4    0.43    0.08
   1  12   4    0.44    0.12
   1  12   4    0.50    0.10
   1  12   4    0.67    0.12
   2  12   4   12.92    0.49
   2  12   4   11.31    0.56
   2  12   4   12.20    0.59
   3  12   4    8.12    0.35
   3  12   4    8.37    0.44
   3  12   4    7.56    0.41
   4  12   4    0.57    0.14
   4  12   4    0.65    0.10
   4  12   4    0.48    0.11
  -7  13   4    5.67    0.36
  -6  13   4    5.71    0.36
   5 -13  -4    0.08    0.05
  -5  13   4   -0.03    0.10
   4 -13  -4   -0.02    0.05
  -4  13   4   -0.01    0.09
  -4  13   4   -0.04    0.10
   3 -13  -4   11.64    0.43
  -3  13   4   10.95    0.53
  -3  13   4   10.93    0.56
   2 -13  -4    9.95    0.39
  -2  13   4    9.68    0.48
  -2  13   4    9.20    0.50
   1 -13  -4    5.49    0.25
  -1  13   4    5.07    0.31
  -1  13   4    5.00    0.33
   0 -13  -4    8.45    0.35
   0  13   4    7.97    0.44
   0  13   4    8.11    0.42
  -1 -13  -4    2.96    0.19
   1  13   4    2.71    0.24
   1  13   4    2.91    0.19
   1  13   4    2.62    0.22
   2  13   4    0.04    0.09
   2  13   4   -0.02    0.07
   2  13   4    0.03    0.11
   4 -14  -4    0.74    0.08
  -4  14   4    0.64    0.15
  -4  14   4    0.72    0.13
   3 -14  -4    6.52    0.28
  -3  14   4    5.99    0.35
  -3  14   4    6.45    0.39
   2 -14  -4    3.10    0.18
  -2  14   4    2.74    0.25
  -2  14   4    3.00    0.23
   1 -14  -4    2.31    0.16
  -1  14   4    2.10    0.22
  -1  14   4    1.88    0.20
   0 -14  -4   -0.07    0.06
   0  14   4    0.01    0.11
   0  14   4   -0.02    0.09
   1  16  -5    7.60    0.41
   0  16  -5    2.24    0.22
   0  16  -5    2.79    0.18
  -1  16  -5    0.78    0.11
  -1  16  -5    0.73    0.13
   4  15  -5    3.02    0.15
   4  15  -5    2.26    0.22
   3  15  -5    2.70    0.23
   3  15  -5    3.09    0.17
   2  15  -5    2.87    0.18
   2  15  -5    3.06    0.25
   1  15  -5    1.60    0.18
   1  15  -5    1.72    0.15
   0  15  -5    9.73    0.41
   0  15  -5   10.29    0.49
  -1  15  -5    3.89    0.22
  -1  15  -5    3.60    0.26
  -2  15  -5    0.91    0.12
  -3  15  -5    9.33    0.41
   3 -15   5   10.04    0.40
   4 -15   5    3.27    0.20
   6  14  -5    1.05    0.16
   5  14  -5    8.66    0.45
   4  14  -5    4.59    0.30
   4  14  -5    4.85    0.21
   3  14  -5   13.78    0.49
   3  14  -5   12.74    0.61
   2  14  -5   16.43    0.60
   2  14  -5   16.56    0.73
   1  14  -5    0.12    0.10
   1  14  -5    0.24    0.08
   0  14  -5    3.15    0.19
   0  14  -5    3.14    0.24
  -1  14  -5   17.59    0.71
  -1  14  -5   14.78    0.60
  -2  14  -5    4.82    0.26
  -3  14  -5    2.72    0.20
   3 -14   5    2.78    0.18
   4 -14   5    9.98    0.41
   5 -14   5    4.36    0.23
   6 -14   5    0.61    0.09
   7  13  -5    5.71    0.35
  -7 -13   5    6.21    0.34
   6  13  -5    0.35    0.12
  -6 -13   5    0.53    0.11
   5  13  -5    7.30    0.40
  -5 -13   5    7.78    0.39
   4  13  -5   10.00    0.38
   4  13  -5    9.59    0.49
  -4 -13   5   10.32    0.49
   3  13  -5    3.12    0.17
   3  13  -5    2.89    0.23
   2  13  -5    2.81    0.17
   2  13  -5    2.35    0.22
   1  13  -5   42.56    1.71
   1  13  -5   42.21    1.47
  -1 -13   5   45.00    1.71
   0  13  -5    7.72    0.33
   0  13  -5    7.72    0.40
   0 -13   5    7.72    0.38
  -1  13  -5   12.90    0.51
  -1  13  -5   13.91    0.60
  -2  13  -5   19.57    0.72
  -3  13  -5    8.05    0.36
   3 -13   5    7.90    0.34
   4 -13   5    3.01    0.18
   5 -13   5   15.15    0.57
   6 -13   5    3.61    0.20
   7 -13   5    0.70    0.09
   8  12  -5   -0.02    0.10
  -8 -12   5    0.18    0.09
   7  12  -5    6.40    0.37
  -7 -12   5    7.01    0.37
   6  12  -5    9.31    0.47
  -6 -12   5    9.51    0.46
   5  12  -5    0.07    0.10
  -5 -12   5    0.26    0.08
   4  12  -5   10.41    0.38
   4  12  -5    9.37    0.49
  -4 -12   5   10.27    0.48
  -4 -12   5   10.61    0.48
   3  12  -5   22.78    0.95
   3  12  -5   22.84    0.79
  -3 -12   5   23.12    0.94
  -3 -12   5   22.31    0.96
   2  12  -5    1.07    0.14
   2  12  -5    1.58    0.13
  -2 -12   5    1.52    0.15
  -2 -12   5    1.41    0.14
   1  12  -5    7.25    0.38
   1  12  -5    7.26    0.31
  -1 -12   5    7.30    0.35
   0  12  -5   17.18    0.73
   0  12  -5   16.94    0.62
   0 -12   5   16.86    0.71
  -1  12  -5   18.11    0.74
  -1  12  -5   17.20    0.63
   1 -12   5   16.72    0.73
  -2  12  -5    2.81    0.19
  -2  12  -5    2.80    0.21
   2 -12   5    2.86    0.19
  -3  12  -5   31.52    1.08
   3 -12   5   30.26    1.07
   4 -12   5    7.72    0.33
   5 -12   5    0.93    0.10
   6 -12   5   12.11    0.47
   7 -12   5    4.61    0.23
   8 -12   5    0.77    0.09
   9  11  -5    6.66    0.38
  -9 -11   5    6.84    0.37
   8  11  -5   10.32    0.51
  -8 -11   5   10.51    0.50
   7  11  -5   -0.06    0.09
  -7 -11   5    0.19    0.08
   6  11  -5   15.74    0.70
  -6 -11   5   15.91    0.70
   5  11  -5   18.26    0.78
  -5 -11   5   18.20    0.78
  -5 -11   5   17.84    0.77
   4  11  -5    0.30    0.06
   4  11  -5    0.16    0.09
  -4 -11   5    0.26    0.08
  -4 -11   5    0.27    0.08
   3  11  -5   21.61    0.92
   3  11  -5   22.22    0.77
  -3 -11   5   22.92    0.94
  -3 -11   5   22.31    0.91
   2  11  -5   27.51    1.14
   2  11  -5   28.21    0.97
  -2 -11   5   30.06    1.18
  -2 -11   5   27.74    1.14
   1  11  -5    1.91    0.18
   1  11  -5    1.84    0.15
  -1 -11   5    1.81    0.15
  -1 -11   5    2.10    0.16
   0  11  -5   15.50    0.67
   0  11  -5   15.66    0.58
   0 -11   5   16.24    0.67
  -1  11  -5   23.53    0.93
  -1  11  -5   22.74    0.81
   1 -11   5   22.58    0.93
  -2  11  -5    1.70    0.16
  -2  11  -5    1.53    0.15
   2 -11   5    1.74    0.14
  -3  11  -5    1.86    0.16
   3 -11   5    1.76    0.14
   4 -11   5   10.84    0.42
   5 -11   5    5.46    0.25
   6 -11   5    0.73    0.09
   7 -11   5    5.06    0.24
   8 -11   5    2.72    0.17
  10  10  -5    3.81    0.29
   9  10  -5    0.17    0.11
   9  10  -5   -0.06    0.09
  -9 -10   5    0.11    0.09
   8  10  -5    8.58    0.47
   8  10  -5    9.36    0.46
  -8 -10   5   10.35    0.46
   7  10  -5   11.65    0.55
  -7 -10   5   12.11    0.55
   6  10  -5    0.08    0.09
   6  10  -5    0.01    0.08
  -6 -10   5    0.19    0.08
  -6 -10   5    0.09    0.07
   5  10  -5   21.83    0.90
  -5 -10   5   20.76    0.90
  -5 -10   5   21.69    0.89
   4  10  -5   31.97    1.04
   4  10  -5   31.45    1.24
  -4 -10   5   29.51    1.23
  -4 -10   5   30.58    1.26
   3  10  -5    0.57    0.07
  -3 -10   5    0.96    0.13
  -3 -10   5    0.89    0.10
  -3 -10   5    0.82    0.10
   2  10  -5   27.26    0.91
   2  10  -5   26.85    1.07
  -2 -10   5   26.80    1.06
  -2 -10   5   27.21    1.10
  -2 -10   5   25.11    1.38
   1  10  -5   44.16    1.72
   1  10  -5   46.05    1.48
  -1 -10   5   43.36    1.72
  -1 -10   5   42.39    2.24
  -1 -10   5   45.31    1.78
   0  10  -5    0.79    0.09
   0  10  -5    0.97    0.11
   0 -10   5    1.08    0.13
   0 -10   5    0.97    0.11
   0 -10   5    0.90    0.11
  -1  10  -5   23.34    0.93
  -1  10  -5   22.28    0.81
   1 -10   5   24.10    0.94
  -2  10  -5   25.14    0.89
  -2  10  -5   25.45    1.01
   2 -10   5   26.26    1.03
  -3  10  -5    0.95    0.10
   3 -10   5    0.87    0.09
   4 -10   5   12.28    0.46
   5 -10   5    9.95    0.39
   6 -10   5    0.07    0.06
   7 -10   5    3.31    0.18
   8 -10   5    2.87    0.17
   9 -10   5    0.18    0.06
  10   9  -5    5.64    0.35
 -10  -9   5    6.20    0.33
   9   9  -5    4.98    0.33
  -9  -9   5    5.65    0.30
   8   9  -5    0.55    0.11
   8   9  -5    0.71    0.12
  -8  -9   5    0.61    0.10
   7   9  -5   17.54    0.76
   7   9  -5   17.49    0.74
  -7  -9   5   17.69    0.75
  -7  -9   5   17.00    0.75
   6   9  -5   16.94    0.72
  -6  -9   5   17.23    0.73
  -6  -9   5   16.76    0.72
   5   9  -5    0.77    0.12
  -5  -9   5    0.99    0.11
  -5  -9   5    1.12    0.13
   4   9  -5   27.81    1.13
   4   9  -5   29.76    0.95
  -4  -9   5   28.63    1.16
  -4  -9   5   28.07    1.46
  -4  -9   5   27.34    1.13
   3   9  -5   28.60    0.94
   3   9  -5   28.45    1.11
  -3  -9   5   27.70    1.11
  -3  -9   5   27.50    1.43
  -3  -9   5   27.09    1.14
   2   9  -5    0.32    0.06
   2   9  -5    0.29    0.08
  -2  -9   5    0.41    0.09
  -2  -9   5    0.64    0.08
  -2  -9   5    0.62    0.08
   1   9  -5   30.85    1.17
   1   9  -5   29.97    1.01
  -1  -9   5   28.34    1.52
  -1  -9   5   29.38    1.17
  -1  -9   5   30.18    1.21
   0   9  -5   43.21    1.62
   0   9  -5   42.32    1.41
   0  -9   5   39.00    2.12
   0  -9   5   43.66    1.69
   0  -9   5   42.04    1.63
  -1   9  -5    2.20    0.16
  -1   9  -5    1.93    0.14
   1  -9   5    2.18    0.14
   1  -9   5    1.76    0.17
  -2   9  -5   29.05    1.11
  -2   9  -5   27.78    0.98
   2  -9   5   28.77    1.13
  -3   9  -5   31.82    1.10
   3  -9   5   32.40    1.09
   4  -9   5   -0.04    0.04
   5  -9   5   12.51    0.46
   6  -9   5   14.12    0.52
   7  -9   5    0.13    0.06
   8  -9   5    9.52    0.37
  11   8  -5    1.44    0.18
  10   8  -5    2.13    0.21
 -10  -8   5    2.08    0.18
   9   8  -5   12.84    0.60
  -9  -8   5   12.76    0.57
   8   8  -5    6.87    0.36
   8   8  -5    6.93    0.35
  -8  -8   5    6.61    0.35
  -8  -8   5    6.55    0.33
   7   8  -5    3.51    0.22
   7   8  -5    3.03    0.22
  -7  -8   5    2.88    0.20
  -7  -8   5    3.55    0.21
   6   8  -5   26.76    1.14
   6   8  -5   28.39    1.12
  -6  -8   5   27.41    1.13
  -6  -8   5   29.77    1.15
   5   8  -5   22.68    0.90
   5   8  -5   22.19    0.91
  -5  -8   5   22.37    0.91
  -5  -8   5   21.27    1.15
  -5  -8   5   22.52    0.90
   4   8  -5    0.42    0.08
   4   8  -5    0.58    0.05
  -4  -8   5    0.41    0.07
  -4  -8   5    0.54    0.08
  -4  -8   5    0.50    0.09
   3   8  -5   63.71    2.49
   3   8  -5   68.42    2.14
  -3  -8   5   64.28    2.51
  -3  -8   5   66.59    2.58
  -3  -8   5   63.67    3.25
   2   8  -5   40.87    1.57
   2   8  -5   40.90    1.35
  -2  -8   5   40.01    2.05
  -2  -8   5   40.11    1.62
  -2  -8   5   41.12    1.58
   1   8  -5    4.09    0.18
   1   8  -5    4.14    0.22
  -1  -8   5    4.20    0.27
  -1  -8   5    3.90    0.22
  -1  -8   5    4.15    0.20
   0   8  -5   42.24    1.59
   0   8  -5   43.49    1.38
   0  -8   5   37.45    2.08
   0  -8   5   40.87    1.60
   0  -8   5   42.95    1.66
  -1   8  -5   29.85    1.14
  -1   8  -5   28.56    0.99
   1  -8   5   28.38    1.50
   1  -8   5   30.44    1.15
   1  -8   5   29.53    1.19
  -2   8  -5    0.21    0.06
  -2   8  -5    0.12    0.05
  -2   8  -5    0.04    0.05
   2  -8   5    0.05    0.06
   2  -8   5    0.09    0.04
   2  -8   5    0.08    0.04
  -3   8  -5   23.22    0.80
   3  -8   5   22.63    0.79
   4  -8   5   26.89    0.92
   5  -8   5    0.11    0.05
   6  -8   5   19.65    0.69
   7  -8   5    9.61    0.38
   8  -8   5    0.03    0.05
   9  -8   5    3.89    0.20
  11   7  -5    7.25    0.41
 -11  -7   5    7.89    0.39
  10   7  -5    1.29    0.16
 -10  -7   5    1.57    0.15
   9   7  -5    4.69    0.28
  -9  -7   5    3.99    0.24
   8   7  -5   24.66    0.97
   8   7  -5   23.18    1.01
  -8  -7   5   24.67    1.00
  -8  -7   5   24.19    1.00
   7   7  -5   11.59    0.49
   7   7  -5   11.81    0.50
  -7  -7   5   10.81    0.48
  -7  -7   5   10.24    0.49
   6   7  -5    6.14    0.29
   6   7  -5    6.16    0.29
  -6  -7   5    5.32    0.28
  -6  -7   5    5.93    0.29
  -6  -7   5    5.50    0.34
   5   7  -5   61.31    2.27
  -5  -7   5   61.79    2.35
  -5  -7   5   56.54    2.96
  -5  -7   5   58.48    2.29
   4   7  -5   21.17    0.86
  -4  -7   5   21.11    0.86
  -4  -7   5   21.08    1.10
  -4  -7   5   22.31    0.88
   3   7  -5    4.39    0.17
   3   7  -5    4.15    0.22
  -3  -7   5    4.20    0.27
  -3  -7   5    4.65    0.22
  -3  -7   5    4.25    0.22
   2   7  -5   41.14    1.60
   2   7  -5   42.77    1.38
  -2  -7   5   42.93    1.66
  -2  -7   5   43.14    1.62
  -2  -7   5   39.13    2.10
   1   7  -5   77.01    2.45
   1   7  -5   73.28    2.82
   1   7  -5   73.16    2.94
  -1  -7   5   76.36    2.94
  -1  -7   5   74.97    2.85
  -1  -7   5   73.76    3.71
   0   7  -5    0.63    0.06
   0   7  -5    0.89    0.07
   0   7  -5    0.91    0.10
   0  -7   5    0.92    0.10
   0  -7   5    0.78    0.10
   0  -7   5    0.72    0.08
  -1   7  -5   91.61    2.93
  -1   7  -5   90.92    4.43
  -1   7  -5   95.41    3.54
  -1   7  -5   82.45    3.35
   1  -7   5   91.55    3.51
   1  -7   5   86.11    4.43
   1  -7   5   88.51    3.40
  -2   7  -5   24.52    0.86
  -2   7  -5   26.12    1.04
  -2   7  -5   26.15    1.30
  -2   7  -5   25.33    0.97
   2  -7   5   24.02    0.85
   2  -7   5   24.30    1.29
   2  -7   5   26.11    0.99
  -3   7  -5    2.79    0.22
  -3   7  -5    2.91    0.16
  -3   7  -5    2.88    0.18
   3  -7   5    2.79    0.15
   4  -7   5   26.84    0.92
   5  -7   5   17.26    0.61
   6  -7   5    0.05    0.05
   7  -7   5   13.41    0.49
   8  -7   5   11.78    0.44
   9  -7   5    0.17    0.06
  12   6  -5    1.10    0.17
  11   6  -5    4.67    0.30
 -11  -6   5    4.74    0.27
  10   6  -5   20.44    0.89
 -10  -6   5   20.38    0.85
   9   6  -5    2.62    0.21
  -9  -6   5    2.71    0.17
  -9  -6   5    2.65    0.20
   8   6  -5   12.58    0.55
   8   6  -5   12.35    0.52
  -8  -6   5   11.94    0.52
  -8  -6   5   12.24    0.54
   7   6  -5   38.57    1.52
   7   6  -5   38.22    1.47
  -7  -6   5   36.75    1.49
  -7  -6   5   38.17    1.51
   6   6  -5   13.53    0.55
   6   6  -5   13.17    0.54
  -6  -6   5   11.97    0.67
  -6  -6   5   12.53    0.54
  -6  -6   5   13.08    0.54
   5   6  -5   10.85    0.44
   5   6  -5   10.28    0.44
  -5  -6   5   10.11    0.43
  -5  -6   5    9.59    0.54
  -5  -6   5    9.98    0.43
   4   6  -5   67.95    2.54
  -4  -6   5   67.02    3.32
  -4  -6   5   66.00    2.57
  -4  -6   5   67.55    2.63
   3   6  -5   43.58    1.63
   3   6  -5   43.18    1.39
   3   6  -5   43.25    1.40
  -3  -6   5   42.25    1.69
  -3  -6   5   44.81    2.12
  -3  -6   5   39.87    2.12
  -3  -6   5   41.45    1.64
   2   6  -5   22.91    0.89
   2   6  -5   23.00    0.76
  -2  -6   5   23.15    0.89
  -2  -6   5   21.33    1.16
  -2  -6   5   23.86    1.16
  -2  -6   5   22.44    0.92
   1   6  -5   66.24    2.60
   1   6  -5   67.99    2.16
   1   6  -5   66.72    2.49
  -1  -6   5   61.79    2.59
  -1  -6   5   66.44    2.51
  -1  -6   5   64.67    3.28
  -1  -6   5   68.74    3.27
   0   6  -5   10.07    0.52
   0   6  -5    9.56    0.35
   0   6  -5    9.48    0.42
   0   6  -5   10.14    0.41
   0  -6   5   11.23    0.43
   0  -6   5   10.24    0.54
   0  -6   5    9.22    0.53
   0  -6   5    9.73    0.40
  -1   6  -5    0.85    0.08
  -1   6  -5    0.80    0.09
  -1   6  -5    1.09    0.11
  -1   6  -5    0.81    0.07
   1  -6   5    0.98    0.08
   1  -6   5    0.90    0.08
   1  -6   5    0.88    0.10
  -2   6  -5   43.80    1.65
  -2   6  -5   42.71    1.75
  -2   6  -5   43.07    2.19
  -2   6  -5   42.47    1.45
   2  -6   5   42.85    2.18
   2  -6   5   44.35    1.45
   2  -6   5   46.06    1.73
  -3   6  -5   61.40    3.08
  -3   6  -5   62.45    2.03
  -3   6  -5   58.34    2.47
   3  -6   5   65.43    3.07
   3  -6   5   60.71    2.03
  -4   6  -5    7.21    0.44
   4  -6   5    7.55    0.29
  -5   6  -5   37.15    1.94
   5  -6   5   38.98    1.28
   6  -6   5    9.43    0.36
  -7   6  -5    0.46    0.11
   7  -6   5    0.39    0.06
   8  -6   5   11.19    0.42
   9  -6   5    6.90    0.29
  10  -6   5   -0.12    0.05
  12   5  -5    5.55    0.34
  11   5  -5    0.77    0.13
 -11  -5   5    0.97    0.11
  10   5  -5    4.45    0.27
 -10  -5   5    4.08    0.23
   9   5  -5   26.49    1.14
  -9  -5   5   28.55    1.13
  -9  -5   5   28.19    1.12
   8   5  -5   11.47    0.51
  -8  -5   5   11.07    0.48
  -8  -5   5   11.30    0.50
   7   5  -5   21.33    0.84
   7   5  -5   21.70    0.87
  -7  -5   5   20.96    0.85
  -7  -5   5   20.99    1.07
  -7  -5   5   20.78    0.86
   6   5  -5   68.54    2.59
   6   5  -5   67.66    2.67
  -6  -5   5   67.74    2.62
  -6  -5   5   68.52    3.38
  -6  -5   5   69.73    2.68
   5   5  -5   12.84    0.53
   5   5  -5   14.38    0.55
  -5  -5   5   12.75    0.53
  -5  -5   5   13.06    0.54
  -5  -5   5   12.44    0.67
   4   5  -5   28.40    0.94
   4   5  -5   28.93    1.10
  -4  -5   5   28.51    1.11
  -4  -5   5   27.16    1.42
  -4  -5   5   27.53    1.13
  -4  -5   5   30.61    1.42
   3   5  -5   85.22    3.12
   3   5  -5   87.43    2.71
   3   5  -5   82.68    2.95
  -3  -5   5   77.75    4.09
  -3  -5   5   74.00    3.24
  -3  -5   5   83.44    3.16
  -3  -5   5   91.37    4.09
   2   5  -5   23.95    0.88
   2   5  -5   21.79    0.74
  -2  -5   5   22.05    1.14
  -2  -5   5   22.53    0.89
  -2  -5   5   22.43    0.88
  -2  -5   5   22.51    0.90
   1   5  -5   15.42    0.60
   1   5  -5   15.44    0.62
   1   5  -5   15.06    0.51
  -1  -5   5   15.65    0.60
  -1  -5   5   15.50    0.61
  -1  -5   5   15.41    0.62
  -1  -5   5   14.02    0.78
   0   5  -5  141.57    7.11
   0   5  -5  143.27    5.40
   0   5  -5  146.83    5.69
   0   5  -5  146.24    4.70
   0  -5   5  139.37    5.64
   0  -5   5  141.22    5.68
   0  -5   5  140.96    7.12
   0  -5   5  152.18    5.46
   0  -5   5  151.57    7.12
  -1   5  -5   11.60    0.58
  -1   5  -5   10.40    0.39
  -1   5  -5   10.71    0.44
  -1   5  -5   11.68    0.47
   1  -5   5   11.81    0.59
   1  -5   5   11.26    0.44
   1  -5   5   10.71    0.58
   1  -5   5   10.89    0.46
   1  -5   5   10.25    0.46
  -2   5  -5   58.01    1.92
  -2   5  -5   58.20    2.91
  -2   5  -5   58.89    2.33
   2  -5   5   61.46    2.30
   2  -5   5   56.94    1.92
   2  -5   5   57.29    2.90
  -3   5  -5   16.02    0.68
  -3   5  -5   15.34    0.83
  -3   5  -5   15.43    0.55
   3  -5   5   15.93    0.55
   3  -5   5   16.27    0.83
  -4   5  -5    6.99    0.41
  -4   5  -5    6.90    0.33
  -4   5  -5    6.62    0.27
   4  -5   5    6.77    0.27
  -6   5  -5   41.92    1.64
  -6   5  -5   39.10    2.06
   6  -5   5   41.51    1.36
   6  -5   5   39.59    1.60
  -7   5  -5   10.36    0.50
   7  -5   5   10.90    0.40
   8  -5   5    2.77    0.16
   9  -5   5    7.81    0.31
   9  -5   5    7.73    0.39
  12   4  -5    4.06    0.28
 -12  -4   5    4.10    0.24
  11   4  -5   10.77    0.52
 -11  -4   5   10.64    0.48
  10   4  -5    0.31    0.10
 -10  -4   5    0.37    0.07
 -10  -4   5    0.37    0.10
   9   4  -5   12.01    0.54
  -9  -4   5   11.77    0.50
   8   4  -5   19.36    0.79
  -8  -4   5   18.38    0.96
  -8  -4   5   18.95    0.76
   7   4  -5   10.29    0.44
   7   4  -5    9.70    0.41
  -7  -4   5    9.88    0.41
  -7  -4   5    9.56    0.51
   6   4  -5   10.46    0.46
   6   4  -5   10.51    0.44
  -6  -4   5   10.96    0.43
   5   4  -5  109.95    3.87
   5   4  -5   93.74    3.98
  -5  -4   5  105.07    4.01
  -5  -4   5  104.16    3.92
   4   4  -5   18.37    0.72
   4   4  -5   18.79    0.62
  -4  -4   5   18.51    0.74
  -4  -4   5   18.44    0.73
  -4  -4   5   18.57    0.92
  -4  -4   5   17.82    0.73
   3   4  -5   55.76    1.75
   3   4  -5   53.39    1.91
   3   4  -5   53.76    2.02
  -3  -4   5   55.01    2.04
  -3  -4   5   50.73    2.09
  -3  -4   5   53.83    2.11
  -3  -4   5   52.67    2.64
   2   4  -5  123.59    4.78
   2   4  -5  128.49    4.15
  -2  -4   5  127.23    6.29
  -2  -4   5  123.67    4.98
  -2  -4   5  135.94    5.04
  -2  -4   5  129.22    4.83
   1   4  -5   13.56    0.52
   1   4  -5   13.64    0.54
   1   4  -5   12.52    0.44
  -1  -4   5   13.37    0.54
  -1  -4   5   12.98    0.51
  -1  -4   5   13.07    0.68
  -1  -4   5   13.03    0.53
   0   4  -5   52.99    2.08
   0   4  -5   50.47    1.97
   0   4  -5   53.99    2.59
   0   4  -5   52.49    1.72
   0  -4   5   51.49    2.60
   0  -4   5   53.13    2.06
   0  -4   5   53.87    1.99
   0  -4   5   51.35    2.08
  -1   4  -5   97.74    4.72
  -1   4  -5  100.32    3.58
  -1   4  -5   98.03    3.78
  -1   4  -5   94.91    3.12
   1  -4   5   91.44    3.74
   1  -4   5   99.95    3.78
   1  -4   5   88.07    4.72
  -2   4  -5   37.61    1.25
  -2   4  -5   37.51    1.89
  -2   4  -5   37.06    1.52
   2  -4   5   38.74    1.52
   2  -4   5   35.58    1.89
   2  -4   5   37.24    1.25
   2  -4   5   41.02    1.50
  -3   4  -5   44.01    1.85
  -3   4  -5   46.49    1.52
  -3   4  -5   46.79    2.30
   3  -4   5   46.50    1.52
   3  -4   5   46.57    2.30
  -4   4  -5  118.87    6.33
  -4   4  -5  128.55    4.18
  -4   4  -5  134.02    5.02
   4  -4   5  131.84    4.18
  -5   4  -5   -0.10    0.07
  -5   4  -5   -0.08    0.07
   5  -4   5    0.19    0.05
   5  -4   5    0.10    0.05
  -6   4  -5   16.53    0.94
  -6   4  -5   17.60    0.76
   6  -4   5   17.67    0.62
   6  -4   5   18.90    0.74
  -7   4  -5    8.82    0.44
   7  -4   5    9.54    0.36
  -8   4  -5   10.50    0.53
   8  -4   5   11.87    0.52
   8  -4   5   11.41    0.42
   9  -4   5    1.27    0.12
   9  -4   5    1.73    0.17
  13   3  -5    3.72    0.28
  12   3  -5    0.21    0.10
 -12  -3   5    0.14    0.08
  11   3  -5    9.39    0.48
 -11  -3   5   10.18    0.44
  10   3  -5    9.76    0.47
 -10  -3   5    9.70    0.42
   9   3  -5    0.39    0.09
  -9  -3   5    0.40    0.06
   8   3  -5   29.43    1.19
  -8  -3   5   29.19    1.17
  -8  -3   5   29.88    1.47
   7   3  -5   44.16    1.69
   7   3  -5   44.71    1.75
   6   3  -5    1.56    0.12
   6   3  -5    1.73    0.13
   5   3  -5   28.15    1.14
   5   3  -5   29.49    1.10
   4   3  -5   45.45    1.45
   4   3  -5   42.36    1.57
   4   3  -5   43.34    1.66
  -4  -3   5   44.39    1.74
   3   3  -5   30.40    1.13
   3   3  -5   31.93    1.04
   3   3  -5   31.26    1.19
  -3  -3   5   31.60    1.25
  -3  -3   5   31.62    1.22
  -3  -3   5   31.00    1.20
   2   3  -5   68.03    2.58
   2   3  -5   69.15    2.44
  -2  -3   5   70.22    2.71
  -2  -3   5   70.72    3.38
  -2  -3   5   67.04    3.38
  -2  -3   5   70.34    2.60
  -2  -3   5   66.04    2.68
   1   3  -5  149.74    5.97
   1   3  -5  164.58    6.30
   1   3  -5  164.95    5.20
  -1  -3   5  161.38    7.88
  -1  -3   5  165.81    6.32
  -1  -3   5  159.80    7.86
  -1  -3   5  156.29    6.23
   0   3  -5    8.26    0.29
   0   3  -5    8.29    0.43
   0   3  -5    8.33    0.33
   0   3  -5    8.44    0.35
   0  -3   5    8.01    0.43
   0  -3   5    7.84    0.43
   0  -3   5    8.01    0.35
   0  -3   5    8.20    0.35
  -1   3  -5   56.69    2.16
  -1   3  -5   58.34    2.29
  -1   3  -5   58.26    1.88
  -1   3  -5   61.75    2.85
   1  -3   5   54.94    2.26
   1  -3   5   57.83    2.28
   1  -3   5   55.59    2.85
  -2   3  -5  115.61    3.90
  -2   3  -5  124.34    5.90
  -2   3  -5  114.47    4.73
   2  -3   5  117.37    3.90
   2  -3   5  117.04    4.67
   2  -3   5  120.59    5.90
   2  -3   5  129.70    4.73
  -3   3  -5   14.83    0.61
  -3   3  -5   14.22    0.77
  -3   3  -5   14.90    0.51
  -3   3  -5   14.27    0.63
   3  -3   5   15.20    0.77
   3  -3   5   14.90    0.62
   3  -3   5   14.62    0.51
  -4   3  -5   14.41    0.51
  -4   3  -5   14.14    0.61
  -4   3  -5   14.43    0.77
   4  -3   5   14.85    0.51
   4  -3   5   14.50    0.59
  -5   3  -5   78.50    4.17
  -5   3  -5   88.33    3.31
   5  -3   5   84.13    3.26
   5  -3   5   85.23    2.76
  -6   3  -5   30.10    1.69
  -6   3  -5   33.95    1.35
   6  -3   5   34.97    1.12
   6  -3   5   33.32    1.32
  -7   3  -5   27.25    1.18
   7  -3   5   29.06    0.98
   7  -3   5   29.41    1.16
  -8   3  -5   32.59    1.37
   8  -3   5   32.43    1.12
   8  -3   5   34.45    1.35
   9  -3   5    0.71    0.12
   9  -3   5    0.69    0.08
  10  -3   5    0.33    0.07
  10  -3   5    0.34    0.10
  13   2  -5    7.27    0.41
  12   2  -5    2.78    0.23
 -12  -2   5    2.83    0.19
  11   2  -5    0.11    0.09
 -11  -2   5    0.06    0.06
  10   2  -5   25.09    1.03
 -10  -2   5   24.07    0.99
   9   2  -5   24.50    1.00
  -9  -2   5   23.90    0.96
   8   2  -5    2.14    0.17
   7   2  -5   37.58    1.49
   6   2  -5   70.88    2.82
   6   2  -5   74.17    2.72
   5   2  -5    0.58    0.06
   5   2  -5    0.78    0.07
   5   2  -5    0.53    0.06
   5   2  -5    0.44    0.05
   4   2  -5  195.50    6.19
   4   2  -5  194.08    7.09
   4   2  -5  182.37    6.73
   3   2  -5   68.85    2.60
   3   2  -5   76.07    2.74
   3   2  -5   72.54    2.39
  -3  -2   5   74.87    2.89
   2   2  -5   14.70    0.56
   2   2  -5   15.20    0.51
   2   2  -5   14.76    0.59
  -2  -2   5   14.91    0.60
  -2  -2   5   14.93    0.75
  -2  -2   5   14.82    0.75
  -2  -2   5   15.75    0.62
   1   2  -5   37.07    1.43
   1   2  -5   38.63    1.24
   1   2  -5   40.04    1.51
   1   2  -5   38.17    1.36
  -1  -2   5   35.92    1.48
  -1  -2   5   35.50    1.87
  -1  -2   5   37.93    1.87
  -1  -2   5   39.92    1.51
   0   2  -5  150.35    4.96
   0   2  -5  157.22    7.50
   0   2  -5  158.08    5.70
   0   2  -5  154.93    6.01
   0   2  -5  149.91    7.50
   0  -2   5  150.29    5.94
   0  -2   5  141.81    7.50
   0  -2   5  158.68    6.02
   0  -2   5  155.29    7.51
  -1   2  -5   11.89    0.47
  -1   2  -5   11.70    0.41
  -1   2  -5   12.51    0.62
  -1   2  -5   11.68    0.50
   1  -2   5   12.46    0.50
   1  -2   5   12.18    0.62
   1  -2   5   11.18    0.49
   1  -2   5   11.61    0.62
  -2   2  -5   82.04    3.26
  -2   2  -5   83.87    2.69
  -2   2  -5   79.67    4.06
   2  -2   5   81.76    3.22
   2  -2   5   83.64    3.26
   2  -2   5   83.04    4.06
  -3   2  -5   83.08    3.38
  -3   2  -5   86.88    3.34
  -3   2  -5   84.72    2.79
  -3   2  -5   85.29    4.21
   3  -2   5   84.43    4.21
   3  -2   5   85.20    3.38
   3  -2   5   86.87    2.78
  -4   2  -5    9.45    0.36
  -4   2  -5   10.01    0.43
  -4   2  -5    9.73    0.54
   4  -2   5   10.04    0.41
   4  -2   5    9.76    0.36
  -5   2  -5   15.65    0.83
  -5   2  -5   15.94    0.67
   5  -2   5   15.05    0.65
   5  -2   5   16.01    0.55
  -6   2  -5   32.45    1.75
  -6   2  -5   34.88    1.39
   6  -2   5   35.90    1.16
   6  -2   5   34.12    1.37
  -7   2  -5   13.82    0.82
  -7   2  -5   14.48    0.66
   7  -2   5   16.66    0.65
   7  -2   5   15.18    0.54
  -8   2  -5    0.08    0.10
   8  -2   5    0.19    0.09
   8  -2   5    0.04    0.06
   9  -2   5   31.72    1.22
   9  -2   5   26.89    0.99
  10  -2   5    7.63    0.38
  10  -2   5    6.77    0.28
  13   1  -5    0.01    0.10
  12   1  -5   15.47    0.73
 -12  -1   5   16.85    0.69
  11   1  -5   14.37    0.65
 -11  -1   5   14.19    0.60
  10   1  -5    3.70    0.25
 -10  -1   5    3.92    0.20
   9   1  -5   29.37    1.20
  -9  -1   5   29.50    1.17
   8   1  -5   37.75    1.51
   7   1  -5    0.26    0.06
   6   1  -5  106.39    4.09
   6   1  -5  105.07    3.95
   5   1  -5   68.88    2.73
   5   1  -5   71.80    2.64
   5   1  -5   71.76    2.31
   5   1  -5   69.25    2.51
   4   1  -5    0.15    0.04
   4   1  -5    0.23    0.04
   4   1  -5    0.29    0.04
   3   1  -5  114.94    4.33
   3   1  -5  111.11    4.11
   3   1  -5  115.47    3.78
  -3  -1   5  122.59    4.57
   2   1  -5  282.30   11.18
   2   1  -5  278.95   10.64
   2   1  -5  302.75    9.81
  -2  -1   5  279.64   11.68
  -2  -1   5  309.98   11.68
  -2  -1   5  307.65   11.86
  -2  -1   5  316.10   14.75
  -2  -1   5  329.69   14.75
   1   1  -5    3.09    0.15
   1   1  -5    2.88    0.14
   1   1  -5    2.85    0.14
   1   1  -5    2.75    0.12
  -1  -1   5    3.18    0.17
  -1  -1   5    2.85    0.14
  -1  -1   5    3.03    0.17
  -1  -1   5    2.96    0.15
   0   1  -5  249.47    9.94
   0   1  -5  234.82   12.41
   0   1  -5  259.01   12.43
   0   1  -5  247.31    8.21
   0   1  -5  245.73    8.95
   0   1  -5  266.86    9.42
   0  -1   5  255.70    9.85
   0  -1   5  259.23   12.46
   0  -1   5  264.78   12.47
   0  -1   5  253.15   10.00
  -1   1  -5   71.31    2.70
  -1   1  -5   72.52    3.53
  -1   1  -5   71.05    2.67
  -1   1  -5   69.40    2.33
  -1   1  -5   71.35    2.83
   1  -1   5   76.95    3.53
   1  -1   5   70.22    2.79
   1  -1   5   72.28    3.53
   1  -1   5   68.40    2.83
  -2   1  -5    4.27    0.21
  -2   1  -5    4.21    0.18
  -2   1  -5    4.04    0.17
  -2   1  -5    3.87    0.25
   2  -1   5    4.26    0.25
   2  -1   5    4.61    0.21
   2  -1   5    4.23    0.20
  -3   1  -5   45.63    1.87
  -3   1  -5   47.18    1.84
  -3   1  -5   47.73    2.33
  -3   1  -5   47.82    1.54
   3  -1   5   46.06    2.32
   3  -1   5   48.60    1.87
   3  -1   5   42.87    1.81
   3  -1   5   47.40    1.54
  -4   1  -5   91.85    4.45
  -4   1  -5   90.52    3.52
   4  -1   5   92.15    2.94
   4  -1   5   84.62    3.47
  -5   1  -5    2.17    0.17
  -5   1  -5    2.29    0.19
   5  -1   5    2.47    0.15
   5  -1   5    2.35    0.14
  -6   1  -5   16.15    0.68
  -6   1  -5   14.72    0.85
   6  -1   5   16.54    0.56
   6  -1   5   15.71    0.66
  -7   1  -5   19.08    0.81
   7  -1   5   18.16    0.80
   7  -1   5   19.80    0.67
  -8   1  -5    2.67    0.21
   8  -1   5    2.78    0.21
   8  -1   5    2.53    0.16
   9  -1   5    0.83    0.12
   9  -1   5    0.56    0.08
  10  -1   5    3.08    0.23
  10  -1   5    3.07    0.16
  13   0  -5    2.36    0.22
  12   0  -5    1.26    0.16
 -12   0   5    1.07    0.11
  11   0  -5   10.62    0.51
 -11   0   5   10.81    0.47
  10   0  -5   20.02    0.85
 -10   0   5   19.78    0.81
   9   0  -5    0.10    0.07
  -9   0   5    0.10    0.05
   8   0  -5   68.50    2.69
   7   0  -5   39.06    1.55
   6   0  -5    1.40    0.12
   5   0  -5   87.81    3.31
   5   0  -5   86.91    3.15
   5   0  -5   90.71    3.42
   5   0  -5   88.52    2.90
   4   0  -5  118.33    4.35
   4   0  -5  118.86    3.80
   4   0  -5  115.08    4.49
   4   0  -5  113.77    4.13
   3   0  -5    2.99    0.15
   3   0  -5    3.06    0.15
   3   0  -5    3.34    0.14
  -3   0   5    3.38    0.17
   2   0  -5  142.32    4.61
   2   0  -5  132.91    5.01
   2   0  -5  144.23    5.27
  -2   0   5  139.16    5.49
  -2   0   5  141.64    6.93
  -2   0   5  147.03    6.94
  -2   0   5  143.56    5.57
   1   0  -5  114.74    3.63
   1   0  -5  108.29    4.39
   1   0  -5  103.47    3.61
   1   0  -5  119.58    4.20
   1   0  -5  110.56    4.15
   1   0  -5  102.38    3.94
  -1   0   5  108.87    4.33
  -1   0   5  118.28    5.47
  -1   0   5  114.00    4.39
  -1   0   5  113.54    5.47
   0   0  -5   10.13    0.41
   0   0  -5   10.45    0.36
   0   0  -5   10.74    0.54
   0   0  -5   10.70    0.41
   0   0  -5   10.01    0.45
   0   0  -5   10.08    0.40
   0   0   5   10.77    0.54
   0   0   5   10.05    0.54
   0   0   5   10.66    0.43
   0   0   5   10.59    0.44
  -1   0  -5  122.23    4.81
  -1   0  -5  118.77    6.00
  -1   0  -5  125.75    3.97
  -1   0  -5  128.11    4.55
  -1   0  -5  127.61    4.61
  -1   0  -5  115.32    4.32
   1   0   5  127.35    6.00
   1   0   5  121.24    6.00
   1   0   5  125.74    4.75
   1   0   5  107.43    4.55
   1   0   5  122.55    4.81
  -2   0  -5  152.24    5.46
  -2   0  -5  160.02    7.59
  -2   0  -5  161.20    5.02
  -2   0  -5  153.94    6.08
  -2   0  -5  156.79    6.01
  -2   0  -5  148.05    5.83
   2   0   5  155.86    6.08
   2   0   5  153.99    5.75
   2   0   5  133.94    5.93
   2   0   5  156.15    5.02
   2   0   5  160.02    6.01
   2   0   5  161.48    7.59
  -3   0  -5    0.07    0.05
  -3   0  -5    0.07    0.05
  -3   0  -5    0.11    0.04
  -3   0  -5    0.13    0.05
  -3   0  -5    0.09    0.04
  -3   0  -5    0.10    0.04
   3   0   5    0.09    0.05
   3   0   5    0.12    0.04
   3   0   5    0.04    0.05
   3   0   5    0.09    0.04
  -4   0  -5   42.41    1.41
  -4   0  -5   43.42    1.69
  -4   0  -5   42.38    1.64
  -4   0  -5   42.25    2.14
   4   0   5   43.00    1.41
   4   0   5   41.51    1.67
  -5   0  -5   40.17    1.99
  -5   0  -5   40.44    1.52
  -5   0  -5   39.66    1.57
   5   0   5   40.26    1.31
   5   0   5   35.31    1.55
  -6   0  -5    5.91    0.30
  -6   0  -5    5.14    0.36
  -6   0  -5    5.72    0.28
   6   0   5    5.46    0.24
   6   0   5    5.71    0.29
  -7   0  -5   14.96    0.64
  -7   0  -5   15.47    0.67
   7   0   5   15.06    0.54
   7   0   5   15.01    0.66
  -8   0  -5   17.39    0.76
  -8   0  -5   16.46    0.74
   8   0   5   17.34    0.62
   8   0   5   18.14    0.75
   9   0   5    0.40    0.10
   9   0   5    0.11    0.06
  10   0   5    2.43    0.21
  13  -1  -5    7.02    0.39
  12  -1  -5    2.35    0.21
 -12   1   5    2.49    0.17
  11  -1  -5    1.85    0.19
 -11   1   5    1.82    0.14
  10  -1  -5   21.67    0.93
 -10   1   5   22.28    0.89
   9  -1  -5    9.91    0.46
  -9   1   5    9.64    0.41
   8  -1  -5    2.00    0.16
   7  -1  -5   42.99    1.70
   6  -1  -5   57.66    2.25
   5  -1  -5    5.15    0.23
   5  -1  -5    5.35    0.23
   5  -1  -5    5.48    0.25
   4  -1  -5  127.14    4.68
   4  -1  -5  122.51    4.45
   4  -1  -5  125.59    4.10
   4  -1  -5  126.58    4.83
   3  -1  -5   74.66    2.75
   3  -1  -5   75.19    2.41
   3  -1  -5   70.98    2.61
   3  -1  -5   73.68    2.84
  -3   1   5   72.98    2.84
  -3   1   5   67.83    2.85
  -3   1   5   78.90    2.92
   2  -1  -5    4.91    0.22
   2  -1  -5    4.58    0.21
   2  -1  -5    4.93    0.20
   2  -1  -5    5.23    0.21
   2  -1  -5    4.77    0.18
  -2   1   5    4.76    0.24
  -2   1   5    5.06    0.27
  -2   1   5    5.21    0.27
  -2   1   5    4.85    0.21
   1  -1  -5  150.41    6.97
   1  -1  -5  146.16    5.04
   1  -1  -5  150.32    5.38
   1  -1  -5  142.51    6.97
   1  -1  -5  141.72    4.63
   1  -1  -5  139.73    4.62
   1  -1  -5  141.32    5.61
   1  -1  -5  145.77    5.30
  -1   1   5  146.06    6.99
  -1   1   5  125.40    5.53
  -1   1   5  133.51    6.98
  -1   1   5  145.65    5.60
   0  -1  -5   97.33    3.74
   0  -1  -5  104.38    3.79
   0  -1  -5  104.13    4.92
   0  -1  -5  100.00    3.26
   0  -1  -5   96.71    3.55
   0  -1  -5  101.10    3.96
   0   1   5  103.68    3.95
   0   1   5   97.79    4.93
   0   1   5   96.94    3.90
   0   1   5   99.67    4.93
   0   1   5   99.63    3.74
  -1  -1  -5    2.75    0.15
  -1  -1  -5    2.87    0.14
  -1  -1  -5    2.87    0.18
  -1  -1  -5    2.42    0.12
  -1  -1  -5    2.49    0.13
   1   1   5    2.61    0.15
   1   1   5    2.83    0.18
   1   1   5    2.66    0.14
   1   1   5    2.60    0.14
   1   1   5    2.56    0.14
   1   1   5    2.70    0.17
  -2  -1  -5   61.75    2.08
  -2  -1  -5   67.80    2.53
  -2  -1  -5   61.68    3.15
  -2  -1  -5   63.23    2.42
  -2  -1  -5   60.69    2.26
  -2  -1  -5   64.91    2.50
   2   1   5   68.10    2.50
   2   1   5   64.90    2.53
   2   1   5   59.69    2.46
   2   1   5   62.67    2.08
   2   1   5   63.42    2.39
   2   1   5   63.99    3.15
  -3  -1  -5   57.15    2.35
  -3  -1  -5   60.40    1.94
  -3  -1  -5   59.80    2.10
  -3  -1  -5   59.74    2.93
  -3  -1  -5   60.44    2.25
   3   1   5   59.92    2.93
   3   1   5   61.51    2.22
   3   1   5   55.76    2.29
   3   1   5   57.33    1.94
   3   1   5   56.81    2.35
  -4  -1  -5    3.27    0.23
  -4  -1  -5    3.15    0.19
  -4  -1  -5    3.48    0.18
   4   1   5    3.21    0.16
   4   1   5    3.11    0.18
  -5  -1  -5   30.10    1.65
  -5  -1  -5   31.72    1.27
  -5  -1  -5   32.91    1.31
   5   1   5   33.24    1.09
   5   1   5   33.49    1.29
  -6  -1  -5   27.73    1.49
  -6  -1  -5   29.20    1.15
  -6  -1  -5   29.50    1.19
   6   1   5   30.51    0.98
   6   1   5   26.96    1.17
  -7  -1  -5    0.37    0.09
  -7  -1  -5    0.19    0.09
   7   1   5    0.36    0.09
   7   1   5    0.29    0.06
  -8  -1  -5    5.23    0.31
  -8  -1  -5    5.28    0.32
   8   1   5    5.61    0.25
   8   1   5    6.29    0.32
   9   1   5    9.78    0.38
   9   1   5   10.02    0.49
  10   1   5    0.58    0.13
  13  -2  -5    1.66    0.19
  12  -2  -5   11.49    0.56
 -12   2   5   12.21    0.53
  11  -2  -5    3.54    0.25
 -11   2   5    3.69    0.21
  10  -2  -5    8.17    0.40
 -10   2   5    7.81    0.36
   9  -2  -5   25.68    1.04
  -9   2   5   24.78    1.01
   8  -2  -5   10.42    0.47
  -8   2   5   10.53    0.54
  -8   2   5   10.04    0.43
   7  -2  -5   11.01    0.48
  -7   2   5   11.15    0.46
   6  -2  -5   64.43    2.50
  -6   2   5   63.92    2.41
   5  -2  -5   26.26    1.01
   5  -2  -5   25.52    1.05
  -5   2   5   27.80    1.04
  -5   2   5   26.18    1.04
  -5   2   5   26.28    1.01
   4  -2  -5    8.44    0.36
   4  -2  -5    9.16    0.38
   4  -2  -5    8.34    0.36
   4  -2  -5    9.32    0.33
  -4   2   5    9.12    0.46
  -4   2   5    8.56    0.36
  -4   2   5    9.58    0.46
  -4   2   5    9.25    0.37
   3  -2  -5  121.90    4.35
   3  -2  -5  112.30    4.28
   3  -2  -5  112.73    3.75
   3  -2  -5  107.34    4.07
  -3   2   5  116.57    4.54
  -3   2   5  121.27    4.29
  -3   2   5  113.01    4.43
  -3   2   5  113.35    5.63
  -3   2   5  119.71    5.64
  -3   2   5  109.77    4.46
   2  -2  -5   75.01    2.84
   2  -2  -5   81.47    2.59
   2  -2  -5   83.18    2.61
   2  -2  -5   87.74    3.03
   2  -2  -5   81.03    2.99
  -2   2   5   81.45    3.09
  -2   2   5   72.98    3.11
  -2   2   5   79.90    3.16
  -2   2   5   85.34    3.93
  -2   2   5   70.57    2.99
  -2   2   5   78.98    3.92
   1  -2  -5    9.63    0.34
   1  -2  -5    9.01    0.36
   1  -2  -5    9.38    0.38
   1  -2  -5    9.95    0.49
   1  -2  -5    8.66    0.33
  -1   2   5   10.35    0.39
  -1   2   5    9.18    0.49
  -1   2   5    9.18    0.40
  -1   2   5    9.46    0.50
  -1   2   5    9.51    0.41
  -1   2   5    9.55    0.39
   0  -2  -5  139.13    4.57
   0  -2  -5  147.17    4.58
   0  -2  -5  139.09    4.97
   0  -2  -5  148.90    6.91
   0  -2  -5  126.74    5.53
   0  -2  -5  145.48    5.32
   0   2   5  135.74    5.47
   0   2   5  148.31    5.54
   0   2   5  137.34    5.41
   0   2   5  140.87    5.24
   0   2   5  130.75    6.91
   0   2   5  147.57    6.91
  -1  -2  -5   69.71    2.24
  -1  -2  -5   76.48    3.40
  -1  -2  -5   71.57    2.61
  -1  -2  -5   69.11    2.73
  -1  -2  -5   66.63    2.44
   1   2   5   73.91    3.40
   1   2   5   66.85    2.69
   1   2   5   67.49    2.72
   1   2   5   63.50    2.57
   1   2   5   61.72    2.66
   1   2   5   67.33    3.39
  -2  -2  -5    2.26    0.12
  -2  -2  -5    1.85    0.11
  -2  -2  -5    1.73    0.12
  -2  -2  -5    1.76    0.10
  -2  -2  -5    1.88    0.15
   2   2   5    1.88    0.12
   2   2   5    1.79    0.11
   2   2   5    1.89    0.12
   2   2   5    1.86    0.14
   2   2   5    1.91    0.12
   2   2   5    1.81    0.13
  -3  -2  -5   72.27    2.78
  -3  -2  -5   74.12    2.39
  -3  -2  -5   71.45    3.61
  -3  -2  -5   73.87    2.90
   3   2   5   70.32    2.83
   3   2   5   71.35    2.39
   3   2   5   73.77    3.61
   3   2   5   75.21    2.74
   3   2   5   71.91    2.89
  -4  -2  -5   43.64    1.62
  -4  -2  -5   43.14    1.67
  -4  -2  -5   41.64    2.11
   4   2   5   38.54    1.65
   4   2   5   42.05    1.39
  -5  -2  -5    1.09    0.12
  -5  -2  -5    0.77    0.10
  -5  -2  -5    0.91    0.13
   5   2   5    1.00    0.11
   5   2   5    1.21    0.10
  -6  -2  -5   19.13    0.78
  -6  -2  -5   16.92    0.75
   6   2   5   18.53    0.65
   6   2   5   18.34    0.77
  -7  -2  -5   11.96    0.55
  -7  -2  -5   12.32    0.57
   7   2   5   13.01    0.56
   7   2   5   11.99    0.46
  -8  -2  -5    0.28    0.10
   8   2   5    0.45    0.07
   8   2   5    0.35    0.10
   9   2   5    5.77    0.26
   9   2   5    6.29    0.35
  10   2   5    4.02    0.28
  13  -3  -5    0.97    0.15
  12  -3  -5    6.47    0.36
 -12   3   5    6.14    0.31
  11  -3  -5   12.02    0.57
 -11   3   5   12.24    0.53
  10  -3  -5    3.73    0.24
 -10   3   5    3.20    0.19
   9  -3  -5   10.30    0.48
   8  -3  -5   47.40    1.90
  -8   3   5   48.13    2.38
  -8   3   5   47.75    1.89
   7  -3  -5    7.57    0.37
  -7   3   5    8.07    0.34
  -7   3   5    8.12    0.43
   6  -3  -5   28.02    1.11
  -6   3   5   27.90    1.38
  -6   3   5   26.97    1.10
   5  -3  -5   79.20    3.20
  -5   3   5   81.76    3.09
  -5   3   5   80.51    3.21
  -5   3   5   80.72    4.06
  -5   3   5   89.94    4.06
   4  -3  -5   25.46    0.88
   4  -3  -5   25.81    1.03
  -4   3   5   25.00    1.02
  -4   3   5   24.36    1.28
  -4   3   5   26.13    0.99
  -4   3   5   25.90    1.03
  -4   3   5   27.37    1.29
   3  -3  -5   21.80    0.75
   3  -3  -5   23.83    0.90
   3  -3  -5   21.44    0.84
   3  -3  -5   22.36    0.78
  -3   3   5   23.48    0.91
  -3   3   5   23.05    0.92
  -3   3   5   25.43    1.16
  -3   3   5   23.20    0.95
  -3   3   5   22.03    1.15
  -3   3   5   21.82    0.88
   2  -3  -5  127.59    4.71
   2  -3  -5  122.99    4.04
   2  -3  -5  126.37    4.06
   2  -3  -5  125.85    4.41
  -2   3   5  133.64    6.12
  -2   3   5  123.79    4.84
  -2   3   5  114.08    6.11
  -2   3   5  127.81    4.80
  -2   3   5  118.37    4.91
  -2   3   5  123.76    4.65
   1  -3  -5   37.95    1.40
   1  -3  -5   37.66    1.29
   1  -3  -5   38.23    1.29
   1  -3  -5   39.45    1.50
   1  -3  -5   38.38    1.30
   1  -3  -5   40.47    1.94
  -1   3   5   39.02    1.48
  -1   3   5   39.96    1.95
  -1   3   5   38.21    1.54
  -1   3   5   36.56    1.57
  -1   3   5   42.90    1.96
  -1   3   5   39.39    1.53
   0  -3  -5    6.71    0.37
   0  -3  -5    6.29    0.25
   0  -3  -5    7.08    0.25
   0  -3  -5    6.32    0.30
   0  -3  -5    6.51    0.29
   0  -3  -5    6.03    0.26
   0   3   5    6.66    0.31
   0   3   5    6.30    0.37
   0   3   5    7.22    0.30
   0   3   5    6.50    0.37
   0   3   5    6.83    0.30
   0   3   5    6.35    0.28
  -1  -3  -5   82.55    3.25
  -1  -3  -5   80.79    2.68
  -1  -3  -5   79.90    2.91
  -1  -3  -5   80.87    2.68
  -1  -3  -5   86.74    4.05
  -1  -3  -5   82.51    3.12
   1   3   5   79.23    4.04
   1   3   5   78.14    3.17
   1   3   5   87.10    3.08
   1   3   5   77.51    3.20
   1   3   5   84.21    3.25
  -2  -3  -5   61.90    2.10
  -2  -3  -5   61.75    2.27
  -2  -3  -5   62.22    3.17
  -2  -3  -5   63.23    2.44
  -2  -3  -5   65.50    2.10
  -2  -3  -5   60.47    2.54
   2   3   5   65.23    2.54
   2   3   5   64.86    3.17
   2   3   5   65.12    2.10
   2   3   5   66.79    2.49
   2   3   5   64.08    2.41
  -3  -3  -5    2.00    0.13
  -3  -3  -5    2.05    0.13
  -3  -3  -5    1.77    0.16
   3   3   5    1.72    0.11
   3   3   5    1.67    0.14
   3   3   5    1.65    0.13
  -4  -3  -5   41.23    2.16
  -4  -3  -5   42.55    1.66
   4   3   5   44.22    1.43
   4   3   5   41.71    1.69
   4   3   5   43.76    1.64
  -5  -3  -5   23.73    1.03
   5   3   5   27.91    0.88
   5   3   5   25.10    1.05
  -6  -3  -5    0.33    0.09
   6   3   5    0.35    0.06
   6   3   5    0.40    0.09
  -7  -3  -5   21.14    0.89
   7   3   5   21.54    0.90
   7   3   5   21.04    0.75
   8   3   5    9.25    0.38
   8   3   5   10.08    0.48
   9   3   5    0.37    0.12
   9   3   5    0.40    0.07
  10   3   5    2.50    0.23
  13  -4  -5    4.87    0.31
  12  -4  -5    0.52    0.12
 -12   4   5    0.91    0.11
  11  -4  -5    5.69    0.33
 -11   4   5    5.73    0.29
  10  -4  -5   22.86    0.98
 -10   4   5   23.22    0.95
   9  -4  -5    2.84    0.20
   8  -4  -5   18.31    0.76
  -8   4   5   17.58    0.74
   7  -4  -5   52.99    2.04
  -7   4   5   50.10    2.56
  -7   4   5   51.35    2.03
   6  -4  -5   13.47    0.59
  -6   4   5   14.13    0.57
  -6   4   5   13.66    0.72
   5  -4  -5   31.79    1.27
  -5   4   5   32.06    1.59
  -5   4   5   31.93    1.27
  -5   4   5   31.58    1.21
  -5   4   5   31.02    1.26
   4  -4  -5  120.93    4.44
   4  -4  -5  117.30    3.83
  -4   4   5  113.98    4.37
  -4   4   5  118.17    4.55
  -4   4   5  121.12    4.52
  -4   4   5  109.26    5.75
   3  -4  -5   15.57    0.64
   3  -4  -5   14.89    0.53
  -3   4   5   15.10    0.67
  -3   4   5   16.64    0.82
  -3   4   5   16.38    0.65
  -3   4   5   16.57    0.63
  -3   4   5   15.34    0.81
  -3   4   5   15.69    0.65
   2  -4  -5   31.83    1.19
   2  -4  -5   31.26    1.08
   2  -4  -5   32.98    1.27
   2  -4  -5   33.53    1.10
  -2   4   5   31.82    1.33
  -2   4   5   35.48    1.26
  -2   4   5   30.74    1.64
  -2   4   5   34.47    1.65
  -2   4   5   31.88    1.30
  -2   4   5   32.52    1.30
   1  -4  -5   86.45    3.11
   1  -4  -5   87.80    3.33
   1  -4  -5   88.69    2.86
   1  -4  -5   86.24    2.85
   1  -4  -5   87.02    4.30
  -1   4   5   87.35    3.47
  -1   4   5   96.27    4.32
  -1   4   5   81.16    4.31
  -1   4   5   82.58    3.41
  -1   4   5   88.89    3.28
  -1   4   5   87.82    3.39
   0  -4  -5   36.73    1.43
   0  -4  -5   38.14    1.23
   0  -4  -5   37.18    1.85
   0  -4  -5   35.98    1.33
   0  -4  -5   36.56    1.22
   0   4   5   37.17    1.49
   0   4   5   36.98    1.47
   0   4   5   36.23    1.41
   0   4   5   38.65    1.46
   0   4   5   34.67    1.85
  -1  -4  -5   13.76    0.50
  -1  -4  -5   13.89    0.58
  -1  -4  -5   14.17    0.61
  -1  -4  -5   13.89    0.50
  -1  -4  -5   13.92    0.53
  -1  -4  -5   15.22    0.75
   1   4   5   14.53    0.75
   1   4   5   14.41    0.61
   1   4   5   14.15    0.58
   1   4   5   14.05    0.60
   1   4   5   14.50    0.60
  -2  -4  -5   55.96    1.81
  -2  -4  -5   51.19    2.11
  -2  -4  -5   54.87    1.82
  -2  -4  -5   54.24    2.74
  -2  -4  -5   53.63    2.20
   2   4   5   56.65    2.20
   2   4   5   54.95    2.09
   2   4   5   57.79    2.74
   2   4   5   53.51    2.15
   2   4   5   55.53    1.81
  -3  -4  -5   17.04    0.57
  -3  -4  -5   15.52    0.85
  -3  -4  -5   15.23    0.66
  -3  -4  -5   17.09    0.56
   3   4   5   15.73    0.56
   3   4   5   15.56    0.67
   3   4   5   15.83    0.65
  -4  -4  -5    0.37    0.08
   4   4   5    0.16    0.05
   4   4   5    0.08    0.06
   4   4   5    0.11    0.06
  -5  -4  -5   19.26    0.83
   5   4   5   20.88    0.71
   5   4   5   20.20    0.85
  -6  -4  -5   10.68    0.51
   6   4   5   11.81    0.54
   6   4   5   12.00    0.44
  -7  -4  -5    0.14    0.09
   7   4   5    0.11    0.09
   7   4   5    0.12    0.06
   8   4   5    3.98    0.27
   8   4   5    3.32    0.19
   9   4   5    6.90    0.39
   9   4   5    7.32    0.30
  12  -5  -5    8.38    0.45
 -12   5   5    9.05    0.42
  11  -5  -5    1.03    0.14
 -11   5   5    0.98    0.12
  10  -5  -5   10.49    0.51
 -10   5   5   10.69    0.48
   9  -5  -5   20.60    0.88
   8  -5  -5    3.33    0.22
  -8   5   5    3.32    0.20
   7  -5  -5   14.54    0.60
  -7   5   5   13.40    0.60
  -7   5   5   13.23    0.58
   6  -5  -5   62.18    2.46
  -6   5   5   61.09    3.11
  -6   5   5   63.49    2.46
  -6   5   5   63.42    2.47
  -5   5   5   12.59    0.49
  -5   5   5   10.96    0.63
  -5   5   5   12.09    0.52
  -5   5   5   11.73    0.50
   4  -5  -5   26.97    0.89
   4  -5  -5   25.84    1.06
  -4   5   5   28.57    1.09
  -4   5   5   26.74    1.09
  -4   5   5   26.98    1.37
  -4   5   5   26.17    1.04
   3  -5  -5   86.64    2.75
   3  -5  -5   82.84    3.19
   3  -5  -5   83.12    2.73
  -3   5   5   87.57    3.15
  -3   5   5   83.96    3.25
  -3   5   5   83.97    3.27
  -3   5   5   76.79    4.13
   2  -5  -5   31.42    1.02
   2  -5  -5   31.81    1.04
   2  -5  -5   30.09    1.20
  -2   5   5   31.85    1.19
  -2   5   5   30.06    1.23
  -2   5   5   29.70    1.26
  -2   5   5   28.41    1.55
  -2   5   5   31.82    1.23
   1  -5  -5   31.60    1.06
   1  -5  -5   31.13    1.24
   1  -5  -5   32.09    1.07
  -1   5   5   32.28    1.23
  -1   5   5   32.29    1.30
  -1   5   5   30.87    1.61
  -1   5   5   32.71    1.27
  -1   5   5   31.08    1.27
   0  -5  -5   98.35    3.01
   0  -5  -5   91.54    3.00
   0  -5  -5   89.85    3.50
   0  -5  -5   90.69    3.27
   0  -5  -5   92.59    3.01
   0   5   5   95.86    3.60
   0   5   5   93.93    3.57
   0   5   5   86.75    4.54
   0   5   5   89.86    3.45
   0   5   5   88.54    3.64
  -1  -5  -5    8.96    0.35
  -1  -5  -5    9.02    0.41
  -1  -5  -5    9.97    0.35
   1   5   5    9.42    0.41
   1   5   5    9.39    0.42
   1   5   5    9.60    0.42
   1   5   5    9.62    0.35
   1   5   5    9.82    0.43
   1   5   5    8.84    0.52
  -2  -5  -5    8.99    0.32
  -2  -5  -5    8.20    0.34
  -2  -5  -5    8.98    0.39
   2   5   5    8.81    0.39
   2   5   5    8.59    0.40
   2   5   5    8.65    0.33
  -3  -5  -5   37.43    1.54
  -3  -5  -5   40.45    1.32
   3   5   5   38.55    1.52
   3   5   5   40.27    1.32
   3   5   5   38.83    1.56
  -4  -5  -5    9.68    0.45
   4   5   5   10.46    0.39
   4   5   5   10.13    0.45
   4   5   5    9.95    0.47
  -5  -5  -5    6.52    0.35
   5   5   5    7.23    0.30
   5   5   5    7.39    0.37
  -6  -5  -5    8.91    0.45
   6   5   5    9.76    0.47
   6   5   5    9.55    0.37
   7   5   5    2.37    0.22
   7   5   5    2.26    0.16
   8   5   5    0.78    0.14
   8   5   5    0.74    0.09
   9   5   5    3.56    0.27
   9   5   5    3.40    0.18
  12  -6  -5    4.13    0.28
  11  -6  -5    4.43    0.29
 -11   6   5    4.82    0.27
  10  -6  -5    0.71    0.12
 -10   6   5    0.46    0.10
   9  -6  -5    6.12    0.34
  -9   6   5    6.46    0.35
   8  -6  -5   30.05    1.20
  -8   6   5   27.66    1.18
  -8   6   5   29.12    1.20
   7  -6  -5    0.72    0.10
  -7   6   5    0.82    0.11
  -7   6   5    0.63    0.09
  -6   6   5   23.87    0.97
  -6   6   5   23.36    0.98
  -5   6   5   29.74    1.20
  -5   6   5   29.51    1.15
  -5   6   5   29.47    1.51
  -5   6   5   29.85    1.20
   4  -6  -5    8.42    0.39
   4  -6  -5    8.79    0.31
  -4   6   5    8.52    0.49
  -4   6   5    9.06    0.41
  -4   6   5    8.90    0.38
  -4   6   5    8.89    0.40
   3  -6  -5   16.41    0.72
   3  -6  -5   17.26    0.60
  -3   6   5   17.81    0.73
  -3   6   5   18.62    0.71
  -3   6   5   17.55    0.74
  -3   6   5   17.24    0.92
   2  -6  -5   66.56    2.59
   2  -6  -5   67.18    2.21
   2  -6  -5   67.74    2.22
  -2   6   5   69.12    2.55
  -2   6   5   64.00    2.65
  -2   6   5   66.19    3.35
  -2   6   5   69.79    2.64
   1  -6  -5    8.24    0.31
   1  -6  -5    8.30    0.31
   1  -6  -5    7.83    0.36
  -1   6   5    7.60    0.46
  -1   6   5    7.87    0.38
  -1   6   5    8.09    0.37
  -1   6   5    8.22    0.36
   0  -6  -5    9.26    0.36
   0  -6  -5    9.84    0.36
   0  -6  -5    9.39    0.42
   0   6   5    9.48    0.42
   0   6   5   10.10    0.44
   0   6   5    9.26    0.54
   0   6   5    9.76    0.44
  -1  -6  -5   53.88    1.76
  -1  -6  -5   56.60    1.76
  -1  -6  -5   50.06    2.05
  -1  -6  -5   52.68    1.76
   1   6   5   51.92    2.03
   1   6   5   52.40    2.10
   1   6   5   53.31    2.66
  -2  -6  -5   16.55    0.72
  -2  -6  -5   18.27    0.62
   2   6   5   18.01    0.62
   2   6   5   16.04    0.71
   2   6   5   17.95    0.74
  -3  -6  -5   17.56    0.61
  -3  -6  -5   16.14    0.71
   3   6   5   16.89    0.70
   3   6   5   16.36    0.72
   3   6   5   16.65    0.60
  -4  -6  -5   23.18    0.99
   4   6   5   25.73    0.85
   4   6   5   23.91    0.98
   4   6   5   24.17    1.01
  -5  -6  -5    2.80    0.20
   5   6   5    2.99    0.17
   5   6   5    2.76    0.23
   5   6   5    3.04    0.20
   6   6   5    3.05    0.24
   6   6   5    2.74    0.18
   7   6   5   14.73    0.55
   7   6   5   14.64    0.68
   8   6   5    0.95    0.10
   8   6   5    1.05    0.16
  12  -7  -5    0.04    0.10
 -12   7   5    0.05    0.11
  11  -7  -5    6.70    0.38
 -11   7   5    6.79    0.39
 -11   7   5    6.63    0.36
  10  -7  -5    6.89    0.38
 -10   7   5    7.22    0.39
 -10   7   5    7.15    0.37
  -9   7   5    1.26    0.16
  -8   7   5   10.97    0.53
  -8   7   5   11.24    0.51
  -7   7   5   10.18    0.47
  -7   7   5   10.51    0.49
  -6   7   5    2.11    0.16
  -6   7   5    1.92    0.16
  -6   7   5    2.06    0.17
   5  -7  -5   26.04    1.10
   5  -7  -5   27.01    0.90
  -5   7   5   28.07    1.12
  -5   7   5   27.10    1.12
  -5   7   5   27.69    1.07
   4  -7  -5   39.93    1.66
   4  -7  -5   41.29    1.40
  -4   7   5   43.80    1.63
  -4   7   5   42.62    2.14
  -4   7   5   42.11    1.69
  -4   7   5   43.39    1.70
   3  -7  -5    0.54    0.08
   3  -7  -5    0.41    0.05
  -3   7   5    0.32    0.07
  -3   7   5    0.49    0.09
  -3   7   5    0.49    0.09
  -3   7   5    0.28    0.07
   2  -7  -5   18.71    0.79
   2  -7  -5   19.23    0.67
  -2   7   5   18.58    0.81
  -2   7   5   20.33    0.79
  -2   7   5   21.02    0.81
  -2   7   5   17.81    1.01
   1  -7  -5   26.81    1.09
   1  -7  -5   27.16    0.93
   1  -7  -5   28.08    0.93
  -1   7   5   27.59    1.12
  -1   7   5   26.25    1.12
  -1   7   5   27.87    1.41
  -1   7   5   27.55    1.08
   0  -7  -5    5.08    0.21
   0  -7  -5    4.91    0.22
   0  -7  -5    4.57    0.25
   0   7   5    4.77    0.32
   0   7   5    4.98    0.27
   0   7   5    4.73    0.26
  -1  -7  -5   17.98    0.77
  -1  -7  -5   18.56    0.66
   1   7   5   18.82    0.79
   1   7   5   18.94    0.77
  -2  -7  -5   19.67    0.69
  -2  -7  -5   18.68    0.80
  -2  -7  -5   19.59    0.69
   2   7   5   18.68    0.80
   2   7   5   19.39    0.82
   2   7   5   19.58    0.69
  -3  -7  -5    2.64    0.19
   3   7   5    2.42    0.20
   3   7   5    2.66    0.20
   3   7   5    2.86    0.17
  -4  -7  -5    2.28    0.18
   4   7   5    2.80    0.21
   4   7   5    2.24    0.16
   4   7   5    2.20    0.19
  -5  -7  -5   19.09    0.85
   5   7   5   21.09    0.72
   5   7   5   19.66    0.83
   5   7   5   20.04    0.87
   6   7   5    2.65    0.24
   6   7   5    2.58    0.17
   7   7   5    4.42    0.23
   7   7   5    4.85    0.32
   8   7   5    5.49    0.34
   8   7   5    4.95    0.24
 -11   8   5    0.12    0.11
 -11   8   5    0.25    0.11
 -10   8   5   10.48    0.53
 -10   8   5   10.38    0.50
  -9   8   5    8.41    0.44
  -8   8   5    0.86    0.14
  -8   8   5    0.89    0.12
  -7   8   5   30.23    1.26
  -7   8   5   30.14    1.25
  -6   8   5   13.82    0.60
  -6   8   5   12.25    0.58
   5  -8  -5    2.77    0.13
   5  -8  -5    2.89    0.19
  -5   8   5    2.80    0.19
  -5   8   5    3.04    0.21
  -5   8   5    2.62    0.19
   4  -8  -5   16.02    0.72
   4  -8  -5   17.07    0.59
  -4   8   5   17.82    0.75
  -4   8   5   17.28    0.73
  -4   8   5   16.85    0.71
   3  -8  -5   30.42    1.23
   3  -8  -5   30.92    1.03
  -3   8   5   31.13    1.21
  -3   8   5   30.49    1.26
  -3   8   5   29.62    1.58
  -3   8   5   31.19    1.26
   2  -8  -5    0.91    0.11
   2  -8  -5    0.90    0.08
  -2   8   5    1.04    0.14
  -2   8   5    0.91    0.11
  -2   8   5    0.85    0.11
  -2   8   5    0.84    0.12
   1  -8  -5   38.88    1.62
   1  -8  -5   41.63    1.38
  -1   8   5   41.24    2.10
  -1   8   5   37.87    1.60
  -1   8   5   42.87    1.66
  -1   8   5   44.58    1.67
   0  -8  -5   23.96    0.99
   0  -8  -5   24.72    0.85
   0   8   5   24.40    0.99
   0   8   5   24.33    1.02
  -1  -8  -5    0.19    0.07
  -1  -8  -5    0.10    0.06
   1   8   5    0.07    0.07
   1   8   5    0.10    0.07
  -2  -8  -5   12.27    0.47
  -2  -8  -5   11.83    0.54
   2   8   5   11.73    0.54
   2   8   5   12.41    0.56
   2   8   5   12.54    0.47
  -3  -8  -5   19.22    0.80
   3   8   5   18.30    0.79
   3   8   5   19.57    0.69
   3   8   5   18.57    0.82
  -4  -8  -5    0.15    0.08
   4   8   5    0.05    0.09
   4   8   5    0.08    0.08
   4   8   5    0.09    0.07
   5   8   5    7.54    0.31
   5   8   5    6.84    0.37
   5   8   5    7.08    0.39
   6   8   5    4.67    0.31
   6   8   5    4.39    0.23
   7   8   5    1.43    0.19
   7   8   5    1.60    0.14
 -10   9   5    1.01    0.14
 -10   9   5    0.82    0.15
  -9   9   5    8.43    0.45
  -8   9   5   10.10    0.51
  -7   9   5    0.64    0.11
  -7   9   5    0.44    0.12
  -6   9   5   25.90    1.10
  -6   9   5   26.00    1.09
   5  -9  -5   25.39    0.85
   5  -9  -5   23.50    1.04
  -5   9   5   25.37    1.07
  -5   9   5   25.50    1.01
  -5   9   5   25.61    1.05
   4  -9  -5    1.84    0.12
   4  -9  -5    1.72    0.16
  -4   9   5    2.07    0.17
  -4   9   5    2.23    0.18
  -4   9   5    1.76    0.19
   3  -9  -5   35.07    1.44
   3  -9  -5   35.82    1.21
  -3   9   5   36.21    1.47
  -3   9   5   35.84    1.47
  -3   9   5   36.74    1.42
   2  -9  -5   14.75    0.53
   2  -9  -5   14.04    0.63
  -2   9   5   15.50    0.64
  -2   9   5   14.80    0.66
  -2   9   5   14.14    0.65
   1  -9  -5    0.09    0.05
   1  -9  -5    0.01    0.05
  -1   9   5    0.16    0.09
  -1   9   5    0.16    0.08
   0  -9  -5   14.95    0.64
   0  -9  -5   14.68    0.55
   0   9   5   15.01    0.65
   0   9   5   14.76    0.66
  -1  -9  -5   28.87    0.98
  -1  -9  -5   28.01    1.15
   1   9   5   27.04    1.14
   1   9   5   28.85    1.18
  -2  -9  -5    0.28    0.08
  -2  -9  -5    0.10    0.06
   2   9   5    0.10    0.09
   2   9   5    0.18    0.07
   2   9   5    0.11    0.08
   3   9   5   16.62    0.60
   3   9   5   15.46    0.70
   3   9   5   16.16    0.73
   4   9   5   10.41    0.42
   4   9   5    9.89    0.49
   4   9   5   10.84    0.52
   5   9   5    0.38    0.08
   5   9   5    0.14    0.11
   5   9   5    0.13    0.09
   6   9   5    6.16    0.38
   6   9   5    6.24    0.29
 -10  10   5    5.25    0.34
  -9  10   5    2.59    0.24
  -8  10   5   13.96    0.66
  -7  10   5    3.92    0.26
  -7  10   5    4.01    0.29
  -6  10   5    0.51    0.12
  -6  10   5    0.50    0.11
   5 -10  -5   16.26    0.57
  -5  10   5   16.45    0.70
  -5  10   5   16.96    0.73
  -5  10   5   15.58    0.74
   4 -10  -5   17.95    0.63
   4 -10  -5   17.55    0.78
  -4  10   5   17.93    0.80
  -4  10   5   18.55    0.76
  -4  10   5   17.63    0.78
   3 -10  -5    0.10    0.05
   3 -10  -5    0.07    0.07
  -3  10   5    0.06    0.08
  -3  10   5    0.04    0.09
  -3  10   5    0.00    0.07
   2 -10  -5   26.80    1.13
   2 -10  -5   28.14    0.95
  -2  10   5   27.66    1.12
  -2  10   5   28.03    1.16
   1 -10  -5   17.92    0.77
   1 -10  -5   18.43    0.65
  -1  10   5   18.30    0.80
  -1  10   5   17.90    0.77
   0 -10  -5    1.30    0.12
   0 -10  -5    1.04    0.13
   0  10   5    1.03    0.14
   0  10   5    1.11    0.15
  -1 -10  -5   13.98    0.53
   1  10   5   13.40    0.62
   1  10   5   14.02    0.64
  -2 -10  -5    9.46    0.38
   2  10   5    8.03    0.43
   2  10   5    8.95    0.45
   2  10   5    8.48    0.37
   3  10   5    0.10    0.09
   3  10   5    0.14    0.07
   3  10   5    0.24    0.11
   4  10   5    6.17    0.35
   4  10   5    6.55    0.30
   4  10   5    6.95    0.38
   5  10   5    7.48    0.40
   5  10   5    7.87    0.43
   5  10   5    7.99    0.34
  -9  11   5    1.12    0.18
  -8  11   5    0.30    0.13
  -7  11   5   15.40    0.72
  -6  11   5    6.77    0.39
  -6  11   5    6.77    0.37
   5 -11  -5    3.59    0.17
  -5  11   5    3.64    0.24
  -5  11   5    3.58    0.25
  -5  11   5    3.35    0.26
   4 -11  -5   12.53    0.46
  -4  11   5   13.22    0.61
  -4  11   5   11.84    0.56
   3 -11  -5    6.18    0.27
  -3  11   5    6.02    0.36
  -3  11   5    6.51    0.34
   2 -11  -5    0.12    0.06
  -2  11   5    0.08    0.08
  -2  11   5   -0.02    0.09
   1 -11  -5   12.31    0.46
  -1  11   5   11.71    0.55
  -1  11   5   11.89    0.57
   0 -11  -5   12.98    0.50
   0  11   5   12.61    0.62
   0  11   5   14.02    0.61
  -1 -11  -5    0.19    0.07
   1  11   5    0.11    0.09
   1  11   5    0.27    0.11
  -2 -11  -5   14.20    0.53
   2  11   5   13.63    0.64
   2  11   5   13.15    0.62
   2  11   5   13.41    0.53
   3  11   5    5.63    0.27
   3  11   5    5.17    0.32
   3  11   5    5.91    0.35
   4  11   5    0.14    0.09
   4  11   5    0.18    0.12
   4  11   5    0.38    0.09
  -8  12   5    0.04    0.11
  -7  12   5    3.24    0.27
  -6  12   5    5.19    0.34
   5 -12  -5    5.12    0.23
  -5  12   5    5.21    0.34
  -5  12   5    5.56    0.31
   4 -12  -5    1.48    0.12
  -4  12   5    1.51    0.18
  -4  12   5    1.72    0.18
   3 -12  -5   15.30    0.56
  -3  12   5   15.29    0.72
  -3  12   5   15.79    0.69
   2 -12  -5    3.36    0.19
  -2  12   5    3.61    0.27
  -2  12   5    3.54    0.25
   1 -12  -5    2.14    0.15
  -1  12   5    1.84    0.19
  -1  12   5    1.97    0.21
   0 -12  -5    6.83    0.31
   0  12   5    7.17    0.38
   0  12   5    6.88    0.39
  -1 -12  -5    4.22    0.22
   1  12   5    4.08    0.27
   1  12   5    3.81    0.28
  -2 -12  -5    0.07    0.07
   2  12   5    0.01    0.09
   2  12   5    0.10    0.08
   2  12   5    0.03    0.11
   3  12   5    7.43    0.41
   3  12   5    6.48    0.38
   3  12   5    7.36    0.33
  -6  13   5    5.89    0.37
   5 -13  -5   10.92    0.40
  -5  13   5   10.50    0.55
   4 -13  -5    0.51    0.07
  -4  13   5    0.33    0.13
  -4  13   5    0.37    0.11
   3 -13  -5    1.97    0.14
  -3  13   5    1.75    0.19
  -3  13   5    2.08    0.22
   2 -13  -5    8.60    0.34
  -2  13   5    8.44    0.45
  -2  13   5    7.75    0.42
   1 -13  -5    3.44    0.19
  -1  13   5    3.63    0.26
  -1  13   5    3.24    0.26
   0 -13  -5    2.26    0.16
   0  13   5    2.11    0.21
   0  13   5    2.37    0.23
  -1 -13  -5    8.72    0.36
   1  13   5    8.59    0.46
   1  13   5    7.98    0.44
   1  16  -6    0.47    0.09
   1  16  -6    0.22    0.12
   0  16  -6    7.83    0.35
   0  16  -6    8.22    0.42
  -1  16  -6    2.20    0.18
   4  15  -6    2.60    0.23
   3  15  -6    0.52    0.13
   3  15  -6    0.84    0.09
   2  15  -6   10.67    0.41
   2  15  -6   10.23    0.51
   1  15  -6    5.83    0.27
   1  15  -6    6.02    0.35
   0  15  -6    1.59    0.15
   0  15  -6    1.47    0.17
  -1  15  -6    8.75    0.43
  -1  15  -6    8.21    0.36
  -2  15  -6    3.86    0.23
  -3  15  -6    1.16    0.13
  -4  15  -6    6.64    0.32
   4 -15   6    6.41    0.30
   6  14  -6   -0.13    0.09
  -6 -14   6    0.15    0.09
   5  14  -6    0.39    0.12
  -5 -14   6    0.44    0.10
   4  14  -6    4.51    0.31
   4  14  -6    5.16    0.22
   3  14  -6    4.38    0.30
   3  14  -6    4.94    0.22
   2  14  -6    1.37    0.13
   2  14  -6    1.29    0.16
   1  14  -6    6.10    0.28
   1  14  -6    6.45    0.36
   0  14  -6    4.27    0.24
   0  14  -6    4.64    0.29
  -1  14  -6    0.23    0.10
  -1  14  -6    0.48    0.09
  -2  14  -6   10.97    0.45
  -3  14  -6    3.01    0.21
  -4  14  -6    0.93    0.12
   4 -14   6    0.93    0.11
   5 -14   6    8.21    0.35
   7  13  -6    4.13    0.29
  -7 -13   6    4.54    0.28
   6  13  -6    6.43    0.39
  -6 -13   6    7.57    0.38
   5  13  -6    0.35    0.12
  -5 -13   6    0.57    0.10
   4  13  -6    7.81    0.42
   4  13  -6    7.98    0.31
  -4 -13   6    8.06    0.41
   3  13  -6    6.75    0.38
   3  13  -6    7.09    0.29
  -3 -13   6    7.03    0.37
   2  13  -6   -0.06    0.09
   2  13  -6    0.08    0.07
   1  13  -6    3.28    0.25
   1  13  -6    3.34    0.19
   0  13  -6    8.05    0.41
   0  13  -6    8.46    0.35
  -1  13  -6    0.12    0.09
  -1  13  -6    0.25    0.08
  -2  13  -6    2.43    0.18
  -3  13  -6    5.47    0.28
   3 -13   6    5.77    0.27
  -4  13  -6    2.14    0.19
   4 -13   6    2.24    0.16
   5 -13   6    2.09    0.16
   6 -13   6    6.20    0.29
   8  12  -6    4.79    0.32
  -8 -12   6    5.03    0.30
   7  12  -6    0.71    0.14
  -7 -12   6    0.83    0.12
   6  12  -6    7.89    0.43
  -6 -12   6    8.73    0.42
   5  12  -6   14.28    0.65
  -5 -12   6   14.16    0.64
   4  12  -6   -0.02    0.05
   4  12  -6   -0.16    0.08
  -4 -12   6    0.00    0.07
  -4 -12   6    0.07    0.07
   3  12  -6   10.07    0.39
   3  12  -6    9.26    0.48
  -3 -12   6   10.80    0.48
  -3 -12   6   10.33    0.46
   2  12  -6   16.79    0.74
   2  12  -6   17.09    0.61
  -2 -12   6   16.62    0.74
  -2 -12   6   17.84    0.72
   1  12  -6    0.14    0.09
   1  12  -6    0.11    0.07
   0  12  -6   19.56    0.70
   0  12  -6   19.54    0.82
  -1  12  -6   15.02    0.66
  -1  12  -6   15.62    0.58
  -2  12  -6    0.24    0.08
  -3  12  -6   13.94    0.53
   3 -12   6   13.17    0.52
  -4  12  -6    9.59    0.41
   4 -12   6    9.50    0.39
   5 -12   6    0.21    0.07
   6 -12   6    3.51    0.20
   7 -12   6    6.04    0.28
   9  11  -6    0.01    0.10
  -9 -11   6    0.25    0.09
   8  11  -6    6.32    0.37
  -8 -11   6    6.80    0.35
   7  11  -6    6.22    0.36
  -7 -11   6    6.37    0.34
   6  11  -6    0.02    0.09
  -6 -11   6    0.14    0.07
   5  11  -6    7.57    0.39
  -5 -11   6    7.58    0.37
  -5 -11   6    7.36    0.37
   4  11  -6   15.53    0.69
   4  11  -6   15.94    0.54
  -4 -11   6   15.60    0.67
  -4 -11   6   15.22    0.68
   3  11  -6    0.81    0.08
   3  11  -6    0.64    0.12
  -3 -11   6    0.69    0.10
  -3 -11   6    0.92    0.10
   2  11  -6   26.68    0.92
   2  11  -6   25.88    1.09
  -2 -11   6   27.74    1.12
  -2 -11   6   27.17    1.08
   1  11  -6   19.74    0.80
   1  11  -6   18.94    0.67
  -1 -11   6   16.96    1.01
  -1 -11   6   19.80    0.81
  -1 -11   6   19.19    0.78
   0  11  -6    0.19    0.08
   0  11  -6    0.05    0.06
   0 -11   6    0.03    0.05
  -1  11  -6   14.29    0.55
  -1  11  -6   15.64    0.64
  -2  11  -6   31.68    1.10
  -3  11  -6    0.84    0.11
   3 -11   6    0.76    0.09
  -4  11  -6   20.37    0.75
   4 -11   6   20.76    0.74
   5 -11   6   18.58    0.67
   6 -11   6    0.14    0.06
   7 -11   6    5.79    0.26
   8 -11   6    6.15    0.28
   9  10  -6    7.93    0.42
  -9 -10   6    8.56    0.42
   8  10  -6    0.21    0.10
  -8 -10   6    0.16    0.08
   7  10  -6   18.98    0.84
  -7 -10   6   20.61    0.85
   6  10  -6    8.57    0.43
  -6 -10   6    8.43    0.42
  -6 -10   6    9.32    0.43
   5  10  -6    1.02    0.13
  -5 -10   6    0.96    0.11
  -5 -10   6    0.91    0.12
   4  10  -6   24.28    0.81
   4  10  -6   23.59    0.99
  -4 -10   6   24.21    1.00
  -4 -10   6   24.48    0.98
   3  10  -6   13.57    0.59
   3  10  -6   12.72    0.48
  -3 -10   6   13.67    0.57
  -3 -10   6   13.69    0.59
   2  10  -6    0.38    0.06
   2  10  -6    0.42    0.09
  -2 -10   6    0.46    0.09
  -2 -10   6    0.33    0.07
  -2 -10   6    0.40    0.07
   1  10  -6   19.31    0.67
   1  10  -6   19.73    0.79
  -1 -10   6   19.66    0.78
  -1 -10   6   17.91    1.01
  -1 -10   6   19.04    0.81
   0  10  -6   40.49    1.55
   0  10  -6   39.48    1.35
   0 -10   6   38.70    2.03
   0 -10   6   41.45    1.62
   0 -10   6   39.62    1.56
  -1  10  -6    0.29    0.08
  -1  10  -6    0.41    0.07
   1 -10   6    0.21    0.06
  -2  10  -6   31.25    1.09
  -2  10  -6   32.28    1.24
  -3  10  -6   14.21    0.54
   3 -10   6   14.42    0.53
   4 -10   6    1.87    0.14
   5 -10   6    8.21    0.34
   6 -10   6   22.96    0.81
   7 -10   6    1.31    0.13
   8 -10   6    5.41    0.25
 -10  -9   6    2.14    0.18
   9   9  -6   10.87    0.50
  -9  -9   6   10.76    0.50
   8   9  -6    0.78    0.12
  -8  -9   6    0.80    0.11
   7   9  -6    0.07    0.08
  -7  -9   6    0.16    0.08
  -7  -9   6    0.10    0.07
   6   9  -6   13.40    0.59
  -6  -9   6   14.21    0.59
  -6  -9   6   12.76    0.59
   5   9  -6   31.68    1.23
  -5  -9   6   30.98    1.24
  -5  -9   6   30.01    1.26
   4   9  -6    3.84    0.24
   4   9  -6    4.00    0.16
  -4  -9   6    3.62    0.21
  -4  -9   6    4.07    0.22
   3   9  -6   41.13    1.61
   3   9  -6   42.64    1.37
  -3  -9   6   40.86    1.66
  -3  -9   6   38.31    2.09
  -3  -9   6   43.51    1.61
   2   9  -6   21.98    0.75
   2   9  -6   20.57    0.88
  -2  -9   6   22.75    0.88
  -2  -9   6   20.97    1.14
  -2  -9   6   23.15    0.91
   1   9  -6    2.63    0.18
   1   9  -6    2.78    0.15
  -1  -9   6    3.11    0.19
  -1  -9   6    2.91    0.16
  -1  -9   6    2.61    0.21
   0   9  -6   41.64    1.68
   0   9  -6   44.81    1.47
   0  -9   6   45.47    1.76
   0  -9   6   46.61    1.70
   0  -9   6   40.55    2.21
  -1   9  -6   21.08    0.71
  -1   9  -6   21.06    0.81
   1  -9   6   18.77    1.06
   1  -9   6   19.63    0.80
  -2   9  -6    0.25    0.07
  -3   9  -6   33.39    1.13
   3  -9   6   32.70    1.12
   4  -9   6   31.70    1.08
   5  -9   6    0.90    0.09
   6  -9   6    8.23    0.34
   7  -9   6    6.74    0.29
   8  -9   6    1.96    0.14
   9  -9   6    2.87    0.17
  11   8  -6    6.88    0.39
 -11  -8   6    6.72    0.36
  10   8  -6    0.94    0.14
 -10  -8   6    0.77    0.11
   9   8  -6    0.87    0.12
  -9  -8   6    0.83    0.10
   8   8  -6   20.98    0.84
   8   8  -6   19.83    0.87
  -8  -8   6   20.29    0.86
  -8  -8   6   20.26    0.85
   7   8  -6    8.34    0.40
  -7  -8   6    8.54    0.39
  -7  -8   6    8.36    0.40
   6   8  -6   24.63    1.00
  -6  -8   6   23.84    1.00
  -6  -8   6   25.78    1.02
   5   8  -6   13.30    0.58
  -5  -8   6   14.39    0.58
  -5  -8   6   12.80    0.57
   4   8  -6    3.25    0.20
  -4  -8   6    2.95    0.18
  -4  -8   6    3.02    0.22
  -4  -8   6    3.45    0.19
   3   8  -6    0.19    0.06
   3   8  -6    0.33    0.04
  -3  -8   6    0.25    0.06
  -3  -8   6    0.40    0.07
  -3  -8   6    0.30    0.07
   2   8  -6   67.49    2.23
   2   8  -6   70.07    2.59
  -2  -8   6   65.75    3.39
  -2  -8   6   69.44    2.61
  -2  -8   6   68.14    2.69
   1   8  -6   30.75    1.24
   1   8  -6   31.90    1.07
  -1  -8   6   32.72    1.24
  -1  -8   6   33.34    1.29
  -1  -8   6   30.34    1.62
   0   8  -6    9.59    0.41
   0   8  -6   10.00    0.36
   0  -8   6    9.37    0.43
   0  -8   6    9.72    0.40
   0  -8   6    9.29    0.53
  -1   8  -6   48.09    1.61
  -1   8  -6   47.79    1.84
   1  -8   6   50.69    1.93
   1  -8   6   50.89    1.86
   1  -8   6   44.09    2.42
  -2   8  -6   31.28    1.06
  -3   8  -6    1.92    0.14
   3  -8   6    1.68    0.12
  -4   8  -6   22.97    0.79
   4  -8   6   21.76    0.78
   5  -8   6   24.38    0.85
   6  -8   6    0.69    0.08
   7  -8   6   19.00    0.68
   8  -8   6    6.68    0.29
   9  -8   6    0.00    0.06
  11   7  -6    3.00    0.25
 -11  -7   6    3.17    0.21
  10   7  -6   11.11    0.53
 -10  -7   6   11.05    0.50
   9   7  -6    2.76    0.22
  -9  -7   6    2.80    0.18
   8   7  -6   12.47    0.54
   8   7  -6   13.04    0.56
  -8  -7   6   12.39    0.55
  -8  -7   6   11.66    0.53
   7   7  -6   19.90    0.80
  -7  -7   6   20.03    0.81
  -7  -7   6   18.86    0.81
   6   7  -6    9.86    0.44
  -6  -7   6   10.43    0.44
  -6  -7   6    9.58    0.43
   5   7  -6   12.03    0.51
  -5  -7   6   12.04    0.50
  -5  -7   6   11.32    0.63
  -5  -7   6   12.06    0.51
   4   7  -6  134.31    4.89
  -4  -7   6  124.18    4.95
  -4  -7   6  128.53    5.09
  -4  -7   6  134.26    6.42
   3   7  -6    1.42    0.13
  -3  -7   6    1.27    0.11
  -3  -7   6    1.17    0.12
   2   7  -6   58.97    1.81
   2   7  -6   54.29    2.10
  -2  -7   6   52.53    2.75
  -2  -7   6   56.49    2.11
  -2  -7   6   53.47    2.18
   1   7  -6   23.64    0.78
   1   7  -6   22.87    0.90
  -1  -7   6   23.42    0.90
  -1  -7   6   22.85    0.94
  -1  -7   6   22.10    1.18
   0   7  -6   42.10    1.56
   0   7  -6   39.13    1.63
   0   7  -6   41.90    1.35
   0  -7   6   42.49    1.56
   0  -7   6   41.45    1.62
   0  -7   6   37.05    2.04
  -1   7  -6    6.68    0.31
  -1   7  -6    6.44    0.26
  -1   7  -6    6.99    0.30
   1  -7   6    6.88    0.28
   1  -7   6    6.01    0.38
   1  -7   6    6.50    0.31
  -2   7  -6   81.73    3.30
  -2   7  -6   86.53    2.73
   2  -7   6   80.04    4.12
   2  -7   6   83.73    2.72
  -3   7  -6   18.22    0.64
   3  -7   6   18.19    0.64
  -4   7  -6    1.32    0.13
   4  -7   6    1.45    0.11
   5  -7   6   26.85    0.92
   6  -7   6   12.58    0.47
   7  -7   6   -0.02    0.05
   8  -7   6    5.27    0.24
   9  -7   6   10.45    0.40
  12   6  -6    1.36    0.17
  11   6  -6    1.80    0.20
 -11  -6   6    1.55    0.15
  10   6  -6    4.59    0.28
 -10  -6   6    4.37    0.24
   9   6  -6   21.23    0.87
  -9  -6   6   19.69    0.84
  -9  -6   6   20.35    0.86
   8   6  -6    1.66    0.15
   8   6  -6    1.57    0.16
  -8  -6   6    1.88    0.13
  -8  -6   6    1.67    0.15
   7   6  -6   13.76    0.60
   7   6  -6   13.92    0.58
  -7  -6   6   13.99    0.58
  -7  -6   6   13.94    0.59
   6   6  -6   59.15    2.27
  -6  -6   6   58.19    2.96
  -6  -6   6   61.93    2.35
  -6  -6   6   59.75    2.30
   5   6  -6    6.07    0.29
  -5  -6   6    6.09    0.28
  -5  -6   6    5.82    0.33
  -5  -6   6    6.05    0.27
   4   6  -6   22.76    0.93
  -4  -6   6   25.63    0.96
  -4  -6   6   22.53    1.20
  -4  -6   6   24.25    0.94
   3   6  -6   90.37    3.54
   3   6  -6  100.40    3.07
   3   6  -6   96.20    3.35
  -3  -6   6   93.77    3.68
  -3  -6   6   88.76    4.64
  -3  -6   6   95.36    3.58
   2   6  -6   97.13    3.57
   2   6  -6   98.85    3.09
  -2  -6   6   91.24    4.69
  -2  -6   6   94.03    3.73
  -2  -6   6   97.46    4.69
  -2  -6   6   94.71    3.71
  -2  -6   6   91.60    3.60
   1   6  -6   74.10    2.85
   1   6  -6   75.90    2.99
   1   6  -6   79.14    2.48
  -1  -6   6   75.19    3.75
  -1  -6   6   75.41    2.99
  -1  -6   6   74.73    3.75
  -1  -6   6   76.45    2.88
  -1  -6   6   75.46    2.97
   0   6  -6  220.21    7.11
   0   6  -6  213.68    8.59
   0   6  -6  217.13   10.74
   0   6  -6  222.48    8.16
   0  -6   6  230.47    8.26
   0  -6   6  209.95   10.75
   0  -6   6  220.55   10.75
   0  -6   6  217.21    8.51
  -1   6  -6    2.42    0.13
  -1   6  -6    2.12    0.14
  -1   6  -6    2.17    0.13
   1  -6   6    2.00    0.15
   1  -6   6    2.02    0.16
  -2   6  -6    6.87    0.33
  -2   6  -6    6.99    0.30
  -2   6  -6    6.97    0.28
   2  -6   6    7.38    0.33
   2  -6   6    7.09    0.27
   2  -6   6    7.02    0.40
  -3   6  -6   56.68    1.86
   3  -6   6   55.90    1.86
  -4   6  -6   40.64    1.35
   4  -6   6   39.77    1.35
   5  -6   6    6.62    0.27
   6  -6   6   22.46    0.78
   7  -6   6    7.62    0.31
   8  -6   6    0.16    0.06
   9  -6   6    4.22    0.21
  12   5  -6    8.09    0.44
 -12  -5   6    8.59    0.40
  11   5  -6    9.48    0.48
 -11  -5   6    9.62    0.44
  10   5  -6    1.58    0.18
 -10  -5   6    1.56    0.13
   9   5  -6    8.64    0.42
  -9  -5   6    8.61    0.41
  -9  -5   6    8.52    0.38
   8   5  -6   22.10    0.87
   8   5  -6   22.19    0.91
  -8  -5   6   20.97    0.88
  -8  -5   6   21.92    0.89
   7   5  -6    5.21    0.27
   7   5  -6    5.66    0.27
  -7  -5   6    5.29    0.24
  -7  -5   6    5.19    0.27
  -7  -5   6    5.61    0.30
   6   5  -6   40.58    1.58
  -6  -5   6   42.33    2.04
  -6  -5   6   40.99    1.62
  -6  -5   6   41.19    1.60
   5   5  -6   71.98    2.67
  -5  -5   6   73.01    3.48
  -5  -5   6   66.08    2.76
  -5  -5   6   71.62    2.70
   4   5  -6   12.14    0.41
   4   5  -6   11.82    0.45
   4   5  -6   11.91    0.49
  -4  -5   6   11.88    0.49
  -4  -5   6   12.15    0.48
  -4  -5   6   11.73    0.49
  -4  -5   6   11.78    0.61
   3   5  -6   38.89    1.46
   3   5  -6   37.56    1.38
   3   5  -6   39.58    1.26
  -3  -5   6   37.05    1.51
  -3  -5   6   40.04    1.51
  -3  -5   6   36.16    1.90
  -3  -5   6   38.41    1.47
   2   5  -6  114.50    3.55
   2   5  -6  115.49    4.10
  -2  -5   6  105.62    4.29
  -2  -5   6  112.49    4.14
  -2  -5   6  106.31    4.26
  -2  -5   6  101.92    5.38
   1   5  -6   34.66    1.11
   1   5  -6   34.15    1.29
   1   5  -6   33.85    1.35
  -1  -5   6   35.78    1.35
  -1  -5   6   33.62    1.69
  -1  -5   6   30.75    1.34
  -1  -5   6   33.55    1.29
   0   5  -6    1.29    0.09
   0   5  -6    1.51    0.10
   0  -5   6    1.05    0.09
   0  -5   6    1.10    0.07
   0  -5   6    1.35    0.11
   0  -5   6    1.24    0.10
  -1   5  -6  168.14    6.23
  -1   5  -6  173.60    6.58
  -1   5  -6  176.62    5.44
  -1   5  -6  177.65    8.22
   1  -5   6  162.43    6.51
   1  -5   6  151.52    6.57
   1  -5   6  160.86    8.22
  -2   5  -6   93.76    3.46
  -2   5  -6   92.99    3.03
  -2   5  -6   96.98    4.58
  -2   5  -6   94.00    3.67
   2  -5   6   85.32    4.57
   2  -5   6   94.87    3.66
   2  -5   6   90.34    3.62
  -3   5  -6   35.64    1.88
  -3   5  -6   37.95    1.25
   3  -5   6   38.23    1.88
   3  -5   6   37.16    1.24
  -4   5  -6   48.43    1.61
   4  -5   6   48.00    1.60
   5  -5   6   16.94    0.60
   6  -5   6    0.03    0.05
   7  -5   6   25.86    0.89
   8  -5   6    6.31    0.27
   9  -5   6    0.76    0.09
  10  -5   6    4.03    0.19
  12   4  -6    0.00    0.09
 -12  -4   6    0.05    0.07
  11   4  -6    7.80    0.41
 -11  -4   6    8.01    0.37
  10   4  -6   23.74    0.98
 -10  -4   6   22.83    0.97
 -10  -4   6   23.23    0.94
   9   4  -6    0.23    0.08
  -9  -4   6    0.34    0.06
   8   4  -6   59.14    2.32
  -8  -4   6   58.76    2.31
   7   4  -6   35.54    1.40
   7   4  -6   34.83    1.35
   6   4  -6    0.11    0.05
   6   4  -6    0.07    0.04
   5   4  -6   31.72    1.27
   5   4  -6   34.33    1.10
  -5  -4   6   33.01    1.28
  -5  -4   6   34.18    1.33
  -5  -4   6   32.48    1.30
   4   4  -6  147.83    4.55
   4   4  -6  140.91    5.22
   4   4  -6  137.47    4.95
  -4  -4   6  139.45    6.85
  -4  -4   6  146.56    5.49
  -4  -4   6  129.10    5.43
  -4  -4   6  137.07    5.28
   3   4  -6    8.77    0.32
   3   4  -6    8.94    0.37
   3   4  -6    8.56    0.35
  -3  -4   6    9.54    0.46
  -3  -4   6    9.10    0.36
  -3  -4   6    8.63    0.46
  -3  -4   6    8.97    0.37
  -3  -4   6    8.67    0.37
   2   4  -6   78.16    2.43
   2   4  -6   74.87    2.81
   2   4  -6   77.26    2.66
   2   4  -6   73.65    2.95
  -2  -4   6   71.50    2.92
  -2  -4   6   71.88    3.68
  -2  -4   6   73.47    2.94
  -2  -4   6   76.26    3.68
  -2  -4   6   75.81    2.83
   1   4  -6   95.98    3.56
   1   4  -6   96.38    3.75
   1   4  -6   96.59    3.09
  -1  -4   6   95.00    3.71
  -1  -4   6   95.03    3.75
  -1  -4   6   85.84    4.68
  -1  -4   6  101.29    4.69
   0   4  -6   19.16    0.64
   0   4  -6   19.30    0.78
   0   4  -6   19.76    0.95
   0   4  -6   18.93    0.73
   0  -4   6   18.43    0.77
   0  -4   6   18.98    0.77
   0  -4   6   17.81    0.96
  -1   4  -6   17.33    0.87
  -1   4  -6   17.28    0.66
  -1   4  -6   17.22    0.71
  -1   4  -6   17.17    0.58
   1  -4   6   16.17    0.69
   1  -4   6   16.16    0.87
   1  -4   6   17.16    0.70
  -2   4  -6   37.59    1.43
  -2   4  -6   37.47    1.52
  -2   4  -6   39.05    1.89
  -2   4  -6   36.30    1.25
   2  -4   6   37.11    1.50
   2  -4   6   40.12    1.52
   2  -4   6   35.93    1.89
  -3   4  -6   40.58    1.36
  -3   4  -6   40.91    2.06
   3  -4   6   40.73    2.06
   3  -4   6   41.88    1.36
  -4   4  -6   -0.01    0.05
  -4   4  -6    0.10    0.07
   4  -4   6    0.22    0.05
   5  -4   6   54.29    1.80
   6  -4   6   10.55    0.40
   7  -4   6    1.38    0.13
   8  -4   6    6.86    0.29
   9  -4   6    5.72    0.25
  10  -4   6    0.35    0.07
  13   3  -6    5.69    0.35
  12   3  -6    6.89    0.40
 -12  -3   6    7.72    0.35
  11   3  -6   -0.06    0.08
 -11  -3   6    0.11    0.06
  10   3  -6   18.37    0.80
 -10  -3   6   18.67    0.75
   9   3  -6   19.79    0.84
   8   3  -6    0.67    0.09
   7   3  -6   36.97    1.40
   7   3  -6   36.11    1.45
   6   3  -6  109.35    4.46
   6   3  -6  121.90    4.33
   5   3  -6    0.23    0.04
   5   3  -6    0.34    0.05
   5   3  -6    0.20    0.04
  -5  -3   6    0.42    0.05
   4   3  -6  112.19    4.20
   4   3  -6  116.44    4.43
   4   3  -6  121.05    3.86
  -4  -3   6  124.34    4.66
   3   3  -6   81.77    2.94
   3   3  -6   85.94    2.71
   3   3  -6   83.13    3.10
  -3  -3   6   83.30    3.13
  -3  -3   6   78.70    3.22
  -3  -3   6   80.22    3.22
  -3  -3   6   86.21    3.26
   2   3  -6   24.85    0.99
   2   3  -6   24.02    0.93
   2   3  -6   23.04    0.88
  -2  -3   6   24.74    0.98
  -2  -3   6   24.17    1.21
  -2  -3   6   23.95    1.21
  -2  -3   6   24.89    0.96
  -2  -3   6   24.30    0.92
   1   3  -6   65.24    2.12
   1   3  -6   67.10    2.33
   1   3  -6   64.22    2.45
   1   3  -6   68.37    2.59
  -1  -3   6   65.58    3.22
  -1  -3   6   62.78    2.55
  -1  -3   6   63.69    3.22
  -1  -3   6   64.83    2.58
   0   3  -6  171.59    6.10
   0   3  -6  170.06    6.44
   0   3  -6  163.56    5.31
   0   3  -6  167.30    8.02
   0  -3   6  166.62    8.03
   0  -3   6  166.76    6.43
   0  -3   6  141.31    6.36
   0  -3   6  161.71    8.03
  -1   3  -6    2.34    0.12
  -1   3  -6    2.55    0.17
  -1   3  -6    2.75    0.14
  -1   3  -6    2.75    0.15
   1  -3   6    2.79    0.14
   1  -3   6    2.51    0.17
   1  -3   6    2.42    0.14
   1  -3   6    2.46    0.17
  -2   3  -6   32.71    1.73
  -2   3  -6   35.05    1.31
  -2   3  -6   33.56    1.40
  -2   3  -6   32.93    1.15
   2  -3   6   36.52    1.38
   2  -3   6   36.80    1.40
   2  -3   6   34.15    1.73
  -3   3  -6   40.56    2.08
  -3   3  -6   42.91    1.38
   3  -3   6   41.66    2.08
   3  -3   6   40.87    1.38
  -4   3  -6    1.10    0.09
  -4   3  -6    1.20    0.14
   4  -3   6    1.08    0.10
   5  -3   6    4.67    0.21
   6  -3   6    7.56    0.30
   7  -3   6    5.48    0.25
   8  -3   6    1.35    0.13
   9  -3   6    6.04    0.26
  10  -3   6    0.56    0.08
  13   2  -6    0.19    0.10
  12   2  -6    7.59    0.42
 -12  -2   6    8.25    0.37
  11   2  -6    9.59    0.48
 -11  -2   6   10.22    0.43
  10   2  -6    0.63    0.11
 -10  -2   6    0.86    0.09
   9   2  -6   28.87    1.18
   8   2  -6   28.45    1.15
   7   2  -6    0.29    0.06
   7   2  -6    0.40    0.06
   6   2  -6   59.47    2.28
   6   2  -6   63.54    2.36
   6   2  -6   58.71    2.17
   5   2  -6   65.66    2.15
   5   2  -6   63.23    2.33
   5   2  -6   67.04    2.46
   4   2  -6    7.82    0.32
   4   2  -6    8.26    0.30
   4   2  -6    8.10    0.34
  -4  -2   6    8.39    0.36
   3   2  -6   84.20    3.06
   3   2  -6   83.41    3.22
   3   2  -6   87.87    2.82
  -3  -2   6   84.46    3.35
  -3  -2   6   90.91    3.40
   2   2  -6  185.22    6.60
   2   2  -6  185.50    6.95
   2   2  -6  192.17    6.07
  -2  -2   6  193.74    9.17
  -2  -2   6  173.28    9.15
  -2  -2   6  181.84    7.24
  -2  -2   6  195.33    7.34
   1   2  -6    0.46    0.05
   1   2  -6    0.54    0.07
   1   2  -6    0.37    0.05
  -1  -2   6    0.38    0.05
  -1  -2   6    0.36    0.04
  -1  -2   6    0.33    0.05
  -1  -2   6    0.36    0.05
   0   2  -6   52.30    1.72
   0   2  -6   50.46    2.10
   0   2  -6   50.33    1.88
   0   2  -6   53.17    2.60
   0   2  -6   53.37    1.98
   0  -2   6   52.15    2.06
   0  -2   6   51.82    2.61
   0  -2   6   53.30    2.09
   0  -2   6   57.01    2.61
  -1   2  -6   86.35    3.34
  -1   2  -6   87.62    3.53
  -1   2  -6   90.45    2.91
  -1   2  -6   92.66    4.40
   1  -2   6   93.38    4.40
   1  -2   6   87.24    3.53
   1  -2   6   87.03    4.40
   1  -2   6   89.38    3.49
  -2   2  -6   15.06    0.76
  -2   2  -6   14.50    0.62
  -2   2  -6   14.98    0.57
  -2   2  -6   14.10    0.51
   2  -2   6   15.72    0.62
   2  -2   6   13.17    0.60
   2  -2   6   14.77    0.76
  -3   2  -6   50.60    2.54
  -3   2  -6   50.27    1.68
   3  -2   6   50.33    2.54
   3  -2   6   52.13    1.68
  -4   2  -6   47.21    2.36
  -4   2  -6   47.44    1.56
   4  -2   6   46.53    1.56
  -5   2  -6    0.22    0.09
   5  -2   6    0.20    0.06
   6  -2   6   16.53    0.70
   6  -2   6   17.05    0.60
   7  -2   6   14.22    0.52
   8  -2   6    0.01    0.06
   8  -2   6    0.04    0.07
   9  -2   6    3.90    0.26
   9  -2   6    3.63    0.19
  10  -2   6    3.54    0.18
  13   1  -6    2.21    0.21
  12   1  -6    0.88    0.14
 -12  -1   6    0.87    0.10
  11   1  -6   13.81    0.64
 -11  -1   6   14.33    0.59
  10   1  -6    8.55    0.42
   9   1  -6    0.87    0.11
   8   1  -6   52.39    2.07
   7   1  -6   42.60    1.68
   6   1  -6    5.54    0.25
   6   1  -6    5.28    0.23
   6   1  -6    4.93    0.24
   5   1  -6   84.99    3.08
   5   1  -6   83.46    2.69
   5   1  -6   81.85    2.92
   5   1  -6   77.91    3.17
   4   1  -6  107.64    3.99
   4   1  -6  105.43    3.49
   4   1  -6  102.42    3.79
  -4  -1   6  111.72    4.22
   3   1  -6    1.46    0.10
   3   1  -6    1.48    0.09
   3   1  -6    1.82    0.10
  -3  -1   6    1.61    0.10
   2   1  -6  108.48    3.54
   2   1  -6  111.31    4.05
   2   1  -6  103.43    3.85
  -2  -1   6  107.66    5.32
  -2  -1   6  110.91    5.32
  -2  -1   6  109.34    4.28
  -2  -1   6  107.97    4.21
   1   1  -6   74.95    2.75
   1   1  -6   73.31    2.38
   1   1  -6   74.18    2.91
   1   1  -6   73.72    2.61
  -1  -1   6   71.76    2.90
  -1  -1   6   75.63    3.61
  -1  -1   6   70.68    3.61
  -1  -1   6   71.74    2.86
   0   1  -6    6.48    0.24
   0   1  -6    6.32    0.30
   0   1  -6    6.83    0.35
   0   1  -6    6.42    0.28
   0   1  -6    6.37    0.26
   0  -1   6    6.55    0.29
   0  -1   6    6.42    0.36
   0  -1   6    7.08    0.29
   0  -1   6    6.17    0.35
  -1   1  -6   72.41    2.36
  -1   1  -6   74.07    2.73
  -1   1  -6   71.09    2.87
  -1   1  -6   75.55    2.71
  -1   1  -6   70.92    3.57
   1  -1   6   73.34    2.83
   1  -1   6   70.69    2.86
   1  -1   6   70.09    3.57
   1  -1   6   71.54    3.57
  -2   1  -6   64.62    2.29
  -2   1  -6   62.42    2.55
  -2   1  -6   64.15    2.43
  -2   1  -6   67.16    3.17
  -2   1  -6   66.03    2.40
  -2   1  -6   65.01    2.10
   2  -1   6   57.97    2.40
   2  -1   6   64.87    3.17
   2  -1   6   64.54    2.55
   2  -1   6   62.62    2.51
  -3   1  -6    0.39    0.08
  -3   1  -6    0.36    0.05
  -3   1  -6    0.45    0.06
   3  -1   6    0.56    0.06
   3  -1   6    0.51    0.06
   3  -1   6    0.43    0.08
  -4   1  -6   19.17    0.64
  -4   1  -6   18.15    0.96
   4  -1   6   18.21    0.64
   4  -1   6   18.01    0.75
   5  -1   6   40.62    1.36
   6  -1   6    1.06    0.09
   7  -1   6   15.18    0.66
   7  -1   6   15.17    0.55
   8  -1   6   13.16    0.58
   8  -1   6   12.27    0.47
   9  -1   6    0.65    0.12
   9  -1   6    0.49    0.08
  10  -1   6    4.77    0.22
  10  -1   6    5.07    0.30
  13   0  -6    7.89    0.42
  12   0  -6    0.88    0.14
 -12   0   6    1.13    0.12
  11   0  -6    2.32    0.20
 -11   0   6    2.38    0.15
  10   0  -6   23.70    0.98
 -10   0   6   23.04    0.93
   9   0  -6   14.04    0.61
   8   0  -6    8.30    0.39
   7   0  -6   45.93    1.81
   6   0  -6   56.80    2.06
   6   0  -6   58.16    2.24
   6   0  -6   57.14    2.16
   5   0  -6    1.27    0.10
   5   0  -6    1.43    0.10
   5   0  -6    1.22    0.10
   5   0  -6    1.37    0.10
   4   0  -6  145.01    4.76
   4   0  -6  145.23    5.44
   4   0  -6  139.60    5.17
  -4   0   6  153.55    5.75
   3   0  -6   73.48    2.66
   3   0  -6   75.88    2.45
   3   0  -6   71.42    2.79
  -3   0   6   72.46    2.90
  -3   0   6   78.59    2.96
  -3   0   6   75.74    2.90
   2   0  -6    0.60    0.06
   2   0  -6    0.60    0.07
   2   0  -6    0.59    0.06
  -2   0   6    0.52    0.07
  -2   0   6    0.62    0.06
  -2   0   6    0.68    0.06
  -2   0   6    0.78    0.07
   1   0  -6  128.42    4.50
   1   0  -6  119.28    4.46
   1   0  -6  117.54    4.71
   1   0  -6  115.57    3.88
   1   0  -6  124.07    3.90
   1   0  -6  112.22    4.23
  -1   0   6  119.12    4.64
  -1   0   6  121.62    4.71
  -1   0   6  115.61    5.86
  -1   0   6  120.18    5.87
   0   0  -6  123.21    4.45
   0   0  -6  115.65    4.70
   0   0  -6  123.17    5.85
   0   0  -6  117.72    3.87
   0   0  -6  122.49    4.49
   0   0  -6  116.98    4.22
   0   0   6  120.93    4.64
   0   0   6  118.48    5.86
   0   0   6  114.88    5.86
   0   0   6  117.73    4.70
  -1   0  -6    7.37    0.30
  -1   0  -6    7.26    0.27
  -1   0  -6    6.94    0.30
  -1   0  -6    6.83    0.33
  -1   0  -6    7.33    0.39
  -1   0  -6    6.97    0.29
   1   0   6    7.46    0.30
   1   0   6    7.34    0.40
   1   0   6    6.54    0.32
   1   0   6    7.31    0.40
   1   0   6    7.40    0.32
  -2   0  -6   43.02    1.77
  -2   0  -6   43.42    2.20
  -2   0  -6   43.87    1.68
  -2   0  -6   43.83    1.58
  -2   0  -6   44.24    1.45
   2   0   6   42.27    1.71
   2   0   6   45.30    1.77
   2   0   6   45.78    2.20
   2   0   6   45.28    1.74
   2   0   6   42.25    1.66
  -3   0  -6   40.42    1.33
  -3   0  -6   39.08    2.01
  -3   0  -6   41.19    1.54
  -3   0  -6   40.20    1.44
   3   0   6   38.81    1.57
   3   0   6   40.66    1.33
   3   0   6   39.46    2.01
  -4   0  -6    0.56    0.07
  -4   0  -6    0.59    0.10
  -4   0  -6    0.41    0.06
  -4   0  -6    0.47    0.07
   4   0   6    0.69    0.07
   4   0   6    0.49    0.07
  -5   0  -6   28.46    1.12
   5   0   6   27.18    1.14
   5   0   6   29.46    0.97
  -6   0  -6   15.40    0.67
   6   0   6   16.80    0.69
   6   0   6   16.21    0.58
   7   0   6    0.09    0.06
   7   0   6    0.34    0.09
   8   0   6    7.09    0.37
   8   0   6    6.80    0.29
   9   0   6    9.47    0.45
   9   0   6    8.54    0.35
  10   0   6    0.12    0.09
  10   0   6    0.04    0.06
  13  -1  -6    2.55    0.22
  12  -1  -6   13.07    0.62
 -12   1   6   13.81    0.58
  11  -1  -6    4.86    0.29
 -11   1   6    4.83    0.24
  10  -1  -6   12.92    0.58
 -10   1   6   12.78    0.53
   9  -1  -6   29.67    1.21
   8  -1  -6   12.35    0.54
   7  -1  -6    5.74    0.28
   6  -1  -6   92.64    3.54
   6  -1  -6   89.89    3.42
   5  -1  -6   25.76    0.89
   5  -1  -6   25.83    1.04
   5  -1  -6   26.53    0.96
   5  -1  -6   26.22    1.00
   4  -1  -6    3.96    0.19
   4  -1  -6    3.77    0.19
   4  -1  -6    3.78    0.18
   4  -1  -6    4.04    0.17
  -4   1   6    3.89    0.17
  -4   1   6    4.08    0.21
   3  -1  -6   70.04    2.50
   3  -1  -6   70.03    2.63
   3  -1  -6   70.58    2.30
  -3   1   6   66.04    3.44
  -3   1   6   74.61    3.45
  -3   1   6   67.93    2.72
  -3   1   6   67.71    2.71
  -3   1   6   72.86    2.79
   2  -1  -6   99.54    3.61
   2  -1  -6   97.76    3.12
   2  -1  -6   96.02    3.57
   2  -1  -6   88.90    3.39
   2  -1  -6   95.32    3.10
  -2   1   6   91.84    3.71
  -2   1   6   96.01    3.78
  -2   1   6   94.21    4.69
  -2   1   6   92.12    3.68
  -2   1   6  102.57    4.70
   1  -1  -6    4.55    0.19
   1  -1  -6    4.43    0.23
   1  -1  -6    4.29    0.17
   1  -1  -6    4.76    0.20
   1  -1  -6    4.38    0.20
   1  -1  -6    4.62    0.21
  -1   1   6    4.83    0.27
  -1   1   6    4.57    0.21
  -1   1   6    4.73    0.26
  -1   1   6    4.55    0.21
  -1   1   6    4.56    0.23
  -1   1   6    4.58    0.21
   0  -1  -6   50.76    1.80
   0  -1  -6   51.37    1.65
   0  -1  -6   50.25    1.89
   0  -1  -6   50.94    1.66
   0  -1  -6   50.82    1.91
   0  -1  -6   51.20    2.49
   0  -1  -6   49.53    2.01
   0   1   6   49.06    2.01
   0   1   6   49.30    1.90
   0   1   6   43.91    2.49
   0   1   6   54.65    2.50
   0   1   6   52.74    1.97
   0   1   6   47.86    1.95
  -1  -1  -6   58.73    2.95
  -1  -1  -6   55.98    2.37
  -1  -1  -6   60.38    2.27
  -1  -1  -6   62.38    1.95
  -1  -1  -6   62.16    2.13
   1   1   6   60.05    2.24
   1   1   6   59.04    2.95
   1   1   6   57.45    2.31
   1   1   6   61.89    2.34
   1   1   6   56.07    2.95
   1   1   6   59.91    2.37
  -2  -1  -6    2.50    0.13
  -2  -1  -6    2.98    0.14
  -2  -1  -6    2.20    0.13
  -2  -1  -6    2.46    0.18
  -2  -1  -6    2.50    0.15
   2   1   6    2.38    0.15
   2   1   6    2.28    0.14
   2   1   6    2.23    0.17
   2   1   6    2.46    0.13
   2   1   6    2.56    0.16
   2   1   6    2.43    0.14
  -3  -1  -6   77.42    3.92
  -3  -1  -6   75.87    3.01
  -3  -1  -6   85.79    2.60
  -3  -1  -6   82.29    2.82
   3   1   6   76.37    2.97
   3   1   6   80.62    3.92
   3   1   6   74.26    3.07
   3   1   6   80.04    2.59
  -4  -1  -6   22.95    0.91
  -4  -1  -6   23.47    0.85
  -4  -1  -6   21.12    1.19
   4   1   6   23.94    0.79
   4   1   6   23.19    0.93
  -5  -1  -6    1.80    0.14
   5   1   6    1.65    0.14
   5   1   6    1.89    0.13
  -6  -1  -6   11.84    0.53
   6   1   6   12.28    0.54
   6   1   6   12.36    0.45
   7   1   6   15.57    0.68
   7   1   6   15.79    0.57
   8   1   6    0.01    0.08
   8   1   6   -0.02    0.05
   9   1   6    7.28    0.32
   9   1   6    8.48    0.42
  10   1   6    4.04    0.20
  10   1   6    4.41    0.28
  13  -2  -6    1.62    0.19
  12  -2  -6    4.55    0.29
 -12   2   6    4.35    0.24
  11  -2  -6   17.29    0.77
 -11   2   6   17.79    0.73
  10  -2  -6    6.20    0.33
 -10   2   6    6.44    0.29
   9  -2  -6    6.89    0.35
   8  -2  -6   68.46    2.69
   7  -2  -6   11.38    0.50
   6  -2  -6   21.21    0.85
   6  -2  -6   20.78    0.81
  -6   2   6   20.79    0.82
  -6   2   6   20.14    0.81
   5  -2  -6   62.47    2.36
   5  -2  -6   62.64    2.26
   5  -2  -6   62.57    2.08
   5  -2  -6   64.40    2.45
  -5   2   6   65.39    3.08
  -5   2   6   61.20    2.36
  -5   2   6   60.41    2.44
   4  -2  -6   41.93    1.74
   4  -2  -6   43.33    1.69
   4  -2  -6   42.31    1.61
   4  -2  -6   43.30    1.48
  -4   2   6   51.19    1.69
  -4   2   6   43.78    1.80
  -4   2   6   47.49    2.20
  -4   2   6   42.89    1.74
  -4   2   6   45.35    2.20
  -4   2   6   43.71    1.74
   3  -2  -6   27.20    0.98
   3  -2  -6   24.65    0.97
   3  -2  -6   24.99    0.86
   3  -2  -6   25.46    0.93
  -3   2   6   25.00    1.00
  -3   2   6   26.11    1.27
  -3   2   6   26.40    0.98
  -3   2   6   24.87    1.04
  -3   2   6   24.08    1.26
  -3   2   6   23.85    1.00
   2  -2  -6   86.15    3.33
   2  -2  -6   93.53    3.37
   2  -2  -6   83.36    3.16
   2  -2  -6   89.74    2.91
   2  -2  -6   88.43    2.89
  -2   2   6   90.50    3.46
  -2   2   6   91.68    3.53
  -2   2   6   94.42    4.38
  -2   2   6   86.01    4.37
  -2   2   6   84.09    3.33
  -2   2   6   89.01    3.44
   1  -2  -6   15.37    0.59
   1  -2  -6   14.04    0.50
   1  -2  -6   14.42    0.52
   1  -2  -6   13.65    0.55
  -1   2   6   16.14    0.63
  -1   2   6   13.76    0.60
  -1   2   6   15.41    0.77
  -1   2   6   14.71    0.76
  -1   2   6   16.10    0.59
  -1   2   6   14.34    0.60
   0  -2  -6    3.97    0.19
   0  -2  -6    3.74    0.21
   0  -2  -6    4.20    0.18
   0  -2  -6    4.18    0.25
   0  -2  -6    4.24    0.18
   0  -2  -6    4.42    0.20
   0   2   6    4.01    0.21
   0   2   6    4.67    0.26
   0   2   6    4.24    0.20
   0   2   6    4.74    0.21
   0   2   6    4.31    0.22
   0   2   6    4.22    0.26
  -1  -2  -6   62.28    3.05
  -1  -2  -6   60.53    2.45
  -1  -2  -6   66.08    2.03
  -1  -2  -6   63.95    2.02
  -1  -2  -6   63.04    2.35
  -1  -2  -6   59.42    2.19
   1   2   6   63.51    2.32
   1   2   6   56.87    2.41
   1   2   6   58.03    2.38
   1   2   6   59.35    3.05
   1   2   6   61.89    2.45
  -2  -2  -6    9.18    0.50
  -2  -2  -6    9.30    0.34
  -2  -2  -6    9.26    0.39
  -2  -2  -6    8.41    0.36
   2   2   6    9.05    0.39
   2   2   6    9.39    0.34
   2   2   6    8.55    0.39
   2   2   6    9.43    0.50
   2   2   6    9.28    0.40
  -3  -2  -6    1.95    0.13
  -3  -2  -6    1.66    0.12
   3   2   6    1.72    0.13
   3   2   6    1.95    0.12
   3   2   6    1.76    0.13
  -4  -2  -6   11.21    0.49
   4   2   6   11.00    0.50
   4   2   6   12.01    0.42
  -5  -2  -6   30.16    1.24
   5   2   6   32.62    1.07
   5   2   6   31.09    1.27
  -6  -2  -6    1.07    0.12
   6   2   6    1.05    0.10
   6   2   6    1.47    0.15
   7   2   6   20.90    0.73
   7   2   6   20.09    0.87
   8   2   6    3.74    0.25
   8   2   6    3.49    0.19
   9   2   6    0.08    0.10
   9   2   6   -0.06    0.06
  13  -3  -6    4.91    0.31
  12  -3  -6    0.36    0.11
 -12   3   6    0.38    0.09
  11  -3  -6    3.23    0.23
 -11   3   6    3.08    0.19
  10  -3  -6   19.83    0.83
 -10   3   6   18.89    0.79
   9  -3  -6    5.56    0.30
   8  -3  -6   10.47    0.47
  -8   3   6   10.13    0.44
   7  -3  -6   40.50    1.65
  -7   3   6   40.79    1.64
  -7   3   6   43.07    2.06
   6  -3  -6   26.96    1.11
  -6   3   6   27.80    1.06
  -6   3   6   28.47    1.38
  -6   3   6   27.05    1.09
   5  -3  -6   25.66    1.04
   5  -3  -6   26.97    0.89
  -5   3   6   26.22    1.04
  -5   3   6   25.96    1.03
  -5   3   6   26.51    1.30
  -5   3   6   23.96    1.00
   4  -3  -6  100.84    3.65
   4  -3  -6  104.11    3.37
  -4   3   6  108.24    3.97
  -4   3   6   98.43    5.04
  -4   3   6   99.47    4.07
  -4   3   6  103.88    3.84
  -4   3   6  102.61    3.99
   3  -3  -6   10.84    0.43
   3  -3  -6   10.26    0.41
   3  -3  -6    9.86    0.35
   3  -3  -6   10.28    0.38
  -3   3   6   10.64    0.43
  -3   3   6   11.22    0.56
  -3   3   6   10.09    0.55
  -3   3   6   10.44    0.45
  -3   3   6   10.33    0.47
  -3   3   6   10.73    0.44
   2  -3  -6   18.88    0.65
   2  -3  -6   16.79    0.69
   2  -3  -6   19.10    0.74
   2  -3  -6   18.27    0.63
  -2   3   6   17.58    0.78
  -2   3   6   16.21    0.95
  -2   3   6   21.35    0.76
  -2   3   6   20.21    0.74
  -2   3   6   19.48    0.96
  -2   3   6   18.33    0.76
   1  -3  -6   94.43    3.48
   1  -3  -6   98.47    3.19
   1  -3  -6  100.32    3.71
   1  -3  -6  102.00    3.20
   1  -3  -6   92.63    3.19
  -1   3   6   99.81    3.79
  -1   3   6   88.43    4.82
  -1   3   6  106.47    3.82
  -1   3   6  108.03    4.83
  -1   3   6   90.18    3.66
  -1   3   6   94.46    3.88
   0  -3  -6   22.79    0.76
   0  -3  -6   21.52    0.92
   0  -3  -6   22.93    0.88
   0  -3  -6   22.32    0.75
   0  -3  -6   23.17    1.13
   0  -3  -6   21.17    0.82
   0   3   6   23.96    0.87
   0   3   6   22.07    0.89
   0   3   6   21.47    0.90
   0   3   6   20.70    0.92
   0   3   6   21.57    1.13
  -1  -3  -6   34.92    1.16
  -1  -3  -6   35.79    1.16
  -1  -3  -6   35.33    1.25
  -1  -3  -6   35.65    1.35
   1   3   6   33.94    1.33
   1   3   6   35.19    1.75
   1   3   6   32.16    1.37
   1   3   6   33.35    1.38
  -2  -3  -6   55.47    1.77
  -2  -3  -6   51.33    2.05
  -2  -3  -6   53.48    1.76
   2   3   6   54.28    2.03
   2   3   6   54.78    1.76
   2   3   6   50.04    2.09
   2   3   6   53.43    2.66
  -3  -3  -6    9.13    0.42
  -3  -3  -6   10.41    0.37
   3   3   6    9.28    0.41
   3   3   6    9.07    0.42
   3   3   6    9.87    0.36
  -4  -3  -6   19.15    0.81
   4   3   6   20.86    0.70
   4   3   6   20.11    0.83
  -5  -3  -6   19.68    0.85
   5   3   6   21.02    0.87
   5   3   6   21.22    0.73
   6   3   6    1.39    0.13
   6   3   6    1.30    0.14
   7   3   6    0.08    0.09
   7   3   6    0.05    0.06
   8   3   6    9.45    0.48
   8   3   6    9.79    0.38
   9   3   6    7.35    0.39
   9   3   6    6.73    0.30
  12  -4  -6    6.34    0.37
 -12   4   6    6.93    0.33
  11  -4  -6    0.16    0.09
 -11   4   6    0.09    0.07
  10  -4  -6   10.59    0.50
   9  -4  -6   13.83    0.61
  -9   4   6   13.37    0.58
   8  -4  -6    1.90    0.17
  -8   4   6    1.99    0.14
   7  -4  -6   12.85    0.58
  -7   4   6   14.00    0.70
  -7   4   6   13.10    0.56
   6  -4  -6   41.55    1.68
  -6   4   6   42.39    1.68
  -6   4   6   41.28    1.67
  -6   4   6   43.56    1.61
  -6   4   6   42.67    2.11
  -5   4   6    5.24    0.25
  -5   4   6    5.73    0.27
  -5   4   6    5.51    0.31
  -5   4   6    5.18    0.25
   4  -4  -6   13.16    0.55
   4  -4  -6   12.77    0.48
  -4   4   6   13.37    0.57
  -4   4   6   13.51    0.54
  -4   4   6   13.52    0.70
  -4   4   6   13.68    0.56
   3  -4  -6   79.09    2.96
   3  -4  -6   76.84    2.55
   3  -4  -6   75.90    2.52
   3  -4  -6   76.90    2.77
  -3   4   6   76.85    3.03
  -3   4   6   76.61    3.83
  -3   4   6   79.37    3.02
  -3   4   6   77.83    2.92
   2  -4  -6   25.73    0.87
   2  -4  -6   25.65    0.94
   2  -4  -6   24.91    1.00
   2  -4  -6   24.88    0.85
  -2   4   6   24.43    1.05
  -2   4   6   27.52    0.99
  -2   4   6   23.94    1.02
  -2   4   6   25.96    1.29
  -2   4   6   25.67    1.03
   1  -4  -6   42.05    1.60
   1  -4  -6   40.93    1.37
   1  -4  -6   40.72    1.37
   1  -4  -6   40.78    1.49
  -1   4   6   38.17    1.63
  -1   4   6   41.99    1.58
  -1   4   6   41.15    1.67
  -1   4   6   42.55    2.07
  -1   4   6   42.11    1.63
   0  -4  -6   67.10    2.37
   0  -4  -6   65.99    2.54
   0  -4  -6   70.47    2.19
   0  -4  -6   67.79    2.18
   0   4   6   61.94    2.61
   0   4   6   63.91    2.51
   0   4   6   65.80    2.59
   0   4   6   66.97    3.30
  -1  -4  -6   14.43    0.51
  -1  -4  -6   13.68    0.50
  -1  -4  -6   13.90    0.54
  -1  -4  -6   13.48    0.58
   1   4   6   14.71    0.58
   1   4   6   14.90    0.60
   1   4   6   14.87    0.60
   1   4   6   13.26    0.75
  -2  -4  -6   11.43    0.52
  -2  -4  -6   12.17    0.45
  -2  -4  -6   12.49    0.44
   2   4   6   12.85    0.45
   2   4   6   12.87    0.54
   2   4   6   11.88    0.52
  -3  -4  -6   71.78    2.37
  -3  -4  -6   70.14    2.77
  -3  -4  -6   75.74    2.38
   3   4   6   71.03    2.38
   3   4   6   70.78    2.82
   3   4   6   72.63    2.73
  -4  -4  -6   12.65    0.56
   4   4   6   12.40    0.55
   4   4   6   13.22    0.48
   4   4   6   13.62    0.58
  -5  -4  -6   10.74    0.50
   5   4   6   11.57    0.43
   5   4   6   10.74    0.51
   6   4   6   37.32    1.52
   6   4   6   37.21    1.27
   7   4   6    3.40    0.19
   7   4   6    3.30    0.25
   8   4   6    4.94    0.25
   8   4   6    5.58    0.33
   9   4   6    3.86    0.28
   9   4   6    3.42    0.19
  12  -5  -6    5.32    0.32
 -12   5   6    5.05    0.28
  11  -5  -6    8.09    0.42
 -11   5   6    8.23    0.39
  10  -5  -6   -0.01    0.07
   9  -5  -6   17.30    0.73
  -9   5   6   16.18    0.71
   8  -5  -6   23.96    1.03
  -8   5   6   24.71    1.01
  -8   5   6   25.48    1.03
   7  -5  -6    0.15    0.07
  -7   5   6    0.09    0.06
  -7   5   6    0.06    0.07
  -6   5   6   30.20    1.21
  -6   5   6   29.89    1.22
  -6   5   6   29.21    1.52
  -6   5   6   30.77    1.17
  -5   5   6   37.73    1.51
  -5   5   6   36.82    1.50
  -5   5   6   39.67    1.45
  -5   5   6   36.46    1.89
   4  -5  -6    1.18    0.10
   4  -5  -6    1.21    0.11
  -4   5   6    1.38    0.12
  -4   5   6    1.22    0.13
  -4   5   6    1.29    0.12
  -4   5   6    1.30    0.13
   3  -5  -6   35.75    1.16
   3  -5  -6   33.29    1.13
   3  -5  -6   32.92    1.33
  -3   5   6   32.25    1.36
  -3   5   6   35.31    1.37
  -3   5   6   35.66    1.72
  -3   5   6   33.33    1.32
   2  -5  -6   42.48    1.66
   2  -5  -6   42.88    1.43
   2  -5  -6   42.68    1.42
  -2   5   6   43.30    1.70
  -2   5   6   42.00    1.70
  -2   5   6   43.59    1.64
  -2   5   6   42.22    2.15
   1  -5  -6    6.66    0.27
   1  -5  -6    6.39    0.31
   1  -5  -6    6.53    0.26
   1  -5  -6    6.64    0.29
  -1   5   6    6.89    0.32
  -1   5   6    7.03    0.31
  -1   5   6    6.40    0.39
  -1   5   6    6.88    0.33
   0  -5  -6   13.60    0.55
   0  -5  -6   14.22    0.51
   0  -5  -6   14.19    0.51
   0  -5  -6   13.50    0.59
   0  -5  -6   14.26    0.51
   0   5   6   14.90    0.77
   0   5   6   15.30    0.61
   0   5   6   14.52    0.61
   0   5   6   14.00    0.59
  -1  -5  -6   69.36    2.46
  -1  -5  -6   65.10    2.64
  -1  -5  -6   69.25    2.27
  -1  -5  -6   68.43    2.27
   1   5   6   70.70    2.70
   1   5   6   67.90    3.43
   1   5   6   70.46    2.61
  -2  -5  -6    6.97    0.27
  -2  -5  -6    6.96    0.29
  -2  -5  -6    6.67    0.33
   2   5   6    6.91    0.33
   2   5   6    7.09    0.34
  -3  -5  -6   12.29    0.56
  -3  -5  -6   13.41    0.49
   3   5   6   12.83    0.57
   3   5   6   12.90    0.55
   3   5   6   12.60    0.48
  -4  -5  -6   22.58    0.94
   4   5   6   22.69    0.92
   4   5   6   22.42    0.96
   4   5   6   23.44    0.80
  -5  -5  -6   12.47    0.58
   5   5   6   13.50    0.50
   5   5   6   13.46    0.60
   6   5   6    1.14    0.15
   6   5   6    1.14    0.11
   7   5   6   19.82    0.73
   7   5   6   20.44    0.88
   8   5   6    7.94    0.34
   8   5   6    8.34    0.44
  12  -6  -6    0.73    0.14
 -12   6   6    0.74    0.15
  11  -6  -6   12.52    0.60
 -11   6   6   12.98    0.61
 -11   6   6   12.93    0.58
  10  -6  -6    7.15    0.39
 -10   6   6    7.70    0.40
   9  -6  -6   -0.02    0.08
  -9   6   6    0.16    0.09
  -9   6   6   -0.06    0.07
  -8   6   6   20.09    0.85
  -8   6   6   19.14    0.82
  -7   6   6   28.33    1.19
  -7   6   6   29.73    1.19
  -6   6   6    0.20    0.07
  -6   6   6    0.27    0.08
  -6   6   6    0.33    0.07
  -5   6   6   33.10    1.80
  -5   6   6   36.08    1.44
  -5   6   6   36.29    1.38
  -5   6   6   36.78    1.43
   4  -6  -6   49.30    1.64
   4  -6  -6   47.60    1.94
  -4   6   6   45.62    2.50
  -4   6   6   55.10    1.91
  -4   6   6   50.52    1.98
  -4   6   6   51.04    1.98
   3  -6  -6    0.50    0.08
   3  -6  -6    0.29    0.04
   3  -6  -6    0.29    0.06
  -3   6   6    0.28    0.07
  -3   6   6    0.26    0.08
  -3   6   6    0.45    0.08
  -3   6   6    0.43    0.09
   2  -6  -6   42.47    1.69
   2  -6  -6   41.40    1.45
   2  -6  -6   43.10    1.44
  -2   6   6   45.39    1.73
  -2   6   6   45.30    1.73
  -2   6   6   42.53    1.67
  -2   6   6   42.76    2.18
   1  -6  -6   49.19    1.59
   1  -6  -6   46.44    1.85
   1  -6  -6   48.67    1.59
  -1   6   6   47.61    1.90
  -1   6   6   47.74    1.89
  -1   6   6   47.82    2.40
  -1   6   6   45.65    1.83
   0  -6  -6    0.36    0.06
   0  -6  -6    0.46    0.06
   0  -6  -6    0.52    0.08
   0   6   6    0.42    0.08
   0   6   6    0.53    0.09
   0   6   6    0.40    0.09
   0   6   6    0.50    0.08
  -1  -6  -6   21.92    0.75
  -1  -6  -6   21.61    0.74
  -1  -6  -6   20.93    0.75
  -1  -6  -6   20.30    0.87
   1   6   6   22.42    0.88
   1   6   6   21.82    0.90
  -2  -6  -6   24.80    1.05
  -2  -6  -6   27.02    0.91
   2   6   6   26.72    1.05
   2   6   6   26.43    0.91
   2   6   6   26.19    1.09
  -3  -6  -6    7.71    0.31
  -3  -6  -6    6.56    0.34
   3   6   6    6.77    0.36
   3   6   6    6.82    0.35
   3   6   6    7.37    0.30
  -4  -6  -6    8.97    0.44
   4   6   6    9.61    0.38
   4   6   6    9.96    0.46
   4   6   6    8.55    0.43
  -5  -6  -6   17.87    0.80
   5   6   6   19.22    0.68
   5   6   6   19.91    0.82
   5   6   6   17.63    0.78
   6   6   6    1.45    0.14
   6   6   6    1.31    0.16
   7   6   6    0.57    0.13
   7   6   6    0.43    0.08
   8   6   6    3.44    0.19
   8   6   6    3.52    0.27
 -11   7   6    0.22    0.11
 -11   7   6    0.03    0.09
 -10   7   6   16.32    0.74
  -9   7   6   15.69    0.71
  -8   7   6    1.63    0.18
  -8   7   6    1.71    0.16
  -7   7   6   17.92    0.77
  -7   7   6   18.06    0.78
  -6   7   6   22.86    0.98
  -6   7   6   23.97    0.94
  -6   7   6   23.12    0.97
   5  -7  -6    0.09    0.06
  -5   7   6    0.38    0.08
  -5   7   6    0.16    0.07
  -5   7   6    0.10    0.08
   4  -7  -6   30.03    1.01
   4  -7  -6   29.83    1.21
  -4   7   6   29.69    1.19
  -4   7   6   30.56    1.24
  -4   7   6   30.89    1.24
   3  -7  -6   32.02    1.31
   3  -7  -6   32.37    1.10
  -3   7   6   32.19    1.33
  -3   7   6   33.24    1.29
  -3   7   6   33.92    1.33
   2  -7  -6    1.41    0.11
   2  -7  -6    1.48    0.11
   2  -7  -6    1.40    0.13
  -2   7   6    1.80    0.16
  -2   7   6    1.43    0.16
  -2   7   6    1.37    0.15
  -2   7   6    1.49    0.15
   1  -7  -6   28.43    1.19
   1  -7  -6   30.11    1.01
   1  -7  -6   30.13    1.01
  -1   7   6   29.19    1.22
  -1   7   6   29.42    1.18
  -1   7   6   30.95    1.22
   0  -7  -6   45.41    1.52
   0  -7  -6   43.90    1.77
   0  -7  -6   45.25    1.51
   0   7   6   45.56    1.76
   0   7   6   45.95    1.81
  -1  -7  -6    0.86    0.10
  -1  -7  -6    0.72    0.09
   1   7   6    0.80    0.11
   1   7   6    1.02    0.12
  -2  -7  -6   21.43    0.91
  -2  -7  -6   23.02    0.79
  -2  -7  -6   22.75    0.79
   2   7   6   22.07    0.94
   2   7   6   21.00    0.90
  -3  -7  -6   21.09    0.93
  -3  -7  -6   24.11    0.81
   3   7   6   23.71    0.81
   3   7   6   21.23    0.93
   3   7   6   22.77    0.96
  -4  -7  -6    0.94    0.12
   4   7   6    0.95    0.13
   4   7   6    0.74    0.13
   4   7   6    0.89    0.10
   5   7   6    4.89    0.30
   5   7   6    3.84    0.26
   5   7   6    4.25    0.23
   6   7   6   11.13    0.55
   6   7   6   11.08    0.44
   7   7   6    1.65    0.14
   7   7   6    1.44    0.19
 -11   8   6    2.82    0.24
 -10   8   6    0.78    0.15
  -9   8   6    6.12    0.36
  -8   8   6   15.47    0.70
  -8   8   6   15.48    0.69
  -7   8   6    0.26    0.10
  -7   8   6   -0.03    0.07
  -6   8   6   33.13    1.37
  -6   8   6   33.02    1.36
   5  -8  -6   13.22    0.62
  -5   8   6   14.87    0.65
  -5   8   6   14.22    0.61
  -5   8   6   14.64    0.63
   4  -8  -6    0.58    0.06
   4  -8  -6    0.47    0.09
  -4   8   6    0.57    0.10
  -4   8   6    0.50    0.11
  -4   8   6    0.56    0.09
   3  -8  -6   22.81    0.98
   3  -8  -6   24.78    0.82
  -3   8   6   25.30    1.02
  -3   8   6   24.36    0.98
  -3   8   6   22.70    1.00
   2  -8  -6   26.27    0.88
   2  -8  -6   25.30    1.04
  -2   8   6   26.33    1.07
  -2   8   6   24.37    1.03
  -2   8   6   25.03    1.06
   1  -8  -6    0.24    0.07
   1  -8  -6    0.25    0.06
  -1   8   6    0.28    0.08
  -1   8   6    0.19    0.08
  -1   8   6    0.26    0.09
   0  -8  -6   16.16    0.60
   0  -8  -6   16.15    0.70
   0   8   6   17.03    0.73
   0   8   6   16.57    0.70
  -1  -8  -6   20.55    0.74
  -1  -8  -6   19.93    0.86
   1   8   6   20.83    0.86
   1   8   6   21.25    0.89
  -2  -8  -6    1.55    0.15
  -2  -8  -6    1.18    0.12
   2   8   6    1.60    0.17
   2   8   6    1.72    0.18
   2   8   6    1.58    0.14
  -3  -8  -6   13.12    0.49
  -3  -8  -6   11.34    0.55
  -3  -8  -6   13.29    0.49
   3   8   6   12.29    0.48
   3   8   6   13.21    0.59
   3   8   6   11.29    0.56
   4   8   6   15.20    0.58
   4   8   6   14.67    0.68
   4   8   6   16.76    0.72
   5   8   6    0.55    0.13
   5   8   6    0.51    0.09
   5   8   6    0.50    0.11
   6   8   6    4.13    0.23
   6   8   6    4.57    0.31
 -10   9   6    2.82    0.25
 -10   9   6    2.88    0.22
  -9   9   6    1.18    0.17
  -8   9   6   12.66    0.62
  -8   9   6   13.36    0.61
  -7   9   6    3.96    0.25
  -7   9   6    3.69    0.27
  -6   9   6    0.39    0.10
  -6   9   6    0.28    0.11
   5  -9  -6   15.13    0.52
   5  -9  -6   14.87    0.67
  -5   9   6   15.53    0.65
  -5   9   6   14.77    0.69
  -5   9   6   15.18    0.67
   4  -9  -6   23.66    0.81
   4  -9  -6   24.02    0.99
  -4   9   6   23.28    1.00
  -4   9   6   23.72    0.97
  -4   9   6   23.94    1.01
   3  -9  -6    1.87    0.13
   3  -9  -6    1.87    0.16
  -3   9   6    2.02    0.18
  -3   9   6    1.81    0.20
  -3   9   6    2.08    0.18
   2  -9  -6   27.68    0.94
   2  -9  -6   25.94    1.11
  -2   9   6   28.46    1.15
  -2   9   6   26.95    1.10
   1  -9  -6   15.41    0.68
   1  -9  -6   15.77    0.57
  -1   9   6   16.13    0.69
  -1   9   6   16.02    0.71
   0  -9  -6    0.23    0.06
   0  -9  -6    0.09    0.07
   0   9   6    0.06    0.09
   0   9   6    0.13    0.08
  -1  -9  -6   22.07    0.93
  -1  -9  -6   22.80    0.80
   1   9   6   22.83    0.97
   1   9   6   22.07    0.94
  -2  -9  -6   10.86    0.43
   2   9   6   10.16    0.50
   2   9   6   10.54    0.52
  -3  -9  -6    0.00    0.07
   3   9   6   -0.01    0.08
   3   9   6    0.03    0.10
   3   9   6    0.04    0.07
   4   9   6    5.09    0.31
   4   9   6    5.42    0.33
   4   9   6    5.61    0.27
   5   9   6    8.28    0.43
   5   9   6    7.73    0.33
   5   9   6    6.82    0.39
   6   9   6    0.18    0.12
   6   9   6    0.24    0.08
  -9  10   6    3.00    0.26
  -8  10   6    3.35    0.27
  -7  10   6   12.38    0.58
  -7  10   6   12.16    0.60
  -6  10   6    5.53    0.32
  -6  10   6    5.32    0.33
   5 -10  -6    3.97    0.18
  -5  10   6    4.16    0.26
  -5  10   6    4.02    0.26
  -5  10   6    4.39    0.29
   4 -10  -6   13.94    0.50
  -4  10   6   13.60    0.64
  -4  10   6   14.35    0.62
  -4  10   6   14.15    0.65
   3 -10  -6    6.63    0.28
  -3  10   6    6.53    0.37
  -3  10   6    7.03    0.36
   2 -10  -6    0.08    0.05
  -2  10   6    0.07    0.10
  -2  10   6    0.16    0.08
   1 -10  -6   19.51    0.70
  -1  10   6   19.33    0.85
  -1  10   6   19.40    0.83
   0 -10  -6   15.06    0.55
   0  10   6   14.39    0.66
   0  10   6   14.80    0.68
  -1 -10  -6    0.17    0.07
   1  10   6    0.21    0.09
   1  10   6    0.14    0.11
  -2 -10  -6   11.74    0.45
   2  10   6   10.86    0.55
   2  10   6   11.01    0.53
  -3 -10  -6   12.67    0.50
   3  10   6   12.79    0.49
   3  10   6   11.35    0.56
   3  10   6   12.15    0.59
   4  10   6    0.06    0.09
   4  10   6    0.03    0.11
   4  10   6    0.00    0.07
   5  10   6    6.04    0.28
   5  10   6    5.55    0.33
   5  10   6    6.28    0.37
  -8  11   6    1.94    0.22
  -7  11   6    2.73    0.25
  -7  11   6    2.79    0.23
  -6  11   6   16.11    0.75
  -6  11   6   16.54    0.74
   5 -11  -6    3.07    0.15
  -5  11   6    2.99    0.25
  -5  11   6    3.18    0.23
  -5  11   6    3.14    0.24
   4 -11  -6    3.31    0.17
  -4  11   6    3.24    0.23
  -4  11   6    3.12    0.26
   3 -11  -6   16.31    0.59
  -3  11   6   16.66    0.72
  -3  11   6   16.53    0.75
   2 -11  -6    4.75    0.22
  -2  11   6    4.32    0.29
  -2  11   6    4.67    0.30
   1 -11  -6    2.26    0.15
  -1  11   6    2.14    0.21
  -1  11   6    2.24    0.20
   0 -11  -6    7.22    0.31
   0  11   6    7.41    0.39
   0  11   6    7.04    0.40
  -1 -11  -6    6.73    0.30
   1  11   6    5.94    0.36
   1  11   6    6.97    0.38
  -2 -11  -6    0.10    0.07
   2  11   6   -0.02    0.10
   2  11   6   -0.14    0.09
  -3 -11  -6    6.19    0.29
   3  11   6    5.97    0.36
   3  11   6    5.72    0.28
   3  11   6    5.24    0.33
  -7  12   6    0.93    0.17
  -6  12   6    3.33    0.27
  -5  12   6   11.06    0.56
  -5  12   6   10.90    0.52
   4 -12  -6    5.11    0.23
  -4  12   6    5.19    0.33
  -4  12   6    4.92    0.30
   3 -12  -6    3.59    0.19
  -3  12   6    3.87    0.26
  -3  12   6    3.33    0.27
   2 -12  -6   13.45    0.51
  -2  12   6   13.77    0.63
  -2  12   6   13.36    0.65
   1 -12  -6    3.77    0.20
  -1  12   6    3.58    0.27
  -1  12   6    3.62    0.26
   0 -12  -6    2.14    0.15
   0  12   6    1.81    0.21
   0  12   6    1.81    0.20
  -1 -12  -6    9.24    0.38
   1  12   6    8.82    0.46
   1  12   6    9.13    0.48
  -2 -12  -6    1.58    0.15
   2  12   6    1.38    0.18
   2  12   6    1.23    0.16
  -5  13   6    2.07    0.20
  -5  13   6    2.23    0.23
   4 -13  -6    9.30    0.35
  -4  13   6    9.35    0.46
  -4  13   6    8.59    0.48
   3 -13  -6    2.00    0.13
  -3  13   6    1.45    0.19
  -3  13   6    1.69    0.19
   2 -13  -6    1.33    0.12
  -2  13   6    1.18    0.17
  -2  13   6    1.09    0.16
   1 -13  -6    9.16    0.37
  -1  13   6    8.36    0.45
  -1  13   6    9.19    0.48
   4  15  -7    4.59    0.30
   3  15  -7    0.11    0.06
   3  15  -7    0.09    0.11
   2  15  -7    3.16    0.26
   2  15  -7    3.52    0.19
   1  15  -7    6.86    0.30
   1  15  -7    6.99    0.38
   0  15  -7    0.74    0.10
   0  15  -7    0.82    0.14
  -1  15  -7    1.19    0.12
   6  14  -7    7.10    0.41
  -6 -14   7    8.12    0.41
   5  14  -7    0.21    0.11
  -5 -14   7    0.23    0.09
   4  14  -7    9.60    0.50
  -4 -14   7   10.41    0.49
   3  14  -7   14.57    0.66
   3  14  -7   14.42    0.52
   2  14  -7    0.21    0.10
   2  14  -7    0.16    0.07
   1  14  -7   10.48    0.51
   1  14  -7   10.79    0.42
   0  14  -7   13.87    0.53
   0  14  -7   13.89    0.63
  -1  14  -7    0.69    0.11
  -1  14  -7    0.86    0.13
  -2  14  -7    5.09    0.26
  -3  14  -7    6.56    0.32
  -4  14  -7    2.27    0.20
   4 -14   7    2.45    0.17
   5 -14   7    0.49    0.09
   7  13  -7   -0.07    0.10
  -7 -13   7    0.06    0.08
   6  13  -7    8.35    0.45
  -6 -13   7    8.65    0.43
   5  13  -7    6.96    0.40
  -5 -13   7    7.67    0.39
   4  13  -7    0.32    0.11
  -4 -13   7    0.36    0.09
   3  13  -7    6.75    0.38
   3  13  -7    7.15    0.29
  -3 -13   7    7.23    0.37
   2  13  -7   23.78    0.98
   2  13  -7   22.46    0.81
   1  13  -7    2.87    0.23
   1  13  -7    2.71    0.18
   0  13  -7   12.10    0.48
   0  13  -7   12.28    0.56
  -1  13  -7   20.38    0.84
  -1  13  -7   19.65    0.73
  -2  13  -7    1.96    0.17
  -3  13  -7    5.76    0.29
  -4  13  -7   12.93    0.51
   4 -13   7   12.40    0.49
   5 -13   7    0.37    0.08
   6 -13   7    1.45    0.14
   8  12  -7    6.92    0.40
  -8 -12   7    7.31    0.38
   7  12  -7    3.72    0.27
  -7 -12   7    3.68    0.24
   6  12  -7   -0.12    0.09
  -6 -12   7    0.04    0.07
   5  12  -7   12.29    0.57
  -5 -12   7   11.39    0.54
   4  12  -7   20.20    0.83
  -4 -12   7   17.85    0.82
   3  12  -7    0.26    0.11
   3  12  -7    0.33    0.07
  -3 -12   7    0.32    0.09
   2  12  -7   13.94    0.63
   2  12  -7   13.95    0.51
  -2 -12   7   13.90    0.63
   1  12  -7   12.42    0.48
   1  12  -7   12.66    0.57
  -1 -12   7   12.53    0.57
   0  12  -7    2.70    0.21
   0  12  -7    3.18    0.19
  -1  12  -7    7.95    0.39
  -1  12  -7    7.72    0.34
  -2  12  -7   20.88    0.76
  -3  12  -7    1.95    0.17
  -4  12  -7    4.52    0.26
   4 -12   7    4.86    0.24
   5 -12   7   10.44    0.42
   6 -12   7    1.45    0.14
   7 -12   7    4.53    0.23
   9  11  -7    4.39    0.30
  -9 -11   7    4.88    0.29
   8  11  -7    0.76    0.14
  -8 -11   7    0.78    0.11
   7  11  -7   13.21    0.62
  -7 -11   7   13.61    0.61
   6  11  -7    9.11    0.46
  -6 -11   7    9.59    0.45
   5  11  -7    1.67    0.19
  -5 -11   7    1.45    0.15
   4  11  -7   15.27    0.67
  -4 -11   7   14.83    0.66
   3  11  -7   20.02    0.70
   3  11  -7   19.93    0.85
  -3 -11   7   20.48    0.86
   2  11  -7    0.83    0.12
   2  11  -7    0.82    0.09
  -2 -11   7    0.79    0.11
   1  11  -7   33.18    1.35
   1  11  -7   33.47    1.16
  -1 -11   7   35.12    1.40
   0  11  -7   23.47    0.83
   0  11  -7   23.04    0.96
   0 -11   7   24.68    1.00
  -1  11  -7    0.24    0.09
  -1  11  -7    0.32    0.08
  -2  11  -7    8.34    0.35
  -3  11  -7   12.57    0.49
  -4  11  -7    1.24    0.13
   4 -11   7    1.50    0.14
   5 -11   7    6.53    0.29
   6 -11   7    7.97    0.34
   7 -11   7    0.45    0.08
   9  10  -7    3.87    0.26
  -9 -10   7    3.81    0.24
   8  10  -7    3.43    0.24
  -8 -10   7    3.26    0.22
   7  10  -7    0.71    0.13
  -7 -10   7    1.27    0.14
  -7 -10   7    0.97    0.13
   6  10  -7   23.04    0.97
  -6 -10   7   24.05    0.97
  -6 -10   7   22.97    0.98
   5  10  -7   12.62    0.59
  -5 -10   7   13.68    0.59
  -5 -10   7   13.71    0.58
   4  10  -7    1.62    0.17
  -4 -10   7    1.63    0.14
  -4 -10   7    1.57    0.14
   3  10  -7   33.05    1.37
   3  10  -7   35.43    1.16
  -3 -10   7   35.66    1.41
   2  10  -7   18.41    0.75
   2  10  -7   17.33    0.63
  -2 -10   7   18.22    0.77
   1  10  -7    0.08    0.06
   1  10  -7   -0.03    0.07
  -1 -10   7    0.05    0.06
  -1 -10   7    0.17    0.07
   0  10  -7   17.03    0.68
   0  10  -7   16.23    0.59
   0 -10   7   16.61    0.71
   0 -10   7   15.37    0.88
  -1  10  -7   39.90    1.52
  -1  10  -7   38.46    1.33
  -2  10  -7    0.17    0.07
  -3  10  -7   24.32    0.86
  -4  10  -7   11.15    0.45
   4 -10   7   11.31    0.44
   5 -10   7    0.11    0.06
   6 -10   7    5.16    0.24
   7 -10   7    7.37    0.32
   8 -10   7    0.17    0.06
 -10  -9   7    8.16    0.40
   9   9  -7    7.20    0.39
  -9  -9   7    8.15    0.38
   8   9  -7   38.33    1.52
  -8  -9   7   38.63    1.56
   7   9  -7    1.34    0.15
  -7  -9   7    1.31    0.14
  -7  -9   7    1.32    0.15
   6   9  -7    6.77    0.36
  -6  -9   7    7.32    0.35
  -6  -9   7    7.13    0.34
   5   9  -7   30.08    1.24
  -5  -9   7   31.02    1.24
  -5  -9   7   32.17    1.27
   4   9  -7   25.67    1.03
  -4  -9   7   25.69    1.02
  -4  -9   7   24.91    1.04
   3   9  -7    4.97    0.20
   3   9  -7    4.71    0.27
  -3  -9   7    4.77    0.31
  -3  -9   7    4.79    0.24
  -3  -9   7    4.66    0.25
   2   9  -7   45.97    1.53
   2   9  -7   48.67    1.78
  -2  -9   7   46.95    1.84
  -2  -9   7   42.68    2.32
   1   9  -7   27.15    0.90
   1   9  -7   27.34    1.05
  -1  -9   7   25.95    1.37
  -1  -9   7   25.44    1.09
   0   9  -7    2.25    0.14
   0   9  -7    2.48    0.17
   0  -9   7    2.16    0.19
   0  -9   7    2.53    0.18
  -1   9  -7   24.43    0.98
  -1   9  -7   25.33    0.86
   1  -9   7   24.82    1.30
  -2   9  -7   12.25    0.46
  -3   9  -7    0.95    0.10
  -4   9  -7   13.00    0.50
   4  -9   7   13.36    0.49
   5  -9   7   16.56    0.61
   6  -9   7    0.02    0.06
   7  -9   7    5.73    0.26
   8  -9   7    4.56    0.22
 -11  -8   7    4.29    0.26
 -10  -8   7    9.14    0.43
   9   8  -7    2.83    0.21
  -9  -8   7    3.04    0.20
   8   8  -7    0.29    0.09
  -8  -8   7    0.31    0.07
  -8  -8   7    0.37    0.09
   7   8  -7   44.85    1.75
  -7  -8   7   44.84    1.80
  -7  -8   7   45.42    1.77
   6   8  -7   39.04    1.57
  -6  -8   7   40.26    1.58
  -6  -8   7   40.94    1.61
   5   8  -7   21.80    0.89
  -5  -8   7   22.10    0.89
  -5  -8   7   22.02    0.90
   4   8  -7   59.92    2.21
  -4  -8   7   57.09    2.28
  -4  -8   7   55.11    2.87
  -4  -8   7   58.01    2.22
   3   8  -7   22.98    0.90
   3   8  -7   22.86    0.75
  -3  -8   7   23.24    0.92
  -3  -8   7   20.05    1.15
  -3  -8   7   22.86    0.89
   2   8  -7    1.57    0.10
   2   8  -7    1.67    0.14
  -2  -8   7    1.50    0.14
  -2  -8   7    1.46    0.13
   1   8  -7   63.02    2.38
   1   8  -7   63.52    2.06
  -1  -8   7   60.44    3.13
  -1  -8   7   63.92    2.48
   0   8  -7   30.98    1.17
   0   8  -7   30.57    1.02
   0  -8   7   27.34    1.53
   0  -8   7   31.31    1.22
  -1   8  -7    3.16    0.18
  -1   8  -7    3.00    0.16
   1  -8   7    2.60    0.21
   1  -8   7    3.02    0.19
  -2   8  -7   38.07    1.29
  -3   8  -7   11.63    0.43
   3  -8   7   11.25    0.43
  -4   8  -7    2.54    0.17
   4  -8   7    2.80    0.16
   5  -8   7    8.19    0.33
   6  -8   7    6.39    0.28
   7  -8   7    0.05    0.06
   8  -8   7    5.35    0.25
   9  -8   7    2.65    0.16
  12   7  -7    4.72    0.31
 -11  -7   7    0.75    0.10
 -10  -7   7    5.83    0.30
   9   7  -7   20.54    0.85
  -9  -7   7   20.60    0.86
  -9  -7   7   21.13    0.88
   8   7  -7    2.26    0.18
  -8  -7   7    2.64    0.16
  -8  -7   7    2.43    0.18
   7   7  -7    8.39    0.39
  -7  -7   7    8.72    0.39
  -7  -7   7    8.10    0.38
   6   7  -7   14.19    0.59
  -6  -7   7   14.02    0.59
  -6  -7   7   13.82    0.59
   5   7  -7   29.09    1.13
  -5  -7   7   28.51    1.46
  -5  -7   7   29.15    1.13
  -5  -7   7   27.96    1.15
   4   7  -7    0.24    0.07
  -4  -7   7    0.17    0.05
  -4  -7   7    0.22    0.06
  -4  -7   7    0.25    0.06
   3   7  -7   95.06    2.93
   3   7  -7   91.51    3.38
   3   7  -7   93.19    3.20
  -3  -7   7   87.35    3.51
  -3  -7   7   80.09    4.43
  -3  -7   7   90.46    3.41
   2   7  -7   30.58    1.03
   2   7  -7   30.64    1.21
  -2  -7   7   30.90    1.58
  -2  -7   7   31.11    1.25
  -2  -7   7   32.35    1.20
   1   7  -7    5.61    0.26
   1   7  -7    5.29    0.22
  -1  -7   7    5.01    0.32
  -1  -7   7    5.83    0.27
   0   7  -7   38.42    1.45
   0   7  -7   39.91    1.26
   0  -7   7   36.61    1.51
   0  -7   7   36.38    1.91
  -1   7  -7   32.75    1.21
  -1   7  -7   32.75    1.06
  -1   7  -7   31.39    1.28
   1  -7   7   29.20    1.59
   1  -7   7   30.78    1.27
  -2   7  -7    3.06    0.16
   2  -7   7    3.01    0.22
  -3   7  -7   35.36    1.20
  -4   7  -7   14.33    0.53
   4  -7   7   14.15    0.52
   5  -7   7    3.63    0.19
   6  -7   7   19.66    0.70
   7  -7   7    2.28    0.15
   8  -7   7    0.69    0.09
   9  -7   7    4.39    0.22
  11   6  -7    8.90    0.46
 -11  -6   7    9.45    0.42
 -10  -6   7    0.61    0.08
   9   6  -7   10.73    0.48
  -9  -6   7   10.01    0.47
  -9  -6   7   10.01    0.45
   8   6  -7   28.73    1.12
  -8  -6   7   27.90    1.14
  -8  -6   7   28.30    1.14
   7   6  -7    4.80    0.25
  -7  -6   7    4.61    0.23
  -7  -6   7    4.66    0.25
   6   6  -7   23.22    0.94
  -6  -6   7   23.59    0.95
  -6  -6   7   23.15    1.19
  -6  -6   7   24.16    0.94
   5   6  -7   45.42    1.72
  -5  -6   7   42.37    1.76
  -5  -6   7   46.03    1.73
  -5  -6   7   45.04    2.23
   4   6  -7    0.24    0.04
   4   6  -7    0.23    0.06
  -4  -6   7    0.35    0.05
  -4  -6   7    0.29    0.06
  -4  -6   7    0.53    0.06
   3   6  -7    6.28    0.27
   3   6  -7    6.49    0.24
   3   6  -7    5.53    0.28
  -3  -6   7    5.95    0.35
  -3  -6   7    6.90    0.29
  -3  -6   7    6.45    0.27
   2   6  -7   23.46    0.78
   2   6  -7   23.74    0.93
  -2  -6   7   24.55    0.95
  -2  -6   7   23.58    0.95
  -2  -6   7   24.00    0.91
  -2  -6   7   22.10    1.20
   1   6  -7   25.97    1.01
   1   6  -7   24.75    0.82
   1   6  -7   24.50    0.96
  -1  -6   7   25.26    0.95
  -1  -6   7   22.96    1.25
  -1  -6   7   23.80    0.99
  -1  -6   7   25.25    1.00
   0   6  -7   10.14    0.37
   0   6  -7   10.57    0.45
   0   6  -7   10.87    0.43
   0  -6   7   10.03    0.56
   0  -6   7   11.05    0.44
   0  -6   7    9.31    0.44
  -1   6  -7   36.00    1.51
  -1   6  -7   38.08    1.24
  -1   6  -7   37.35    1.42
   1  -6   7   36.79    1.50
   1  -6   7   39.06    1.49
   1  -6   7   35.76    1.87
  -2   6  -7    7.81    0.30
   2  -6   7    8.03    0.44
   2  -6   7    7.14    0.35
  -3   6  -7    3.08    0.17
   3  -6   7    3.01    0.16
  -4   6  -7   28.94    0.97
   4  -6   7   27.28    0.96
   5  -6   7    9.01    0.35
   6  -6   7    2.04    0.14
   7  -6   7   16.02    0.58
   8  -6   7    5.59    0.26
   9  -6   7    1.57    0.13
  12   5  -7    0.31    0.11
 -12  -5   7    0.52    0.08
  11   5  -7    7.82    0.41
 -11  -5   7    7.82    0.36
  10   5  -7   19.17    0.82
 -10  -5   7   18.74    0.78
   9   5  -7    0.64    0.10
  -9  -5   7    0.51    0.10
  -9  -5   7    0.60    0.07
   8   5  -7   17.94    0.73
  -8  -5   7   17.91    0.74
  -8  -5   7   17.75    0.72
   7   5  -7   37.45    1.45
  -7  -5   7   37.22    1.47
  -7  -5   7   37.49    1.46
   6   5  -7    4.36    0.23
  -6  -5   7    4.49    0.21
  -6  -5   7    4.53    0.22
  -6  -5   7    4.49    0.25
   5   5  -7   32.90    1.24
   5   5  -7   32.31    1.06
  -5  -5   7   31.09    1.24
  -5  -5   7   32.36    1.59
  -5  -5   7   30.86    1.26
   4   5  -7   79.34    2.82
   4   5  -7   79.21    2.98
   4   5  -7   81.51    2.59
  -4  -5   7   76.13    3.90
  -4  -5   7   76.87    3.09
  -4  -5   7   80.88    3.01
  -4  -5   7   80.35    3.12
   3   5  -7    3.23    0.14
   3   5  -7    2.96    0.16
   3   5  -7    3.14    0.17
  -3  -5   7    3.12    0.15
  -3  -5   7    3.37    0.15
  -3  -5   7    2.85    0.19
  -3  -5   7    2.95    0.16
   2   5  -7   66.42    2.62
   2   5  -7   70.97    2.26
   2   5  -7   68.49    2.75
   2   5  -7   70.45    2.49
  -2  -5   7   69.60    3.44
  -2  -5   7   68.60    2.72
  -2  -5   7   69.08    2.74
  -2  -5   7   72.61    2.63
   1   5  -7   43.71    1.73
   1   5  -7   47.42    1.49
   1   5  -7   46.73    1.82
  -1  -5   7   45.56    1.80
  -1  -5   7   46.15    1.81
  -1  -5   7   43.23    2.27
   0   5  -7    0.13    0.05
   0   5  -7    0.20    0.04
   0  -5   7    0.33    0.06
   0  -5   7    0.20    0.05
  -1   5  -7   23.73    0.78
  -1   5  -7   22.44    0.95
  -1   5  -7   22.92    0.89
   1  -5   7   22.10    1.18
   1  -5   7   22.31    0.93
   1  -5   7   24.26    0.94
  -2   5  -7   44.75    1.47
   2  -5   7   44.04    1.76
   2  -5   7   43.92    2.22
  -3   5  -7    1.57    0.13
   3  -5   7    1.52    0.11
  -4   5  -7   13.98    0.50
   4  -5   7   13.65    0.50
   5  -5   7   19.37    0.68
   6  -5   7    4.82    0.22
   7  -5   7    2.44    0.16
   8  -5   7   10.13    0.40
   9  -5   7    3.49    0.19
  12   4  -7    4.34    0.30
 -12  -4   7    5.12    0.25
  11   4  -7    0.06    0.09
 -11  -4   7    0.13    0.06
  10   4  -7   12.17    0.56
   9   4  -7   19.64    0.83
   8   4  -7    0.47    0.08
   8   4  -7    0.57    0.09
   7   4  -7   27.57    1.08
   6   4  -7   43.85    1.68
   5   4  -7    2.37    0.12
   5   4  -7    2.07    0.13
   5   4  -7    2.07    0.14
  -5  -4   7    2.11    0.12
  -5  -4   7    1.95    0.12
   4   4  -7   45.26    1.48
   4   4  -7   42.50    1.60
   4   4  -7   43.56    1.70
  -4  -4   7   43.00    1.75
  -4  -4   7   46.34    1.77
  -4  -4   7   44.45    2.20
  -4  -4   7   46.19    2.20
  -4  -4   7   45.42    1.70
   3   4  -7   80.68    2.89
   3   4  -7   82.53    2.66
   3   4  -7   81.95    3.05
  -3  -4   7   83.19    3.07
  -3  -4   7   81.63    3.99
  -3  -4   7   82.24    4.00
  -3  -4   7   78.81    3.20
  -3  -4   7   78.69    3.17
   2   4  -7    4.80    0.24
   2   4  -7    5.49    0.23
   2   4  -7    5.27    0.25
   2   4  -7    5.12    0.19
  -2  -4   7    4.86    0.29
  -2  -4   7    5.37    0.24
  -2  -4   7    4.94    0.24
  -2  -4   7    5.75    0.29
   1   4  -7   58.47    1.90
   1   4  -7   60.54    2.32
   1   4  -7   59.91    2.20
   1   4  -7   59.28    2.09
  -1  -4   7   55.74    2.88
  -1  -4   7   57.26    2.89
  -1  -4   7   57.94    2.31
  -1  -4   7   56.96    2.29
   0   4  -7  110.76    4.08
   0   4  -7  111.58    4.31
   0   4  -7  111.20    3.55
   0  -4   7  106.24    4.26
   0  -4   7  108.78    4.30
   0  -4   7  105.55    5.37
  -1   4  -7    1.37    0.11
  -1   4  -7    1.82    0.13
  -1   4  -7    1.28    0.10
   1  -4   7    1.62    0.14
   1  -4   7    1.46    0.13
   1  -4   7    1.66    0.12
  -2   4  -7   52.36    1.96
  -2   4  -7   51.56    1.71
   2  -4   7   52.63    2.05
   2  -4   7   50.71    2.59
  -3   4  -7   60.39    1.91
   3  -4   7   56.03    2.88
   3  -4   7   56.69    1.91
  -4   4  -7    2.13    0.16
   4  -4   7    2.35    0.14
   5  -4   7   21.38    0.75
   6  -4   7   22.36    0.78
   7  -4   7    1.69    0.14
   8  -4   7    2.40    0.16
   9  -4   7    7.36    0.31
  13   3  -7    0.02    0.09
  12   3  -7    8.93    0.46
 -12  -3   7    9.36    0.41
  11   3  -7   11.14    0.53
 -11  -3   7   10.85    0.47
  10   3  -7    0.21    0.09
   9   3  -7   25.64    1.05
   8   3  -7   27.83    1.06
   8   3  -7   26.68    1.11
   7   3  -7    0.43    0.07
   6   3  -7   48.38    1.78
   6   3  -7   48.80    1.64
   6   3  -7   49.06    1.88
  -6  -3   7   52.00    1.99
   5   3  -7   49.05    1.84
   5   3  -7   46.09    1.74
   5   3  -7   48.34    1.61
  -5  -3   7   50.47    1.94
   4   3  -7    0.10    0.04
   4   3  -7    0.13    0.04
   4   3  -7    0.11    0.04
  -4  -3   7    0.05    0.04
   3   3  -7   58.42    1.91
   3   3  -7   54.45    2.19
   3   3  -7   57.89    2.08
  -3  -3   7   60.81    2.85
  -3  -3   7   55.85    2.26
  -3  -3   7   57.93    2.85
  -3  -3   7   59.45    2.30
  -3  -3   7   58.75    2.19
   2   3  -7   89.21    3.18
   2   3  -7   89.08    3.36
   2   3  -7   85.34    3.02
  -2  -3   7   83.90    3.34
  -2  -3   7   81.94    4.16
  -2  -3   7   75.56    4.16
  -2  -3   7   87.65    3.30
   1   3  -7    1.32    0.10
   1   3  -7    1.10    0.08
   1   3  -7    1.44    0.10
   1   3  -7    1.17    0.10
  -1  -3   7    1.18    0.10
  -1  -3   7    1.04    0.09
  -1  -3   7    1.22    0.11
  -1  -3   7    1.24    0.09
   0   3  -7   66.54    2.71
   0   3  -7   69.02    2.56
   0   3  -7   67.97    2.22
   0  -3   7   66.90    2.70
   0  -3   7   69.69    3.36
   0  -3   7   68.82    3.37
   0  -3   7   67.10    2.67
  -1   3  -7   71.39    2.87
  -1   3  -7   69.13    2.71
  -1   3  -7   75.47    2.36
  -1   3  -7   74.35    3.57
   1  -3   7   72.12    2.86
   1  -3   7   73.14    2.83
   1  -3   7   69.12    3.57
  -2   3  -7    3.56    0.17
  -2   3  -7    3.92    0.19
   2  -3   7    3.75    0.21
   2  -3   7    3.67    0.24
  -3   3  -7   31.29    1.07
   3  -3   7   32.39    1.07
   3  -3   7   31.28    1.61
  -4   3  -7   52.29    1.75
   4  -3   7   52.79    1.75
   5  -3   7    5.17    0.23
   6  -3   7   14.16    0.52
   7  -3   7   23.57    0.83
   8  -3   7    0.94    0.10
   9  -3   7    2.71    0.17
  13   2  -7    2.47    0.22
  12   2  -7    0.89    0.14
 -12  -2   7    0.76    0.09
  11   2  -7   10.64    0.51
  10   2  -7   11.41    0.53
   9   2  -7    0.29    0.08
   8   2  -7   26.68    1.08
   7   2  -7   34.36    1.33
   7   2  -7   39.11    1.45
   7   2  -7   36.24    1.40
   6   2  -7    0.15    0.05
   6   2  -7    0.06    0.04
   6   2  -7    0.23    0.05
   6   2  -7    0.13    0.04
  -6  -2   7    0.11    0.05
   5   2  -7   80.92    2.67
   5   2  -7   79.24    2.90
   5   2  -7   80.92    3.06
  -5  -2   7   84.50    3.23
   4   2  -7   69.13    2.57
   4   2  -7   72.41    2.37
   4   2  -7   71.54    2.71
  -4  -2   7   75.49    2.86
   3   2  -7    3.35    0.17
   3   2  -7    3.58    0.16
   3   2  -7    3.50    0.17
  -3  -2   7    3.66    0.20
  -3  -2   7    3.42    0.18
  -3  -2   7    3.29    0.16
  -3  -2   7    3.61    0.19
   2   2  -7   93.26    3.68
   2   2  -7   91.63    3.30
   2   2  -7   94.81    3.04
   2   2  -7   93.88    3.48
  -2  -2   7   91.44    3.67
  -2  -2   7   92.15    4.57
  -2  -2   7   92.67    4.57
  -2  -2   7   93.35    3.62
   1   2  -7   64.44    2.37
   1   2  -7   62.07    2.05
   1   2  -7   63.18    2.51
   1   2  -7   62.11    2.25
  -1  -2   7   60.97    2.46
  -1  -2   7   63.12    3.11
  -1  -2   7   63.13    2.50
  -1  -2   7   64.09    3.11
   0   2  -7    0.38    0.06
   0   2  -7    0.37    0.05
   0   2  -7    0.54    0.07
   0   2  -7    0.27    0.04
   0   2  -7    0.33    0.05
   0  -2   7    0.45    0.07
   0  -2   7    0.33    0.06
   0  -2   7    0.56    0.06
  -1   2  -7   64.49    3.05
  -1   2  -7   63.58    2.02
  -1   2  -7   59.42    2.46
  -1   2  -7   63.36    2.20
  -1   2  -7   62.62    2.31
   1  -2   7   61.62    2.45
   1  -2   7   56.39    3.05
   1  -2   7   59.76    3.05
   1  -2   7   62.00    2.42
  -2   2  -7   69.18    2.20
  -2   2  -7   69.04    2.51
   2  -2   7   63.92    2.63
   2  -2   7   65.12    3.32
  -3   2  -7    0.21    0.06
   3  -2   7    0.17    0.05
   3  -2   7    0.25    0.08
  -4   2  -7   31.14    1.07
   4  -2   7   31.73    1.06
   5  -2   7   23.56    0.82
   6  -2   7    1.72    0.14
   7  -2   7    4.40    0.22
   8  -2   7   13.87    0.52
   9  -2   7    1.46    0.13
  13   1  -7    6.40    0.37
  12   1  -7    2.66    0.22
 -12  -1   7    2.67    0.16
  11   1  -7    2.03    0.19
  10   1  -7   18.32    0.79
   9   1  -7    7.94    0.38
   8   1  -7    4.77    0.26
   7   1  -7   38.58    1.50
   7   1  -7   37.49    1.38
   7   1  -7   37.50    1.45
   6   1  -7   12.44    0.45
   6   1  -7   12.25    0.52
   6   1  -7   12.50    0.50
   6   1  -7   12.26    0.48
   5   1  -7    2.15    0.12
   5   1  -7    2.14    0.14
   5   1  -7    2.34    0.14
  -5  -1   7    2.43    0.15
   4   1  -7   44.70    1.72
   4   1  -7   44.82    1.51
   4   1  -7   43.58    1.63
  -4  -1   7   48.23    1.82
   3   1  -7   79.39    2.64
   3   1  -7   76.83    2.86
   3   1  -7   79.73    3.01
  -3  -1   7   83.90    3.95
  -3  -1   7   83.03    3.19
  -3  -1   7   77.90    3.13
  -3  -1   7   81.55    3.94
   2   1  -7    1.66    0.12
   2   1  -7    1.88    0.11
   2   1  -7    1.75    0.12
  -2  -1   7    2.28    0.11
  -2  -1   7    1.98    0.13
  -2  -1   7    2.37    0.14
  -2  -1   7    1.88    0.13
   1   1  -7  112.71    4.10
   1   1  -7  115.21    4.31
   1   1  -7  114.97    4.56
   1   1  -7  114.83    3.75
  -1  -1   7  115.42    4.49
  -1  -1   7  116.55    5.68
  -1  -1   7  117.91    5.68
  -1  -1   7  115.64    4.55
   0   1  -7   59.86    2.94
   0   1  -7   58.62    2.38
   0   1  -7   61.23    1.95
   0   1  -7   59.73    2.14
   0   1  -7   60.81    2.25
   0  -1   7   59.69    2.34
   0  -1   7   61.09    2.38
   0  -1   7   55.28    2.95
   0  -1   7   60.26    2.96
  -1   1  -7    1.77    0.14
  -1   1  -7    1.74    0.12
  -1   1  -7    1.78    0.12
  -1   1  -7    1.55    0.11
  -1   1  -7    1.61    0.12
   1  -1   7    1.90    0.12
   1  -1   7    1.78    0.13
   1  -1   7    1.61    0.14
  -2   1  -7   50.37    1.88
  -2   1  -7   50.53    1.87
  -2   1  -7   48.15    1.78
  -2   1  -7   51.21    1.63
   2  -1   7   46.14    2.46
   2  -1   7   49.62    1.87
   2  -1   7   49.60    1.96
  -3   1  -7   45.21    1.53
  -3   1  -7   44.31    1.66
   3  -1   7   47.44    2.30
   3  -1   7   46.48    1.52
  -4   1  -7    0.96    0.09
  -4   1  -7    0.74    0.08
   4  -1   7    0.87    0.08
  -5   1  -7   29.83    1.10
   5  -1   7   29.46    1.01
   6  -1   7   25.09    0.87
   7  -1   7   -0.01    0.06
   8  -1   7    5.78    0.26
   9  -1   7    3.92    0.20
  13   0  -7    1.47    0.17
  12   0  -7   12.21    0.59
 -12   0   7   12.99    0.54
  11   0  -7    3.07    0.23
  10   0  -7    6.41    0.34
   9   0  -7   28.55    1.17
   8   0  -7    7.25    0.35
   7   0  -7   13.15    0.53
   7   0  -7   13.17    0.56
   6   0  -7   72.77    2.63
   6   0  -7   73.50    2.85
   6   0  -7   74.21    2.76
   6   0  -7   73.16    2.43
   5   0  -7   21.48    0.81
   5   0  -7   22.17    0.84
   5   0  -7   20.77    0.75
   5   0  -7   21.86    0.87
  -5   0   7   21.90    0.91
   4   0  -7   55.07    2.10
   4   0  -7   55.94    1.85
   4   0  -7   53.71    2.00
  -4   0   7   56.54    2.17
  -4   0   7   54.23    2.16
  -4   0   7   58.78    2.24
   3   0  -7   74.11    2.69
   3   0  -7   74.81    2.48
   3   0  -7   73.59    2.83
  -3   0   7   73.45    2.94
  -3   0   7   75.36    3.71
  -3   0   7   76.69    3.00
  -3   0   7   79.84    3.71
   2   0  -7   10.82    0.45
   2   0  -7   10.71    0.38
   2   0  -7   10.82    0.43
   2   0  -7   11.16    0.40
  -2   0   7   11.07    0.58
  -2   0   7   11.41    0.46
  -2   0   7   11.27    0.49
  -2   0   7   11.85    0.58
   1   0  -7    1.15    0.06
   1   0  -7    0.94    0.09
   1   0  -7    1.15    0.08
   1   0  -7    0.93    0.09
   1   0  -7    1.09    0.09
   1   0  -7    1.21    0.10
  -1   0   7    1.14    0.11
  -1   0   7    1.11    0.09
  -1   0   7    1.16    0.10
  -1   0   7    0.99    0.10
   0   0  -7   86.72    3.12
   0   0  -7   92.91    3.29
   0   0  -7   86.38    3.48
   0   0  -7   90.36    4.31
   0   0  -7   89.79    3.31
   0   0  -7   89.03    2.86
   0   0   7   84.10    3.47
   0   0   7   82.67    3.42
   0   0   7   83.67    4.32
   0   0   7   89.99    4.33
  -1   0  -7   60.93    2.54
  -1   0  -7   66.65    2.09
  -1   0  -7   64.34    2.41
  -1   0  -7   63.47    2.27
  -1   0  -7   64.47    2.39
   1   0   7   61.57    2.39
   1   0   7   61.21    2.50
   1   0   7   64.56    3.15
   1   0   7   64.06    2.53
  -2   0  -7    5.14    0.23
  -2   0  -7    5.18    0.22
   2   0   7    5.65    0.32
   2   0   7    5.32    0.24
   2   0   7    5.13    0.22
   2   0   7    5.31    0.26
   2   0   7    4.82    0.24
  -3   0  -7   51.99    1.66
  -3   0  -7   51.77    1.79
   3   0   7   45.73    1.94
   3   0   7   49.61    1.65
  -4   0  -7   25.85    0.94
  -4   0  -7   25.49    0.88
   4   0   7   24.90    0.87
   5   0   7    0.00    0.05
   5   0   7    0.17    0.07
   6   0   7   12.15    0.46
   7   0   7   19.88    0.79
   7   0   7   16.96    0.66
   8   0   7    1.05    0.13
   8   0   7    0.84    0.10
   9   0   7    7.31    0.31
  13  -1  -7    0.54    0.12
  12  -1  -7    1.52    0.18
 -12   1   7    1.51    0.13
  11  -1  -7   13.29    0.62
 -11   1   7   13.83    0.57
  10  -1  -7    5.17    0.29
   9  -1  -7    9.96    0.46
   8  -1  -7   44.58    1.77
   7  -1  -7   12.01    0.52
   6  -1  -7   26.34    1.03
   6  -1  -7   26.88    0.92
   6  -1  -7   26.82    0.99
   6  -1  -7   26.79    1.07
   5  -1  -7   91.90    3.05
   5  -1  -7   93.64    3.48
   5  -1  -7   95.59    3.32
   5  -1  -7   94.24    3.60
  -5   1   7   89.18    3.61
   4  -1  -7   40.58    1.36
   4  -1  -7   38.61    1.47
   4  -1  -7   40.60    1.54
  -4   1   7   41.52    2.00
  -4   1   7   39.02    1.59
  -4   1   7   40.67    1.65
  -4   1   7   44.15    2.01
  -4   1   7   39.25    1.59
   3  -1  -7   29.93    1.13
   3  -1  -7   28.00    1.08
   3  -1  -7   28.98    1.00
  -3   1   7   28.16    1.46
  -3   1   7   32.61    1.47
  -3   1   7   29.34    1.16
  -3   1   7   28.07    1.16
  -3   1   7   30.13    1.21
   2  -1  -7  225.35    8.54
   2  -1  -7  249.10    9.00
   2  -1  -7  242.23    7.86
   2  -1  -7  264.46    9.12
   2  -1  -7  242.15    7.83
  -2   1   7  224.21   11.85
  -2   1   7  220.52    9.38
  -2   1   7  261.25   11.85
  -2   1   7  246.07    9.50
   1  -1  -7   21.98    0.84
   1  -1  -7   22.60    0.76
   1  -1  -7   23.66    0.78
   1  -1  -7   21.93    0.89
   1  -1  -7   22.42    0.95
   1  -1  -7   22.85    0.88
  -1   1   7   23.53    1.16
  -1   1   7   22.20    0.92
  -1   1   7   22.75    0.95
  -1   1   7   23.52    1.16
  -1   1   7   24.00    0.89
   0  -1  -7   53.78    2.21
   0  -1  -7   55.01    2.09
   0  -1  -7   55.48    1.97
   0  -1  -7   57.60    1.82
   0  -1  -7   55.33    1.81
   0   1   7   55.18    2.20
   0   1   7   57.29    2.17
   0   1   7   54.59    2.08
   0   1   7   57.66    2.74
   0   1   7   51.27    2.13
   0   1   7   51.85    2.73
  -1  -1  -7   49.37    1.72
  -1  -1  -7   48.10    1.58
  -1  -1  -7   48.60    1.82
   1   1   7   44.64    1.86
   1   1   7   48.75    1.81
   1   1   7   46.36    1.89
   1   1   7   47.72    2.38
  -2  -1  -7   35.14    1.19
  -2  -1  -7   35.00    1.29
   2   1   7   35.49    1.41
   2   1   7   34.96    1.80
   2   1   7   36.28    1.20
   2   1   7   37.50    1.37
   2   1   7   35.30    1.43
  -3  -1  -7    0.60    0.07
  -3  -1  -7    0.81    0.08
   3   1   7    0.74    0.07
   3   1   7    0.55    0.07
   3   1   7    0.64    0.08
  -4  -1  -7   52.20    1.69
   4   1   7   48.31    1.99
   4   1   7   51.26    1.69
   5   1   7   16.98    0.60
   5   1   7   16.22    0.70
   6   1   7    0.51    0.10
   6   1   7    0.41    0.07
   7   1   7    8.05    0.34
   7   1   7    8.30    0.41
   8   1   7    5.50    0.31
   8   1   7    5.04    0.25
   9   1   7    0.21    0.07
   9   1   7    0.43    0.11
  13  -2  -7    5.78    0.34
  12  -2  -7    0.18    0.10
 -12   2   7    0.20    0.07
  11  -2  -7    7.40    0.39
 -11   2   7    7.45    0.34
  10  -2  -7   10.82    0.51
   9  -2  -7    3.15    0.21
  -9   2   7    3.18    0.16
   8  -2  -7   13.05    0.55
  -8   2   7   12.19    0.52
   7  -2  -7   52.75    2.08
  -7   2   7   54.35    2.00
  -7   2   7   51.37    2.07
   6  -2  -7   12.58    0.53
   6  -2  -7   12.27    0.51
  -6   2   7   12.46    0.51
  -6   2   7   12.47    0.50
   5  -2  -7   23.17    0.92
   5  -2  -7   23.21    0.89
   5  -2  -7   22.33    0.79
   5  -2  -7   23.24    0.85
  -5   2   7   22.25    0.90
  -5   2   7   22.97    0.92
  -5   2   7   24.48    1.13
  -5   2   7   19.70    0.88
   4  -2  -7  111.43    3.84
   4  -2  -7  104.66    3.53
   4  -2  -7  108.86    4.03
  -4   2   7  105.16    4.16
  -4   2   7  104.69    5.29
  -4   2   7  119.05    4.04
  -4   2   7  100.01    4.19
   3  -2  -7   30.52    1.18
   3  -2  -7   29.85    1.04
   3  -2  -7   31.26    1.13
  -3   2   7   30.01    1.26
  -3   2   7   29.03    1.53
  -3   2   7   30.21    1.22
  -3   2   7   31.62    1.22
  -3   2   7   33.20    1.19
   2  -2  -7   12.62    0.43
   2  -2  -7   12.32    0.49
   2  -2  -7   12.89    0.50
   2  -2  -7   12.38    0.45
  -2   2   7   12.83    0.52
  -2   2   7   12.01    0.52
  -2   2   7   12.09    0.65
  -2   2   7   13.08    0.51
  -2   2   7   11.86    0.55
   1  -2  -7  108.26    3.87
   1  -2  -7  110.98    3.56
   1  -2  -7  106.30    3.54
   1  -2  -7  111.08    4.12
  -1   2   7  105.29    4.07
  -1   2   7  112.77    4.24
  -1   2   7  104.03    5.36
  -1   2   7  108.19    4.20
  -1   2   7  111.25    4.31
   0  -2  -7  110.52    3.97
   0  -2  -7  116.86    3.65
   0  -2  -7  116.49    4.24
   0  -2  -7  115.63    3.66
   0   2   7  109.18    4.36
   0   2   7  113.97    4.19
   0   2   7  108.84    4.32
   0   2   7  102.44    5.51
  -1  -2  -7   20.33    0.78
  -1  -2  -7   21.65    0.73
  -1  -2  -7   20.52    0.83
  -1  -2  -7   22.21    0.72
   1   2   7   20.47    0.86
   1   2   7   20.16    0.85
   1   2   7   21.79    1.09
   1   2   7   20.91    0.83
  -2  -2  -7  119.97    4.69
  -2  -2  -7  122.94    4.03
  -2  -2  -7  126.13    4.39
   2   2   7  126.22    6.10
   2   2   7  127.08    4.63
   2   2   7  118.77    4.77
  -3  -2  -7   10.35    0.39
  -3  -2  -7    9.97    0.40
  -3  -2  -7    9.89    0.43
   3   2   7    9.74    0.44
   3   2   7    9.82    0.43
   3   2   7   10.45    0.38
  -4  -2  -7    1.46    0.14
   4   2   7    1.30    0.12
   4   2   7    1.36    0.14
   5   2   7   17.65    0.61
   5   2   7   16.21    0.72
   6   2   7   21.84    0.90
   6   2   7   20.58    0.75
   7   2   7    0.75    0.12
   7   2   7    0.70    0.09
   8   2   7    8.75    0.36
   8   2   7    8.80    0.45
   9   2   7    2.04    0.15
   9   2   7    2.04    0.21
  13  -3  -7    4.43    0.29
  12  -3  -7    8.43    0.44
 -12   3   7    8.79    0.40
  11  -3  -7    0.33    0.10
 -11   3   7    0.57    0.08
  10  -3  -7   21.17    0.90
   9  -3  -7   25.23    1.04
  -9   3   7   24.59    1.01
   8  -3  -7    0.13    0.07
  -8   3   7    0.17    0.05
   7  -3  -7   18.36    0.77
  -7   3   7   18.29    0.93
  -7   3   7   18.37    0.74
   6  -3  -7   48.42    1.94
  -6   3   7   49.47    1.94
  -6   3   7   49.05    1.93
  -6   3   7   48.72    2.43
  -6   3   7   49.57    1.87
   5  -3  -7   12.02    0.49
   5  -3  -7   11.49    0.45
  -5   3   7   11.88    0.52
  -5   3   7   12.55    0.50
  -5   3   7   12.37    0.63
  -5   3   7   12.01    0.50
   4  -3  -7   32.47    1.19
   4  -3  -7   31.62    1.10
  -4   3   7   33.28    1.25
  -4   3   7   33.38    1.29
  -4   3   7   30.99    1.62
  -4   3   7   32.31    1.29
   3  -3  -7   78.42    2.52
   3  -3  -7   75.37    2.49
   3  -3  -7   82.39    2.92
   3  -3  -7   79.01    2.74
  -3   3   7   83.01    2.99
  -3   3   7   66.08    3.77
  -3   3   7   70.82    2.88
  -3   3   7   76.59    2.98
   2  -3  -7   21.92    0.85
   2  -3  -7   21.22    0.75
   2  -3  -7   21.65    0.73
   2  -3  -7   21.36    0.81
  -2   3   7   21.63    1.11
  -2   3   7   20.76    0.88
  -2   3   7   23.46    0.86
  -2   3   7   21.36    0.88
   1  -3  -7   14.64    0.52
   1  -3  -7   15.14    0.52
   1  -3  -7   15.35    0.60
   1  -3  -7   14.56    0.57
   1  -3  -7   14.46    0.53
  -1   3   7   15.11    0.60
  -1   3   7   15.13    0.62
  -1   3   7   14.22    0.78
  -1   3   7   14.63    0.62
   0  -3  -7   52.70    1.73
   0  -3  -7   50.86    1.73
   0  -3  -7   52.25    1.88
   0  -3  -7   52.98    2.01
   0   3   7   52.94    2.05
   0   3   7   55.76    1.99
   0   3   7   48.27    2.06
   0   3   7   51.87    2.61
  -1  -3  -7   23.25    0.90
  -1  -3  -7   23.80    0.96
  -1  -3  -7   24.26    0.83
  -1  -3  -7   24.31    0.84
   1   3   7   24.02    1.25
   1   3   7   24.38    0.98
   1   3   7   25.06    1.00
   1   3   7   25.58    0.96
  -2  -3  -7    1.53    0.12
  -2  -3  -7    1.30    0.11
  -2  -3  -7    1.40    0.12
  -2  -3  -7    1.38    0.12
   2   3   7    1.48    0.13
   2   3   7    1.31    0.13
  -3  -3  -7   51.75    1.72
  -3  -3  -7   50.69    1.99
  -3  -3  -7   51.46    1.71
   3   3   7   52.10    2.03
   3   3   7   52.38    1.71
   3   3   7   49.51    1.96
  -4  -3  -7   40.83    1.36
   4   3   7   39.84    1.36
   4   3   7   39.92    1.61
   5   3   7    7.27    0.36
   5   3   7    6.86    0.30
   6   3   7   12.49    0.48
   6   3   7   12.24    0.56
   7   3   7    3.44    0.25
   7   3   7    3.60    0.20
   8   3   7    0.23    0.11
   8   3   7    0.10    0.07
  12  -4  -7    8.10    0.44
 -12   4   7    8.57    0.39
  11  -4  -7    9.88    0.50
 -11   4   7   10.62    0.46
  10  -4  -7    0.13    0.08
   9  -4  -7   11.65    0.53
  -9   4   7   11.20    0.49
   8  -4  -7   44.14    1.77
  -8   4   7   43.85    1.76
  -8   4   7   44.48    1.77
   7  -4  -7    2.41    0.18
  -7   4   7    2.41    0.15
  -7   4   7    2.41    0.18
  -6   4   7   50.61    2.05
  -6   4   7   56.09    2.68
  -6   4   7   53.86    2.13
  -6   4   7   55.04    2.13
   5  -4  -7   44.35    1.51
  -5   4   7   43.90    2.23
  -5   4   7   45.51    1.71
  -5   4   7   44.44    1.77
  -5   4   7   44.87    1.77
   4  -4  -7    3.09    0.19
   4  -4  -7    3.48    0.18
   4  -4  -7    3.26    0.17
  -4   4   7    3.34    0.22
  -4   4   7    3.71    0.20
  -4   4   7    3.55    0.20
  -4   4   7    3.51    0.19
   3  -4  -7   20.99    0.82
   3  -4  -7   20.47    0.71
   3  -4  -7   20.93    0.77
   3  -4  -7   20.11    0.68
  -3   4   7   21.39    0.81
  -3   4   7   20.61    0.84
  -3   4   7   18.92    1.04
  -3   4   7   19.42    0.83
   2  -4  -7   81.26    2.66
   2  -4  -7   83.13    2.68
   2  -4  -7   82.18    3.10
   2  -4  -7   83.08    2.91
  -2   4   7   73.54    4.02
  -2   4   7   80.32    3.19
  -2   4   7   81.37    3.17
  -2   4   7   85.09    3.07
   1  -4  -7    8.67    0.33
   1  -4  -7    8.40    0.36
   1  -4  -7    9.07    0.34
   1  -4  -7    8.89    0.39
  -1   4   7    9.15    0.41
  -1   4   7    8.65    0.50
  -1   4   7    8.81    0.39
  -1   4   7    9.68    0.40
   0  -4  -7   20.36    0.78
   0  -4  -7   21.50    0.84
   0  -4  -7   20.39    0.72
   0  -4  -7   21.81    0.72
   0   4   7   18.52    1.08
   0   4   7   20.58    0.86
   0   4   7   21.73    0.86
   0   4   7   22.18    0.84
  -1  -4  -7   38.01    1.38
  -1  -4  -7   37.58    1.49
  -1  -4  -7   40.17    1.28
  -1  -4  -7   38.45    1.28
   1   4   7   38.65    1.48
   1   4   7   37.33    1.53
   1   4   7   35.96    1.52
   1   4   7   38.71    1.94
  -2  -4  -7    3.98    0.22
  -2  -4  -7    3.99    0.19
  -2  -4  -7    4.22    0.21
   2   4   7    4.36    0.24
   2   4   7    4.44    0.23
  -3  -4  -7    5.05    0.22
  -3  -4  -7    5.16    0.24
  -3  -4  -7    4.79    0.26
   3   4   7    4.78    0.27
   3   4   7    5.17    0.23
   3   4   7    4.82    0.26
   4   4   7    5.18    0.27
   4   4   7    4.98    0.29
   4   4   7    5.20    0.24
   5   4   7    7.47    0.39
   5   4   7    7.68    0.32
   6   4   7    0.25    0.10
   6   4   7    0.25    0.07
   7   4   7   13.11    0.50
   7   4   7   13.20    0.61
   8   4   7    1.96    0.15
   8   4   7    1.96    0.22
  12  -5  -7    0.35    0.11
 -12   5   7    0.20    0.11
 -12   5   7    0.34    0.09
  11  -5  -7    6.62    0.37
 -11   5   7    6.87    0.38
 -11   5   7    6.48    0.33
  10  -5  -7   13.43    0.62
 -10   5   7   13.39    0.62
   9  -5  -7    0.14    0.08
  -9   5   7    0.02    0.06
  -9   5   7    0.03    0.08
  -8   5   7   21.60    0.92
  -8   5   7   23.32    0.95
  -7   5   7   19.42    0.81
  -7   5   7   19.51    0.83
  -6   5   7    3.39    0.20
  -6   5   7    3.31    0.19
  -6   5   7    3.34    0.21
  -5   5   7   25.98    1.28
  -5   5   7   24.67    1.01
  -5   5   7   23.90    0.98
  -5   5   7   25.04    1.03
   4  -5  -7   76.28    3.02
   4  -5  -7   76.26    2.61
  -4   5   7   80.24    2.98
  -4   5   7   78.23    3.91
  -4   5   7   79.48    3.08
  -4   5   7   82.08    3.10
   3  -5  -7    0.80    0.08
   3  -5  -7    0.71    0.09
   3  -5  -7    0.68    0.06
  -3   5   7    0.86    0.09
  -3   5   7    0.57    0.10
  -3   5   7    0.81    0.11
  -3   5   7    1.13    0.12
   2  -5  -7   33.81    1.26
   2  -5  -7   33.84    1.14
   2  -5  -7   32.93    1.16
   2  -5  -7   33.75    1.34
  -2   5   7   35.87    1.38
  -2   5   7   32.82    1.37
  -2   5   7   35.51    1.33
  -2   5   7   34.44    1.74
   1  -5  -7   35.03    1.17
   1  -5  -7   34.49    1.37
   1  -5  -7   35.46    1.28
   1  -5  -7   34.75    1.18
  -1   5   7   31.83    1.77
  -1   5   7   36.73    1.36
  -1   5   7   35.16    1.40
  -1   5   7   36.14    1.41
   0  -5  -7   11.06    0.40
   0  -5  -7   10.18    0.46
   0  -5  -7   10.65    0.40
   0  -5  -7   10.43    0.40
   0  -5  -7   10.06    0.42
   0   5   7   10.63    0.48
   0   5   7   11.07    0.48
   0   5   7   10.22    0.59
   0   5   7   10.42    0.46
  -1  -5  -7   16.00    0.58
  -1  -5  -7   15.53    0.57
  -1  -5  -7   15.29    0.66
   1   5   7   16.63    0.69
   1   5   7   16.38    0.67
  -2  -5  -7   41.39    1.34
  -2  -5  -7   37.82    1.56
  -2  -5  -7   40.22    1.35
   2   5   7   39.60    1.55
   2   5   7   40.16    1.60
  -3  -5  -7    1.80    0.15
  -3  -5  -7    1.90    0.15
   3   5   7    2.00    0.15
   3   5   7    1.83    0.17
   3   5   7    1.95    0.17
  -4  -5  -7   10.85    0.43
   4   5   7   11.32    0.50
   4   5   7    9.44    0.47
   4   5   7   10.61    0.42
   5   5   7   12.15    0.45
   5   5   7   10.43    0.53
   6   5   7    0.16    0.07
   6   5   7   -0.09    0.09
   7   5   7    1.39    0.17
   7   5   7    1.51    0.14
   8   5   7    1.72    0.15
   8   5   7    1.55    0.18
  12  -6  -7    5.86    0.35
 -12   6   7    5.58    0.35
 -11   6   7   -0.03    0.09
 -11   6   7    0.06    0.08
 -10   6   7   15.82    0.72
  -9   6   7    9.51    0.45
  -9   6   7   10.04    0.48
  -8   6   7    0.26    0.08
  -8   6   7    0.15    0.09
  -7   6   7   25.21    1.05
  -7   6   7   25.70    1.06
  -6   6   7   29.97    1.24
  -6   6   7   29.70    1.23
  -6   6   7   30.70    1.18
  -5   6   7    0.68    0.11
  -5   6   7    0.56    0.09
  -5   6   7    0.56    0.09
   4  -6  -7   23.52    0.79
   4  -6  -7   23.05    0.96
  -4   6   7   25.68    1.00
  -4   6   7   23.51    0.95
  -4   6   7   23.28    0.98
   3  -6  -7   28.97    1.17
   3  -6  -7   29.19    1.01
   3  -6  -7   29.09    0.98
  -3   6   7   28.15    1.51
  -3   6   7   30.97    1.20
  -3   6   7   28.70    1.16
  -3   6   7   30.52    1.20
   2  -6  -7    5.58    0.29
   2  -6  -7    5.58    0.24
   2  -6  -7    6.10    0.25
  -2   6   7    5.80    0.31
  -2   6   7    5.87    0.30
  -2   6   7    5.77    0.37
  -2   6   7    6.35    0.30
   1  -6  -7   28.55    0.98
   1  -6  -7   27.84    1.14
   1  -6  -7   29.04    0.98
  -1   6   7   28.21    1.48
  -1   6   7   28.70    1.14
  -1   6   7   28.46    1.17
  -1   6   7   29.23    1.17
   0  -6  -7   38.67    1.32
   0  -6  -7   37.71    1.53
   0  -6  -7   42.41    1.32
   0   6   7   39.27    1.58
   0   6   7   39.39    1.57
   0   6   7   37.61    1.99
   0   6   7   38.30    1.52
  -1  -6  -7    0.24    0.07
  -1  -6  -7    0.04    0.06
  -1  -6  -7    0.16    0.07
  -1  -6  -7    0.32    0.07
   1   6   7    0.14    0.08
   1   6   7    0.25    0.08
  -2  -6  -7    7.64    0.31
  -2  -6  -7    6.88    0.34
   2   6   7    6.73    0.36
   2   6   7    6.99    0.36
  -3  -6  -7   18.41    0.64
  -3  -6  -7   16.21    0.73
   3   6   7   16.28    0.73
   3   6   7   17.57    0.76
   3   6   7   17.85    0.63
   4   6   7    4.39    0.23
   4   6   7    4.61    0.28
   4   6   7    3.75    0.25
   5   6   7    7.35    0.39
   5   6   7    6.95    0.31
   6   6   7   11.74    0.46
   6   6   7   11.42    0.56
   7   6   7    0.54    0.13
   7   6   7    0.32    0.08
 -11   7   7    2.05    0.22
 -11   7   7    2.56    0.20
 -10   7   7    0.14    0.10
  -9   7   7   11.57    0.54
  -9   7   7   11.77    0.56
  -8   7   7   16.75    0.75
  -8   7   7   16.80    0.73
  -7   7   7    0.28    0.10
  -7   7   7    0.30    0.08
  -6   7   7   27.88    1.08
  -6   7   7   27.43    1.13
  -6   7   7   25.83    1.12
   5  -7  -7   25.38    1.09
  -5   7   7   26.81    1.12
  -5   7   7   28.51    1.08
  -5   7   7   27.40    1.13
   4  -7  -7    0.13    0.06
   4  -7  -7    0.03    0.03
  -4   7   7    0.11    0.07
  -4   7   7    0.20    0.07
  -4   7   7    0.01    0.08
   3  -7  -7   32.34    1.35
   3  -7  -7   33.62    1.14
  -3   7   7   34.35    1.39
  -3   7   7   35.00    1.34
  -3   7   7   34.42    1.39
   2  -7  -7   29.98    1.01
   2  -7  -7   27.81    1.18
   2  -7  -7   28.68    0.99
  -2   7   7   31.01    1.21
  -2   7   7   30.30    1.21
  -2   7   7   28.23    1.17
   1  -7  -7    0.04    0.05
   1  -7  -7    0.08    0.06
   1  -7  -7    0.09    0.05
  -1   7   7    0.22    0.08
  -1   7   7    0.01    0.07
  -1   7   7    0.14    0.07
  -1   7   7    0.18    0.08
   0  -7  -7   13.45    0.60
   0  -7  -7   14.79    0.52
   0   7   7   13.85    0.62
   0   7   7   14.14    0.61
  -1  -7  -7   21.62    0.75
  -1  -7  -7   20.63    0.87
   1   7   7   21.55    0.90
   1   7   7   20.53    0.88
  -2  -7  -7    0.83    0.10
  -2  -7  -7    0.97    0.11
  -2  -7  -7    1.04    0.12
   2   7   7    0.88    0.13
   2   7   7    0.89    0.12
  -3  -7  -7   15.05    0.56
  -3  -7  -7   14.70    0.55
   3   7   7   13.53    0.63
   3   7   7   14.28    0.55
   3   7   7   14.60    0.66
   4   7   7    8.28    0.35
   4   7   7    8.01    0.42
   4   7   7    7.82    0.40
   5   7   7    0.09    0.07
   5   7   7    0.02    0.10
   6   7   7    1.68    0.19
   6   7   7    1.71    0.16
 -11   8   7    7.46    0.42
 -10   8   7    2.97    0.25
  -9   8   7    2.06    0.18
  -9   8   7    1.84    0.21
  -8   8   7   11.95    0.57
  -8   8   7   11.83    0.55
  -7   8   7    7.47    0.38
  -7   8   7    7.83    0.41
  -6   8   7    0.06    0.08
  -6   8   7    0.14    0.08
  -6   8   7    0.11    0.10
   5  -8  -7   15.31    0.69
  -5   8   7   16.17    0.68
  -5   8   7   17.17    0.72
  -5   8   7   15.41    0.70
   4  -8  -7   19.66    0.69
   4  -8  -7   20.70    0.86
  -4   8   7   20.44    0.88
  -4   8   7   19.83    0.87
  -4   8   7   20.99    0.85
   3  -8  -7    0.11    0.07
   3  -8  -7    0.10    0.04
  -3   8   7    0.07    0.09
  -3   8   7    0.04    0.07
  -3   8   7    0.36    0.09
   2  -8  -7   19.18    0.68
   2  -8  -7   18.62    0.80
  -2   8   7   18.80    0.81
  -2   8   7   19.68    0.83
  -2   8   7   19.97    0.84
   1  -8  -7   20.59    0.86
   1  -8  -7   20.75    0.73
  -1   8   7   20.02    0.88
  -1   8   7   20.98    0.86
   0  -8  -7    0.18    0.06
   0  -8  -7    0.40    0.09
   0   8   7    0.43    0.11
   0   8   7    0.27    0.09
  -1  -8  -7   16.59    0.61
  -1  -8  -7   16.35    0.71
   1   8   7   15.96    0.71
   1   8   7   17.14    0.74
  -2  -8  -7   13.10    0.50
  -2  -8  -7   12.39    0.57
   2   8   7   12.01    0.58
   2   8   7   13.61    0.61
  -3  -8  -7    0.02    0.07
  -3  -8  -7   -0.11    0.08
   3   8   7   -0.05    0.06
   3   8   7    0.07    0.08
   3   8   7   -0.02    0.09
   4   8   7    5.27    0.32
   4   8   7    5.45    0.34
   4   8   7    5.97    0.28
   5   8   7    7.66    0.42
   5   8   7    7.44    0.33
   5   8   7    7.22    0.38
   6   8   7    0.04    0.07
   6   8   7   -0.05    0.11
 -10   9   7   10.53    0.54
  -9   9   7    3.54    0.27
  -8   9   7    3.05    0.26
  -8   9   7    3.20    0.23
  -7   9   7   13.95    0.66
  -7   9   7   13.84    0.63
  -6   9   7    5.59    0.32
  -6   9   7    6.03    0.35
  -6   9   7    5.91    0.32
  -5   9   7    2.17    0.18
  -5   9   7    1.95    0.18
  -5   9   7    2.43    0.22
   4  -9  -7   13.70    0.64
   4  -9  -7   14.32    0.51
  -4   9   7   14.65    0.66
  -4   9   7   14.33    0.65
  -4   9   7   14.84    0.64
   3  -9  -7    4.83    0.28
   3  -9  -7    4.73    0.21
  -3   9   7    4.55    0.28
  -3   9   7    5.46    0.31
  -3   9   7    4.63    0.28
   2  -9  -7    0.14    0.07
   2  -9  -7    0.14    0.05
  -2   9   7    0.30    0.09
  -2   9   7    0.13    0.10
   1  -9  -7    8.82    0.43
   1  -9  -7    8.95    0.36
  -1   9   7    9.37    0.46
  -1   9   7    8.29    0.43
   0  -9  -7    8.82    0.36
   0  -9  -7    8.76    0.42
   0   9   7    8.50    0.44
   0   9   7    8.70    0.44
  -1  -9  -7    0.08    0.06
   1   9   7    0.14    0.09
   1   9   7    0.21    0.10
  -2  -9  -7    5.51    0.27
   2   9   7    5.38    0.33
   2   9   7    5.30    0.32
  -3  -9  -7    7.19    0.33
   3   9   7    6.98    0.32
   3   9   7    6.56    0.37
   3   9   7    7.43    0.40
   4   9   7   -0.01    0.07
   4   9   7    0.03    0.08
   4   9   7    0.24    0.12
   5   9   7    6.52    0.30
   5   9   7    6.93    0.39
   5   9   7    5.74    0.35
  -9  10   7    7.81    0.44
  -8  10   7    4.89    0.30
  -8  10   7    4.93    0.33
  -7  10   7    2.53    0.24
  -7  10   7    2.65    0.22
  -6  10   7   16.86    0.75
  -6  10   7   18.04    0.80
  -6  10   7   18.03    0.79
  -5  10   7    4.10    0.29
  -5  10   7    3.84    0.26
  -5  10   7    3.74    0.25
   4 -10  -7    3.30    0.16
  -4  10   7    3.00    0.23
  -4  10   7    3.52    0.24
  -4  10   7    3.43    0.26
   3 -10  -7   14.91    0.54
  -3  10   7   15.52    0.70
  -3  10   7   14.94    0.67
   2 -10  -7    4.98    0.23
  -2  10   7    4.96    0.30
  -2  10   7    5.15    0.32
   1 -10  -7    4.92    0.23
  -1  10   7    4.91    0.31
  -1  10   7    4.85    0.30
   0 -10  -7   10.29    0.41
   0  10   7   10.04    0.50
   0  10   7   10.42    0.52
  -1 -10  -7    1.82    0.15
   1  10   7    1.81    0.20
   1  10   7    1.52    0.17
  -2 -10  -7    0.87    0.11
   2  10   7    0.86    0.14
   2  10   7    1.12    0.16
  -3 -10  -7    7.07    0.33
   3  10   7    6.96    0.40
   3  10   7    6.54    0.38
   3  10   7    7.30    0.33
   4  10   7    1.04    0.14
   4  10   7    1.13    0.12
   4  10   7    1.12    0.17
  -8  11   7    6.72    0.40
  -7  11   7    1.39    0.18
  -7  11   7    1.29    0.16
  -6  11   7    1.61    0.18
  -6  11   7    1.50    0.19
  -6  11   7    1.33    0.16
  -5  11   7    9.44    0.49
  -5  11   7   10.01    0.47
  -5  11   7    9.66    0.50
   4 -11  -7    5.73    0.24
  -4  11   7    5.30    0.35
  -4  11   7    5.78    0.33
   3 -11  -7    3.75    0.19
  -3  11   7    3.57    0.26
  -3  11   7    3.93    0.28
   2 -11  -7   13.86    0.52
  -2  11   7   14.82    0.67
  -2  11   7   14.05    0.65
   1 -11  -7    2.85    0.17
  -1  11   7    2.94    0.24
  -1  11   7    2.63    0.22
   0 -11  -7    1.67    0.14
   0  11   7    2.06    0.22
   0  11   7    1.47    0.17
  -1 -11  -7   14.28    0.55
   1  11   7   13.75    0.65
   1  11   7   14.73    0.68
  -2 -11  -7    3.05    0.20
   2  11   7    3.16    0.24
   2  11   7    3.18    0.26
  -6  12   7    0.72    0.15
  -5  12   7    3.52    0.28
  -5  12   7    3.31    0.25
   4 -12  -7    6.81    0.27
  -4  12   7    6.50    0.39
  -4  12   7    6.41    0.36
   3 -12  -7    0.80    0.08
  -3  12   7    0.86    0.14
  -3  12   7    0.69    0.15
   2 -12  -7    0.91    0.09
  -2  12   7    0.84    0.15
  -2  12   7    1.00    0.15
   1 -12  -7    9.43    0.38
  -1  12   7    9.04    0.47
  -1  12   7    9.31    0.49
   0 -12  -7    2.93    0.18
   0  12   7    2.66    0.23
   0  12   7    3.21    0.26
   4  15  -8    2.40    0.23
   3  15  -8    8.19    0.44
   2  15  -8    1.81    0.14
   2  15  -8    1.91    0.21
   1  15  -8    5.22    0.25
   1  15  -8    5.44    0.33
   0  15  -8    7.75    0.41
   0  15  -8    7.78    0.34
  -1  15  -8    0.06    0.08
  -2  15  -8    1.10    0.13
   6  14  -8    3.10    0.26
   5  14  -8    5.06    0.33
  -5 -14   8    5.22    0.30
   4  14  -8    0.45    0.13
  -4 -14   8    0.46    0.10
   3  14  -8    4.18    0.29
   2  14  -8    7.57    0.41
   2  14  -8    7.70    0.32
   1  14  -8    0.96    0.10
   1  14  -8    0.84    0.14
   0  14  -8    3.60    0.25
   0  14  -8    3.18    0.20
  -1  14  -8   13.93    0.54
  -2  14  -8    0.74    0.11
  -3  14  -8    7.68    0.35
  -4  14  -8    4.38    0.26
   7  13  -8    7.98    0.45
  -7 -13   8    9.05    0.44
   6  13  -8   -0.11    0.09
  -6 -13   8    0.01    0.08
   5  13  -8    9.95    0.52
  -5 -13   8   10.93    0.50
   4  13  -8    7.77    0.42
  -4 -13   8    7.43    0.39
   3  13  -8    0.09    0.06
   3  13  -8    0.03    0.10
  -3 -13   8    0.06    0.07
   2  13  -8    8.17    0.42
   2  13  -8    8.21    0.33
  -2 -13   8    7.80    0.41
   1  13  -8   12.29    0.56
   1  13  -8   11.33    0.45
   0  13  -8    0.16    0.08
   0  13  -8    0.06    0.09
  -1  13  -8    6.50    0.31
  -2  13  -8    9.19    0.39
  -3  13  -8    2.49    0.19
  -4  13  -8    4.93    0.27
  -5  13  -8   12.55    0.52
   5 -13   8   12.69    0.50
   8  12  -8    0.57    0.13
  -8 -12   8    0.60    0.10
   7  12  -8    7.27    0.41
  -7 -12   8    7.64    0.38
   6  12  -8    3.57    0.27
  -6 -12   8    4.02    0.25
   5  12  -8    0.37    0.12
  -5 -12   8    0.49    0.10
   4  12  -8    9.27    0.48
  -4 -12   8    9.86    0.46
   3  12  -8   16.73    0.73
   3  12  -8   16.51    0.58
  -3 -12   8   16.42    0.73
   2  12  -8    0.09    0.06
   2  12  -8    0.08    0.09
  -2 -12   8    0.01    0.07
   1  12  -8   11.42    0.45
   1  12  -8   11.51    0.54
  -1 -12   8   12.34    0.56
   0  12  -8   12.98    0.51
   0  12  -8   13.94    0.60
  -1  12  -8    0.37    0.10
  -1  12  -8    0.40    0.09
  -2  12  -8   10.26    0.42
  -3  12  -8    8.69    0.38
  -4  12  -8    0.16    0.09
   4 -12   8    0.37    0.08
   5 -12   8    1.96    0.16
   6 -12   8    6.84    0.31
   9  11  -8    7.93    0.42
  -9 -11   8    8.17    0.40
   8  11  -8    4.04    0.29
  -8 -11   8    4.39    0.26
   7  11  -8    0.14    0.10
  -7 -11   8    0.30    0.08
   6  11  -8   14.56    0.67
  -6 -11   8   15.26    0.66
   5  11  -8    8.46    0.43
  -5 -11   8    8.65    0.41
   4  11  -8    2.99    0.23
  -4 -11   8    3.07    0.20
   3  11  -8    9.74    0.46
   3  11  -8    9.11    0.34
  -3 -11   8    9.18    0.44
   2  11  -8    9.50    0.37
   2  11  -8    9.42    0.46
  -2 -11   8   10.40    0.47
   1  11  -8   -0.05    0.08
   1  11  -8    0.04    0.06
  -1 -11   8    0.02    0.06
   0  11  -8   18.64    0.79
   0  11  -8   18.49    0.68
   0 -11   8   19.64    0.82
  -1  11  -8   10.85    0.47
  -1  11  -8    9.62    0.41
  -2  11  -8    0.01    0.07
  -3  11  -8    8.29    0.36
  -4  11  -8   10.00    0.42
   4 -11   8   10.03    0.40
  -5  11  -8    0.05    0.08
   5 -11   8    0.06    0.06
   6 -11   8    3.54    0.20
   7 -11   8    2.85    0.18
   9  10  -8    0.68    0.12
  -9 -10   8    0.87    0.11
   8  10  -8    9.15    0.46
  -8 -10   8    9.55    0.44
   7  10  -8    9.42    0.47
  -7 -10   8    9.93    0.45
   6  10  -8    1.86    0.19
  -6 -10   8    1.72    0.15
   5  10  -8   18.08    0.77
  -5 -10   8   17.71    0.76
   4  10  -8   12.47    0.58
  -4 -10   8   13.32    0.57
   3  10  -8    2.41    0.19
   3  10  -8    2.26    0.12
  -3 -10   8    2.09    0.17
   2  10  -8   39.18    1.28
   2  10  -8   37.63    1.50
  -2 -10   8   37.65    1.55
   1  10  -8    6.22    0.33
   1  10  -8    6.27    0.27
  -1 -10   8    6.87    0.33
   0  10  -8    3.53    0.22
   0  10  -8    3.44    0.19
   0 -10   8    3.74    0.23
   0 -10   8    3.43    0.26
  -1  10  -8   19.44    0.78
  -1  10  -8   18.74    0.68
  -2  10  -8   12.84    0.49
  -3  10  -8    1.50    0.15
  -4  10  -8   10.93    0.45
   4 -10   8   11.54    0.44
  -5  10  -8    6.42    0.31
   5 -10   8    6.43    0.29
   6 -10   8   -0.01    0.06
   7 -10   8    5.51    0.26
 -10  -9   8    0.98    0.12
   9   9  -8    4.73    0.29
  -9  -9   8    5.11    0.28
   8   9  -8    1.59    0.18
  -8  -9   8    1.81    0.15
   7   9  -8   11.73    0.55
  -7  -9   8   12.39    0.54
   6   9  -8    2.67    0.21
  -6  -9   8    2.54    0.17
   5   9  -8    1.02    0.12
  -5  -9   8    0.84    0.10
   4   9  -8   27.29    1.08
  -4  -9   8   26.15    1.10
   3   9  -8   11.44    0.39
   3   9  -8   11.04    0.50
  -3  -9   8   10.98    0.50
   2   9  -8    5.17    0.20
   2   9  -8    4.85    0.27
  -2  -9   8    4.51    0.31
  -2  -9   8    4.79    0.26
   1   9  -8   35.99    1.37
   1   9  -8   35.93    1.17
  -1  -9   8   33.34    1.78
  -1  -9   8   34.08    1.41
   0   9  -8   24.15    0.83
   0   9  -8   24.01    0.96
   0  -9   8   25.40    1.01
   0  -9   8   22.95    1.26
  -1   9  -8    8.30    0.38
  -1   9  -8    8.13    0.33
   1  -9   8    8.11    0.39
  -2   9  -8   35.24    1.20
  -3   9  -8   10.84    0.42
  -4   9  -8    0.89    0.11
   4  -9   8    1.06    0.10
   5  -9   8   20.03    0.72
   6  -9   8    5.97    0.27
   7  -9   8    0.28    0.07
   8  -9   8    5.22    0.25
 -11  -8   8    0.79    0.11
 -10  -8   8    9.56    0.45
   9   8  -8    9.23    0.43
  -9  -8   8    8.72    0.41
   8   8  -8    0.41    0.10
  -8  -8   8    0.40    0.08
   7   8  -8    4.29    0.26
  -7  -8   8    4.30    0.23
   6   8  -8   19.89    0.79
  -6  -8   8   18.17    0.79
   5   8  -8    1.96    0.17
  -5  -8   8    2.11    0.15
   4   8  -8   20.32    0.82
  -4  -8   8   19.50    0.82
   3   8  -8   21.80    0.92
   3   8  -8   24.03    0.87
  -3  -8   8   22.60    1.19
  -3  -8   8   23.72    0.95
   2   8  -8   10.13    0.44
   2   8  -8   10.10    0.36
  -2  -8   8    9.31    0.56
  -2  -8   8   10.54    0.45
   1   8  -8    8.84    0.34
   1   8  -8    9.74    0.41
  -1  -8   8    8.43    0.51
  -1  -8   8    9.54    0.42
   0   8  -8   48.21    1.56
   0   8  -8   45.07    1.79
   0  -8   8   44.94    2.36
   0  -8   8   48.93    1.87
  -1   8  -8   15.39    0.53
  -1   8  -8   14.80    0.60
   1  -8   8   13.74    0.79
   1  -8   8   14.76    0.64
  -2   8  -8    1.87    0.14
  -3   8  -8   37.47    1.27
  -4   8  -8   14.87    0.56
   4  -8   8   14.88    0.55
  -5   8  -8    1.27    0.13
   5  -8   8    1.23    0.12
   6  -8   8   12.79    0.49
   7  -8   8    7.93    0.33
   8  -8   8    0.19    0.07
 -11  -7   8    7.91    0.38
 -10  -7   8    0.27    0.07
   9   7  -8    7.37    0.37
  -9  -7   8    7.61    0.35
   8   7  -8   27.50    1.11
  -8  -7   8   27.35    1.13
  -8  -7   8   28.54    1.12
   7   7  -8    1.14    0.12
  -7  -7   8    1.28    0.11
  -7  -7   8    1.33    0.14
   6   7  -8   37.48    1.45
  -6  -7   8   39.17    1.45
  -6  -7   8   34.45    1.48
   5   7  -8   37.03    1.42
  -5  -7   8   36.34    1.84
  -5  -7   8   36.05    1.46
   4   7  -8    2.39    0.18
  -4  -7   8    2.59    0.19
  -4  -7   8    2.87    0.16
   3   7  -8   35.21    1.27
   3   7  -8   34.05    1.34
   3   7  -8   35.93    1.16
  -3  -7   8   33.69    1.74
  -3  -7   8   33.60    1.38
   2   7  -8   74.01    2.34
   2   7  -8   71.46    2.71
  -2  -7   8   69.39    2.82
  -2  -7   8   71.64    3.56
   1   7  -8    2.56    0.17
   1   7  -8    2.35    0.13
  -1  -7   8    2.50    0.19
  -1  -7   8    2.61    0.17
   0   7  -8   17.20    0.58
   0   7  -8   16.76    0.67
   0  -7   8   16.85    0.70
   0  -7   8   15.98    0.88
  -1   7  -8   44.88    1.46
  -1   7  -8   45.15    1.67
   1  -7   8   41.32    1.74
   1  -7   8   43.01    2.20
  -2   7  -8   14.04    0.51
  -3   7  -8    4.85    0.23
  -4   7  -8   20.82    0.74
   4  -7   8   20.49    0.73
  -5   7  -8   12.23    0.47
   5  -7   8   12.15    0.46
   6  -7   8    0.41    0.08
   7  -7   8    9.27    0.38
   8  -7   8    3.52    0.20
 -10  -6   8    7.81    0.36
   9   6  -8    0.93    0.11
  -9  -6   8    0.89    0.10
  -9  -6   8    0.74    0.11
   8   6  -8   18.15    0.74
  -8  -6   8   17.49    0.74
  -8  -6   8   18.27    0.75
   7   6  -8   29.26    1.15
  -7  -6   8   28.69    1.17
  -7  -6   8   29.53    1.16
   6   6  -8    1.99    0.16
  -6  -6   8    1.81    0.14
  -6  -6   8    1.90    0.13
  -6  -6   8    1.99    0.15
   5   6  -8   26.03    1.00
  -5  -6   8   24.44    1.01
  -5  -6   8   24.83    1.27
   4   6  -8   85.92    2.61
   4   6  -8   80.83    3.01
   4   6  -8   81.15    2.84
  -4  -6   8   77.06    3.11
  -4  -6   8   72.50    3.93
   3   6  -8    7.54    0.35
   3   6  -8    7.87    0.30
   3   6  -8    7.55    0.32
  -3  -6   8    7.41    0.42
  -3  -6   8    7.94    0.34
   2   6  -8   42.38    1.51
   2   6  -8   41.83    1.59
   2   6  -8   41.43    1.36
  -2  -6   8   40.94    2.07
  -2  -6   8   40.02    1.64
   1   6  -8   88.32    3.43
   1   6  -8   88.69    3.26
   1   6  -8   88.70    2.82
  -1  -6   8   83.86    3.42
  -1  -6   8   88.55    3.39
  -1  -6   8   81.15    4.28
   0   6  -8   12.59    0.53
   0   6  -8   13.11    0.46
   0   6  -8   13.18    0.56
   0  -6   8   12.04    0.69
   0  -6   8   12.93    0.55
   0  -6   8   13.34    0.55
  -1   6  -8   28.91    1.11
  -1   6  -8   29.35    0.97
   1  -6   8   26.47    1.16
   1  -6   8   28.37    1.46
   1  -6   8   29.93    1.17
  -2   6  -8   44.09    1.48
   2  -6   8   44.61    2.24
  -3   6  -8    7.40    0.30
  -4   6  -8    5.16    0.25
   4  -6   8    5.39    0.24
   5  -6   8   17.39    0.63
   6  -6   8    3.54    0.19
   7  -6   8    0.40    0.08
   8  -6   8    6.23    0.28
   9  -6   8    1.87    0.14
 -12  -5   8    4.48    0.24
  -9  -5   8   14.06    0.61
  -9  -5   8   13.82    0.57
   8   5  -8    0.58    0.09
  -8  -5   8    0.70    0.10
   7   5  -8   20.56    0.82
  -7  -5   8   20.84    0.83
  -7  -5   8   20.02    0.82
   6   5  -8   44.80    1.73
  -6  -5   8   43.56    1.78
  -6  -5   8   47.24    1.75
   5   5  -8    1.39    0.13
   5   5  -8    1.29    0.12
   5   5  -8    1.31    0.10
  -5  -5   8    1.49    0.11
  -5  -5   8    1.43    0.10
   4   5  -8   56.45    1.99
   4   5  -8   55.93    2.10
   4   5  -8   56.85    1.83
  -4  -5   8   53.74    2.17
  -4  -5   8   53.30    2.74
   3   5  -8   53.05    1.87
   3   5  -8   53.94    1.72
   3   5  -8   50.41    1.97
  -3  -5   8   51.87    2.04
  -3  -5   8   49.57    2.57
  -3  -5   8   51.64    2.05
   2   5  -8    6.26    0.22
   2   5  -8    6.27    0.29
   2   5  -8    5.98    0.27
   2   5  -8    6.17    0.29
  -2  -5   8    6.10    0.28
  -2  -5   8    6.16    0.35
  -2  -5   8    6.23    0.28
   1   5  -8   23.65    0.89
   1   5  -8   24.16    0.98
   1   5  -8   24.28    0.80
   1   5  -8   24.33    0.93
  -1  -5   8   24.46    0.96
  -1  -5   8   21.45    1.21
  -1  -5   8   24.29    0.97
   0   5  -8   85.34    2.57
   0   5  -8   82.86    2.96
   0   5  -8   80.11    3.13
   0  -5   8   76.96    3.09
   0  -5   8   74.40    3.11
   0  -5   8   71.85    3.89
  -1   5  -8   11.90    0.49
  -1   5  -8   12.30    0.43
   1  -5   8   12.27    0.52
   1  -5   8   11.13    0.64
  -2   5  -8   21.20    0.72
   2  -5   8   19.48    1.07
   2  -5   8   21.22    0.86
  -3   5  -8   42.73    1.43
  -4   5  -8    3.84    0.21
   4  -5   8    4.20    0.20
   5  -5   8    7.76    0.32
   6  -5   8   13.75    0.51
   7  -5   8    1.06    0.11
   8  -5   8    2.04    0.16
   9  -5   8    3.14    0.18
  12   4  -8    3.33    0.25
 -12  -4   8    3.54    0.19
  11   4  -8   10.02    0.49
 -10  -4   8    0.47    0.10
   9   4  -8   21.29    0.89
   8   4  -8   21.86    0.87
   7   4  -8    0.30    0.07
   6   4  -8   57.96    1.91
   6   4  -8   57.35    2.19
   6   4  -8   56.91    2.07
  -6  -4   8   58.53    2.21
   5   4  -8   39.48    1.52
   5   4  -8   38.48    1.44
   5   4  -8   39.79    1.33
  -5  -4   8   40.82    1.53
  -5  -4   8   39.89    1.56
   4   4  -8    0.68    0.07
   4   4  -8    0.73    0.08
   4   4  -8    0.83    0.08
  -4  -4   8    0.77    0.08
  -4  -4   8    0.83    0.07
  -4  -4   8    0.87    0.08
   3   4  -8   52.63    1.89
   3   4  -8   49.69    1.79
   3   4  -8   50.22    1.65
  -3  -4   8   46.95    1.95
  -3  -4   8   48.44    2.46
  -3  -4   8   50.71    1.98
   2   4  -8  110.31    3.84
   2   4  -8  109.91    3.50
   2   4  -8  107.33    4.05
   2   4  -8  113.08    4.28
  -2  -4   8  103.87    5.32
  -2  -4   8  104.39    4.21
  -2  -4   8  107.17    4.26
   1   4  -8    0.19    0.04
   1   4  -8    0.30    0.07
   1   4  -8    0.03    0.04
   1   4  -8    0.18    0.06
  -1  -4   8    0.13    0.04
  -1  -4   8    0.10    0.04
  -1  -4   8    0.11    0.05
   0   4  -8   55.29    1.99
   0   4  -8   53.20    1.72
   0   4  -8   50.51    2.10
   0  -4   8   49.23    2.61
   0  -4   8   50.40    2.09
   0  -4   8   55.64    2.07
  -1   4  -8   35.01    1.15
  -1   4  -8   35.46    1.32
   1  -4   8   32.47    1.73
   1  -4   8   34.39    1.38
  -2   4  -8    6.72    0.28
   2  -4   8    7.09    0.41
   2  -4   8    7.09    0.34
  -3   4  -8   15.47    0.56
  -4   4  -8   37.52    1.28
   4  -4   8   38.09    1.28
   5  -4   8    1.41    0.13
   6  -4   8    7.92    0.33
   7  -4   8   12.76    0.49
   8  -4   8    0.94    0.10
   9  -4   8    3.43    0.19
  13   3  -8    2.45    0.22
  12   3  -8    5.64    0.33
  11   3  -8   10.60    0.51
  10   3  -8    0.62    0.11
   9   3  -8    0.17    0.08
   8   3  -8   32.67    1.27
   7   3  -8   33.43    1.29
   6   3  -8    4.07    0.18
   6   3  -8    3.98    0.21
   6   3  -8    3.90    0.20
   5   3  -8   59.73    2.20
   5   3  -8   60.81    2.32
   5   3  -8   60.90    2.03
  -5  -3   8   63.88    2.44
   4   3  -8   64.98    2.36
   4   3  -8   66.97    2.18
   4   3  -8   65.78    2.49
  -4  -3   8   68.10    2.62
  -4  -3   8   67.33    2.50
  -4  -3   8   63.39    3.24
  -4  -3   8   64.83    2.57
   3   3  -8    0.79    0.08
   3   3  -8    0.74    0.07
   3   3  -8    0.62    0.07
  -3  -3   8    0.66    0.07
  -3  -3   8    1.06    0.09
  -3  -3   8    0.74    0.08
  -3  -3   8    0.74    0.09
   2   3  -8   61.73    2.31
   2   3  -8   64.36    2.20
   2   3  -8   62.17    2.02
   2   3  -8   62.84    2.45
  -2  -3   8   58.26    3.03
  -2  -3   8   59.10    2.40
  -2  -3   8   59.97    2.43
   1   3  -8   60.84    2.40
   1   3  -8   62.55    2.27
   1   3  -8   59.85    1.96
  -1  -3   8   60.59    2.39
  -1  -3   8   59.95    2.36
  -1  -3   8   55.97    2.97
   0   3  -8    9.03    0.33
   0   3  -8    8.81    0.42
   0   3  -8    9.44    0.38
   0   3  -8    9.34    0.39
   0  -3   8    8.90    0.50
   0  -3   8    9.45    0.41
   0  -3   8    9.31    0.40
  -1   3  -8   63.12    2.25
  -1   3  -8   64.33    2.06
  -1   3  -8   60.38    2.36
   1  -3   8   62.66    2.47
   1  -3   8   62.34    3.11
  -2   3  -8   65.53    2.37
  -2   3  -8   64.37    2.08
   2  -3   8   60.00    2.49
   2  -3   8   61.88    3.14
  -3   3  -8    0.13    0.06
  -4   3  -8   11.90    0.45
   4  -3   8   11.82    0.44
   5  -3   8   19.06    0.68
   6  -3   8    3.15    0.18
   7  -3   8    7.74    0.33
   8  -3   8   10.02    0.40
   9  -3   8    0.51    0.09
  13   2  -8    7.38    0.40
  12   2  -8    2.20    0.21
  11   2  -8    1.72    0.18
  10   2  -8   50.29    2.01
   9   2  -8   11.02    0.50
   8   2  -8   35.36    1.36
   8   2  -8   35.32    1.41
   7   2  -8   30.19    1.19
   7   2  -8   31.21    1.14
   6   2  -8   27.91    1.05
   6   2  -8   27.59    0.97
   6   2  -8   27.92    1.10
  -6  -2   8   29.94    1.17
   5   2  -8    0.49    0.07
   5   2  -8    0.40    0.06
   5   2  -8    0.53    0.07
  -5  -2   8    0.69    0.08
   4   2  -8  118.27    4.41
   4   2  -8  116.77    4.19
   4   2  -8  117.97    3.85
  -4  -2   8  111.56    4.57
  -4  -2   8  124.18    4.65
   3   2  -8   52.87    1.92
   3   2  -8   54.22    2.02
   3   2  -8   52.34    1.76
  -3  -2   8   50.33    2.62
  -3  -2   8   56.72    2.63
  -3  -2   8   53.75    2.13
  -3  -2   8   52.03    2.08
   2   2  -8    1.96    0.14
   2   2  -8    2.01    0.13
   2   2  -8    1.84    0.13
   2   2  -8    1.99    0.12
  -2  -2   8    1.90    0.14
  -2  -2   8    1.74    0.13
  -2  -2   8    1.84    0.12
  -2  -2   8    2.02    0.13
   1   2  -8   68.06    2.57
   1   2  -8   66.26    2.73
   1   2  -8   68.64    2.23
  -1  -2   8   69.57    3.38
  -1  -2   8   67.85    2.68
  -1  -2   8   69.46    2.72
   0   2  -8   56.38    1.98
   0   2  -8   51.68    1.88
   0   2  -8   53.80    1.72
   0   2  -8   47.93    2.10
   0  -2   8   53.70    2.10
   0  -2   8   49.04    2.60
   0  -2   8   53.46    2.06
  -1   2  -8    0.04    0.04
  -1   2  -8    0.19    0.06
  -1   2  -8    0.03    0.04
   1  -2   8    0.03    0.05
   1  -2   8    0.02    0.05
  -2   2  -8   17.64    0.67
  -2   2  -8   17.05    0.69
  -2   2  -8   17.40    0.61
   2  -2   8   17.66    0.69
   2  -2   8   17.04    0.92
   2  -2   8   18.13    0.73
  -3   2  -8   49.77    1.60
  -3   2  -8   46.03    1.74
  -4   2  -8    3.36    0.19
  -4   2  -8    3.28    0.18
   4  -2   8    3.14    0.17
  -5   2  -8   27.46    1.01
   5  -2   8   26.35    0.93
   6  -2   8   10.87    0.42
   7  -2   8    0.17    0.07
   8  -2   8    1.76    0.15
   9  -2   8    6.64    0.29
  13   1  -8    1.41    0.17
  12   1  -8   13.66    0.63
  11   1  -8    5.36    0.31
  10   1  -8    6.86    0.35
   9   1  -8   27.01    1.11
   8   1  -8   50.01    1.97
   7   1  -8    6.25    0.29
   7   1  -8    6.34    0.30
   7   1  -8    6.61    0.31
   6   1  -8  186.18    6.87
   6   1  -8  184.26    6.52
   6   1  -8  181.44    6.00
   5   1  -8   17.11    0.61
   5   1  -8   16.99    0.69
   5   1  -8   16.92    0.66
  -5  -1   8   18.06    0.74
   4   1  -8   12.06    0.44
   4   1  -8   12.43    0.50
   4   1  -8   11.64    0.48
  -4  -1   8   11.45    0.49
  -4  -1   8   13.06    0.53
  -4  -1   8   12.45    0.61
   3   1  -8   51.84    1.91
   3   1  -8   49.29    2.01
   3   1  -8   52.32    1.76
  -3  -1   8   52.57    2.07
  -3  -1   8   57.02    2.62
  -3  -1   8   53.60    2.13
  -3  -1   8   54.34    2.62
   2   1  -8  102.00    3.33
   2   1  -8  101.94    3.84
   2   1  -8  102.59    3.36
  -2  -1   8  109.39    5.05
  -2  -1   8   98.75    3.99
  -2  -1   8  107.14    4.06
  -2  -1   8   95.48    5.04
   1   1  -8    4.22    0.20
   1   1  -8    4.39    0.24
   1   1  -8    4.71    0.18
   1   1  -8    4.53    0.21
   1   1  -8    4.43    0.22
  -1  -1   8    4.82    0.27
  -1  -1   8    4.31    0.23
  -1  -1   8    4.51    0.22
   0   1  -8   86.32    3.12
   0   1  -8   81.10    2.97
   0   1  -8   85.18    2.71
   0  -1   8   78.49    4.11
   0  -1   8   84.30    3.26
  -1   1  -8   30.72    1.12
  -1   1  -8   32.33    1.03
  -1   1  -8   30.80    1.18
   1  -1   8   30.82    1.55
   1  -1   8   29.65    1.17
   1  -1   8   28.69    1.23
  -2   1  -8    0.65    0.08
   2  -1   8    0.52    0.07
   2  -1   8    0.53    0.09
   2  -1   8    0.48    0.08
  -3   1  -8   29.79    1.09
  -3   1  -8   29.44    1.01
  -4   1  -8    9.82    0.38
  -4   1  -8    9.45    0.39
   4  -1   8    8.97    0.37
  -5   1  -8    0.73    0.09
   5  -1   8    0.40    0.07
   6  -1   8    4.99    0.24
   7  -1   8   13.46    0.51
   8  -1   8   -0.03    0.06
   9  -1   8    3.20    0.19
  13   0  -8    1.19    0.16
  12   0  -8    4.42    0.28
  11   0  -8   14.98    0.67
  10   0  -8    4.75    0.28
   9   0  -8    4.77    0.26
   8   0  -8   42.43    1.69
   7   0  -8   13.30    0.53
   7   0  -8   13.01    0.56
   7   0  -8   12.98    0.54
   6   0  -8    0.42    0.06
   6   0  -8    0.17    0.06
   6   0  -8    0.31    0.07
   5   0  -8   63.12    2.27
   5   0  -8   61.84    2.09
   5   0  -8   64.19    2.38
  -5   0   8   62.94    2.45
   4   0  -8  143.36    4.78
   4   0  -8  143.83    5.47
   4   0  -8  146.91    5.20
  -4   0   8  150.31    5.78
  -4   0   8  146.28    7.18
  -4   0   8  141.09    5.69
  -4   0   8  153.30    7.18
   3   0  -8   22.21    0.86
   3   0  -8   23.62    0.79
   3   0  -8   22.85    0.90
  -3   0   8   23.16    0.92
  -3   0   8   23.79    0.96
  -3   0   8   22.52    1.16
   2   0  -8  107.07    3.74
   2   0  -8  107.48    3.93
   2   0  -8  106.03    3.41
   2   0  -8  105.48    3.44
  -2   0   8  104.47    4.09
  -2   0   8  107.18    4.16
  -2   0   8   97.21    5.17
   1   0  -8   15.39    0.52
   1   0  -8   14.82    0.54
   1   0  -8   14.44    0.60
   1   0  -8   14.97    0.58
  -1   0   8   15.11    0.78
  -1   0   8   15.48    0.62
  -1   0   8   15.04    0.64
   0   0  -8    1.25    0.12
   0   0  -8    1.26    0.10
   0   0  -8    1.42    0.12
   0   0   8    1.14    0.11
   0   0   8    1.41    0.12
   0   0   8    1.35    0.12
  -1   0  -8   55.66    2.08
  -1   0  -8   59.09    1.91
   1   0   8   58.58    2.19
   1   0   8   59.49    2.29
   1   0   8   56.43    2.89
  -2   0  -8   39.97    1.48
  -2   0  -8   41.04    1.36
   2   0   8   41.07    1.56
   2   0   8   39.53    2.06
   2   0   8   42.04    1.63
  -3   0  -8    5.82    0.25
  -3   0  -8    5.48    0.26
  -4   0  -8   25.78    0.97
  -4   0  -8   26.14    0.90
   4   0   8   25.83    0.89
   5   0   8    9.15    0.37
   6   0   8    1.72    0.14
   7   0   8    6.39    0.29
   8   0   8    2.47    0.17
   9   0   8    0.00    0.07
  13  -1  -8    7.21    0.39
  12  -1  -8   -0.10    0.08
  11  -1  -8    4.15    0.27
  10  -1  -8   23.25    0.98
   9  -1  -8    5.34    0.29
   8  -1  -8   15.77    0.67
   7  -1  -8   35.38    1.43
   7  -1  -8   36.19    1.38
   6  -1  -8   10.32    0.46
   6  -1  -8   10.95    0.44
   6  -1  -8   10.65    0.41
   6  -1  -8   10.56    0.44
   5  -1  -8   15.11    0.55
   5  -1  -8   15.80    0.60
   5  -1  -8   14.93    0.62
  -5   1   8   15.25    0.63
  -5   1   8   15.48    0.62
  -5   1   8   15.63    0.77
   4  -1  -8   23.70    0.81
   4  -1  -8   23.75    0.91
   4  -1  -8   22.84    0.87
  -4   1   8   22.64    0.93
  -4   1   8   23.67    1.17
  -4   1   8   23.16    0.93
   3  -1  -8   17.50    0.66
   3  -1  -8   17.10    0.69
   3  -1  -8   17.33    0.61
  -3   1   8   17.35    0.71
  -3   1   8   17.80    0.89
  -3   1   8   17.11    0.70
   2  -1  -8    4.49    0.22
   2  -1  -8    4.63    0.18
   2  -1  -8    4.43    0.20
   2  -1  -8    4.64    0.18
   2  -1  -8    4.87    0.23
  -2   1   8    4.92    0.23
  -2   1   8    4.80    0.27
  -2   1   8    4.52    0.22
   1  -1  -8   87.11    2.83
   1  -1  -8   86.76    2.85
   1  -1  -8   82.37    3.09
   1  -1  -8   90.69    3.26
  -1   1   8   90.35    3.39
  -1   1   8   87.17    4.28
  -1   1   8   82.16    3.26
   0  -1  -8   35.62    1.23
   0  -1  -8   37.43    1.21
   0  -1  -8   35.38    1.33
   0   1   8   37.21    1.45
   0   1   8   38.09    1.40
   0   1   8   34.82    1.83
  -1  -1  -8   18.72    0.75
  -1  -1  -8   19.84    0.69
   1   1   8   21.53    0.80
   1   1   8   20.80    0.83
   1   1   8   19.47    1.04
  -2  -1  -8   16.37    0.57
  -2  -1  -8   16.06    0.61
   2   1   8   15.76    0.65
   2   1   8   15.66    0.85
  -3  -1  -8   16.50    0.62
  -3  -1  -8   16.43    0.58
   3   1   8   15.30    0.65
  -4  -1  -8    0.22    0.07
   4   1   8    0.15    0.06
   5   1   8   29.50    1.02
   6   1   8    7.93    0.39
   6   1   8    7.83    0.33
   7   1   8    1.61    0.14
   8   1   8    8.68    0.36
  13  -2  -8    2.20    0.21
  12  -2  -8   14.75    0.68
  11  -2  -8    0.99    0.14
 -11   2   8    1.20    0.11
  10  -2  -8   18.94    0.82
   9  -2  -8   16.38    0.71
   8  -2  -8    4.75    0.26
  -8   2   8    4.35    0.21
   7  -2  -8   11.13    0.47
   7  -2  -8   11.00    0.49
  -7   2   8   11.39    0.46
  -7   2   8   10.88    0.47
   6  -2  -8   65.74    2.21
   6  -2  -8   66.82    2.59
   6  -2  -8   67.06    2.51
   6  -2  -8   68.86    2.40
  -6   2   8   63.40    3.27
  -6   2   8   66.63    2.59
  -6   2   8   66.03    2.59
  -6   2   8   66.04    2.51
   5  -2  -8    4.97    0.23
   5  -2  -8    4.95    0.25
   5  -2  -8    4.90    0.25
  -5   2   8    5.10    0.25
  -5   2   8    5.67    0.26
  -5   2   8    5.05    0.29
  -5   2   8    5.33    0.23
   4  -2  -8   32.16    1.19
   4  -2  -8   31.84    1.10
   4  -2  -8   31.63    1.24
  -4   2   8   31.44    1.28
  -4   2   8   30.69    1.28
  -4   2   8   34.90    1.25
  -4   2   8   32.86    1.61
   3  -2  -8   54.00    1.89
   3  -2  -8   52.25    1.74
   3  -2  -8   53.91    1.99
  -3   2   8   50.13    1.99
  -3   2   8   52.92    2.04
  -3   2   8   50.76    2.59
  -3   2   8   51.39    2.05
   2  -2  -8    1.08    0.09
   2  -2  -8    1.18    0.10
   2  -2  -8    1.28    0.11
  -2   2   8    0.96    0.10
  -2   2   8    0.93    0.11
  -2   2   8    1.23    0.11
  -2   2   8    1.12    0.11
   1  -2  -8   20.77    0.73
   1  -2  -8   20.70    0.71
   1  -2  -8   20.06    0.79
  -1   2   8   20.78    0.85
  -1   2   8   21.61    1.08
  -1   2   8   20.68    0.86
  -1   2   8   22.40    0.84
   0  -2  -8   12.47    0.50
   0  -2  -8   13.02    0.46
   0  -2  -8   12.69    0.47
   0   2   8   13.80    0.55
   0   2   8   12.49    0.69
   0   2   8   12.89    0.54
   0   2   8   12.49    0.54
  -1  -2  -8   15.28    0.59
  -1  -2  -8   15.15    0.55
  -1  -2  -8   15.41    0.54
   1   2   8   15.62    0.65
   1   2   8   14.90    0.63
   1   2   8   14.72    0.81
   1   2   8   15.35    0.62
  -2  -2  -8    4.12    0.20
  -2  -2  -8    4.53    0.21
  -2  -2  -8    4.30    0.20
   2   2   8    3.97    0.22
  -3  -2  -8   45.30    1.52
   3   2   8   44.89    1.74
   3   2   8   45.40    1.79
  -4  -2  -8    2.52    0.17
   4   2   8    2.26    0.15
   5   2   8    2.92    0.18
   6   2   8    8.30    0.35
   6   2   8    8.70    0.42
   7   2   8    7.52    0.34
   7   2   8    8.68    0.42
   8   2   8    0.29    0.08
  12  -3  -8    5.94    0.35
 -12   3   8    6.71    0.31
  11  -3  -8    6.69    0.36
 -11   3   8    6.80    0.32
  10  -3  -8    1.85    0.18
 -10   3   8    1.83    0.13
   9  -3  -8   10.30    0.47
  -9   3   8    9.82    0.43
   8  -3  -8   43.01    1.69
  -8   3   8   41.99    1.69
  -8   3   8   41.80    1.67
   7  -3  -8    0.24    0.07
  -7   3   8    0.32    0.05
  -7   3   8    0.26    0.06
  -7   3   8    0.38    0.08
   6  -3  -8   20.53    0.74
  -6   3   8   20.94    0.83
  -6   3   8   21.04    0.86
  -6   3   8   20.92    1.06
  -6   3   8   20.89    0.84
   5  -3  -8   30.23    1.06
   5  -3  -8   31.52    1.15
  -5   3   8   30.04    1.54
  -5   3   8   31.03    1.23
  -5   3   8   31.07    1.20
  -5   3   8   30.44    1.23
   4  -3  -8   13.97    0.57
   4  -3  -8   14.76    0.53
  -4   3   8   14.91    0.62
  -4   3   8   15.81    0.60
  -4   3   8   13.84    0.60
  -4   3   8   14.24    0.76
   3  -3  -8   28.70    0.98
   3  -3  -8   30.41    1.12
   3  -3  -8   27.89    1.06
  -3   3   8   29.28    1.15
  -3   3   8   30.15    1.12
  -3   3   8   28.83    1.15
  -3   3   8   25.55    1.45
   2  -3  -8   78.35    2.52
   2  -3  -8   77.33    2.94
   2  -3  -8   77.87    2.77
   2  -3  -8   78.45    2.55
  -2   3   8   79.38    3.03
  -2   3   8   75.89    3.83
  -2   3   8   78.94    3.01
  -2   3   8   70.92    2.91
   1  -3  -8    2.64    0.14
   1  -3  -8    2.38    0.14
   1  -3  -8    2.55    0.16
   1  -3  -8    2.73    0.14
  -1   3   8    2.62    0.17
  -1   3   8    2.52    0.16
  -1   3   8    2.64    0.19
  -1   3   8    2.44    0.17
   0  -3  -8   34.34    1.15
   0  -3  -8   35.39    1.14
   0  -3  -8   34.09    1.25
   0  -3  -8   34.44    1.33
   0   3   8   33.27    1.73
   0   3   8   32.52    1.37
   0   3   8   34.25    1.36
   0   3   8   33.56    1.32
  -1  -3  -8   45.02    1.45
  -1  -3  -8   44.72    1.46
  -1  -3  -8   42.63    1.57
   1   3   8   42.83    1.71
   1   3   8   41.68    1.74
   1   3   8   42.76    1.67
   1   3   8   44.01    2.19
  -2  -3  -8    0.33    0.07
  -2  -3  -8    0.44    0.07
   2   3   8    0.39    0.07
   2   3   8    0.47    0.08
  -3  -3  -8    9.65    0.37
  -3  -3  -8    9.10    0.38
   3   3   8    9.10    0.42
   3   3   8   10.15    0.44
  -4  -3  -8   17.69    0.63
   4   3   8   16.13    0.73
   4   3   8   17.39    0.62
   5   3   8    7.01    0.31
   5   3   8    7.29    0.37
   6   3   8    5.09    0.29
   6   3   8    4.76    0.24
   7   3   8    9.00    0.40
   7   3   8   10.58    0.49
   8   3   8    1.43    0.17
   8   3   8    1.13    0.12
  12  -4  -8    0.00    0.08
 -12   4   8    0.06    0.10
 -12   4   8    0.07    0.07
  11  -4  -8   10.14    0.50
 -11   4   8   10.57    0.51
  10  -4  -8   13.23    0.61
 -10   4   8   13.02    0.57
 -10   4   8   13.82    0.62
   9  -4  -8    0.24    0.09
  -9   4   8    0.10    0.06
  -9   4   8    0.17    0.09
  -8   4   8   15.86    0.68
  -8   4   8   14.86    0.64
  -7   4   8   20.87    0.89
  -7   4   8   21.43    0.87
  -7   4   8   21.21    0.85
  -6   4   8    3.53    0.22
  -6   4   8    3.78    0.21
  -6   4   8    3.78    0.20
   5  -4  -8   32.17    1.11
  -5   4   8   32.09    1.30
  -5   4   8   32.34    1.30
  -5   4   8   30.20    1.63
  -5   4   8   34.96    1.27
   4  -4  -8   42.86    1.54
   4  -4  -8   41.17    1.42
  -4   4   8   43.48    1.62
  -4   4   8   38.80    2.10
  -4   4   8   42.73    1.67
  -4   4   8   42.59    1.67
   3  -4  -8    0.10    0.05
   3  -4  -8    0.10    0.05
   3  -4  -8    0.09    0.03
   3  -4  -8    0.33    0.07
  -3   4   8    0.26    0.07
  -3   4   8    0.10    0.06
  -3   4   8   -0.02    0.05
  -3   4   8    0.09    0.05
   2  -4  -8   13.15    0.47
   2  -4  -8   12.92    0.55
   2  -4  -8   12.95    0.49
  -2   4   8   13.67    0.57
  -2   4   8   12.94    0.71
  -2   4   8   13.90    0.56
  -2   4   8   13.17    0.57
   1  -4  -8   38.27    1.56
   1  -4  -8   37.91    1.46
   1  -4  -8   41.04    1.34
   1  -4  -8   38.81    1.35
  -1   4   8   40.24    1.55
  -1   4   8   38.91    2.03
  -1   4   8   42.03    1.60
  -1   4   8   43.43    1.61
   0  -4  -8    9.75    0.43
   0  -4  -8    9.57    0.40
   0  -4  -8    9.75    0.37
   0  -4  -8   10.03    0.38
   0   4   8   10.34    0.45
   0   4   8    9.02    0.55
   0   4   8   10.64    0.45
   0   4   8    9.84    0.44
  -1  -4  -8   26.07    0.88
  -1  -4  -8   25.46    0.95
  -1  -4  -8   24.99    0.88
   1   4   8   25.15    1.04
   1   4   8   25.19    1.01
  -2  -4  -8   37.36    1.24
  -2  -4  -8   37.32    1.24
   2   4   8   35.28    1.46
   2   4   8   35.54    1.42
  -3  -4  -8    2.93    0.19
   3   4   8    3.09    0.21
   3   4   8    3.07    0.20
  -4  -4  -8   11.48    0.44
   4   4   8   10.60    0.51
   4   4   8   10.65    0.43
   5   4   8   16.90    0.64
   5   4   8   17.83    0.76
   6   4   8    1.16    0.12
   6   4   8    1.45    0.16
   7   4   8    1.80    0.20
   7   4   8    1.61    0.15
  12  -5  -8    4.69    0.30
 -12   5   8    4.66    0.31
  11  -5  -8    0.08    0.09
 -11   5   8    0.10    0.10
 -10   5   8   12.03    0.56
 -10   5   8   11.28    0.52
  -9   5   8   13.42    0.60
  -9   5   8   14.48    0.64
  -8   5   8    0.19    0.09
  -8   5   8    0.00    0.06
  -7   5   8   20.83    0.89
  -7   5   8   21.20    0.88
  -7   5   8   21.36    0.85
  -6   5   8   28.79    1.15
  -6   5   8   29.15    1.18
  -6   5   8   29.23    1.19
   5  -5  -8    0.17    0.06
  -5   5   8    0.30    0.07
  -5   5   8    0.41    0.09
  -5   5   8    0.19    0.07
   4  -5  -8   22.02    0.92
   4  -5  -8   22.54    0.81
  -4   5   8   23.87    0.92
  -4   5   8   23.11    0.95
  -4   5   8   23.05    0.95
   3  -5  -8   32.44    1.10
   3  -5  -8   32.43    1.30
   3  -5  -8   33.88    1.13
   3  -5  -8   32.08    1.22
  -3   5   8   33.08    1.33
  -3   5   8   33.56    1.33
  -3   5   8   32.03    1.68
  -3   5   8   34.07    1.29
   2  -5  -8    1.02    0.11
   2  -5  -8    0.93    0.10
   2  -5  -8    1.13    0.11
   2  -5  -8    0.83    0.07
  -2   5   8    1.18    0.13
  -2   5   8    0.88    0.10
  -2   5   8    0.94    0.11
  -2   5   8    0.99    0.13
   1  -5  -8   37.40    1.41
   1  -5  -8   37.42    1.51
   1  -5  -8   38.44    1.30
   1  -5  -8   38.74    1.29
  -1   5   8   38.27    1.54
  -1   5   8   40.70    1.50
  -1   5   8   38.35    1.55
  -1   5   8   38.39    1.96
   0  -5  -8   20.84    0.75
   0  -5  -8   22.06    0.82
   0  -5  -8   20.51    0.76
   0  -5  -8   21.38    0.75
   0   5   8   21.84    0.90
   0   5   8   21.84    0.90
   0   5   8   22.40    0.88
  -1  -5  -8    0.20    0.06
  -1  -5  -8    0.22    0.07
   1   5   8    0.20    0.07
   1   5   8    0.22    0.08
  -2  -5  -8    8.23    0.34
   2   5   8    7.41    0.38
   2   5   8    8.70    0.40
  -3  -5  -8   25.53    0.87
   3   5   8   25.21    0.87
   3   5   8   22.37    0.99
   3   5   8   24.92    1.03
  -4  -5  -8    1.98    0.18
   4   5   8    1.72    0.19
   4   5   8    1.83    0.15
   4   5   8    1.58    0.17
   5   5   8    5.93    0.28
   5   5   8    6.05    0.34
   6   5   8    9.23    0.40
   6   5   8   10.35    0.50
   7   5   8    1.67    0.15
   7   5   8    1.85    0.20
 -11   6   8    2.70    0.24
 -10   6   8    0.51    0.13
 -10   6   8    0.62    0.10
  -9   6   8    5.35    0.32
  -9   6   8    5.11    0.28
  -8   6   8   11.71    0.54
  -8   6   8   10.75    0.50
  -7   6   8    0.13    0.07
  -7   6   8    0.16    0.07
  -7   6   8    0.31    0.09
  -6   6   8   17.07    0.72
  -6   6   8   17.26    0.71
  -6   6   8   16.40    0.74
  -5   6   8   15.40    0.68
  -5   6   8   14.42    0.64
  -5   6   8   16.17    0.66
   4  -6  -8    0.57    0.09
   4  -6  -8    0.46    0.08
  -4   6   8    0.53    0.09
  -4   6   8    0.54    0.09
  -4   6   8    0.63    0.11
   3  -6  -8   30.22    1.20
   3  -6  -8   28.66    1.04
   3  -6  -8   29.93    1.01
  -3   6   8   30.56    1.23
  -3   6   8   29.41    1.19
  -3   6   8   31.14    1.23
   2  -6  -8   25.91    0.92
   2  -6  -8   26.69    0.90
   2  -6  -8   25.58    1.06
  -2   6   8   27.42    1.09
  -2   6   8   24.66    1.08
  -2   6   8   27.66    1.06
   1  -6  -8    0.22    0.06
   1  -6  -8    0.23    0.07
   1  -6  -8    0.34    0.07
  -1   6   8    0.36    0.10
  -1   6   8    0.43    0.09
  -1   6   8    0.39    0.08
  -1   6   8    0.41    0.08
   0  -6  -8   16.46    0.61
   0  -6  -8   16.75    0.70
   0  -6  -8   17.82    0.61
   0   6   8   16.11    0.71
   0   6   8   16.49    0.72
  -1  -6  -8   29.30    0.98
  -1  -6  -8   28.19    0.98
   1   6   8   28.87    1.17
   1   6   8   26.73    1.14
  -2  -6  -8    0.16    0.07
   2   6   8    0.10    0.08
   2   6   8    0.14    0.09
  -3  -6  -8   17.63    0.64
   3   6   8   17.08    0.75
   3   6   8   16.09    0.72
  -4  -6  -8   10.22    0.41
   4   6   8    8.43    0.45
   4   6   8    9.78    0.47
   4   6   8    9.54    0.39
   5   6   8    0.69    0.14
   5   6   8    0.55    0.09
   6   6   8    3.99    0.23
   6   6   8    4.47    0.30
 -11   7   8    6.04    0.36
 -10   7   8    4.17    0.29
  -9   7   8    2.82    0.24
  -9   7   8    2.89    0.21
  -8   7   8   16.27    0.71
  -8   7   8   14.70    0.68
  -7   7   8    1.79    0.19
  -7   7   8    1.78    0.16
  -6   7   8    1.99    0.17
  -6   7   8    2.11    0.20
  -6   7   8    1.75    0.16
  -5   7   8   18.99    0.81
  -5   7   8   18.50    0.77
  -5   7   8   17.89    0.79
   4  -7  -8    8.28    0.41
  -4   7   8    9.00    0.41
  -4   7   8    9.03    0.43
  -4   7   8    8.33    0.42
   3  -7  -8    3.01    0.18
   3  -7  -8    3.11    0.20
   3  -7  -8    3.27    0.16
  -3   7   8    3.27    0.22
  -3   7   8    3.55    0.22
  -3   7   8    3.28    0.23
   2  -7  -8   11.86    0.44
   2  -7  -8   11.53    0.51
   2  -7  -8   11.12    0.42
  -2   7   8   11.32    0.53
  -2   7   8   10.87    0.51
  -2   7   8   11.35    0.53
   1  -7  -8   18.70    0.78
   1  -7  -8   17.94    0.66
  -1   7   8   18.13    0.78
  -1   7   8   19.07    0.81
  -1   7   8   19.31    0.81
   0  -7  -8    0.02    0.06
   0   7   8    0.15    0.09
   0   7   8    0.03    0.07
  -1  -7  -8   23.87    0.84
   1   7   8   22.99    0.98
   1   7   8   24.69    1.02
  -2  -7  -8   10.06    0.40
  -2  -7  -8   10.61    0.41
   2   7   8    9.29    0.48
   2   7   8    9.07    0.46
  -3  -7  -8    0.14    0.07
  -3  -7  -8    0.10    0.09
   3   7   8    0.10    0.10
   3   7   8    0.25    0.09
  -4  -7  -8    7.11    0.33
   4   7   8    5.73    0.34
   4   7   8    6.78    0.31
   4   7   8    6.40    0.37
   5   7   8   12.31    0.59
   5   7   8   11.60    0.48
 -10   8   8   11.62    0.58
  -9   8   8    2.30    0.22
  -9   8   8    2.09    0.19
  -8   8   8    2.91    0.21
  -8   8   8    3.01    0.25
  -7   8   8   19.43    0.85
  -7   8   8   20.25    0.88
  -6   8   8    9.19    0.45
  -6   8   8    9.36    0.47
  -6   8   8    9.33    0.44
  -5   8   8   10.39    0.51
  -5   8   8   10.14    0.49
  -5   8   8   10.34    0.48
   4  -8  -8   26.08    1.06
  -4   8   8   24.28    1.07
  -4   8   8   26.44    1.05
  -4   8   8   25.69    1.09
   3  -8  -8    7.33    0.37
   3  -8  -8    7.55    0.30
  -3   8   8    7.75    0.39
  -3   8   8    7.33    0.38
  -3   8   8    7.66    0.40
   2  -8  -8    5.00    0.28
   2  -8  -8    4.93    0.23
  -2   8   8    5.38    0.30
  -2   8   8    5.48    0.30
  -2   8   8    5.21    0.31
   1  -8  -8   28.05    1.14
   1  -8  -8   28.01    0.96
  -1   8   8   26.59    1.13
  -1   8   8   28.76    1.17
   0  -8  -8    3.35    0.19
   0   8   8    3.60    0.26
   0   8   8    3.54    0.25
  -1  -8  -8    0.25    0.07
   1   8   8    0.27    0.09
   1   8   8    0.41    0.11
  -2  -8  -8    8.11    0.36
   2   8   8    8.81    0.44
   2   8   8    8.15    0.42
  -3  -8  -8   14.16    0.54
   3   8   8   14.23    0.65
   3   8   8   12.93    0.62
  -4  -8  -8    0.15    0.09
  -4  -8  -8    0.29    0.10
   4   8   8    0.25    0.10
   4   8   8    0.31    0.09
   4   8   8    0.28    0.12
   5   8   8    5.28    0.34
   5   8   8    4.77    0.26
  -9   9   8    7.08    0.39
  -9   9   8    7.42    0.42
  -8   9   8    4.53    0.29
  -8   9   8    4.99    0.32
  -7   9   8    4.52    0.28
  -7   9   8    4.34    0.30
  -6   9   8   17.95    0.79
  -6   9   8   18.81    0.77
  -6   9   8   17.22    0.81
  -5   9   8    6.57    0.35
  -5   9   8    6.07    0.36
  -5   9   8    6.03    0.34
   4  -9  -8    1.80    0.11
  -4   9   8    1.86    0.18
  -4   9   8    1.74    0.18
  -4   9   8    1.30    0.17
   3  -9  -8   30.85    1.06
  -3   9   8   30.56    1.30
  -3   9   8   34.16    1.31
  -3   9   8   29.43    1.26
   2  -9  -8   12.72    0.47
  -2   9   8   11.44    0.58
  -2   9   8   14.17    0.61
   1  -9  -8    3.43    0.19
  -1   9   8    3.45    0.25
  -1   9   8    3.49    0.26
   0  -9  -8   24.51    0.86
   0   9   8   25.43    1.05
   0   9   8   22.91    1.01
  -1  -9  -8   10.26    0.43
   1   9   8   10.86    0.53
   1   9   8   10.79    0.51
  -2  -9  -8    2.96    0.20
   2   9   8    3.34    0.26
   2   9   8    3.47    0.25
  -3  -9  -8    7.89    0.35
   3   9   8    7.09    0.40
   3   9   8    8.15    0.43
  -4  -9  -8    2.58    0.20
   4   9   8    3.01    0.23
   4   9   8    2.47    0.24
   4   9   8    2.94    0.19
  -8  10   8    7.50    0.40
  -8  10   8    6.90    0.41
  -7  10   8    1.16    0.15
  -7  10   8    0.84    0.16
  -6  10   8    2.01    0.19
  -6  10   8    1.36    0.18
  -6  10   8    1.81    0.18
  -5  10   8   15.33    0.71
  -5  10   8   16.06    0.73
  -5  10   8   15.24    0.69
   4 -10  -8    4.66    0.20
  -4  10   8    4.64    0.29
  -4  10   8    4.66    0.29
  -4  10   8    4.72    0.31
   3 -10  -8    3.19    0.16
  -3  10   8    3.24    0.26
  -3  10   8    3.35    0.24
   2 -10  -8   10.23    0.40
  -2  10   8   10.11    0.50
  -2  10   8   10.56    0.52
   1 -10  -8    8.88    0.36
  -1  10   8    8.28    0.44
  -1  10   8    9.31    0.47
   0 -10  -8    0.09    0.06
   0  10   8    0.18    0.12
   0  10   8    0.21    0.10
  -1 -10  -8   12.95    0.51
   1  10   8   12.29    0.60
   1  10   8   13.79    0.63
  -2 -10  -8    8.96    0.38
   2  10   8    8.66    0.46
   2  10   8    8.20    0.44
  -7  11   8    9.61    0.51
  -6  11   8    0.46    0.12
  -6  11   8    0.65    0.15
  -6  11   8    0.70    0.13
  -5  11   8    5.23    0.34
  -5  11   8    4.89    0.31
  -4  11   8    8.22    0.43
  -4  11   8    8.21    0.45
   3 -11  -8    2.91    0.16
  -3  11   8    2.75    0.25
  -3  11   8    3.02    0.24
   2 -11  -8    2.30    0.14
  -2  11   8    1.91    0.20
  -2  11   8    2.15    0.23
   1 -11  -8   11.22    0.43
  -1  11   8   10.51    0.53
  -1  11   8   11.15    0.55
   0 -11  -8    0.99    0.10
   0  11   8    1.38    0.18
   0  11   8    1.16    0.16
  -1 -11  -8    0.44    0.08
   1  11   8    0.76    0.15
   1  11   8    0.52    0.12
  -4  12   8    4.63    0.30
   3 -12  -8    9.14    0.35
  -3  12   8    8.89    0.46
  -3  12   8    8.99    0.48
   4  15  -9   -0.07    0.10
   3  15  -9    1.83    0.20
   2  15  -9    6.21    0.37
   2  15  -9    6.53    0.27
   1  15  -9    3.44    0.19
   1  15  -9    3.37    0.26
   0  15  -9    4.68    0.30
   0  15  -9    4.37    0.23
  -1  15  -9    8.07    0.35
   6  14  -9   -0.18    0.09
   5  14  -9    3.84    0.28
  -5 -14   9    4.05    0.26
   4  14  -9    6.89    0.40
  -4 -14   9    7.22    0.38
   3  14  -9    0.09    0.11
   2  14  -9    6.85    0.28
   2  14  -9    6.69    0.38
   1  14  -9    4.05    0.21
   1  14  -9    4.13    0.28
   0  14  -9    0.21    0.10
   0  14  -9    0.29    0.08
  -1  14  -9    0.79    0.11
  -2  14  -9    7.52    0.34
  -3  14  -9    0.84    0.12
   7  13  -9    4.30    0.30
   6  13  -9    4.28    0.30
  -6 -13   9    4.18    0.26
   5  13  -9    0.56    0.13
  -5 -13   9    0.51    0.10
   4  13  -9    8.61    0.46
  -4 -13   9    8.84    0.44
   3  13  -9    5.53    0.34
  -3 -13   9    5.74    0.32
   2  13  -9    0.08    0.06
   2  13  -9    0.10    0.10
  -2 -13   9    0.00    0.07
   1  13  -9    8.70    0.36
   1  13  -9    9.19    0.45
   0  13  -9    8.91    0.44
   0  13  -9    8.93    0.37
  -1  13  -9    0.24    0.08
  -2  13  -9    5.76    0.28
  -3  13  -9    2.51    0.19
  -4  13  -9    0.01    0.09
   8  12  -9    4.57    0.31
  -8 -12   9    4.48    0.27
   7  12  -9    1.71    0.19
  -7 -12   9    1.83    0.17
   6  12  -9   13.69    0.64
  -6 -12   9   14.03    0.63
   5  12  -9    5.28    0.33
  -5 -12   9    5.54    0.30
   4  12  -9    1.09    0.15
  -4 -12   9    0.82    0.12
   3  12  -9   18.94    0.83
  -3 -12   9   19.88    0.84
   2  12  -9    9.30    0.36
   2  12  -9    9.29    0.47
  -2 -12   9    9.97    0.46
   1  12  -9    0.84    0.13
   1  12  -9    0.95    0.10
  -1 -12   9    0.94    0.13
   0  12  -9   14.44    0.62
   0  12  -9   13.72    0.53
  -1  12  -9   10.02    0.41
  -2  12  -9    0.24    0.08
  -3  12  -9   10.74    0.44
  -4  12  -9    6.68    0.32
  -5  12  -9    0.27    0.10
   5 -12   9    0.26    0.08
   9  11  -9    0.98    0.15
   8  11  -9    7.98    0.42
  -8 -11   9    8.12    0.40
   7  11  -9    4.29    0.29
  -7 -11   9    4.40    0.25
   6  11  -9    0.98    0.15
  -6 -11   9    1.18    0.13
   5  11  -9   21.51    0.92
  -5 -11   9   21.78    0.92
   4  11  -9   12.01    0.55
  -4 -11   9   11.46    0.53
   3  11  -9    1.61    0.18
  -3 -11   9    1.65    0.15
   2  11  -9   23.03    0.79
   2  11  -9   23.11    0.95
  -2 -11   9   22.61    0.97
   1  11  -9   18.57    0.79
   1  11  -9   17.49    0.66
  -1 -11   9   20.04    0.81
   0  11  -9    1.11    0.13
   0  11  -9    0.92    0.10
  -1  11  -9   19.66    0.71
  -2  11  -9   11.61    0.46
  -3  11  -9    0.04    0.07
  -4  11  -9   12.06    0.49
  -5  11  -9    8.00    0.36
   5 -11   9    7.63    0.34
   6 -11   9    0.05    0.06
  10  10  -9    7.63    0.40
   9  10  -9    0.28    0.11
  -9 -10   9    0.40    0.09
   8  10  -9    4.89    0.30
  -8 -10   9    5.01    0.27
   7  10  -9   12.55    0.59
  -7 -10   9   13.10    0.57
   6  10  -9    4.17    0.27
  -6 -10   9    4.30    0.24
   5  10  -9    3.59    0.24
  -5 -10   9    3.18    0.21
   4  10  -9   20.17    0.83
  -4 -10   9   18.79    0.82
   3  10  -9   15.44    0.66
  -3 -10   9   15.16    0.67
   2  10  -9    1.89    0.18
   2  10  -9    2.04    0.12
  -2 -10   9    1.80    0.16
   1  10  -9   23.29    0.83
   1  10  -9   24.25    0.98
  -1 -10   9   24.85    1.01
   0  10  -9   14.61    0.63
   0  10  -9   14.45    0.54
   0 -10   9   15.59    0.66
  -1  10  -9    0.09    0.07
  -1  10  -9   -0.02    0.07
  -2  10  -9   19.22    0.70
  -3  10  -9   10.72    0.43
  -4  10  -9    0.04    0.08
  -5  10  -9    8.63    0.38
   5 -10   9    8.35    0.36
   6 -10   9    7.66    0.33
   7 -10   9    0.04    0.06
  10   9  -9    5.36    0.32
 -10  -9   9    6.12    0.31
   9   9  -9   15.17    0.67
  -9  -9   9   15.19    0.66
   8   9  -9    2.70    0.22
  -8  -9   9    2.76    0.18
   7   9  -9   11.13    0.50
  -7  -9   9   10.16    0.47
   6   9  -9   26.15    1.05
  -6  -9   9   25.33    1.06
   5   9  -9    5.34    0.30
  -5  -9   9    5.07    0.27
   4   9  -9    7.89    0.39
  -4  -9   9    8.38    0.38
   3   9  -9   28.26    1.02
   3   9  -9   26.90    1.09
  -3  -9   9   26.05    1.11
   2   9  -9    8.46    0.39
   2   9  -9    7.97    0.30
  -2  -9   9    8.05    0.39
   1   9  -9    1.67    0.16
   1   9  -9    1.47    0.12
  -1  -9   9    1.33    0.15
   0   9  -9   28.56    1.09
   0   9  -9   26.18    0.94
   0  -9   9   27.86    1.14
  -1   9  -9    9.08    0.37
  -1   9  -9    9.55    0.42
   1  -9   9    9.17    0.45
  -2   9  -9    2.57    0.17
  -3   9  -9   10.45    0.42
  -4   9  -9    8.39    0.36
  -5   9  -9    0.37    0.09
   5  -9   9    0.46    0.08
   6  -9   9    6.97    0.31
   7  -9   9    3.52    0.20
 -10  -8   9    0.70    0.09
   9   8  -9    4.62    0.28
  -9  -8   9    4.85    0.25
   8   8  -9   19.09    0.81
  -8  -8   9   19.17    0.80
   7   8  -9    6.09    0.32
  -7  -8   9    5.82    0.29
   6   8  -9   10.69    0.49
  -6  -8   9   10.62    0.47
   5   8  -9   37.71    1.52
  -5  -8   9   39.82    1.56
   4   8  -9    6.65    0.33
  -4  -8   9    6.68    0.32
   3   8  -9   11.97    0.51
   3   8  -9   11.99    0.48
  -3  -8   9   11.00    0.51
   2   8  -9   41.30    1.48
   2   8  -9   42.64    1.56
   2   8  -9   41.08    1.33
  -2  -8   9   39.17    2.03
  -2  -8   9   36.41    1.61
   1   8  -9    5.14    0.21
   1   8  -9    5.18    0.27
  -1  -8   9    5.03    0.27
  -1  -8   9    4.80    0.32
   0   8  -9   11.48    0.49
   0   8  -9   11.38    0.42
   0  -8   9   11.56    0.51
   0  -8   9   10.74    0.63
  -1   8  -9   17.91    0.73
  -1   8  -9   18.33    0.64
   1  -8   9   17.07    0.96
   1  -8   9   18.54    0.77
  -2   8  -9    8.26    0.34
  -3   8  -9    4.30    0.22
  -4   8  -9   19.06    0.69
  -5   8  -9    2.21    0.18
   5  -8   9    2.31    0.16
   6  -8   9    0.62    0.09
   7  -8   9    6.07    0.28
 -11  -7   9    5.73    0.29
 -10  -7   9   13.81    0.59
   9   7  -9    0.13    0.08
  -9  -7   9    0.12    0.06
   8   7  -9   14.96    0.65
  -8  -7   9   15.20    0.64
   7   7  -9   16.22    0.68
  -7  -7   9   15.93    0.67
   6   7  -9    2.30    0.18
  -6  -7   9    2.39    0.15
   5   7  -9    9.89    0.45
  -5  -7   9   10.05    0.44
   4   7  -9   45.65    1.62
   4   7  -9   44.57    1.72
  -4  -7   9   43.42    1.77
   3   7  -9    6.44    0.26
   3   7  -9    6.54    0.31
   3   7  -9    6.54    0.29
  -3  -7   9    6.05    0.37
  -3  -7   9    6.26    0.30
   2   7  -9   21.84    0.83
   2   7  -9   22.02    0.73
   2   7  -9   22.82    0.88
  -2  -7   9   20.64    1.13
  -2  -7   9   21.62    0.90
   1   7  -9   41.70    1.51
   1   7  -9   39.23    1.29
  -1  -7   9   35.14    1.97
  -1  -7   9   39.78    1.56
   0   7  -9    7.20    0.29
   0   7  -9    7.38    0.34
   0  -7   9    7.12    0.43
   0  -7   9    7.98    0.36
  -1   7  -9   19.38    0.77
  -1   7  -9   19.11    0.67
   1  -7   9   18.21    1.01
   1  -7   9   20.10    0.81
  -2   7  -9   35.83    1.21
  -3   7  -9    0.76    0.09
  -4   7  -9    4.14    0.22
  -5   7  -9   15.45    0.57
   5  -7   9   14.66    0.56
   6  -7   9    4.93    0.24
   7  -7   9    2.62    0.17
   8  -7   9    5.42    0.26
 -11  -6   9    0.17    0.06
 -10  -6   9   10.63    0.46
   9   6  -9   12.99    0.57
  -9  -6   9   13.40    0.56
   8   6  -9    1.49    0.16
  -8  -6   9    1.68    0.12
   7   6  -9   23.74    0.92
  -7  -6   9   21.97    0.92
   6   6  -9   46.13    1.75
  -6  -6   9   44.22    1.78
   5   6  -9    0.12    0.06
  -5  -6   9    0.12    0.05
  -5  -6   9    0.33    0.07
   4   6  -9   30.39    1.18
   4   6  -9   30.38    1.02
   4   6  -9   30.39    1.11
  -4  -6   9   29.05    1.20
  -4  -6   9   29.41    1.51
   3   6  -9   33.45    1.13
   3   6  -9   33.08    1.22
   3   6  -9   33.03    1.29
  -3  -6   9   34.01    1.33
  -3  -6   9   32.50    1.68
   2   6  -9    6.87    0.25
   2   6  -9    6.94    0.32
   2   6  -9    6.89    0.31
  -2  -6   9    6.42    0.39
  -2  -6   9    6.70    0.31
   1   6  -9   24.23    0.83
   1   6  -9   24.58    0.97
   1   6  -9   25.70    0.93
  -1  -6   9   23.49    1.26
  -1  -6   9   24.89    1.00
   0   6  -9   56.67    1.86
   0   6  -9   55.46    2.14
   0  -6   9   59.46    2.24
   0  -6   9   54.08    2.82
  -1   6  -9    3.19    0.16
  -1   6  -9    3.18    0.19
   1  -6   9    2.94    0.19
   1  -6   9    3.06    0.23
  -2   6  -9   14.29    0.52
  -3   6  -9   40.65    1.37
  -4   6  -9    5.55    0.26
  -5   6  -9   13.50    0.51
   5  -6   9   12.93    0.50
   6  -6   9   11.22    0.44
   7  -6   9    1.37    0.12
   8  -6   9    0.56    0.09
   9   5  -9   18.07    0.75
   8   5  -9   18.59    0.76
   7   5  -9    0.03    0.06
  -7  -5   9    0.09    0.04
   6   5  -9   17.65    0.72
  -6  -5   9   17.08    0.71
  -6  -5   9   17.77    0.89
   5   5  -9   44.25    1.71
   5   5  -9   45.59    1.49
   5   5  -9   44.97    1.62
  -5  -5   9   43.97    2.21
  -5  -5   9   43.99    1.76
   4   5  -9    5.92    0.24
   4   5  -9    5.31    0.28
   4   5  -9    5.57    0.26
  -4  -5   9    5.67    0.32
  -4  -5   9    5.79    0.26
   3   5  -9   52.51    1.88
   3   5  -9   51.41    1.98
   3   5  -9   52.16    1.73
  -3  -5   9   51.04    2.58
  -3  -5   9   52.18    2.04
   2   5  -9   54.76    2.20
   2   5  -9   56.67    1.79
   2   5  -9   56.72    2.09
   2   5  -9   56.47    1.99
  -2  -5   9   52.21    2.73
  -2  -5   9   52.97    2.16
  -2  -5   9   54.32    2.18
   1   5  -9    0.25    0.07
   1   5  -9    0.22    0.07
   1   5  -9    0.25    0.04
   1   5  -9    0.19    0.06
  -1  -5   9    0.15    0.06
  -1  -5   9    0.29    0.06
  -1  -5   9    0.22    0.06
   0   5  -9   20.08    0.69
   0   5  -9   20.62    0.78
   0   5  -9   20.42    0.80
   0  -5   9   19.05    1.05
   0  -5   9   20.97    0.84
  -1   5  -9   44.40    1.44
  -1   5  -9   44.53    1.66
   1  -5   9   39.64    2.18
   1  -5   9   44.67    1.73
  -2   5  -9    5.98    0.26
   2  -5   9    5.81    0.37
  -3   5  -9   15.09    0.55
  -4   5  -9   22.70    0.80
  -5   5  -9    5.70    0.28
   5  -5   9    5.82    0.26
   6  -5   9    2.91    0.18
   7  -5   9   16.27    0.60
   8  -5   9    0.97    0.11
   8   4  -9   32.03    1.25
   7   4  -9   24.05    0.96
   6   4  -9    1.15    0.11
   6   4  -9    0.92    0.10
   6   4  -9    1.21    0.10
   5   4  -9   42.04    1.50
   5   4  -9   41.59    1.38
   5   4  -9   41.98    1.58
  -5  -4   9   39.84    2.04
  -5  -4   9   40.41    1.62
   4   4  -9   23.71    0.88
   4   4  -9   23.37    0.93
   4   4  -9   23.32    0.81
  -4  -4   9   23.69    0.94
  -4  -4   9   23.57    1.19
  -4  -4   9   23.92    0.97
   3   4  -9    0.26    0.06
   3   4  -9    0.23    0.06
   3   4  -9    0.29    0.06
  -3  -4   9    0.21    0.05
  -3  -4   9    0.27    0.05
  -3  -4   9    0.26    0.06
   2   4  -9   24.98    0.94
   2   4  -9   25.25    0.98
   2   4  -9   24.82    1.04
  -2  -4   9   24.65    1.27
  -2  -4   9   24.88    1.02
  -2  -4   9   25.88    1.01
   1   4  -9   54.57    2.18
   1   4  -9   57.64    2.06
   1   4  -9   54.20    1.96
   1   4  -9   55.87    1.78
  -1  -4   9   54.75    2.17
  -1  -4   9   49.82    2.70
  -1  -4   9   52.61    2.14
   0   4  -9    0.70    0.09
   0   4  -9    0.58    0.06
   0   4  -9    0.61    0.08
   0  -4   9    0.66    0.08
   0  -4   9    0.61    0.09
  -1   4  -9   34.31    1.32
  -1   4  -9   34.09    1.15
  -1   4  -9   33.20    1.26
   1  -4   9   32.85    1.73
   1  -4   9   36.25    1.38
  -2   4  -9   21.51    0.74
   2  -4   9   20.78    1.11
  -3   4  -9    1.07    0.10
  -4   4  -9    7.25    0.31
  -5   4  -9   14.75    0.56
   5  -4   9   14.97    0.55
   6  -4   9    0.81    0.10
   7  -4   9    1.10    0.11
   8  -4   9    4.62    0.23
   8   3  -9    0.23    0.07
   7   3  -9   29.99    1.05
   7   3  -9   30.57    1.13
   7   3  -9   31.14    1.20
   6   3  -9   37.51    1.38
   6   3  -9   37.75    1.46
   6   3  -9   37.72    1.27
   5   3  -9    2.61    0.17
   5   3  -9    2.36    0.14
   5   3  -9    2.44    0.16
  -5  -3   9    2.50    0.15
  -5  -3   9    2.45    0.12
   4   3  -9   64.75    2.18
   4   3  -9   66.98    2.50
   4   3  -9   66.51    2.37
  -4  -3   9   67.09    3.25
  -4  -3   9   67.65    2.63
  -4  -3   9   62.93    2.58
   3   3  -9   34.43    1.14
   3   3  -9   34.28    1.30
   3   3  -9   34.54    1.24
  -3  -3   9   32.18    1.36
  -3  -3   9   33.97    1.34
  -3  -3   9   33.06    1.68
   2   3  -9    7.91    0.32
   2   3  -9    7.79    0.36
   2   3  -9    7.22    0.33
   2   3  -9    7.43    0.30
  -2  -3   9    8.21    0.35
  -2  -3   9    7.01    0.33
  -2  -3   9    7.25    0.41
   1   3  -9   41.30    1.52
   1   3  -9   42.65    1.60
   1   3  -9   42.52    1.37
  -1  -3   9   40.52    2.09
  -1  -3   9   41.31    1.65
   0   3  -9   22.68    0.86
   0   3  -9   21.28    0.73
   0   3  -9   21.26    0.82
   0  -3   9   20.99    1.12
   0  -3   9   22.02    0.89
  -1   3  -9    0.05    0.06
  -1   3  -9   -0.05    0.04
  -1   3  -9    0.00    0.05
   1  -3   9   -0.05    0.06
   1  -3   9   -0.13    0.05
  -2   3  -9   29.74    1.00
  -2   3  -9   29.95    1.10
  -2   3  -9   29.16    1.14
   2  -3   9   28.26    1.51
   2  -3   9   29.93    1.20
  -3   3  -9   23.64    0.83
  -3   3  -9   24.19    0.91
  -4   3  -9    0.21    0.08
  -4   3  -9    0.24    0.08
  -5   3  -9   10.54    0.47
  -5   3  -9   11.51    0.45
   5  -3   9   11.30    0.43
   6  -3   9    7.31    0.32
   7  -3   9   -0.07    0.06
   8  -3   9    2.68    0.18
  13   2  -9    1.97    0.20
   8   2  -9   22.31    0.89
   7   2  -9    8.36    0.36
   7   2  -9    8.25    0.34
   7   2  -9    8.69    0.38
   6   2  -9   30.67    1.17
   6   2  -9   29.58    1.11
   6   2  -9   29.69    1.03
   5   2  -9   20.24    0.75
   5   2  -9   20.46    0.79
   5   2  -9   19.22    0.69
  -5  -2   9   19.33    0.78
   4   2  -9    1.20    0.10
   4   2  -9    1.44    0.13
   4   2  -9    1.21    0.12
  -4  -2   9    1.31    0.09
  -4  -2   9    1.33    0.10
  -4  -2   9    1.45    0.12
   3   2  -9   65.27    2.48
   3   2  -9   64.45    2.17
   3   2  -9   64.58    2.35
  -3  -2   9   66.38    2.61
  -3  -2   9   67.78    2.56
  -3  -2   9   64.44    3.24
   2   2  -9   47.35    1.81
   2   2  -9   46.26    1.58
   2   2  -9   48.38    1.72
  -2  -2   9   49.33    1.87
  -2  -2   9   46.35    2.36
  -2  -2   9   46.80    1.91
   1   2  -9    6.22    0.28
   1   2  -9    6.07    0.27
   1   2  -9    6.18    0.23
  -1  -2   9    5.87    0.35
  -1  -2   9    6.09    0.28
   0   2  -9   81.15    2.89
   0   2  -9   86.25    3.04
   0   2  -9   82.77    2.64
   0  -2   9   77.51    3.17
   0  -2   9   76.05    4.00
  -1   2  -9   23.35    0.89
  -1   2  -9   22.46    0.77
  -1   2  -9   23.49    0.85
   1  -2   9   21.60    0.93
   1  -2   9   22.09    1.17
  -2   2  -9    4.10    0.20
  -2   2  -9    3.95    0.21
  -2   2  -9    4.43    0.22
   2  -2   9    3.97    0.23
   2  -2   9    4.26    0.21
   2  -2   9    3.79    0.27
  -3   2  -9   27.63    1.04
  -3   2  -9   27.73    0.95
  -4   2  -9   18.07    0.66
  -4   2  -9   18.20    0.71
  -5   2  -9    0.09    0.08
  -5   2  -9    0.43    0.09
   5  -2   9    0.24    0.07
   6  -2   9   12.78    0.49
   7  -2   9    6.93    0.31
   8  -2   9   -0.04    0.06
  13   1  -9    1.16    0.15
  12   1  -9    4.80    0.30
  11   1  -9   13.57    0.61
  10   1  -9    0.14    0.08
   9   1  -9    7.81    0.38
   8   1  -9    5.84    0.29
   7   1  -9   10.87    0.47
   7   1  -9   10.86    0.45
   7   1  -9   11.22    0.42
   6   1  -9    4.49    0.21
   6   1  -9    4.28    0.23
   6   1  -9    4.43    0.22
   5   1  -9   65.79    2.41
   5   1  -9   66.90    2.22
   5   1  -9   67.34    2.53
  -5  -1   9   67.23    2.60
   4   1  -9    9.31    0.40
   4   1  -9    9.30    0.36
   4   1  -9    9.20    0.39
  -4  -1   9    9.17    0.39
  -4  -1   9    9.57    0.49
   3   1  -9   12.59    0.49
   3   1  -9   12.18    0.51
   3   1  -9   12.10    0.46
  -3  -1   9   12.48    0.65
  -3  -1   9   12.88    0.52
   2   1  -9   51.60    1.70
   2   1  -9   53.08    1.88
   2   1  -9   52.58    1.73
   2   1  -9   52.70    1.98
  -2  -1   9   51.18    2.04
  -2  -1   9   50.46    2.58
   1   1  -9   30.23    1.04
   1   1  -9   30.01    1.12
   1   1  -9   30.21    1.01
   1   1  -9   30.09    1.18
  -1  -1   9   32.50    1.22
  -1  -1   9   29.68    1.54
   0   1  -9    2.80    0.14
   0   1  -9    2.78    0.17
   0   1  -9    2.59    0.17
   0  -1   9    2.74    0.19
   0  -1   9    2.60    0.17
  -1   1  -9   56.21    2.22
  -1   1  -9   60.49    1.94
  -1   1  -9   59.18    2.11
   1  -1   9   60.30    2.32
   1  -1   9   56.73    2.22
   1  -1   9   58.47    2.93
  -2   1  -9   35.66    1.23
  -2   1  -9   35.94    1.34
   2  -1   9   37.21    1.41
   2  -1   9   37.05    1.86
  -3   1  -9    3.88    0.21
  -3   1  -9    3.63    0.20
  -4   1  -9   29.77    1.12
  -4   1  -9   30.40    1.04
  -5   1  -9   11.74    0.46
   5  -1   9   11.78    0.45
   6  -1   9    0.02    0.07
   7  -1   9    9.28    0.38
   8  -1   9    5.67    0.27
  13   0  -9    4.36    0.28
  12   0  -9    0.81    0.13
  11   0  -9    4.16    0.26
  10   0  -9   22.51    0.95
   9   0  -9    3.97    0.24
   8   0  -9   31.13    1.21
   7   0  -9   41.49    1.63
   7   0  -9   42.21    1.58
   7   0  -9   41.12    1.51
   7   0  -9   39.73    1.40
   6   0  -9    0.14    0.05
   6   0  -9    0.12    0.05
   6   0  -9    0.14    0.06
   5   0  -9   16.54    0.67
   5   0  -9   16.14    0.59
   5   0  -9   16.66    0.64
  -5   0   9   16.22    0.83
  -5   0   9   16.56    0.66
   4   0  -9   54.84    1.91
   4   0  -9   53.17    1.76
   4   0  -9   54.95    2.01
  -4   0   9   53.79    2.61
  -4   0   9   46.86    2.06
   3   0  -9   20.01    0.75
   3   0  -9   19.25    0.69
   3   0  -9   19.51    0.78
  -3   0   9   19.86    1.00
  -3   0   9   19.81    0.80
   2   0  -9   27.81    0.97
   2   0  -9   29.02    1.11
   2   0  -9   28.38    1.05
   2   0  -9   27.72    0.94
  -2   0   9   27.08    1.43
  -2   0   9   30.38    1.14
   1   0  -9   63.28    2.07
   1   0  -9   62.83    2.24
   1   0  -9   61.91    2.04
   1   0  -9   60.38    2.36
  -1   0   9   63.58    3.10
  -1   0   9   61.76    2.45
   0   0  -9   16.60    0.65
   0   0  -9   15.90    0.62
   0   0  -9   15.54    0.58
   0   0  -9   15.86    0.56
   0   0   9   16.44    0.67
   0   0   9   15.12    0.84
   0   0   9   16.90    0.65
  -1   0  -9    5.07    0.25
  -1   0  -9    5.46    0.23
   1   0   9    5.51    0.27
   1   0   9    5.03    0.25
   1   0   9    4.97    0.32
  -2   0  -9   34.78    1.19
  -2   0  -9   33.33    1.29
   2   0   9   37.52    1.37
  -3   0  -9   18.66    0.74
  -3   0  -9   20.18    0.69
  -4   0  -9    0.09    0.07
  -5   0  -9   21.30    0.76
   5   0   9   20.88    0.75
   6   0   9    9.52    0.39
   7   0   9    0.25    0.08
   8   0   9    4.51    0.23
  12  -1  -9    8.00    0.42
  11  -1  -9    0.09    0.08
  10  -1  -9    8.45    0.42
   9  -1  -9   17.20    0.74
   8  -1  -9    4.53    0.23
   8  -1  -9    4.39    0.25
   7  -1  -9   15.80    0.63
   7  -1  -9   15.91    0.64
   7  -1  -9   15.81    0.66
  -7   1   9   15.23    0.66
   6  -1  -9   73.77    2.80
   6  -1  -9   72.21    2.46
   6  -1  -9   75.77    2.67
  -6   1   9   76.68    3.64
  -6   1   9   71.60    2.89
   5  -1  -9    6.86    0.32
   5  -1  -9    6.79    0.29
   5  -1  -9    7.01    0.32
  -5   1   9    7.31    0.38
  -5   1   9    6.83    0.30
   4  -1  -9   47.26    1.58
   4  -1  -9   48.63    1.71
   4  -1  -9   48.16    1.79
  -4   1   9   45.04    2.33
  -4   1   9   45.36    1.84
   3  -1  -9   58.66    1.94
   3  -1  -9   61.46    2.11
   3  -1  -9   58.06    2.21
  -3   1   9   57.83    2.89
  -3   1   9   58.14    2.29
  -3   1   9   55.08    2.21
   2  -1  -9   11.60    0.41
   2  -1  -9   11.50    0.44
   2  -1  -9   11.87    0.48
   2  -1  -9   12.03    0.50
  -2   1   9   12.05    0.50
  -2   1   9   12.69    0.51
  -2   1   9   11.36    0.63
   1  -1  -9   16.19    0.56
   1  -1  -9   15.66    0.58
   1  -1  -9   16.35    0.63
  -1   1   9   16.18    0.66
  -1   1   9   16.83    0.68
  -1   1   9   15.72    0.85
   0  -1  -9   65.27    2.36
   0  -1  -9   67.15    2.18
   0  -1  -9   67.59    2.16
   0   1   9   63.55    3.26
   0   1   9   66.83    2.49
   0   1   9   62.52    2.58
  -1  -1  -9   10.60    0.46
  -1  -1  -9   10.94    0.43
  -1  -1  -9   11.71    0.42
   1   1   9   11.68    0.49
   1   1   9   12.01    0.51
   1   1   9   11.17    0.63
  -2  -1  -9    6.48    0.27
  -2  -1  -9    6.07    0.28
   2   1   9    6.17    0.30
  -3  -1  -9   26.52    0.94
  -3  -1  -9   27.60    1.01
  -4  -1  -9    7.88    0.34
   4   1   9    8.15    0.34
  -5  -1  -9    0.78    0.10
   5   1   9    0.86    0.10
   6   1   9    6.54    0.29
   7   1   9    5.22    0.26
   8   1   9    0.06    0.07
  12  -2  -9    5.44    0.32
  11  -2  -9    9.47    0.47
  10  -2  -9    0.17    0.08
   9  -2  -9   16.66    0.72
   8  -2  -9   21.23    0.88
  -8   2   9   20.61    0.88
  -8   2   9   21.10    0.84
   7  -2  -9    0.24    0.06
  -7   2   9    0.29    0.07
  -7   2   9    0.35    0.05
  -7   2   9    0.23    0.07
   6  -2  -9   18.17    0.68
   6  -2  -9   19.13    0.74
   6  -2  -9   19.07    0.76
  -6   2   9   18.39    0.76
  -6   2   9   18.70    0.78
  -6   2   9   19.50    0.96
  -6   2   9   19.55    0.77
   5  -2  -9   42.57    1.58
   5  -2  -9   42.44    1.65
   5  -2  -9   40.63    1.45
  -5   2   9   44.98    1.66
  -5   2   9   44.43    1.70
  -5   2   9   42.83    2.14
   4  -2  -9   10.42    0.43
   4  -2  -9    9.54    0.40
   4  -2  -9   10.53    0.45
  -4   2   9   10.50    0.55
  -4   2   9   10.62    0.44
  -4   2   9   10.42    0.45
   3  -2  -9   25.15    0.91
   3  -2  -9   26.73    0.99
  -3   2   9   27.84    1.07
  -3   2   9   27.32    1.04
  -3   2   9   24.81    1.34
   2  -2  -9   77.07    2.66
   2  -2  -9   73.14    2.45
   2  -2  -9   74.29    2.42
  -2   2   9   68.17    3.67
  -2   2   9   73.75    2.91
  -2   2   9   77.13    2.80
   1  -2  -9    6.96    0.29
   1  -2  -9    7.06    0.28
   1  -2  -9    7.09    0.32
  -1   2   9    7.20    0.33
  -1   2   9    7.22    0.33
  -1   2   9    7.02    0.41
   0  -2  -9   14.06    0.59
   0  -2  -9   15.12    0.54
   0  -2  -9   14.71    0.55
   0   2   9   15.39    0.81
   0   2   9   15.98    0.63
   0   2   9   15.31    0.64
  -1  -2  -9   40.91    1.39
  -1  -2  -9   41.32    1.50
  -1  -2  -9   43.63    1.38
   1   2   9   40.30    1.65
   1   2   9   40.00    1.59
   1   2   9   40.14    2.08
  -2  -2  -9    9.17    0.36
  -2  -2  -9    8.09    0.35
  -2  -2  -9    9.16    0.38
   2   2   9    9.00    0.40
  -3  -2  -9    8.65    0.34
  -3  -2  -9    8.10    0.34
   3   2   9    7.60    0.37
  -4  -2  -9   15.67    0.58
   4   2   9   15.47    0.58
  -5  -2  -9    3.35    0.22
   5   2   9    3.44    0.20
   6   2   9    1.43    0.14
   7   2   9    5.94    0.28
  12  -3  -9    0.00    0.09
 -12   3   9   -0.05    0.09
  11  -3  -9    7.93    0.41
 -11   3   9    8.08    0.42
  10  -3  -9   11.45    0.52
 -10   3   9   10.87    0.48
 -10   3   9   10.96    0.52
   9  -3  -9    0.19    0.08
  -9   3   9    0.08    0.08
  -9   3   9    0.15    0.06
  -8   3   9   21.13    0.85
  -8   3   9   20.36    0.87
  -7   3   9   29.06    1.18
  -7   3   9   28.30    1.14
  -7   3   9   29.72    1.17
   6  -3  -9    0.21    0.06
  -6   3   9    0.18    0.07
  -6   3   9    0.11    0.06
  -6   3   9    0.19    0.05
   5  -3  -9   36.53    1.30
   5  -3  -9   33.61    1.19
  -5   3   9   35.30    1.40
  -5   3   9   34.49    1.35
  -5   3   9   33.97    1.39
   4  -3  -9   41.46    1.39
   4  -3  -9   43.99    1.51
  -4   3   9   40.23    2.06
  -4   3   9   37.90    1.63
  -4   3   9   42.14    1.63
  -4   3   9   40.64    1.59
   3  -3  -9    1.16    0.11
   3  -3  -9    1.12    0.11
  -3   3   9    1.16    0.13
  -3   3   9    1.40    0.12
  -3   3   9    1.28    0.13
   2  -3  -9   26.69    0.96
   2  -3  -9   25.63    0.86
   2  -3  -9   24.88    0.89
  -2   3   9   25.66    1.04
  -2   3   9   25.36    1.31
  -2   3   9   24.41    1.01
   1  -3  -9   40.32    1.43
   1  -3  -9   41.22    1.41
   1  -3  -9   41.55    1.41
   1  -3  -9   42.97    1.55
  -1   3   9   41.81    2.14
  -1   3   9   46.18    1.70
  -1   3   9   43.06    1.64
   0  -3  -9    4.98    0.24
   0  -3  -9    5.04    0.22
   0  -3  -9    4.87    0.23
   0   3   9    4.81    0.32
   0   3   9    4.85    0.27
   0   3   9    5.18    0.26
   0   3   9    4.93    0.26
  -1  -3  -9   14.53    0.54
  -1  -3  -9   14.65    0.54
  -1  -3  -9   14.20    0.58
   1   3   9   14.91    0.62
   1   3   9   14.86    0.64
   1   3   9   15.26    0.63
  -2  -3  -9   27.10    0.96
  -2  -3  -9   28.09    0.96
   2   3   9   27.78    1.12
   2   3   9   27.57    1.10
  -3  -3  -9    4.46    0.23
  -3  -3  -9    4.59    0.22
   3   3   9    3.92    0.25
  -4  -3  -9    6.56    0.31
   4   3   9    6.62    0.34
   4   3   9    6.14    0.29
  -5  -3  -9   15.32    0.60
   5   3   9   15.97    0.69
   5   3   9   14.97    0.58
   6   3   9    0.94    0.11
   7   3   9    2.08    0.17
  12  -4  -9    2.35    0.21
 -12   4   9    1.95    0.21
  11  -4  -9    0.39    0.11
 -11   4   9    0.36    0.12
 -10   4   9    9.32    0.46
 -10   4   9    8.91    0.41
  -9   4   9   10.11    0.45
  -9   4   9   10.30    0.49
  -8   4   9    0.15    0.08
  -8   4   9    0.08    0.06
  -7   4   9   24.68    1.01
  -7   4   9   24.81    0.98
  -7   4   9   24.44    1.02
  -6   4   9   27.92    1.16
  -6   4   9   27.80    1.15
  -6   4   9   29.23    1.12
   5  -4  -9    0.13    0.06
  -5   4   9    0.08    0.06
  -5   4   9    0.19    0.08
  -5   4   9    0.10    0.06
   4  -4  -9   31.24    1.18
   4  -4  -9   30.62    1.09
  -4   4   9   32.62    1.24
  -4   4   9   32.44    1.28
  -4   4   9   30.64    1.27
   3  -4  -9   39.86    1.38
   3  -4  -9   41.98    1.54
   3  -4  -9   42.58    1.43
  -3   4   9   42.58    1.67
  -3   4   9   42.78    1.68
  -3   4   9   41.93    1.63
   2  -4  -9    2.10    0.12
   2  -4  -9    1.87    0.14
   2  -4  -9    2.10    0.15
  -2   4   9    1.92    0.16
  -2   4   9    1.84    0.16
  -2   4   9    1.88    0.17
  -2   4   9    2.06    0.16
   1  -4  -9   25.74    1.01
   1  -4  -9   26.77    0.93
   1  -4  -9   25.98    0.94
  -1   4   9   28.44    1.12
  -1   4   9   25.79    1.40
  -1   4   9   29.30    1.11
  -1   4   9   27.85    1.08
   0  -4  -9   41.33    1.39
   0  -4  -9   41.13    1.39
   0  -4  -9   41.67    1.51
   0  -4  -9   40.36    1.40
   0   4   9   43.05    1.65
   0   4   9   42.31    1.61
   0   4   9   42.29    1.66
   0   4   9   37.50    2.09
  -1  -4  -9    1.18    0.12
  -1  -4  -9    1.21    0.12
  -1  -4  -9    1.18    0.11
   1   4   9    1.36    0.14
   1   4   9    1.25    0.13
  -2  -4  -9   13.84    0.52
  -2  -4  -9   13.45    0.52
   2   4   9   14.06    0.60
  -3  -4  -9   17.59    0.65
   3   4   9   16.22    0.74
   3   4   9   18.93    0.76
  -4  -4  -9    2.13    0.18
   4   4   9    2.18    0.16
   4   4   9    2.09    0.20
   5   4   9    4.15    0.27
   5   4   9    4.04    0.23
   6   4   9   10.28    0.42
 -11   5   9    3.06    0.24
 -10   5   9    4.17    0.24
 -10   5   9    4.53    0.29
  -9   5   9   17.30    0.77
  -9   5   9   17.40    0.74
  -8   5   9    5.45    0.32
  -8   5   9    5.86    0.29
  -7   5   9    1.15    0.14
  -7   5   9    1.11    0.12
  -7   5   9    1.34    0.14
  -6   5   9   21.10    0.89
  -6   5   9   22.13    0.88
  -6   5   9   21.29    0.91
   5  -5  -9   26.62    0.96
  -5   5   9   26.79    1.08
  -5   5   9   27.58    1.12
  -5   5   9   27.48    1.11
   4  -5  -9    0.11    0.06
  -4   5   9    0.05    0.06
  -4   5   9    0.15    0.07
  -4   5   9    0.16    0.08
   3  -5  -9   27.77    0.97
   3  -5  -9   29.50    1.01
   3  -5  -9   28.59    1.09
  -3   5   9   28.84    1.19
  -3   5   9   30.63    1.16
  -3   5   9   28.93    1.19
   2  -5  -9   27.73    0.94
   2  -5  -9   26.37    1.01
   2  -5  -9   27.41    0.91
  -2   5   9   27.18    1.10
  -2   5   9   25.62    1.07
  -2   5   9   26.17    1.10
   1  -5  -9    0.59    0.09
   1  -5  -9    0.73    0.10
   1  -5  -9    0.58    0.07
  -1   5   9    0.67    0.10
  -1   5   9    0.48    0.09
  -1   5   9    0.55    0.10
   0  -5  -9   13.32    0.50
   0  -5  -9   13.16    0.49
   0  -5  -9   13.20    0.49
   0  -5  -9   13.82    0.54
   0   5   9   12.46    0.58
   0   5   9   13.56    0.60
   0   5   9   13.01    0.59
  -1  -5  -9   25.27    0.87
  -1  -5  -9   24.53    0.87
   1   5   9   25.68    1.03
   1   5   9   23.68    1.00
  -2  -5  -9    3.68    0.21
   2   5   9    2.90    0.22
   2   5   9    3.41    0.23
  -3  -5  -9   11.20    0.44
   3   5   9   10.13    0.50
   3   5   9   11.18    0.52
  -4  -5  -9   14.12    0.55
   4   5   9   14.64    0.54
   4   5   9   14.20    0.64
   4   5   9   12.94    0.61
   5   5   9    0.26    0.09
   5   5   9    0.28    0.11
   6   5   9    2.49    0.22
   6   5   9    2.04    0.17
 -11   6   9   11.21    0.56
 -10   6   9    7.44    0.38
 -10   6   9    7.97    0.42
  -9   6   9    2.37    0.21
  -9   6   9    2.00    0.17
  -8   6   9   33.78    1.38
  -8   6   9   33.97    1.40
  -7   6   9   15.69    0.70
  -7   6   9   15.00    0.67
  -7   6   9   15.99    0.66
  -6   6   9    7.95    0.38
  -6   6   9    7.44    0.40
  -6   6   9    7.32    0.37
  -5   6   9   25.31    1.07
  -5   6   9   26.27    1.04
  -5   6   9   25.41    1.07
  -4   6   9   13.97    0.63
  -4   6   9   14.92    0.64
  -4   6   9   14.95    0.65
   3  -6  -9    0.13    0.04
   3  -6  -9    0.13    0.06
  -3   6   9    0.08    0.07
  -3   6   9    0.08    0.07
  -3   6   9    0.01    0.08
   2  -6  -9   25.32    0.91
   2  -6  -9   27.46    0.94
  -2   6   9   27.10    1.08
  -2   6   9   26.73    1.11
  -2   6   9   27.13    1.11
   1  -6  -9   20.37    0.72
  -1   6   9   19.69    0.87
  -1   6   9   19.51    0.85
  -1   6   9   22.07    0.88
   0  -6  -9    0.01    0.06
   0  -6  -9    0.19    0.06
   0   6   9    0.07    0.08
   0   6   9    0.09    0.09
  -1  -6  -9   12.17    0.47
  -1  -6  -9   11.98    0.46
   1   6   9   12.13    0.55
   1   6   9   11.04    0.54
  -2  -6  -9    7.51    0.33
  -2  -6  -9    7.94    0.34
   2   6   9    7.70    0.40
   2   6   9    7.58    0.39
  -3  -6  -9    0.36    0.10
   3   6   9    0.31    0.09
   3   6   9    0.28    0.11
  -4  -6  -9    2.17    0.20
   4   6   9    2.30    0.22
   4   6   9    2.29    0.20
   4   6   9    1.89    0.17
   5   6   9    7.96    0.36
   5   6   9    8.73    0.44
 -10   7   9   10.80    0.54
 -10   7   9   10.44    0.50
  -9   7   9    6.66    0.38
  -9   7   9    6.41    0.34
  -8   7   9    0.68    0.11
  -8   7   9    0.77    0.14
  -7   7   9   16.83    0.75
  -7   7   9   16.02    0.72
  -7   7   9   16.96    0.71
  -6   7   9   26.27    1.04
  -6   7   9   24.05    1.06
  -6   7   9   25.92    1.08
  -5   7   9    0.43    0.10
  -5   7   9    0.29    0.09
  -5   7   9    0.37    0.11
  -4   7   9   43.90    1.71
  -4   7   9   42.52    1.76
  -4   7   9   43.90    1.76
   3  -7  -9   11.31    0.40
  -3   7   9   10.70    0.51
  -3   7   9   10.95    0.52
  -3   7   9   11.20    0.53
   2  -7  -9    1.59    0.12
  -2   7   9    1.68    0.18
  -2   7   9    1.80    0.19
  -2   7   9    1.72    0.17
   1  -7  -9   10.23    0.40
  -1   7   9   10.06    0.48
  -1   7   9   10.36    0.49
   0  -7  -9   15.85    0.58
   0   7   9   15.13    0.69
   0   7   9   16.29    0.71
  -1  -7  -9    0.01    0.06
   1   7   9    0.15    0.09
   1   7   9   -0.05    0.08
  -2  -7  -9   13.28    0.52
   2   7   9   13.92    0.62
   2   7   9   12.68    0.60
  -3  -7  -9    5.59    0.29
  -3  -7  -9    5.06    0.27
   3   7   9    5.63    0.33
   3   7   9    4.95    0.31
  -4  -7  -9    0.51    0.10
  -4  -7  -9    0.39    0.10
   4   7   9    0.31    0.10
   4   7   9    0.38    0.13
   4   7   9    0.37    0.11
 -10   8   9    2.41    0.24
  -9   8   9    8.73    0.44
  -9   8   9    8.67    0.47
  -8   8   9    3.07    0.26
  -8   8   9    3.39    0.23
  -7   8   9    1.54    0.17
  -7   8   9    1.71    0.20
  -7   8   9    1.67    0.17
  -6   8   9   10.58    0.50
  -6   8   9   10.68    0.52
  -6   8   9   10.59    0.51
  -5   8   9    4.99    0.31
  -5   8   9    5.17    0.29
  -5   8   9    4.81    0.29
  -4   8   9    0.29    0.10
  -4   8   9    0.31    0.11
  -4   8   9    0.31    0.10
   3  -8  -9   10.93    0.41
  -3   8   9   11.07    0.53
  -3   8   9   12.06    0.54
  -3   8   9   11.39    0.55
   2  -8  -9   22.51    0.80
  -2   8   9   22.49    0.97
  -2   8   9   24.04    1.00
  -2   8   9   23.85    1.00
   1  -8  -9    2.18    0.15
  -1   8   9    2.47    0.22
  -1   8   9    2.12    0.21
   0  -8  -9   15.28    0.58
   0   8   9   15.78    0.70
   0   8   9   16.49    0.72
  -1  -8  -9    2.31    0.17
   1   8   9    2.41    0.22
   1   8   9    2.46    0.21
  -2  -8  -9    0.09    0.07
   2   8   9    0.07    0.09
   2   8   9    0.03    0.10
  -3  -8  -9    6.01    0.29
   3   8   9    5.09    0.33
   3   8   9    6.43    0.36
  -4  -8  -9    6.27    0.31
   4   8   9    6.99    0.38
   4   8   9    6.07    0.30
   4   8   9    5.82    0.35
  -9   9   9    1.91    0.22
  -8   9   9   10.68    0.53
  -8   9   9    9.88    0.50
  -7   9   9    2.57    0.24
  -7   9   9    2.69    0.21
  -6   9   9    4.22    0.29
  -6   9   9    3.70    0.26
  -6   9   9    4.10    0.26
  -5   9   9   10.41    0.52
  -5   9   9   10.76    0.52
  -5   9   9   11.20    0.54
  -4   9   9    1.43    0.17
  -4   9   9    1.85    0.19
  -4   9   9    1.78    0.18
   3  -9  -9    3.44    0.17
  -3   9   9    3.55    0.25
  -3   9   9    3.90    0.27
  -3   9   9    3.78    0.26
   2  -9  -9    3.77    0.19
  -2   9   9    3.50    0.26
  -2   9   9    4.14    0.28
   1  -9  -9    2.33    0.15
  -1   9   9    2.18    0.21
  -1   9   9    2.41    0.22
   0  -9  -9    0.23    0.07
   0   9   9    0.14    0.10
   0   9   9    0.26    0.11
  -1  -9  -9   11.84    0.47
   1   9   9   12.75    0.59
   1   9   9   11.45    0.57
  -2  -9  -9    4.74    0.25
   2   9   9    4.58    0.30
   2   9   9    5.07    0.32
  -7  10   9    6.44    0.38
  -6  10   9    1.69    0.19
  -6  10   9    1.79    0.19
  -6  10   9    1.98    0.21
  -5  10   9    2.01    0.20
  -5  10   9    2.34    0.21
  -5  10   9    2.09    0.23
  -4  10   9   14.16    0.65
  -4  10   9   13.15    0.63
   3 -10  -9    1.87    0.12
  -3  10   9    1.73    0.20
  -3  10   9    2.30    0.23
   2 -10  -9    4.80    0.22
  -2  10   9    4.79    0.31
  -2  10   9    5.29    0.32
   1 -10  -9   10.05    0.39
  -1  10   9    9.54    0.49
  -1  10   9   10.20    0.51
   0 -10  -9    0.14    0.07
   0  10   9    0.12    0.11
   0  10   9    0.16    0.10
  -1 -10  -9    2.37    0.17
   1  10   9    2.49    0.23
   1  10   9    2.50    0.22
  -5  11   9    0.04    0.09
  -5  11   9   -0.08    0.11
  -4  11   9    2.98    0.24
  -4  11   9    2.66    0.24
   3 -11  -9    4.76    0.21
  -3  11   9    4.88    0.31
  -3  11   9    4.94    0.32
   2 -11  -9    2.32    0.14
  -2  11   9    2.21    0.23
  -2  11   9    2.57    0.23
   1 -11  -9    2.51    0.16
  -1  11   9    2.56    0.23
   2  15 -10    5.52    0.34
   1  15 -10    3.46    0.18
   1  15 -10    3.33    0.26
   5  14 -10    0.02    0.10
   4  14 -10    7.65    0.44
  -4 -14  10    8.30    0.42
   3  14 -10    6.92    0.40
   2  14 -10    0.14    0.11
   1  14 -10    9.67    0.38
   1  14 -10    9.71    0.49
   0  14 -10   10.65    0.51
   0  14 -10   10.21    0.42
  -1  14 -10    0.07    0.08
  -2  14 -10    6.71    0.32
   7  13 -10   -0.06    0.10
   6  13 -10    7.83    0.43
  -6 -13  10    7.69    0.40
   5  13 -10    6.31    0.38
  -5 -13  10    7.01    0.36
   4  13 -10   -0.07    0.09
  -4 -13  10    0.09    0.08
   3  13 -10    9.43    0.47
  -3 -13  10    8.40    0.44
   2  13 -10   11.48    0.56
   2  13 -10   11.10    0.43
  -2 -13  10   12.77    0.57
   1  13 -10    0.11    0.07
   1  13 -10    0.00    0.09
   0  13 -10    8.24    0.36
   0  13 -10    9.40    0.44
  -1  13 -10    7.94    0.35
  -2  13 -10    0.71    0.11
  -3  13 -10    7.13    0.34
  -4  13 -10    8.60    0.39
   8  12 -10    5.70    0.35
   7  12 -10    3.39    0.27
  -7 -12  10    3.54    0.23
   6  12 -10    1.05    0.15
  -6 -12  10    1.06    0.12
   5  12 -10    6.56    0.38
  -5 -12  10    6.93    0.36
   4  12 -10    6.83    0.38
  -4 -12  10    6.54    0.35
   3  12 -10    0.44    0.11
  -3 -12  10    0.57    0.10
   2  12 -10   10.86    0.41
   2  12 -10   11.24    0.53
  -2 -12  10   11.77    0.54
   1  12 -10    6.84    0.37
   1  12 -10    6.48    0.29
  -1 -12  10    7.87    0.39
   0  12 -10    0.04    0.09
   0  12 -10    0.13    0.07
  -1  12 -10   13.33    0.51
  -2  12 -10    7.31    0.33
  -3  12 -10    0.12    0.09
  -4  12 -10    1.24    0.14
  -5  12 -10    6.17    0.32
   9  11 -10    1.01    0.15
   8  11 -10    3.23    0.25
  -8 -11  10    3.29    0.22
   7  11 -10    5.98    0.36
  -7 -11  10    6.47    0.33
   6  11 -10    2.53    0.23
  -6 -11  10    2.93    0.20
   5  11 -10    2.06    0.20
  -5 -11  10    1.95    0.17
   4  11 -10   16.92    0.74
  -4 -11  10   17.04    0.74
   3  11 -10    2.99    0.23
  -3 -11  10    2.85    0.20
   2  11 -10    1.95    0.19
   2  11 -10    1.88    0.18
   2  11 -10    1.67    0.12
  -2 -11  10    2.05    0.18
   1  11 -10   16.00    0.70
   1  11 -10   14.75    0.58
  -1 -11  10   17.86    0.73
   0  11 -10    6.93    0.30
   0  11 -10    7.28    0.36
  -1  11 -10    1.16    0.12
  -2  11 -10    6.93    0.32
  -3  11 -10   11.40    0.46
  -4  11 -10    0.10    0.09
  -5  11 -10    9.97    0.43
   5 -11  10    9.71    0.41
  10  10 -10    2.35    0.21
   9  10 -10    7.86    0.41
  -9 -10  10    7.79    0.38
   8  10 -10    1.72    0.19
  -8 -10  10    1.91    0.16
   7  10 -10    5.76    0.33
  -7 -10  10    5.61    0.30
   6  10 -10   18.39    0.81
  -6 -10  10   19.41    0.81
   5  10 -10    0.87    0.13
  -5 -10  10    0.92    0.11
   4  10 -10    5.81    0.32
  -4 -10  10    5.70    0.30
   3  10 -10   19.30    0.74
   3  10 -10   18.10    0.79
  -3 -10  10   18.35    0.80
   2  10 -10    9.25    0.45
   2  10 -10    9.17    0.35
   2  10 -10    9.48    0.43
  -2 -10  10    9.79    0.45
   1  10 -10    7.60    0.30
   1  10 -10    7.68    0.37
  -1 -10  10    7.09    0.38
   0  10 -10   22.15    0.90
   0  10 -10   21.78    0.77
   0 -10  10   22.06    0.94
  -1  10 -10    6.64    0.29
  -2  10 -10    1.82    0.16
  -3  10 -10   12.70    0.50
  -4  10 -10    3.40    0.22
  -5  10 -10    0.19    0.09
   5 -10  10    0.15    0.07
   6 -10  10    5.85    0.28
  10   9 -10    0.18    0.10
 -10  -9  10    0.37    0.08
   9   9 -10    3.51    0.25
  -9  -9  10    3.49    0.21
   8   9 -10   12.02    0.56
  -8  -9  10   12.54    0.55
   7   9 -10    1.71    0.18
  -7  -9  10    1.69    0.14
   6   9 -10    7.39    0.38
  -6  -9  10    7.43    0.36
   5   9 -10   27.50    1.11
  -5  -9  10   26.77    1.12
   4   9 -10    6.57    0.35
  -4  -9  10    6.72    0.33
   3   9 -10   20.69    0.84
   3   9 -10   20.90    0.79
  -3  -9  10   18.99    0.85
   2   9 -10   30.16    1.22
   2   9 -10   29.63    1.02
   2   9 -10   30.64    1.16
  -2  -9  10   31.93    1.26
   1   9 -10    3.82    0.18
   1   9 -10    3.77    0.24
  -1  -9  10    3.83    0.24
   0   9 -10    3.43    0.22
   0   9 -10    3.27    0.18
   0  -9  10    3.33    0.23
  -1   9 -10   27.69    0.96
  -2   9 -10    7.51    0.32
  -3   9 -10    2.69    0.19
  -4   9 -10    9.85    0.41
  -5   9 -10    2.85    0.21
   5  -9  10    3.08    0.19
   6  -9  10    0.68    0.10
  10   8 -10    7.95    0.41
 -10  -8  10    8.34    0.38
   9   8 -10   -0.16    0.07
  -9  -8  10    0.22    0.07
   8   8 -10    8.15    0.40
  -8  -8  10    8.16    0.38
   7   8 -10   16.30    0.69
  -7  -8  10   15.91    0.68
   6   8 -10    2.07    0.19
  -6  -8  10    2.35    0.16
   5   8 -10   13.38    0.58
  -5  -8  10   12.76    0.56
   4   8 -10   28.84    1.08
   4   8 -10   28.67    1.15
  -4  -8  10   28.61    1.17
   3   8 -10    8.05    0.38
   3   8 -10    8.57    0.36
  -3  -8  10    7.61    0.37
   2   8 -10    8.16    0.30
   2   8 -10    7.97    0.38
   2   8 -10    8.26    0.37
  -2  -8  10    7.92    0.38
   1   8 -10   54.47    1.82
   1   8 -10   56.02    2.12
   1   8 -10   54.19    2.02
  -1  -8  10   56.15    2.20
   0   8 -10    6.80    0.28
   0   8 -10    6.56    0.33
   0  -8  10    7.03    0.35
  -1   8 -10   12.26    0.52
  -1   8 -10   11.77    0.45
   1  -8  10   12.02    0.55
  -2   8 -10   14.35    0.53
  -3   8 -10    6.48    0.29
  -4   8 -10    1.47    0.13
  -5   8 -10   12.11    0.49
   5  -8  10   11.98    0.47
   6  -8  10    1.64    0.15
   7  -8  10    1.56    0.14
 -11  -7  10    0.04    0.06
  10   7 -10    3.73    0.25
 -10  -7  10    4.08    0.22
   9   7 -10   13.93    0.62
  -9  -7  10   14.36    0.60
   8   7 -10    0.11    0.08
  -8  -7  10    0.21    0.06
   7   7 -10   14.62    0.63
  -7  -7  10   14.38    0.61
   6   7 -10   19.11    0.79
  -6  -7  10   18.76    0.78
   5   7 -10    1.38    0.15
  -5  -7  10    1.25    0.12
   4   7 -10   16.28    0.63
   4   7 -10   15.89    0.67
  -4  -7  10   15.55    0.67
   3   7 -10   30.78    1.21
   3   7 -10   29.91    1.05
   3   7 -10   31.60    1.14
  -3  -7  10   29.90    1.24
   2   7 -10    2.69    0.12
   2   7 -10    2.54    0.18
   2   7 -10    2.58    0.18
  -2  -7  10    2.46    0.17
   1   7 -10    6.76    0.26
   1   7 -10    7.12    0.32
   1   7 -10    6.67    0.32
  -1  -7  10    5.78    0.39
  -1  -7  10    6.72    0.32
   0   7 -10   23.88    0.94
   0   7 -10   23.34    0.80
   0  -7  10   22.69    1.22
   0  -7  10   23.69    0.97
  -1   7 -10   13.92    0.50
  -1   7 -10   13.97    0.58
   1  -7  10   12.79    0.75
   1  -7  10   14.14    0.61
  -2   7 -10    7.08    0.30
  -3   7 -10   24.58    0.87
  -4   7 -10    0.74    0.10
  -5   7 -10    2.22    0.18
   5  -7  10    2.10    0.16
   6  -7  10    6.48    0.30
   7  -7  10    2.09    0.16
   9   6 -10   10.16    0.46
  -9  -6  10    9.61    0.43
   8   6 -10    5.81    0.31
  -8  -6  10    5.93    0.27
   7   6 -10    0.25    0.08
  -7  -6  10    0.18    0.05
   6   6 -10   23.55    0.93
  -6  -6  10   22.44    0.93
   5   6 -10   25.30    0.94
   5   6 -10   25.29    1.00
  -5  -6  10   24.30    1.01
   4   6 -10    0.04    0.06
   4   6 -10    0.09    0.07
   4   6 -10    0.10    0.06
  -4  -6  10    0.15    0.05
   3   6 -10   21.96    0.87
   3   6 -10   22.04    0.83
   3   6 -10   22.06    0.76
  -3  -6  10   21.41    1.11
  -3  -6  10   20.60    0.88
   2   6 -10   31.23    1.14
   2   6 -10   30.63    1.19
  -2  -6  10   28.62    1.55
  -2  -6  10   31.29    1.23
   1   6 -10    0.25    0.05
   1   6 -10    0.31    0.08
   1   6 -10    0.20    0.07
  -1  -6  10    0.31    0.08
  -1  -6  10    0.24    0.07
   0   6 -10   21.24    0.83
   0   6 -10   20.97    0.80
   0   6 -10   21.19    0.71
   0  -6  10   20.53    0.86
   0  -6  10   19.39    1.08
  -1   6 -10   12.54    0.54
  -1   6 -10   13.06    0.47
   1  -6  10   12.55    0.70
   1  -6  10   12.81    0.57
  -2   6 -10    0.23    0.07
  -3   6 -10    2.70    0.18
  -4   6 -10   11.88    0.47
  -5   6 -10    2.37    0.19
   5  -6  10    2.10    0.16
   6  -6  10    5.08    0.25
   7  -6  10    5.21    0.26
   9   5 -10    0.40    0.09
   8   5 -10   36.92    1.45
   7   5 -10   13.85    0.58
  -7  -5  10   13.47    0.56
   6   5 -10    6.24    0.31
   6   5 -10    6.63    0.29
  -6  -5  10    5.97    0.28
   5   5 -10   29.26    0.98
   5   5 -10   29.05    1.07
   5   5 -10   29.22    1.13
  -5  -5  10   28.02    1.14
  -5  -5  10   26.99    1.43
   4   5 -10   34.83    1.24
   4   5 -10   33.94    1.31
   4   5 -10   34.13    1.14
  -4  -5  10   32.98    1.68
  -4  -5  10   31.65    1.33
   3   5 -10    0.68    0.09
   3   5 -10    0.60    0.09
   3   5 -10    0.52    0.08
  -3  -5  10    0.52    0.07
  -3  -5  10    0.66    0.10
   2   5 -10   50.52    1.79
   2   5 -10   51.10    1.88
  -2  -5  10   45.25    2.45
  -2  -5  10   49.51    1.95
   1   5 -10   25.94    0.87
   1   5 -10   25.86    0.98
   1   5 -10   26.46    1.02
  -1  -5  10   26.05    1.06
  -1  -5  10   25.40    1.33
   0   5 -10    0.15    0.07
   0   5 -10    0.02    0.06
   0   5 -10   -0.11    0.04
   0  -5  10   -0.04    0.06
   0  -5  10    0.03    0.06
  -1   5 -10   31.22    1.18
  -1   5 -10   30.22    1.13
  -1   5 -10   29.12    1.02
   1  -5  10   29.22    1.23
   1  -5  10   30.86    1.55
  -2   5 -10   24.92    0.86
  -2   5 -10   24.59    0.95
  -3   5 -10    0.52    0.09
  -4   5 -10   12.40    0.48
  -5   5 -10    5.29    0.27
   5  -5  10    5.39    0.26
  -6   5 -10    0.03    0.10
   6  -5  10    0.03    0.07
   7  -5  10    2.33    0.17
   9   4 -10    8.83    0.41
   8   4 -10    2.35    0.18
   7   4 -10   29.25    1.16
   6   4 -10   38.40    1.47
   6   4 -10   38.43    1.40
   6   4 -10   37.58    1.28
  -6  -4  10   36.98    1.49
  -6  -4  10   37.99    1.88
   5   4 -10    2.96    0.17
   5   4 -10    3.11    0.20
   5   4 -10    3.14    0.19
  -5  -4  10    3.15    0.16
  -5  -4  10    3.23    0.19
   4   4 -10   74.76    2.45
   4   4 -10   74.71    2.80
   4   4 -10   74.54    2.65
  -4  -4  10   73.85    3.64
  -4  -4  10   71.04    2.89
   3   4 -10   26.52    1.07
   3   4 -10   28.94    1.02
   3   4 -10   26.84    0.94
  -3  -4  10   26.73    1.11
  -3  -4  10   27.71    1.38
  -3  -4  10   26.16    1.09
   2   4 -10    0.23    0.06
   2   4 -10    0.28    0.07
   2   4 -10    0.37    0.08
  -2  -4  10    0.19    0.06
  -2  -4  10    0.29    0.07
   1   4 -10   48.05    1.57
   1   4 -10   49.59    1.83
   1   4 -10   49.54    1.74
  -1  -4  10   46.78    1.90
  -1  -4  10   44.78    2.39
   0   4 -10   42.77    1.44
   0   4 -10   44.56    1.67
   0   4 -10   43.49    1.59
   0  -4  10   44.64    1.74
   0  -4  10   41.71    2.19
  -1   4 -10    0.53    0.08
  -1   4 -10    0.32    0.07
  -1   4 -10    0.73    0.10
   1  -4  10    0.47    0.10
   1  -4  10    0.56    0.09
  -2   4 -10   24.43    0.95
  -2   4 -10   23.35    0.92
  -2   4 -10   24.72    0.84
  -3   4 -10   25.18    0.90
  -3   4 -10   26.65    0.99
  -4   4 -10    0.32    0.09
  -4   4 -10    0.18    0.08
  -5   4 -10   17.24    0.70
  -5   4 -10   17.96    0.65
   5  -4  10   17.22    0.64
  -6   4 -10   11.08    0.49
   6  -4  10   11.04    0.44
   9   3 -10   19.42    0.79
   8   3 -10    6.29    0.32
   8   3 -10    6.59    0.31
   7   3 -10    3.35    0.20
   7   3 -10    3.56    0.18
   7   3 -10    3.35    0.21
   6   3 -10   45.87    1.64
   6   3 -10   43.57    1.51
   6   3 -10   46.73    1.73
  -6  -3  10   43.01    1.75
   5   3 -10   21.09    0.75
   5   3 -10   21.37    0.81
   5   3 -10   21.53    0.85
  -5  -3  10   20.94    0.85
  -5  -3  10   21.09    1.07
   4   3 -10    0.42    0.07
   4   3 -10    0.37    0.08
   4   3 -10    0.40    0.07
  -4  -3  10    0.43    0.06
  -4  -3  10    0.42    0.07
   3   3 -10   54.85    1.95
   3   3 -10   54.85    2.05
   3   3 -10   52.95    1.79
  -3  -3  10   54.13    2.11
  -3  -3  10   51.23    2.66
   2   3 -10   52.31    1.75
   2   3 -10   54.89    1.90
   2   3 -10   53.28    1.99
  -2  -3  10   51.81    2.06
  -2  -3  10   48.50    2.60
   1   3 -10    2.40    0.17
   1   3 -10    2.44    0.13
   1   3 -10    2.39    0.16
  -1  -3  10    2.39    0.18
  -1  -3  10    2.07    0.16
   0   3 -10   35.79    1.37
   0   3 -10   37.16    1.24
   0   3 -10   36.82    1.43
   0  -3  10   37.81    1.49
   0  -3  10   38.29    1.89
  -1   3 -10   30.82    1.02
  -1   3 -10   30.46    1.17
  -1   3 -10   30.34    1.12
   1  -3  10   30.07    1.23
   1  -3  10   28.69    1.54
  -2   3 -10    0.18    0.08
  -2   3 -10   -0.02    0.06
  -2   3 -10    0.03    0.06
  -3   3 -10   24.72    0.95
  -3   3 -10   25.01    0.87
  -4   3 -10   13.43    0.56
  -4   3 -10   13.65    0.52
  -5   3 -10    0.11    0.08
  -5   3 -10    0.37    0.10
   5  -3  10    0.13    0.07
   6  -3  10    7.09    0.32
   7  -3  10    9.29    0.39
   8   2 -10   45.84    1.71
   8   2 -10   47.17    1.79
   7   2 -10    8.75    0.38
   7   2 -10    8.82    0.40
   7   2 -10    8.57    0.35
   6   2 -10   13.32    0.56
   6   2 -10   13.02    0.49
   6   2 -10   13.04    0.53
   5   2 -10   39.39    1.43
   5   2 -10   38.74    1.32
   5   2 -10   39.50    1.50
  -5  -2  10   37.14    1.52
  -5  -2  10   38.97    1.92
   4   2 -10   24.82    0.89
   4   2 -10   26.56    1.01
   4   2 -10   25.29    0.96
  -4  -2  10   26.04    1.29
  -4  -2  10   25.17    1.02
   3   2 -10    5.91    0.27
   3   2 -10    5.06    0.26
   3   2 -10    5.45    0.24
  -3  -2  10    5.41    0.31
  -3  -2  10    5.38    0.25
   2   2 -10   41.55    1.48
   2   2 -10   39.97    1.37
   2   2 -10   41.84    1.56
  -2  -2  10   40.63    1.60
  -2  -2  10   37.96    2.02
   1   2 -10   24.24    0.96
   1   2 -10   23.78    0.82
   1   2 -10   23.43    0.85
   1   2 -10   23.97    0.92
  -1  -2  10   24.41    1.25
  -1  -2  10   26.03    0.99
   0   2 -10    0.16    0.06
   0   2 -10    0.16    0.05
   0   2 -10    0.33    0.08
   0  -2  10    0.32    0.07
   0  -2  10    0.22    0.07
  -1   2 -10   36.62    1.25
  -1   2 -10   38.01    1.37
  -1   2 -10   36.09    1.43
   1  -2  10   38.23    1.44
   1  -2  10   36.96    1.89
   1  -2  10   37.01    1.50
  -2   2 -10   15.52    0.56
  -2   2 -10   15.67    0.61
   2  -2  10   14.73    0.63
  -3   2 -10    0.44    0.09
  -3   2 -10    0.25    0.07
  -4   2 -10   13.65    0.55
  -4   2 -10   13.27    0.51
  -5   2 -10   10.83    0.44
   5  -2  10   10.77    0.43
   6  -2  10    0.02    0.07
   7  -2  10    4.45    0.24
   8   1 -10   15.20    0.63
   8   1 -10   14.93    0.61
   7   1 -10   31.02    1.08
   7   1 -10   30.89    1.17
   7   1 -10   31.68    1.22
   6   1 -10   17.86    0.69
   6   1 -10   17.76    0.64
   6   1 -10   17.65    0.72
   5   1 -10   14.71    0.62
   5   1 -10   14.23    0.55
   5   1 -10   15.17    0.59
  -5  -1  10   15.91    0.76
  -5  -1  10   14.47    0.60
   4   1 -10   60.27    2.32
   4   1 -10   62.36    2.21
   4   1 -10   59.70    2.04
  -4  -1  10   59.91    3.02
  -4  -1  10   63.25    2.40
   3   1 -10    9.24    0.38
   3   1 -10    9.01    0.40
   3   1 -10    8.73    0.35
  -3  -1  10    8.57    0.48
  -3  -1  10    9.13    0.39
   2   1 -10    6.56    0.28
   2   1 -10    6.44    0.30
   2   1 -10    6.42    0.31
  -2  -1  10    6.57    0.38
  -2  -1  10    7.05    0.31
   1   1 -10   43.10    1.60
   1   1 -10   39.48    1.40
   1   1 -10   41.20    1.37
   1   1 -10   42.40    1.52
  -1  -1  10   41.20    2.09
  -1  -1  10   41.65    1.66
   0   1 -10   12.35    0.51
   0   1 -10   12.91    0.54
   0   1 -10   12.55    0.46
   0  -1  10   11.20    0.69
   0  -1  10   13.68    0.56
   0  -1  10   14.07    0.54
  -1   1 -10    4.27    0.23
  -1   1 -10    4.48    0.20
   1  -1  10    4.12    0.24
   1  -1  10    4.14    0.29
   1  -1  10    4.47    0.23
  -2   1 -10   21.30    0.72
  -2   1 -10   20.23    0.78
   2  -1  10   19.81    0.82
  -3   1 -10   11.69    0.48
  -3   1 -10   11.34    0.45
  -4   1 -10    1.33    0.12
  -4   1 -10    1.58    0.15
  -5   1 -10   12.32    0.48
   5  -1  10   11.86    0.47
   6  -1  10    5.38    0.26
   7  -1  10    0.10    0.07
   8   0 -10    4.42    0.24
   7   0 -10   11.62    0.49
   7   0 -10   11.99    0.51
   7   0 -10   11.76    0.46
   6   0 -10   49.29    1.87
   6   0 -10   48.33    1.64
   6   0 -10   49.99    1.78
  -6   0  10   47.77    1.91
  -6   0  10   48.06    2.41
   5   0 -10    6.37    0.30
   5   0 -10    6.23    0.27
   5   0 -10    6.35    0.30
  -5   0  10    6.42    0.28
  -5   0  10    6.32    0.35
   4   0 -10   13.35    0.51
   4   0 -10   13.56    0.54
   4   0 -10   13.74    0.57
  -4   0  10   13.60    0.71
  -4   0  10   13.60    0.56
   3   0 -10   51.70    1.75
   3   0 -10   53.23    1.90
   3   0 -10   53.57    1.99
  -3   0  10   52.83    2.60
  -3   0  10   49.36    2.06
   2   0 -10   11.86    0.41
   2   0 -10   11.80    0.48
   2   0 -10   11.76    0.44
   2   0 -10   11.91    0.41
   2   0 -10   12.35    0.50
  -2   0  10   11.85    0.51
  -2   0  10   10.89    0.63
   1   0 -10   20.69    0.79
   1   0 -10   20.11    0.76
   1   0 -10   18.82    0.70
   1   0 -10   19.65    0.67
  -1   0  10   19.69    1.02
  -1   0  10   18.95    0.81
  -1   0  10   19.47    0.79
   0   0 -10   36.10    1.35
   0   0 -10   36.60    1.23
   0   0 -10   35.95    1.25
   0   0  10   36.41    1.42
   0   0  10   37.72    1.48
   0   0  10   37.15    1.86
  -1   0 -10    6.54    0.27
  -1   0 -10    6.06    0.30
   1   0  10    6.54    0.32
   1   0  10    6.20    0.39
   1   0  10    6.62    0.31
  -2   0 -10    6.81    0.32
  -2   0 -10    7.14    0.29
   2   0  10    6.88    0.33
  -3   0 -10   20.92    0.76
  -3   0 -10   21.65    0.82
  -4   0 -10    4.38    0.24
  -5   0 -10    0.99    0.12
   5   0  10    1.10    0.11
   6   0  10    9.63    0.40
   7   0  10    3.45    0.20
  12  -1 -10    8.84    0.45
  11  -1 -10   11.53    0.54
  -9   1  10   10.99    0.51
   8  -1 -10   35.55    1.38
   8  -1 -10   35.35    1.43
   7  -1 -10    1.28    0.14
   7  -1 -10    1.45    0.13
   7  -1 -10    1.39    0.15
  -7   1  10    1.38    0.13
  -7   1  10    1.47    0.10
   6  -1 -10   25.30    0.98
   6  -1 -10   23.73    0.87
   6  -1 -10   25.32    0.94
  -6   1  10   24.31    0.98
   5  -1 -10   32.07    1.13
   5  -1 -10   33.66    1.29
   5  -1 -10   33.98    1.23
  -5   1  10   32.16    1.31
   4  -1 -10    7.29    0.34
   4  -1 -10    7.36    0.30
   4  -1 -10    7.05    0.33
  -4   1  10    7.17    0.40
  -4   1  10    7.56    0.34
  -4   1  10    7.15    0.32
   3  -1 -10   18.17    0.69
   3  -1 -10   18.16    0.72
   3  -1 -10   17.71    0.64
  -3   1  10   17.51    0.92
  -3   1  10   16.86    0.72
  -3   1  10   17.56    0.73
   2  -1 -10   53.42    1.77
   2  -1 -10   54.82    2.06
   2  -1 -10   55.57    1.96
   2  -1 -10   53.44    1.81
  -2   1  10   50.82    2.06
  -2   1  10   54.04    2.69
  -2   1  10   54.60    2.13
   1  -1 -10    6.71    0.32
   1  -1 -10    7.31    0.28
   1  -1 -10    7.31    0.30
  -1   1  10    7.21    0.34
  -1   1  10    7.30    0.34
  -1   1  10    7.29    0.42
   0  -1 -10   15.73    0.57
   0  -1 -10   15.97    0.59
   0  -1 -10   16.47    0.63
   0   1  10   15.39    0.86
   0   1  10   15.90    0.68
   0   1  10   16.48    0.66
  -1  -1 -10   42.42    1.42
  -1  -1 -10   42.74    1.44
  -1  -1 -10   43.38    1.55
   1   1  10   40.52    2.14
   1   1  10   39.66    1.63
   1   1  10   44.95    1.71
  -2  -1 -10    5.60    0.25
  -2  -1 -10    4.82    0.25
  -2  -1 -10    5.51    0.27
   2   1  10    5.38    0.28
  -3  -1 -10    9.33    0.38
  -4  -1 -10   19.42    0.71
  -5  -1 -10    2.79    0.21
   5   1  10    2.74    0.18
   6   1  10    1.94    0.16
   7   1  10    4.87    0.25
  12  -2 -10    0.23    0.10
 -12   2  10    0.04    0.10
  11  -2 -10    7.03    0.37
 -11   2  10    7.04    0.38
  10  -2 -10   15.86    0.69
 -10   2  10   15.18    0.69
   9  -2 -10    0.47    0.10
  -9   2  10    0.60    0.11
  -8   2  10   19.93    0.79
  -8   2  10   18.55    0.78
   7  -2 -10   20.57    0.75
  -7   2  10   21.52    0.83
  -7   2  10   19.50    0.83
   6  -2 -10    5.83    0.28
   6  -2 -10    6.26    0.30
  -6   2  10    6.72    0.31
  -6   2  10    5.97    0.28
   5  -2 -10   21.13    0.82
   5  -2 -10   20.57    0.76
  -5   2  10   21.75    0.86
  -5   2  10   21.16    0.86
   4  -2 -10   59.31    1.99
   4  -2 -10   60.33    2.15
  -4   2  10   58.79    2.26
  -4   2  10   58.35    2.33
   3  -2 -10    0.62    0.09
   3  -2 -10    0.49    0.08
  -3   2  10    0.75    0.10
  -3   2  10    0.63    0.08
   2  -2 -10   17.92    0.62
   2  -2 -10   18.18    0.70
   2  -2 -10   17.57    0.65
  -2   2  10   18.41    0.76
  -2   2  10   17.33    0.95
  -2   2  10   19.06    0.74
   1  -2 -10   29.76    1.10
   1  -2 -10   29.16    1.02
   1  -2 -10   29.42    1.00
  -1   2  10   28.72    1.16
  -1   2  10   31.70    1.21
  -1   2  10   28.27    1.51
   0  -2 -10    9.92    0.41
   0  -2 -10   10.32    0.39
   0  -2 -10    9.98    0.44
   0   2  10   10.72    0.60
   0   2  10   10.69    0.48
   0   2  10   11.03    0.47
  -1  -2 -10   11.56    0.47
  -1  -2 -10   11.83    0.43
  -1  -2 -10   10.94    0.44
   1   2  10   11.19    0.50
   1   2  10   11.54    0.52
  -2  -2 -10   30.48    1.10
  -2  -2 -10   32.61    1.18
  -2  -2 -10   32.82    1.09
   2   2  10   30.54    1.25
  -3  -2 -10    5.45    0.26
   3   2  10    5.24    0.28
  -4  -2 -10    4.52    0.25
  -5  -2 -10   16.38    0.62
   5   2  10   16.13    0.61
   6   2  10    2.72    0.19
  12  -3 -10    3.53    0.25
 -12   3  10    3.65    0.27
  11  -3 -10    0.13    0.09
 -11   3  10    0.00    0.09
 -10   3  10   14.56    0.63
 -10   3  10   15.38    0.68
  -9   3  10   12.22    0.53
  -9   3  10   12.49    0.57
  -8   3  10    0.12    0.07
  -8   3  10    0.06    0.05
  -8   3  10    0.11    0.08
  -7   3  10   15.95    0.67
  -7   3  10   15.19    0.65
  -7   3  10   15.18    0.65
   6  -3 -10   23.10    0.86
   6  -3 -10   25.48    0.94
  -6   3  10   23.46    0.98
  -6   3  10   24.86    0.97
   5  -3 -10    0.12    0.07
   5  -3 -10    0.04    0.06
  -5   3  10    0.19    0.07
  -5   3  10   -0.01    0.06
  -5   3  10    0.02    0.05
   4  -3 -10    9.22    0.38
   4  -3 -10    9.63    0.42
  -4   3  10    9.85    0.43
  -4   3  10    9.44    0.43
  -4   3  10    9.78    0.44
   3  -3 -10   25.55    0.91
   3  -3 -10   26.85    0.99
  -3   3  10   25.86    1.04
  -3   3  10   25.34    1.06
   2  -3 -10    9.67    0.40
   2  -3 -10    9.04    0.34
   2  -3 -10    8.59    0.37
  -2   3  10    8.81    0.42
  -2   3  10    9.54    0.42
   1  -3 -10   24.78    0.89
   1  -3 -10   26.34    0.96
   1  -3 -10   24.50    0.86
   1  -3 -10   25.36    0.87
  -1   3  10   26.05    1.05
  -1   3  10   24.98    1.02
   0  -3 -10   23.62    0.87
   0  -3 -10   24.48    0.86
   0  -3 -10   25.33    0.94
   0   3  10   25.34    1.00
   0   3  10   25.44    1.04
  -1  -3 -10    0.14    0.07
  -1  -3 -10    0.19    0.06
  -1  -3 -10    0.14    0.08
   1   3  10    0.14    0.07
  -2  -3 -10    3.07    0.19
   2   3  10    2.65    0.20
  -3  -3 -10   14.21    0.54
   3   3  10   13.96    0.61
  -4  -3 -10    4.09    0.24
  -5  -3 -10    2.68    0.21
   5   3  10    2.78    0.19
   6   3  10    6.31    0.30
 -11   4  10    6.10    0.36
 -10   4  10    2.33    0.21
 -10   4  10    1.91    0.15
  -9   4  10    7.30    0.35
  -9   4  10    7.37    0.39
  -8   4  10   17.12    0.75
  -8   4  10   17.34    0.73
  -7   4  10    0.16    0.06
  -7   4  10    0.13    0.07
  -7   4  10    0.19    0.08
  -6   4  10   25.47    1.08
  -6   4  10   26.95    1.09
  -6   4  10   26.78    1.06
   5  -4 -10   15.31    0.61
   5  -4 -10   14.26    0.56
  -5   4  10   15.51    0.64
  -5   4  10   14.56    0.63
  -5   4  10   14.69    0.65
   4  -4 -10    0.13    0.08
   4  -4 -10    0.19    0.07
  -4   4  10    0.17    0.08
  -4   4  10    0.14    0.07
  -4   4  10    0.23    0.07
   3  -4 -10   24.59    0.94
   3  -4 -10   24.80    0.87
  -3   4  10   24.69    1.01
  -3   4  10   24.46    0.99
  -3   4  10   24.06    1.01
   2  -4 -10   11.17    0.43
   2  -4 -10   10.60    0.40
   2  -4 -10   10.68    0.46
  -2   4  10   10.93    0.50
  -2   4  10   11.42    0.50
  -2   4  10   11.29    0.50
   1  -4 -10    0.10    0.06
   1  -4 -10    0.09    0.05
   1  -4 -10    0.03    0.07
  -1   4  10   -0.01    0.06
  -1   4  10    0.05    0.07
   0  -4 -10    4.84    0.23
   0  -4 -10    5.24    0.26
   0  -4 -10    5.13    0.24
   0  -4 -10    4.76    0.24
   0   4  10    4.79    0.28
   0   4  10    5.35    0.29
  -1  -4 -10   23.33    0.79
   1   4  10   20.80    0.90
  -2  -4 -10    0.34    0.08
   2   4  10    0.37    0.09
  -3  -4 -10   12.76    0.49
   3   4  10   11.86    0.55
  -4  -4 -10    3.62    0.23
  -5  -4 -10    0.15    0.10
   5   4  10    0.13    0.08
 -11   5  10    3.10    0.25
 -10   5  10   16.10    0.73
 -10   5  10   18.04    0.77
  -9   5  10    0.45    0.09
  -9   5  10    0.50    0.11
  -8   5  10   26.65    1.08
  -8   5  10   25.21    1.09
  -7   5  10    3.20    0.21
  -7   5  10    3.37    0.24
  -7   5  10    3.34    0.21
  -6   5  10   -0.02    0.08
  -6   5  10    0.05    0.07
  -6   5  10    0.01    0.07
  -5   5  10   14.93    0.66
  -5   5  10   14.78    0.65
  -5   5  10   15.32    0.65
  -4   5  10   26.17    1.05
  -4   5  10   25.41    1.05
  -4   5  10   23.97    1.02
   3  -5 -10    2.04    0.17
  -3   5  10    1.87    0.18
  -3   5  10    2.22    0.18
  -3   5  10    2.01    0.17
   2  -5 -10   25.55    0.89
   2  -5 -10   25.89    1.00
  -2   5  10   26.62    1.09
  -2   5  10   26.40    1.06
   1  -5 -10   14.93    0.58
   1  -5 -10   13.79    0.51
  -1   5  10   13.30    0.61
  -1   5  10   14.03    0.63
   0  -5 -10    1.77    0.15
   0  -5 -10    1.57    0.14
   0   5  10    1.47    0.16
   0   5  10    1.60    0.17
  -1  -5 -10   16.90    0.62
  -1  -5 -10   16.32    0.61
   1   5  10   17.35    0.73
   1   5  10   16.18    0.72
  -2  -5 -10    4.97    0.26
   2   5  10    4.06    0.28
   2   5  10    5.22    0.29
  -3  -5 -10    0.34    0.09
   3   5  10    0.23    0.09
   3   5  10    0.22    0.10
  -4  -5 -10    6.14    0.31
  -5  -5 -10    9.57    0.41
   5   5  10    8.77    0.39
 -10   6  10    4.46    0.30
 -10   6  10    4.54    0.26
  -9   6  10    0.65    0.13
  -9   6  10    0.48    0.10
  -8   6  10    0.32    0.09
  -8   6  10    0.55    0.12
  -7   6  10   12.54    0.56
  -7   6  10   11.66    0.55
  -7   6  10   12.85    0.59
  -6   6  10   18.56    0.80
  -6   6  10   17.24    0.77
  -6   6  10   19.01    0.79
  -5   6  10    8.63    0.43
  -5   6  10    9.54    0.46
  -5   6  10    9.21    0.44
  -4   6  10   15.08    0.67
  -4   6  10   15.44    0.65
  -4   6  10   14.07    0.65
   3  -6 -10    4.76    0.20
  -3   6  10    4.91    0.29
  -3   6  10    5.16    0.29
  -3   6  10    5.55    0.30
   2  -6 -10    0.17    0.05
  -2   6  10    0.12    0.09
  -2   6  10    0.22    0.09
  -2   6  10    0.20    0.08
   1  -6 -10   22.79    0.84
  -1   6  10   23.23    1.00
  -1   6  10   25.49    1.03
  -1   6  10   25.44    1.03
   0  -6 -10   15.17    0.58
   0   6  10   17.39    0.71
   0   6  10   15.01    0.69
  -1  -6 -10    0.69    0.09
   1   6  10    0.89    0.13
   1   6  10    0.82    0.13
  -2  -6 -10   14.43    0.56
  -2  -6 -10   14.30    0.56
   2   6  10   15.75    0.67
   2   6  10   13.85    0.65
  -3  -6 -10    8.07    0.36
  -3  -6 -10    7.48    0.35
   3   6  10    7.21    0.40
   3   6  10    8.46    0.42
  -4  -6 -10    0.40    0.11
   4   6  10    0.58    0.13
 -10   7  10    3.69    0.28
  -9   7  10    9.57    0.47
  -9   7  10   10.47    0.51
  -8   7  10    0.86    0.15
  -8   7  10    0.97    0.13
  -7   7  10    7.64    0.38
  -7   7  10    7.15    0.38
  -7   7  10    7.95    0.41
  -6   7  10    4.65    0.28
  -6   7  10    4.98    0.30
  -6   7  10    4.49    0.28
  -5   7  10    4.23    0.26
  -5   7  10    3.71    0.26
  -5   7  10    3.97    0.25
  -4   7  10    0.28    0.10
  -4   7  10   -0.02    0.10
  -4   7  10    0.11    0.08
  -3   7  10   30.91    1.30
  -3   7  10   31.35    1.29
  -3   7  10   31.27    1.26
   2  -7 -10    5.96    0.25
  -2   7  10    5.69    0.33
  -2   7  10    5.95    0.34
  -2   7  10    6.25    0.35
   1  -7 -10    4.36    0.22
  -1   7  10    5.30    0.31
  -1   7  10    4.74    0.29
   0  -7 -10    6.03    0.28
   0   7  10    6.19    0.35
   0   7  10    6.45    0.35
  -1  -7 -10    9.09    0.38
   1   7  10    9.99    0.48
   1   7  10    8.89    0.46
  -2  -7 -10    0.06    0.07
   2   7  10    0.09    0.09
   2   7  10    0.15    0.10
  -3  -7 -10   10.21    0.44
   3   7  10   11.90    0.54
   3   7  10    9.67    0.50
  -9   8  10    2.02    0.22
  -8   8  10   13.89    0.64
  -8   8  10   14.26    0.67
  -7   8  10    2.09    0.19
  -7   8  10    2.21    0.22
  -7   8  10    2.17    0.20
  -6   8  10    6.98    0.37
  -6   8  10    7.08    0.37
  -6   8  10    7.12    0.40
  -5   8  10   18.07    0.82
  -5   8  10   19.24    0.83
  -5   8  10   18.79    0.81
  -4   8  10    0.73    0.12
  -4   8  10    0.60    0.12
  -4   8  10    0.64    0.13
   3  -8 -10    4.03    0.18
  -3   8  10    4.19    0.28
  -3   8  10    3.96    0.27
  -3   8  10    4.02    0.27
   2  -8 -10    6.89    0.28
  -2   8  10    7.46    0.39
  -2   8  10    6.62    0.38
   1  -8 -10    9.53    0.37
  -1   8  10    9.95    0.49
  -1   8  10    8.84    0.47
   0  -8 -10    1.55    0.14
   0   8  10    1.62    0.18
   0   8  10    1.22    0.16
  -1  -8 -10   14.24    0.58
   1   8  10   17.29    0.72
   1   8  10   14.83    0.69
  -2  -8 -10    0.98    0.11
   2   8  10    0.99    0.15
   2   8  10    1.41    0.17
  -8   9  10    2.44    0.23
  -7   9  10    5.73    0.33
  -7   9  10    5.30    0.32
  -7   9  10    5.84    0.35
  -6   9  10    3.49    0.25
  -6   9  10    3.45    0.27
  -6   9  10    3.44    0.25
  -5   9  10    4.28    0.29
  -5   9  10    4.49    0.30
  -5   9  10    4.34    0.28
  -4   9  10   16.40    0.73
  -4   9  10   15.79    0.71
  -4   9  10   15.64    0.72
  -3   9  10    2.38    0.22
  -3   9  10    2.60    0.23
   2  -9 -10    5.38    0.23
  -2   9  10    5.77    0.33
  -2   9  10    4.90    0.32
   1  -9 -10   10.50    0.41
  -1   9  10   10.03    0.52
  -1   9  10   11.66    0.54
   0  -9 -10    0.84    0.10
   0   9  10    0.91    0.15
   0   9  10    0.75    0.14
  -1  -9 -10    0.42    0.08
   1   9  10    0.31    0.11
   1   9  10    0.68    0.14
  -6  10  10    6.42    0.37
  -6  10  10    7.31    0.40
  -5  10  10    0.09    0.11
  -5  10  10    0.04    0.09
  -4  10  10    2.20    0.21
  -4  10  10    2.14    0.22
  -3  10  10    9.28    0.48
  -3  10  10    9.04    0.47
   2 -10 -10    2.34    0.14
  -2  10  10    2.55    0.24
  -2  10  10    2.48    0.22
   1 -10 -10    3.80    0.19
  -1  10  10    3.70    0.28
  -1  10  10    3.99    0.29
   4  14 -11    0.05    0.11
   3  14 -11    9.25    0.48
   2  14 -11    1.36    0.18
   1  14 -11    0.15    0.11
   1  14 -11   -0.10    0.06
   0  14 -11    1.89    0.15
  -1  14 -11    5.08    0.26
   6  13 -11    1.05    0.16
   5  13 -11    8.36    0.46
  -5 -13  11    8.90    0.44
   4  13 -11    1.84    0.21
  -4 -13  11    2.21    0.21
   3  13 -11    0.19    0.11
  -3 -13  11    0.15    0.09
   2  13 -11    7.66    0.42
  -2 -13  11    8.24    0.42
   1  13 -11   11.97    0.45
   1  13 -11   12.39    0.57
   1  13 -11   11.78    0.54
   0  13 -11    2.35    0.17
   0  13 -11    2.26    0.21
  -1  13 -11    6.54    0.30
  -2  13 -11    0.88    0.12
  -3  13 -11   -0.08    0.08
   8  12 -11    0.85    0.15
   7  12 -11    9.34    0.48
  -7 -12  11    9.00    0.45
   6  12 -11    3.26    0.26
  -6 -12  11    3.26    0.22
   5  12 -11    1.28    0.17
  -5 -12  11    1.58    0.16
   4  12 -11   12.13    0.59
  -4 -12  11   12.84    0.58
   3  12 -11    5.50    0.33
  -3 -12  11    5.64    0.32
   2  12 -11    3.48    0.25
  -2 -12  11    3.39    0.25
   1  12 -11    3.68    0.25
   1  12 -11    3.67    0.25
   1  12 -11    3.24    0.18
   0  12 -11    4.66    0.28
   0  12 -11    3.87    0.22
  -1  12 -11    0.85    0.11
  -2  12 -11   14.93    0.57
  -3  12 -11    4.79    0.26
  -4  12 -11    2.00    0.19
   8  11 -11    1.79    0.20
  -8 -11  11    1.70    0.16
   7  11 -11    4.69    0.30
  -7 -11  11    4.57    0.27
   6  11 -11    9.21    0.47
  -6 -11  11    9.59    0.45
   5  11 -11    4.33    0.28
  -5 -11  11    4.02    0.25
   4  11 -11    2.68    0.22
  -4 -11  11    2.17    0.18
   3  11 -11   13.77    0.64
  -3 -11  11   14.54    0.64
   2  11 -11    5.61    0.30
   2  11 -11    5.15    0.31
  -2 -11  11    5.24    0.31
   1  11 -11    2.08    0.20
   1  11 -11    2.09    0.14
   1  11 -11    2.21    0.21
  -1 -11  11    2.52    0.21
   0  11 -11   16.27    0.60
   0  11 -11   17.15    0.72
  -1  11 -11    0.21    0.08
  -2  11 -11    1.30    0.13
  -3  11 -11    0.78    0.11
  -4  11 -11    7.08    0.34
   9  10 -11    1.43    0.17
  -9 -10  11    2.05    0.16
   8  10 -11    5.70    0.34
  -8 -10  11    6.06    0.31
   7  10 -11    5.53    0.33
  -7 -10  11    6.07    0.31
   6  10 -11    3.78    0.26
  -6 -10  11    3.90    0.23
   5  10 -11   20.85    0.90
  -5 -10  11   21.76    0.91
   4  10 -11    1.60    0.18
  -4 -10  11    1.61    0.15
   3  10 -11    3.94    0.24
   3  10 -11    3.85    0.26
  -3 -10  11    3.97    0.25
   2  10 -11   14.52    0.63
   2  10 -11   14.82    0.66
  -2 -10  11   16.02    0.68
   1  10 -11    3.82    0.19
   1  10 -11    3.92    0.25
   1  10 -11    4.01    0.25
  -1 -10  11    3.91    0.25
   0  10 -11    4.07    0.26
   0  10 -11    4.16    0.22
   0 -10  11    4.77    0.28
  -1  10 -11   15.17    0.56
  -2  10 -11    4.05    0.23
  -3  10 -11   10.39    0.43
  -4  10 -11    8.81    0.39
  -5  10 -11    0.03    0.09
  10   9 -11    4.85    0.30
   9   9 -11    0.23    0.10
  -9  -9  11    0.29    0.07
   8   9 -11    7.87    0.41
  -8  -9  11    8.33    0.39
   7   9 -11    6.87    0.37
  -7  -9  11    7.03    0.34
   6   9 -11    0.07    0.08
  -6  -9  11    0.00    0.06
   5   9 -11    2.09    0.19
  -5  -9  11    1.93    0.16
   4   9 -11   14.01    0.64
   4   9 -11   15.41    0.60
  -4  -9  11   14.51    0.64
   3   9 -11    5.62    0.31
   3   9 -11    5.89    0.30
  -3  -9  11    5.49    0.30
   2   9 -11   12.35    0.54
   2   9 -11   12.54    0.56
  -2  -9  11   12.99    0.57
   1   9 -11   15.79    0.68
   1   9 -11   16.17    0.59
   1   9 -11   17.35    0.71
  -1  -9  11   17.73    0.73
   0   9 -11    1.54    0.13
   0   9 -11    1.53    0.16
   0  -9  11    1.50    0.17
  -1   9 -11    4.17    0.22
  -2   9 -11   17.36    0.64
  -3   9 -11    4.20    0.24
  -4   9 -11    2.85    0.20
  -5   9 -11   18.62    0.70
  -6   9 -11    2.45    0.21
   6  -9  11    1.79    0.16
  10   8 -11    9.00    0.44
 -10  -8  11    8.90    0.41
   9   8 -11    6.28    0.35
  -9  -8  11    6.57    0.32
   8   8 -11    0.00    0.08
  -8  -8  11    0.07    0.06
   7   8 -11   10.57    0.50
  -7  -8  11   10.71    0.47
   6   8 -11   19.31    0.80
  -6  -8  11   18.48    0.79
   5   8 -11    0.15    0.09
  -5  -8  11    0.23    0.07
   4   8 -11   23.59    0.91
   4   8 -11   23.33    0.97
  -4  -8  11   24.24    0.98
   3   8 -11    7.86    0.39
   3   8 -11    8.43    0.38
  -3  -8  11    8.21    0.39
   2   8 -11    0.17    0.08
   2   8 -11    0.40    0.09
  -2  -8  11    0.29    0.08
   1   8 -11    6.63    0.34
   1   8 -11    7.14    0.34
   1   8 -11    6.81    0.27
  -1  -8  11    6.76    0.35
   0   8 -11   28.18    1.11
   0   8 -11   27.42    0.95
   0   8 -11   26.48    1.07
   0  -8  11   29.12    1.16
  -1   8 -11    0.90    0.09
   1  -8  11    0.91    0.12
  -2   8 -11   10.12    0.40
  -3   8 -11   11.41    0.45
  -4   8 -11    2.86    0.20
  -5   8 -11    0.92    0.13
  -6   8 -11    9.58    0.41
   6  -8  11    8.94    0.39
  10   7 -11    0.37    0.10
 -10  -7  11    0.40    0.07
   9   7 -11   11.59    0.53
  -9  -7  11   11.66    0.50
   8   7 -11   15.76    0.68
  -8  -7  11   15.59    0.66
   7   7 -11    0.35    0.09
  -7  -7  11    0.33    0.07
   6   7 -11   22.36    0.90
  -6  -7  11   21.16    0.89
   5   7 -11   23.46    0.88
   5   7 -11   23.02    0.93
  -5  -7  11   21.78    0.93
   4   7 -11    0.62    0.10
   4   7 -11    0.41    0.09
  -4  -7  11    0.66    0.08
   3   7 -11   33.98    1.26
   3   7 -11   33.13    1.15
   3   7 -11   33.56    1.32
  -3  -7  11   33.73    1.36
   2   7 -11   37.55    1.48
   2   7 -11   37.29    1.41
  -2  -7  11   38.76    1.53
   1   7 -11    0.92    0.12
   1   7 -11    0.80    0.11
   1   7 -11    0.79    0.07
  -1  -7  11    0.79    0.10
   0   7 -11   23.53    0.94
   0   7 -11   23.28    0.91
   0   7 -11   22.99    0.80
   0  -7  11   23.40    0.97
  -1   7 -11   15.02    0.56
  -1   7 -11   15.16    0.64
   1  -7  11   16.43    0.69
  -2   7 -11    1.67    0.16
  -3   7 -11   10.19    0.41
  -4   7 -11   15.08    0.58
  -5   7 -11    0.37    0.10
  -6   7 -11    1.17    0.14
  -6   7 -11    1.39    0.18
   6  -7  11    1.22    0.12
  10   6 -11   11.48    0.52
   9   6 -11    0.38    0.10
   8   6 -11   18.90    0.78
  -8  -6  11   18.30    0.76
   7   6 -11   17.93    0.75
  -7  -6  11   17.71    0.73
   6   6 -11    0.02    0.07
   6   6 -11    0.00    0.07
  -6  -6  11    0.02    0.04
   5   6 -11   29.05    1.18
   5   6 -11   30.58    1.12
  -5  -6  11   29.77    1.20
   4   6 -11   27.97    1.11
   4   6 -11   28.74    1.06
   4   6 -11   27.53    0.97
  -4  -6  11   27.33    1.13
   3   6 -11    0.18    0.08
   3   6 -11    0.06    0.06
   3   6 -11    0.14    0.07
  -3  -6  11    0.23    0.06
   2   6 -11   24.12    0.92
   2   6 -11   24.66    0.96
  -2  -6  11   22.84    0.98
   1   6 -11   37.52    1.26
   1   6 -11   37.27    1.40
   1   6 -11   38.94    1.47
  -1  -6  11   37.28    1.52
   0   6 -11    1.38    0.15
   0   6 -11    1.39    0.14
   0   6 -11    1.43    0.12
   0  -6  11    1.45    0.16
  -1   6 -11   25.92    0.92
  -1   6 -11   26.63    1.03
  -1   6 -11   26.24    1.06
   1  -6  11   27.82    1.11
  -2   6 -11   27.90    0.96
  -2   6 -11   27.31    1.06
  -3   6 -11    0.08    0.08
  -3   6 -11    0.30    0.11
  -4   6 -11    7.20    0.37
  -4   6 -11    7.27    0.33
  -5   6 -11   11.51    0.47
  -5   6 -11   11.39    0.51
  -6   6 -11    1.24    0.16
  -6   6 -11    0.86    0.13
   6  -6  11    0.89    0.11
   9   5 -11    8.57    0.41
   8   5 -11    0.06    0.07
   7   5 -11   21.61    0.87
  -7  -5  11   20.96    0.86
   6   5 -11   17.71    0.68
   6   5 -11   17.21    0.72
  -6  -5  11   16.87    0.71
   5   5 -11    0.28    0.08
   5   5 -11    0.25    0.07
   5   5 -11    0.38    0.09
  -5  -5  11    0.31    0.06
   4   5 -11   27.75    0.96
   4   5 -11   27.83    1.10
   4   5 -11   29.01    1.04
  -4  -5  11   25.79    1.11
   3   5 -11   26.14    1.06
   3   5 -11   27.88    1.01
   3   5 -11   26.30    0.93
  -3  -5  11   26.43    1.08
   2   5 -11    0.22    0.07
   2   5 -11    0.32    0.08
   2   5 -11    0.22    0.07
  -2  -5  11    0.25    0.06
   1   5 -11   22.33    0.76
   1   5 -11   23.30    0.86
   1   5 -11   22.32    0.90
  -1  -5  11   21.30    0.92
   0   5 -11   23.60    0.91
   0   5 -11   24.38    0.94
   0   5 -11   23.06    0.81
   0  -5  11   23.33    0.98
  -1   5 -11    0.42    0.09
  -1   5 -11    0.45    0.09
  -1   5 -11    0.27    0.07
   1  -5  11    0.38    0.09
  -2   5 -11   13.29    0.50
  -2   5 -11   13.38    0.56
  -3   5 -11   16.91    0.69
  -3   5 -11   16.73    0.62
  -4   5 -11    1.41    0.14
  -4   5 -11    1.67    0.18
  -5   5 -11    6.32    0.31
  -5   5 -11    6.49    0.33
  -6   5 -11    8.80    0.41
  -6   5 -11    9.24    0.40
   6  -5  11    8.32    0.37
   7  -5  11    0.26    0.08
   9   4 -11   14.56    0.62
   8   4 -11    5.84    0.31
   7   4 -11    2.10    0.17
   7   4 -11    2.21    0.17
  -7  -4  11    2.14    0.12
   6   4 -11   25.32    0.93
   6   4 -11   24.56    0.86
   6   4 -11   24.07    0.98
  -6  -4  11   23.78    0.97
   5   4 -11   14.87    0.64
   5   4 -11   15.64    0.61
   5   4 -11   15.77    0.57
  -5  -4  11   14.73    0.63
   4   4 -11    3.27    0.20
   4   4 -11    3.25    0.18
   4   4 -11    3.20    0.20
  -4  -4  11    3.16    0.18
   3   4 -11   28.36    1.00
   3   4 -11   28.60    1.13
   3   4 -11   29.27    1.08
  -3  -4  11   28.47    1.16
   2   4 -11   22.25    0.83
   2   4 -11   20.87    0.77
   2   4 -11   22.21    0.87
  -2  -4  11   21.01    0.89
   1   4 -11    0.92    0.11
   1   4 -11    1.02    0.12
   1   4 -11    0.70    0.07
  -1  -4  11    0.84    0.10
   0   4 -11   33.59    1.32
   0   4 -11   34.27    1.27
   0   4 -11   33.89    1.14
   0  -4  11   34.16    1.38
  -1   4 -11   14.46    0.52
  -1   4 -11   14.32    0.59
  -1   4 -11   14.62    0.58
   1  -4  11   13.57    0.78
   1  -4  11   13.97    0.62
  -2   4 -11    0.31    0.09
  -2   4 -11   -0.07    0.06
  -3   4 -11   14.36    0.55
  -3   4 -11   14.92    0.60
  -4   4 -11   10.52    0.42
  -4   4 -11   10.27    0.46
  -5   4 -11    0.12    0.09
  -5   4 -11   -0.14    0.08
  -6   4 -11    2.32    0.20
   6  -4  11    2.32    0.18
   7  -4  11    3.80    0.22
   9   3 -11    5.74    0.30
   8   3 -11   25.15    1.02
   8   3 -11   25.79    0.98
   7   3 -11    5.58    0.26
   7   3 -11    5.28    0.28
   7   3 -11    5.52    0.29
   6   3 -11   10.07    0.45
   6   3 -11   10.43    0.43
   6   3 -11    9.75    0.39
  -6  -3  11    9.65    0.42
   5   3 -11   30.82    1.14
   5   3 -11   31.33    1.20
   5   3 -11   30.34    1.05
  -5  -3  11   28.69    1.20
   4   3 -11   12.85    0.53
   4   3 -11   12.85    0.49
   4   3 -11   13.36    0.55
  -4  -3  11   12.63    0.54
   3   3 -11    5.11    0.27
   3   3 -11    5.08    0.24
   3   3 -11    5.66    0.27
  -3  -3  11    5.23    0.26
   2   3 -11   44.96    1.59
   2   3 -11   46.28    1.81
   2   3 -11   49.62    1.73
  -2  -3  11   47.34    1.87
   1   3 -11   13.41    0.55
   1   3 -11   13.72    0.53
   1   3 -11   12.03    0.49
   1   3 -11   12.58    0.46
  -1  -3  11   13.04    0.56
   0   3 -11    1.39    0.12
   0   3 -11    1.47    0.14
   0   3 -11    1.82    0.16
   0  -3  11    1.42    0.16
   0  -3  11    1.43    0.16
  -1   3 -11   26.10    0.97
  -1   3 -11   24.75    1.00
  -1   3 -11   25.43    0.87
   1  -3  11   26.50    1.05
   1  -3  11   24.05    1.32
  -2   3 -11   20.60    0.73
  -2   3 -11   20.49    0.80
  -3   3 -11    0.52    0.09
  -3   3 -11    1.06    0.12
  -4   3 -11   11.42    0.49
  -4   3 -11   11.09    0.45
  -5   3 -11    9.08    0.42
  -5   3 -11    9.37    0.40
  -6   3 -11   -0.17    0.08
   6  -3  11   -0.08    0.07
   7  -3  11    6.66    0.31
   9   2 -11    3.81    0.23
   8   2 -11    9.71    0.43
   8   2 -11   10.12    0.45
   7   2 -11   33.40    1.25
   7   2 -11   33.67    1.30
   7   2 -11   32.48    1.15
   6   2 -11    8.19    0.37
   6   2 -11    8.39    0.35
   6   2 -11    8.32    0.38
  -6  -2  11    8.34    0.35
   5   2 -11   14.41    0.56
   5   2 -11   15.03    0.60
   5   2 -11   15.54    0.63
  -5  -2  11   15.11    0.62
   4   2 -11   55.69    1.97
   4   2 -11   52.92    2.07
   4   2 -11   54.05    1.81
  -4  -2  11   53.18    2.13
   3   2 -11    7.37    0.33
   3   2 -11    7.19    0.33
   3   2 -11    6.76    0.30
  -3  -2  11    6.85    0.33
   2   2 -11    9.56    0.41
   2   2 -11    8.80    0.36
   2   2 -11    9.58    0.40
  -2  -2  11    8.36    0.40
   1   2 -11   34.42    1.16
   1   2 -11   35.39    1.36
   1   2 -11   34.90    1.30
   1   2 -11   33.70    1.20
  -1  -2  11   35.90    1.41
   0   2 -11   20.91    0.77
   0   2 -11   18.87    0.79
   0   2 -11   19.92    0.68
   0  -2  11   20.05    0.82
   0  -2  11   18.12    1.03
  -1   2 -11    4.58    0.22
  -1   2 -11    4.58    0.25
  -1   2 -11    4.67    0.25
   1  -2  11    4.83    0.25
   1  -2  11    4.76    0.27
   1  -2  11    4.51    0.31
  -2   2 -11   19.96    0.77
  -2   2 -11   19.23    0.70
  -3   2 -11    8.45    0.38
  -3   2 -11    8.31    0.35
  -4   2 -11    0.14    0.08
  -4   2 -11   -0.09    0.07
  -5   2 -11    8.20    0.37
  -6   2 -11    4.53    0.26
   6  -2  11    4.12    0.23
   7  -2  11   -0.01    0.07
   9   1 -11   14.01    0.59
   8   1 -11    4.12    0.24
   8   1 -11    4.03    0.24
   7   1 -11    8.39    0.38
   7   1 -11    8.42    0.35
   7   1 -11    8.62    0.39
  -7  -1  11    8.12    0.35
   6   1 -11   46.07    1.74
   6   1 -11   43.98    1.53
   6   1 -11   45.29    1.66
  -6  -1  11   44.46    1.77
   5   1 -11    8.81    0.38
   5   1 -11    8.71    0.39
   5   1 -11    8.12    0.35
  -5  -1  11    8.52    0.37
   4   1 -11   13.36    0.50
   4   1 -11   13.14    0.56
   4   1 -11   14.27    0.55
  -4  -1  11   12.60    0.56
   3   1 -11   50.63    1.71
   3   1 -11   51.32    1.94
   3   1 -11   51.18    1.85
  -3  -1  11   49.51    2.00
   2   1 -11   20.06    0.76
   2   1 -11   19.29    0.79
   2   1 -11   18.11    0.70
  -2  -1  11   20.13    0.81
   1   1 -11   16.98    0.65
   1   1 -11   15.56    0.60
   1   1 -11   16.02    0.57
   1   1 -11   16.33    0.68
  -1  -1  11   16.84    0.70
  -1  -1  11   17.15    0.68
   0   1 -11   37.98    1.46
   0   1 -11   35.25    1.28
   0   1 -11   37.84    1.26
   0   1 -11   38.67    1.39
   0  -1  11   38.51    1.52
   0  -1  11   36.83    1.46
  -1   1 -11    5.89    0.26
  -1   1 -11    5.92    0.29
   1  -1  11    5.73    0.29
   1  -1  11    5.65    0.30
  -2   1 -11    0.95    0.10
  -2   1 -11    1.18    0.13
  -3   1 -11   19.32    0.70
  -3   1 -11   19.24    0.76
  -4   1 -11    5.05    0.26
  -5   1 -11    1.30    0.14
   5  -1  11    1.35    0.13
  -6   1 -11    3.46    0.23
   6  -1  11    3.15    0.20
   9   0 -11    9.84    0.44
   8   0 -11   26.43    1.04
   8   0 -11   25.67    1.00
   7   0 -11    0.46    0.09
   7   0 -11    0.37    0.08
   7   0 -11    0.38    0.07
  -7   0  11    0.36    0.05
   6   0 -11    9.68    0.40
   6   0 -11   10.35    0.45
   6   0 -11   10.39    0.44
  -6   0  11    9.96    0.43
   5   0 -11   24.92    0.94
   5   0 -11   23.64    0.86
   5   0 -11   23.90    0.97
  -5   0  11   25.05    0.98
   4   0 -11   12.37    0.51
   4   0 -11   12.08    0.47
   4   0 -11   12.56    0.53
  -4   0  11   12.19    0.52
   3   0 -11   11.54    0.50
   3   0 -11   12.06    0.49
   3   0 -11   11.04    0.45
  -3   0  11   11.96    0.51
   2   0 -11   40.63    1.48
   2   0 -11   39.99    1.55
   2   0 -11   38.04    1.36
  -2   0  11   37.04    1.60
  -2   0  11   44.63    1.56
   1   0 -11    9.43    0.41
   1   0 -11    9.17    0.38
   1   0 -11    9.28    0.35
   1   0 -11    9.15    0.42
  -1   0  11    9.96    0.43
  -1   0  11    9.64    0.43
   0   0 -11    2.81    0.18
   0   0 -11    3.04    0.19
   0   0 -11    3.22    0.17
   0   0  11    3.01    0.20
   0   0  11    3.19    0.20
  -1   0 -11   37.42    1.24
  -1   0 -11   35.55    1.26
  -1   0 -11   36.19    1.35
   1   0  11   37.51    1.49
   1   0  11   35.71    1.42
  -2   0 -11    7.58    0.35
  -2   0 -11    7.49    0.32
   2   0  11    7.80    0.36
  -3   0 -11    7.06    0.33
  -3   0 -11    6.91    0.31
  -4   0 -11    8.04    0.35
  -5   0 -11    3.15    0.22
  -6   0 -11    1.14    0.13
   6   0  11    0.84    0.11
   8  -1 -11    6.54    0.31
  -8   1  11    5.66    0.31
  -8   1  11    6.16    0.28
   7  -1 -11   19.82    0.82
   7  -1 -11   20.08    0.79
  -7   1  11   19.44    0.81
  -7   1  11   20.74    0.82
   6  -1 -11    2.02    0.15
   6  -1 -11    2.16    0.17
   6  -1 -11    2.29    0.17
  -6   1  11    1.90    0.17
  -6   1  11    2.19    0.14
   5  -1 -11   26.78    1.10
   5  -1 -11   26.45    0.97
   5  -1 -11   26.88    1.05
  -5   1  11   30.20    1.11
  -5   1  11   28.09    1.11
   4  -1 -11   21.41    0.81
   4  -1 -11   20.84    0.75
   4  -1 -11   21.77    0.85
  -4   1  11   20.21    0.85
  -4   1  11   20.18    0.85
   3  -1 -11    0.20    0.07
   3  -1 -11    0.23    0.08
   3  -1 -11    0.15    0.06
  -3   1  11    0.25    0.07
  -3   1  11    0.25    0.06
   2  -1 -11    6.72    0.30
   2  -1 -11    7.23    0.33
   2  -1 -11    6.76    0.26
  -2   1  11    7.28    0.34
  -2   1  11    6.62    0.33
   1  -1 -11   21.95    0.76
   1  -1 -11   22.29    0.86
   1  -1 -11   22.08    0.80
  -1   1  11   23.24    0.91
  -1   1  11   22.26    0.93
   0  -1 -11    3.44    0.20
   0  -1 -11    3.88    0.19
   0  -1 -11    3.46    0.21
   0   1  11    3.86    0.22
   0   1  11    3.57    0.22
  -1  -1 -11    5.84    0.29
  -1  -1 -11    6.14    0.27
   1   1  11    6.04    0.31
   1   1  11    6.09    0.32
  -2  -1 -11    9.78    0.44
  -2  -1 -11   10.55    0.41
   2   1  11   10.45    0.46
  -3  -1 -11    5.78    0.28
  -4  -1 -11    1.87    0.18
  -5  -1 -11   12.37    0.50
   6   1  11    0.41    0.10
 -12   2  11    5.60    0.34
 -11   2  11    0.19    0.10
 -10   2  11   14.68    0.66
  -9   2  11   10.76    0.50
  -9   2  11   10.68    0.46
  -8   2  11    1.78    0.13
  -8   2  11    1.84    0.16
   7  -2 -11   22.95    0.92
  -7   2  11   22.25    0.95
  -7   2  11   25.18    0.95
   6  -2 -11   10.85    0.46
  -6   2  11   10.15    0.46
  -6   2  11   10.87    0.48
   5  -2 -11    0.00    0.06
   5  -2 -11   -0.03    0.07
  -5   2  11    0.05    0.05
  -5   2  11    0.03    0.06
   4  -2 -11   17.46    0.67
   4  -2 -11   18.39    0.72
  -4   2  11   17.99    0.76
  -4   2  11   19.11    0.76
   3  -2 -11   33.75    1.27
   3  -2 -11   33.37    1.18
  -3   2  11   33.92    1.37
  -3   2  11   35.04    1.34
   2  -2 -11    0.01    0.07
   2  -2 -11    0.19    0.04
   2  -2 -11    0.16    0.07
  -2   2  11    0.08    0.06
  -2   2  11    0.13    0.06
   1  -2 -11   23.96    0.84
   1  -2 -11   23.23    0.87
   1  -2 -11   24.42    0.93
   1  -2 -11   24.16    0.84
  -1   2  11   25.56    1.02
  -1   2  11   25.44    0.99
   0  -2 -11   13.31    0.54
   0  -2 -11   13.37    0.49
   0   2  11   12.63    0.57
   0   2  11   13.54    0.59
  -1  -2 -11    0.17    0.07
  -1  -2 -11    0.16    0.08
   1   2  11    0.13    0.07
  -2  -2 -11    7.57    0.32
   2   2  11    7.39    0.37
  -3  -2 -11    9.36    0.39
  -4  -2 -11    0.05    0.08
  -5  -2 -11    1.52    0.15
   5   2  11    1.60    0.16
 -11   3  11    2.37    0.22
 -10   3  11    0.11    0.06
 -10   3  11    0.02    0.09
  -9   3  11   12.49    0.57
  -9   3  11   12.47    0.54
  -8   3  11   17.68    0.76
  -8   3  11   16.46    0.72
  -8   3  11   18.11    0.73
  -7   3  11    0.60    0.10
  -7   3  11    0.55    0.08
   6  -3 -11   35.88    1.30
  -6   3  11   33.86    1.37
  -6   3  11   32.88    1.35
   5  -3 -11   22.36    0.87
  -5   3  11   20.88    0.92
  -5   3  11   23.83    0.91
   4  -3 -11    2.04    0.17
  -4   3  11    1.97    0.17
  -4   3  11    2.05    0.16
   3  -3 -11   23.60    0.90
  -3   3  11   23.05    0.97
  -3   3  11   23.02    0.95
   2  -3 -11   19.57    0.70
   2  -3 -11   21.63    0.81
  -2   3  11   20.58    0.87
  -2   3  11   20.92    0.85
   1  -3 -11    0.49    0.07
   1  -3 -11    0.83    0.11
  -1   3  11    0.54    0.10
  -1   3  11    0.61    0.10
   0  -3 -11   19.90    0.73
   0  -3 -11   20.01    0.80
   0   3  11   21.51    0.86
   0   3  11   21.02    0.88
  -1  -3 -11   23.17    0.88
  -1  -3 -11   22.76    0.80
   1   3  11   22.25    0.93
  -2  -3 -11    0.09    0.07
   2   3  11    0.01    0.07
  -3  -3 -11   11.21    0.44
   3   3  11   10.44    0.50
  -4  -3 -11    8.68    0.38
  -5  -3 -11    0.20    0.10
   5   3  11    0.15    0.08
 -11   4  11    9.90    0.50
 -10   4  11    5.37    0.31
 -10   4  11    4.67    0.26
  -9   4  11    3.69    0.21
  -9   4  11    3.69    0.26
  -8   4  11   12.11    0.53
  -8   4  11   12.11    0.53
  -8   4  11   11.69    0.56
  -7   4  11    8.88    0.42
  -7   4  11    9.46    0.45
  -7   4  11    9.01    0.43
  -6   4  11    0.08    0.07
  -6   4  11    0.05    0.06
   5  -4 -11   22.91    0.92
  -5   4  11   23.84    0.96
  -5   4  11   23.57    0.97
   4  -4 -11   29.06    1.10
  -4   4  11   29.00    1.15
  -4   4  11   27.95    1.18
   3  -4 -11    0.54    0.10
  -3   4  11    0.34    0.09
  -3   4  11    0.38    0.09
   2  -4 -11   26.78    0.95
   2  -4 -11   28.81    1.08
  -2   4  11   28.53    1.14
  -2   4  11   28.96    1.17
   1  -4 -11   14.86    0.60
   1  -4 -11   14.01    0.53
  -1   4  11   15.61    0.64
  -1   4  11   14.33    0.66
   0  -4 -11   -0.02    0.08
   0  -4 -11    0.14    0.06
   0  -4 -11    0.03    0.07
   0   4  11    0.03    0.07
  -1  -4 -11   10.16    0.41
   1   4  11    9.88    0.47
  -2  -4 -11   13.04    0.49
   2   4  11   12.02    0.56
  -3  -4 -11    0.27    0.09
   3   4  11    0.54    0.11
  -4  -4 -11    5.97    0.30
 -10   5  11    5.70    0.33
 -10   5  11    5.09    0.28
  -9   5  11    6.40    0.33
  -9   5  11    6.42    0.36
  -8   5  11    1.94    0.20
  -8   5  11    2.16    0.18
  -8   5  11    1.95    0.17
  -7   5  11   23.72    1.01
  -7   5  11   24.41    0.98
  -7   5  11   23.32    1.00
  -6   5  11    5.59    0.32
  -6   5  11    6.40    0.34
  -6   5  11    6.41    0.32
  -5   5  11    2.02    0.19
  -5   5  11    1.86    0.18
  -5   5  11    1.61    0.17
  -4   5  11   12.65    0.58
  -4   5  11   13.09    0.59
  -4   5  11   12.84    0.58
   3  -5 -11   13.70    0.57
  -3   5  11   13.50    0.61
  -3   5  11   13.27    0.60
   2  -5 -11    0.23    0.09
   2  -5 -11    0.19    0.05
  -2   5  11    0.36    0.09
  -2   5  11    0.27    0.09
   1  -5 -11   16.57    0.62
   1  -5 -11   17.75    0.70
  -1   5  11   17.92    0.77
  -1   5  11   17.18    0.75
   0  -5 -11   13.56    0.51
   0   5  11   14.01    0.62
  -1  -5 -11    0.28    0.08
  -1  -5 -11    0.53    0.09
   1   5  11    0.33    0.10
  -2  -5 -11    7.56    0.34
  -2  -5 -11    7.76    0.35
   2   5  11    7.72    0.40
  -3  -5 -11    6.19    0.30
   3   5  11    5.71    0.33
  -4  -5 -11    0.12    0.09
 -10   6  11    6.28    0.37
  -9   6  11   11.06    0.54
  -9   6  11   10.57    0.50
  -8   6  11    1.45    0.16
  -8   6  11    1.47    0.15
  -8   6  11    1.40    0.17
  -7   6  11    1.13    0.13
  -7   6  11    1.44    0.17
  -7   6  11    1.46    0.16
  -6   6  11   16.31    0.71
  -6   6  11   15.97    0.72
  -5   6  11    9.16    0.46
  -5   6  11    9.54    0.45
  -5   6  11    9.38    0.46
  -4   6  11    2.91    0.22
  -4   6  11    3.12    0.22
  -4   6  11    3.08    0.23
  -3   6  11   16.05    0.70
  -3   6  11   15.61    0.69
  -3   6  11   15.57    0.70
   2  -6 -11    4.61    0.21
  -2   6  11    4.90    0.29
  -2   6  11    5.49    0.30
  -2   6  11    4.86    0.30
   1  -6 -11    0.59    0.08
  -1   6  11    0.56    0.11
  -1   6  11    0.72    0.13
   0  -6 -11    6.06    0.29
   0   6  11    7.61    0.38
   0   6  11    6.38    0.36
  -1  -6 -11    7.22    0.31
   1   6  11    6.56    0.37
  -2  -6 -11   -0.01    0.07
   2   6  11    0.05    0.09
  -3  -6 -11    7.81    0.36
  -3  -6 -11    8.59    0.37
   3   6  11    8.25    0.42
  -9   7  11    2.52    0.24
  -8   7  11   16.68    0.75
  -8   7  11   15.78    0.72
  -7   7  11    2.17    0.19
  -7   7  11    2.39    0.22
  -7   7  11    2.26    0.20
  -6   7  11    5.63    0.33
  -6   7  11    6.22    0.34
  -6   7  11    5.97    0.35
  -5   7  11   10.94    0.53
  -5   7  11   10.24    0.51
  -5   7  11   10.91    0.52
  -4   7  11    4.09    0.27
  -4   7  11    4.47    0.29
  -4   7  11    4.53    0.28
  -3   7  11    2.17    0.21
  -3   7  11    2.34    0.20
  -3   7  11    2.06    0.21
   2  -7 -11   13.08    0.50
  -2   7  11   13.72    0.63
  -2   7  11   15.02    0.65
   1  -7 -11    3.34    0.18
  -1   7  11    4.04    0.27
  -1   7  11    3.49    0.26
   0  -7 -11    2.00    0.15
   0   7  11    1.85    0.21
   0   7  11    1.79    0.19
  -1  -7 -11    8.00    0.36
   1   7  11    9.43    0.45
   1   7  11    7.84    0.43
  -2  -7 -11    1.72    0.16
   2   7  11    1.83    0.20
  -8   8  11    2.92    0.25
  -7   8  11    9.43    0.47
  -7   8  11    9.98    0.49
  -7   8  11    8.92    0.46
  -6   8  11    3.92    0.26
  -6   8  11    3.79    0.25
  -6   8  11    3.73    0.28
  -5   8  11    5.07    0.31
  -5   8  11    5.04    0.32
  -5   8  11    4.97    0.30
  -4   8  11   15.56    0.69
  -4   8  11   14.79    0.68
  -4   8  11   14.75    0.69
  -3   8  11    1.75    0.20
  -3   8  11    1.17    0.15
   2  -8 -11    2.73    0.15
  -2   8  11    3.05    0.24
  -2   8  11    3.05    0.25
   1  -8 -11   10.16    0.41
  -1   8  11   10.66    0.53
  -1   8  11   11.94    0.54
   0  -8 -11    2.43    0.16
   0   8  11    2.37    0.22
   0   8  11    2.69    0.23
  -1  -8 -11    2.32    0.17
   1   8  11    2.14    0.21
   1   8  11    2.73    0.23
  -6   9  11    9.08    0.45
  -6   9  11    7.51    0.42
  -5   9  11    1.16    0.15
  -5   9  11    1.12    0.16
  -5   9  11    1.06    0.15
  -4   9  11    2.67    0.24
  -4   9  11    2.48    0.23
  -3   9  11    9.48    0.50
  -3   9  11   10.72    0.52
   2  -9 -11    2.60    0.14
  -2   9  11    2.95    0.25
  -2   9  11    2.22    0.22
   1  -9 -11    2.73    0.16
  -1   9  11    2.85    0.24
   3  14 -12    0.16    0.12
   2  14 -12   11.45    0.56
   1  14 -12    2.22    0.22
   6  13 -12    3.50    0.27
   5  13 -12    4.95    0.33
   4  13 -12   10.60    0.55
  -4 -13  12   12.10    0.55
   3  13 -12    0.15    0.11
  -3 -13  12    0.20    0.09
   2  13 -12    0.18    0.10
   1  13 -12    4.81    0.31
   1  13 -12    4.86    0.30
   0  13 -12    7.28    0.31
   0  13 -12    7.37    0.39
  -1  13 -12    1.78    0.16
   7  12 -12    1.89    0.21
   6  12 -12    6.99    0.41
  -6 -12  12    8.08    0.39
   5  12 -12    1.47    0.19
  -5 -12  12    2.14    0.20
   4  12 -12    1.34    0.17
  -4 -12  12    1.66    0.18
   3  12 -12   21.90    1.00
  -3 -12  12   25.84    1.03
   2  12 -12    5.72    0.34
   2  12 -12    6.38    0.36
  -2 -12  12    6.67    0.36
   1  12 -12   14.08    0.62
   1  12 -12   13.88    0.61
   1  12 -12   13.05    0.49
   0  12 -12    8.48    0.43
   0  12 -12    8.45    0.35
   0  12 -12    8.89    0.43
  -1  12 -12    1.48    0.13
  -2  12 -12   -0.04    0.08
  -3  12 -12   10.45    0.44
   8  11 -12    6.92    0.39
   7  11 -12    0.44    0.12
  -7 -11  12    0.60    0.10
   6  11 -12    5.85    0.35
  -6 -11  12    5.69    0.31
   5  11 -12    9.91    0.52
  -5 -11  12   11.31    0.52
   4  11 -12    2.76    0.23
  -4 -11  12    2.50    0.21
   3  11 -12    3.72    0.26
  -3 -11  12    3.79    0.25
   2  11 -12   13.25    0.59
   2  11 -12   13.83    0.62
  -2 -11  12   14.16    0.63
   1  11 -12   11.33    0.44
   1  11 -12   12.10    0.55
   1  11 -12   12.76    0.56
  -1 -11  12   12.45    0.58
   0  11 -12    1.34    0.15
   0  11 -12    1.46    0.14
   0  11 -12    1.24    0.17
  -1  11 -12   28.80    1.01
  -2  11 -12    3.86    0.23
  -3  11 -12    1.39    0.14
   9  10 -12    0.21    0.11
   8  10 -12    8.81    0.46
  -8 -10  12    9.05    0.43
   7  10 -12    5.40    0.34
  -7 -10  12    6.03    0.31
   6  10 -12    0.73    0.14
  -6 -10  12    0.87    0.11
   5  10 -12    7.91    0.42
  -5 -10  12    8.28    0.41
   4  10 -12   18.07    0.81
  -4 -10  12   20.00    0.82
   3  10 -12    0.85    0.13
   3  10 -12    1.07    0.14
  -3 -10  12    0.86    0.12
   2  10 -12    5.35    0.30
   2  10 -12    5.49    0.31
  -2 -10  12    5.06    0.30
   1  10 -12   11.59    0.54
   1  10 -12   11.39    0.53
   1  10 -12   11.22    0.43
  -1 -10  12   13.04    0.56
   0  10 -12    4.12    0.21
   0  10 -12    4.54    0.27
   0  10 -12    4.16    0.27
  -1  10 -12    0.15    0.11
  -1  10 -12    0.15    0.08
  -2  10 -12    7.26    0.33
  -3  10 -12   10.55    0.44
  -4  10 -12    0.24    0.09
  10   9 -12    4.97    0.30
   9   9 -12    8.34    0.44
  -9  -9  12    9.17    0.42
   8   9 -12    0.85    0.13
  -8  -9  12    0.68    0.10
   7   9 -12   12.40    0.58
  -7  -9  12   12.86    0.56
   6   9 -12   20.40    0.87
  -6  -9  12   20.70    0.87
   5   9 -12    0.05    0.08
  -5  -9  12    0.11    0.07
   4   9 -12   11.03    0.52
   4   9 -12   10.66    0.48
  -4  -9  12   11.58    0.51
   3   9 -12   18.87    0.79
   3   9 -12   18.32    0.75
  -3  -9  12   18.51    0.80
   2   9 -12    3.57    0.23
   2   9 -12    3.29    0.23
  -2  -9  12    3.80    0.24
   1   9 -12   11.30    0.50
   1   9 -12   10.90    0.40
   1   9 -12   10.14    0.49
  -1  -9  12   11.49    0.52
   0   9 -12   14.55    0.62
   0   9 -12   14.23    0.61
   0   9 -12   13.81    0.52
   0  -9  12   14.26    0.64
  -1   9 -12    0.77    0.10
  -1   9 -12    0.88    0.14
  -2   9 -12    1.57    0.19
  -2   9 -12    1.81    0.16
  -3   9 -12    3.23    0.22
  -4   9 -12    0.72    0.12
  -5   9 -12    0.21    0.12
  -5   9 -12    0.00    0.09
  10   8 -12    0.20    0.10
 -10  -8  12    0.06    0.06
   9   8 -12    6.40    0.36
  -9  -8  12    7.20    0.33
   8   8 -12    8.70    0.43
  -8  -8  12    8.59    0.40
   7   8 -12    0.24    0.09
  -7  -8  12    0.32    0.07
   6   8 -12    9.69    0.47
  -6  -8  12    9.74    0.44
   5   8 -12   19.75    0.82
  -5  -8  12   19.09    0.81
   4   8 -12    2.49    0.20
   4   8 -12    2.62    0.20
  -4  -8  12    2.45    0.19
   3   8 -12   14.46    0.62
   3   8 -12   15.42    0.66
  -3  -8  12   15.30    0.66
   2   8 -12   22.95    0.91
   2   8 -12   24.26    0.96
  -2  -8  12   22.83    0.98
   1   8 -12    1.39    0.15
   1   8 -12    1.20    0.13
   1   8 -12    1.20    0.11
  -1  -8  12    1.34    0.14
   0   8 -12    6.71    0.35
   0   8 -12    6.86    0.29
   0   8 -12    7.04    0.35
   0  -8  12    7.17    0.37
  -1   8 -12   16.82    0.72
  -1   8 -12   17.92    0.63
  -2   8 -12    0.91    0.14
  -2   8 -12    0.64    0.10
  -3   8 -12    6.54    0.37
  -3   8 -12    7.09    0.32
  -4   8 -12    4.55    0.29
  -4   8 -12    4.47    0.25
  -5   8 -12    0.01    0.11
  -5   8 -12   -0.10    0.08
  10   7 -12    4.05    0.26
   9   7 -12    0.05    0.08
  -9  -7  12    0.11    0.06
   8   7 -12   13.88    0.62
  -8  -7  12   13.93    0.59
   7   7 -12    8.92    0.43
  -7  -7  12    8.37    0.39
   6   7 -12    0.13    0.09
  -6  -7  12    0.21    0.07
   5   7 -12   14.78    0.59
   5   7 -12   14.50    0.63
  -5  -7  12   13.91    0.61
   4   7 -12   18.53    0.72
   4   7 -12   18.15    0.76
  -4  -7  12   17.50    0.76
   3   7 -12    0.00    0.07
   3   7 -12    0.12    0.08
  -3  -7  12    0.04    0.06
   2   7 -12    9.93    0.45
   2   7 -12   10.21    0.41
   2   7 -12    9.69    0.44
  -2  -7  12    9.63    0.46
   1   7 -12   15.99    0.65
   1   7 -12   15.24    0.63
   1   7 -12   14.53    0.53
  -1  -7  12   15.17    0.66
   0   7 -12    2.21    0.15
   0   7 -12    2.43    0.19
   0   7 -12    2.02    0.18
   0  -7  12    1.97    0.19
  -1   7 -12    9.37    0.37
  -2   7 -12   11.37    0.44
  -2   7 -12   11.01    0.50
  -3   7 -12    0.86    0.14
  -3   7 -12    0.58    0.10
  -4   7 -12    4.19    0.25
  -4   7 -12    4.47    0.28
  -5   7 -12    8.22    0.37
  -5   7 -12    7.53    0.40
  10   6 -12   11.16    0.51
   9   6 -12    4.73    0.28
   8   6 -12    1.59    0.17
  -8  -6  12    1.67    0.12
   7   6 -12   14.59    0.63
  -7  -6  12   14.35    0.61
   6   6 -12   17.87    0.75
   6   6 -12   18.11    0.71
  -6  -6  12   17.39    0.73
   5   6 -12    1.41    0.14
   5   6 -12    0.98    0.13
  -5  -6  12    1.41    0.13
   4   6 -12   22.70    0.83
   4   6 -12   23.54    0.90
   4   6 -12   23.13    0.95
  -4  -6  12   24.02    0.96
   3   6 -12   17.56    0.74
   3   6 -12   17.35    0.70
   3   6 -12   17.61    0.65
  -3  -6  12   18.03    0.75
   2   6 -12    0.07    0.07
   2   6 -12    0.09    0.07
   2   6 -12    0.24    0.09
  -2  -6  12    0.14    0.06
   1   6 -12   28.06    1.09
   1   6 -12   26.59    0.91
   1   6 -12   26.45    1.04
  -1  -6  12   27.52    1.12
   0   6 -12   10.81    0.48
   0   6 -12   10.74    0.41
   0   6 -12   11.00    0.49
   0  -6  12   11.26    0.51
  -1   6 -12    0.42    0.11
  -1   6 -12    0.29    0.07
  -1   6 -12    0.40    0.09
   1  -6  12    0.21    0.09
  -2   6 -12    4.27    0.26
  -2   6 -12    4.07    0.23
  -3   6 -12    9.82    0.45
  -3   6 -12    9.35    0.40
  -4   6 -12    0.21    0.11
  -4   6 -12    0.03    0.09
  -5   6 -12    4.46    0.28
  -5   6 -12    4.46    0.26
  -6   6 -12    3.94    0.25
  -6   6 -12    4.07    0.27
   6  -6  12    3.73    0.22
  10   5 -12    3.90    0.25
   9   5 -12   11.77    0.53
   8   5 -12    8.65    0.42
   7   5 -12    3.22    0.22
   7   5 -12    3.35    0.21
  -7  -5  12    3.16    0.17
   6   5 -12   27.21    1.00
   6   5 -12   26.01    1.05
  -6  -5  12   24.75    1.05
   5   5 -12   10.47    0.46
   5   5 -12   10.34    0.48
   5   5 -12   10.92    0.42
  -5  -5  12   10.55    0.46
   4   5 -12    0.13    0.08
   4   5 -12    0.15    0.08
   4   5 -12    0.13    0.07
  -4  -5  12    0.22    0.06
   3   5 -12   25.75    1.04
   3   5 -12   25.37    0.91
   3   5 -12   26.25    0.99
  -3  -5  12   25.94    1.06
   2   5 -12   16.29    0.63
   2   5 -12   17.36    0.71
   2   5 -12   17.56    0.68
  -2  -5  12   16.58    0.72
   1   5 -12    0.13    0.08
   1   5 -12   -0.04    0.05
   1   5 -12    0.11    0.07
  -1  -5  12    0.02    0.06
   0   5 -12   12.72    0.53
   0   5 -12   12.18    0.45
   0   5 -12   12.05    0.52
   0  -5  12   12.00    0.55
  -1   5 -12   25.71    0.99
  -1   5 -12   24.24    0.86
  -1   5 -12   24.96    0.96
   1  -5  12   23.93    1.04
  -2   5 -12    0.45    0.11
  -2   5 -12    0.27    0.08
  -3   5 -12   16.01    0.66
  -3   5 -12   15.71    0.59
  -4   5 -12    2.02    0.19
  -4   5 -12    1.83    0.18
  -5   5 -12    0.12    0.10
  -5   5 -12   -0.20    0.09
  -6   5 -12    2.38    0.21
   6  -5  12    2.65    0.19
  10   4 -12    5.33    0.30
   9   4 -12    5.15    0.29
   8   4 -12   25.70    1.04
   7   4 -12    4.45    0.26
   7   4 -12    4.30    0.25
  -7  -4  12    4.61    0.22
   6   4 -12    2.37    0.16
   6   4 -12    2.53    0.19
   6   4 -12    2.33    0.19
  -6  -4  12    2.30    0.15
   5   4 -12   27.71    0.96
   5   4 -12   27.38    1.09
   5   4 -12   27.77    1.04
  -5  -4  12   26.41    1.10
   4   4 -12   14.50    0.64
   4   4 -12   14.90    0.57
   4   4 -12   15.69    0.62
  -4  -4  12   15.63    0.64
   3   4 -12    4.81    0.26
   3   4 -12    4.63    0.23
   3   4 -12    4.80    0.26
  -3  -4  12    4.25    0.24
   2   4 -12   18.90    0.75
   2   4 -12   19.53    0.78
   2   4 -12   17.92    0.69
  -2  -4  12   19.26    0.79
   1   4 -12    9.70    0.44
   1   4 -12   10.21    0.43
   1   4 -12    9.40    0.35
  -1  -4  12    9.50    0.45
   0   4 -12    1.19    0.13
   0   4 -12    1.10    0.12
   0   4 -12    1.04    0.09
   0  -4  12    0.88    0.12
  -1   4 -12    9.32    0.43
  -1   4 -12    9.81    0.38
  -1   4 -12   10.16    0.43
   1  -4  12    9.03    0.45
  -2   4 -12    4.43    0.25
  -2   4 -12    3.83    0.22
  -3   4 -12    0.79    0.11
  -3   4 -12    1.05    0.14
  -4   4 -12    9.66    0.42
  -4   4 -12   10.54    0.46
  -5   4 -12    9.25    0.42
  -5   4 -12    8.15    0.38
  -6   4 -12    1.17    0.15
   6  -4  12    1.06    0.12
   9   3 -12    4.45    0.26
   8   3 -12    3.22    0.21
   8   3 -12    2.69    0.21
   7   3 -12   28.66    1.14
   7   3 -12   29.44    1.09
   7   3 -12   28.00    1.00
  -7  -3  12   27.89    1.13
   6   3 -12   12.57    0.52
   6   3 -12   12.58    0.54
   6   3 -12   11.76    0.48
  -6  -3  12   12.55    0.52
   5   3 -12   11.93    0.46
   5   3 -12   11.99    0.49
   5   3 -12   11.45    0.51
  -5  -3  12   11.00    0.49
   4   3 -12   26.31    1.03
   4   3 -12   24.38    0.90
   4   3 -12   25.95    0.98
  -4  -3  12   25.95    1.04
   3   3 -12    7.85    0.34
   3   3 -12    8.21    0.37
   3   3 -12    7.99    0.38
  -3  -3  12    7.63    0.37
   2   3 -12    3.65    0.22
   2   3 -12    3.67    0.20
   2   3 -12    3.91    0.22
  -2  -3  12    3.63    0.22
   1   3 -12   30.64    1.04
   1   3 -12   31.81    1.18
   1   3 -12   31.64    1.23
   1   3 -12   30.17    1.09
  -1  -3  12   31.74    1.27
   0   3 -12    5.18    0.27
   0   3 -12    4.87    0.22
   0   3 -12    5.18    0.27
   0  -3  12    5.01    0.28
  -1   3 -12    6.11    0.31
  -1   3 -12    5.94    0.26
  -1   3 -12    6.14    0.30
   1  -3  12    5.89    0.33
   1  -3  12    5.93    0.30
  -2   3 -12   15.15    0.62
  -2   3 -12   15.17    0.56
  -3   3 -12    1.24    0.14
  -3   3 -12    0.94    0.11
  -4   3 -12    2.78    0.21
  -4   3 -12    2.99    0.21
  -5   3 -12    1.60    0.15
  -6   3 -12    3.27    0.24
   6  -3  12    3.28    0.21
   9   2 -12   10.43    0.46
   9   2 -12    9.80    0.45
   8   2 -12    2.30    0.18
   8   2 -12    2.26    0.19
   7   2 -12    5.45    0.26
   7   2 -12    5.53    0.29
   7   2 -12    5.37    0.28
  -7  -2  12    5.53    0.25
   6   2 -12   17.55    0.69
   6   2 -12   17.37    0.71
   6   2 -12   16.21    0.63
  -6  -2  12   17.15    0.70
   5   2 -12    8.43    0.39
   5   2 -12    8.99    0.41
   5   2 -12    8.89    0.37
  -5  -2  12    8.74    0.39
   4   2 -12    4.21    0.22
   4   2 -12    4.49    0.24
   4   2 -12    4.23    0.25
  -4  -2  12    4.55    0.23
   3   2 -12   38.80    1.34
   3   2 -12   39.83    1.52
   3   2 -12   41.37    1.45
  -3  -2  12   36.16    1.56
   2   2 -12    4.85    0.24
   2   2 -12    5.32    0.28
   2   2 -12    5.65    0.27
  -2  -2  12    4.58    0.26
   1   2 -12    9.16    0.34
   1   2 -12    9.12    0.42
   1   2 -12    9.63    0.41
   1   2 -12    8.98    0.38
  -1  -2  12    9.47    0.43
   0   2 -12   21.46    0.82
   0   2 -12   20.15    0.72
   0   2 -12   21.54    0.85
   0  -2  12   21.11    0.88
   0  -2  12   19.81    0.84
  -1   2 -12    8.47    0.35
  -1   2 -12    8.55    0.39
   1  -2  12    8.46    0.42
   1  -2  12    9.44    0.41
  -2   2 -12    5.73    0.26
  -2   2 -12    5.41    0.29
  -3   2 -12   25.02    0.90
  -3   2 -12   25.59    0.98
  -4   2 -12    3.83    0.24
  -4   2 -12    4.39    0.25
  -5   2 -12    5.89    0.30
  -6   2 -12    9.05    0.41
   6  -2  12    9.32    0.40
   9   1 -12   11.53    0.51
   8   1 -12   13.60    0.59
   8   1 -12   14.55    0.61
   7   1 -12    0.13    0.07
   7   1 -12    0.17    0.08
  -7  -1  12    0.19    0.05
   6   1 -12   14.45    0.59
   6   1 -12   13.68    0.55
   6   1 -12   14.68    0.61
  -6  -1  12   14.52    0.60
   5   1 -12   18.78    0.73
   5   1 -12   17.91    0.76
   5   1 -12   17.73    0.67
  -5  -1  12   18.79    0.75
   4   1 -12    0.28    0.08
   4   1 -12    0.25    0.07
   4   1 -12    0.49    0.10
  -4  -1  12    0.38    0.07
   3   1 -12    7.53    0.36
   3   1 -12    6.93    0.32
   3   1 -12    7.37    0.35
  -3  -1  12    7.47    0.35
   2   1 -12   19.01    0.71
   2   1 -12   20.59    0.81
   2   1 -12   19.32    0.77
  -2  -1  12   19.27    0.82
   1   1 -12    8.00    0.36
   1   1 -12    7.44    0.29
   1   1 -12    6.95    0.32
   1   1 -12    7.92    0.37
  -1  -1  12    7.38    0.36
  -1  -1  12    7.63    0.37
   0   1 -12   10.08    0.43
   0   1 -12    9.64    0.37
   0  -1  12    9.46    0.44
   0  -1  12    9.72    0.45
  -1   1 -12   24.58    0.86
  -1   1 -12   23.70    0.95
   1  -1  12   24.88    1.00
   1  -1  12   25.88    1.04
  -2   1 -12    2.66    0.19
  -2   1 -12    2.43    0.18
   2  -1  12    2.73    0.19
  -3   1 -12    2.14    0.18
  -3   1 -12    2.07    0.18
  -4   1 -12   12.95    0.51
  -5   1 -12    8.15    0.37
   9   0 -12    0.26    0.08
  -9   0  12    0.24    0.08
   8   0 -12   19.74    0.79
   8   0 -12   18.69    0.77
  -8   0  12   19.00    0.77
   7   0 -12   22.24    0.89
   7   0 -12   21.61    0.86
  -7   0  12   21.54    0.88
   6   0 -12    0.11    0.07
   6   0 -12    0.13    0.08
  -6   0  12    0.09    0.05
   5   0 -12   23.54    0.89
   5   0 -12   22.64    0.93
  -5   0  12   22.43    0.93
   4   0 -12   32.09    1.19
   4   0 -12   30.44    1.10
   4   0 -12   32.11    1.25
  -4   0  12   32.10    1.27
  -4   0  12   30.60    1.24
   3   0 -12    0.16    0.08
   3   0 -12    0.06    0.06
   3   0 -12    0.06    0.07
  -3   0  12    0.06    0.07
  -3   0  12    0.05    0.06
   2   0 -12   23.67    0.85
   2   0 -12   24.91    0.92
   2   0 -12   25.12    0.97
  -2   0  12   22.44    0.96
  -2   0  12   23.14    0.98
   1   0 -12   18.37    0.68
   1   0 -12   16.78    0.59
  -1   0  12   15.94    0.71
  -1   0  12   16.71    0.73
   0   0 -12    0.79    0.11
   0   0 -12    0.57    0.08
   0   0  12    0.67    0.10
   0   0  12    0.63    0.10
  -1   0 -12    5.66    0.29
  -1   0 -12    5.61    0.25
   1   0  12    5.35    0.29
  -2   0 -12   17.47    0.64
  -2   0 -12   17.98    0.70
   2   0  12   16.83    0.73
  -3   0 -12    3.09    0.20
  -4   0 -12    4.14    0.24
  -5   0 -12    4.79    0.27
  -9   1  12   11.16    0.48
  -9   1  12    9.89    0.45
   8  -1 -12    0.00    0.07
  -8   1  12    0.09    0.05
  -8   1  12   -0.02    0.07
   7  -1 -12   12.41    0.55
   7  -1 -12   12.42    0.54
  -7   1  12   12.72    0.55
  -7   1  12   12.28    0.53
   6  -1 -12   29.54    1.14
   6  -1 -12   28.72    1.09
  -6   1  12   29.05    1.14
  -6   1  12   26.80    1.15
   5  -1 -12    0.34    0.08
   5  -1 -12    0.29    0.09
  -5   1  12    0.26    0.08
  -5   1  12    0.23    0.06
   4  -1 -12   21.82    0.85
  -4   1  12   22.60    0.89
  -4   1  12   20.82    0.90
   3  -1 -12   28.65    1.10
  -3   1  12   27.23    1.18
  -3   1  12   30.97    1.16
   2  -1 -12    2.29    0.19
  -2   1  12    2.94    0.19
  -2   1  12    2.61    0.19
   1  -1 -12   21.19    0.75
   1  -1 -12   21.46    0.75
   1  -1 -12   22.45    0.85
  -1   1  12   22.14    0.90
  -1   1  12   22.17    0.92
   0  -1 -12   27.54    0.98
   0  -1 -12   28.80    1.09
   0   1  12   28.06    1.15
   0   1  12   30.70    1.20
  -1  -1 -12    0.08    0.06
  -1  -1 -12    0.18    0.09
   1   1  12    0.17    0.08
  -2  -1 -12    9.84    0.42
  -2  -1 -12    9.67    0.39
   2   1  12    8.72    0.44
  -3  -1 -12   10.48    0.43
  -4  -1 -12    1.21    0.13
  -5  -1 -12    2.31    0.20
  -9   2  12    8.76    0.39
  -9   2  12    8.68    0.41
  -8   2  12   19.96    0.84
  -8   2  12   20.52    0.84
   7  -2 -12    0.46    0.10
  -7   2  12    0.29    0.08
  -7   2  12    0.38    0.07
   6  -2 -12   19.87    0.78
  -6   2  12   18.51    0.80
  -6   2  12   19.87    0.81
   5  -2 -12   12.10    0.53
  -5   2  12   12.36    0.55
  -5   2  12   12.52    0.54
   4  -2 -12    0.67    0.11
  -4   2  12    0.52    0.09
  -4   2  12    0.56    0.10
   3  -2 -12   18.46    0.72
  -3   2  12   17.74    0.76
  -3   2  12   17.67    0.75
   2  -2 -12   20.33    0.77
  -2   2  12   17.91    0.81
  -2   2  12   19.99    0.83
   1  -2 -12    0.21    0.06
   1  -2 -12    0.05    0.08
  -1   2  12    0.29    0.08
  -1   2  12    0.27    0.08
   0  -2 -12    7.57    0.36
   0  -2 -12    7.27    0.31
   0   2  12    7.89    0.38
   0   2  12    7.77    0.39
  -1  -2 -12   19.14    0.71
  -1  -2 -12   20.63    0.78
   1   2  12   19.59    0.83
  -2  -2 -12    2.16    0.17
   2   2  12    1.72    0.17
  -3  -2 -12    8.12    0.36
  -4  -2 -12    8.44    0.37
 -10   3  12    4.24    0.23
  -9   3  12    0.82    0.10
  -8   3  12   10.52    0.47
  -8   3  12   10.55    0.48
  -7   3  12    7.27    0.34
  -7   3  12    6.71    0.35
   6  -3 -12    0.20    0.09
  -6   3  12    0.19    0.08
  -6   3  12    0.10    0.06
   5  -3 -12   20.18    0.76
  -5   3  12   18.13    0.79
  -5   3  12   18.00    0.79
   4  -3 -12   16.27    0.67
  -4   3  12   17.02    0.72
  -4   3  12   16.34    0.71
   3  -3 -12    1.12    0.14
  -3   3  12    1.38    0.15
  -3   3  12    1.09    0.12
   2  -3 -12   14.53    0.58
  -2   3  12   13.65    0.61
  -2   3  12   13.38    0.62
   1  -3 -12   13.60    0.51
   1  -3 -12   14.26    0.59
  -1   3  12   14.99    0.64
  -1   3  12   13.89    0.62
   0  -3 -12    0.03    0.06
   0  -3 -12    0.02    0.06
   0  -3 -12   -0.01    0.09
   0   3  12    0.16    0.08
  -1  -3 -12   10.83    0.43
   1   3  12   10.74    0.50
  -2  -3 -12    6.33    0.29
   2   3  12    5.83    0.33
  -3  -3 -12    0.45    0.10
  -4  -3 -12    2.66    0.21
 -10   4  12   11.97    0.53
  -9   4  12    2.91    0.20
  -8   4  12    2.27    0.19
  -8   4  12    2.40    0.18
  -7   4  12   12.60    0.57
  -7   4  12   12.95    0.57
  -6   4  12    6.31    0.33
  -6   4  12    6.15    0.32
   5  -4 -12    2.09    0.19
  -5   4  12    2.20    0.19
  -5   4  12    2.25    0.18
   4  -4 -12   12.17    0.52
  -4   4  12   12.05    0.54
  -4   4  12   11.50    0.54
   3  -4 -12   10.93    0.49
  -3   4  12   11.02    0.51
  -3   4  12   11.26    0.52
   2  -4 -12    0.19    0.09
  -2   4  12    0.10    0.08
  -2   4  12    0.18    0.08
   1  -4 -12   18.34    0.71
   1  -4 -12   16.94    0.62
  -1   4  12   17.24    0.76
  -1   4  12   17.97    0.78
   0  -4 -12    8.98    0.37
   0  -4 -12   10.16    0.43
   0   4  12    9.60    0.46
  -1  -4 -12    0.05    0.07
  -1  -4 -12    0.07    0.06
   1   4  12    0.06    0.08
  -2  -4 -12    9.24    0.39
   2   4  12    9.01    0.45
  -3  -4 -12    7.47    0.34
  -9   5  12    7.71    0.38
  -8   5  12    5.01    0.30
  -8   5  12    5.74    0.30
  -7   5  12    4.54    0.27
  -7   5  12    4.15    0.26
  -6   5  12   17.64    0.76
  -6   5  12   17.20    0.75
  -5   5  12    3.72    0.25
  -5   5  12    3.81    0.24
  -4   5  12    2.58    0.20
  -4   5  12    2.49    0.20
   3  -5 -12   16.53    0.66
  -3   5  12   15.69    0.70
  -3   5  12   15.63    0.71
   2  -5 -12    5.93    0.30
  -2   5  12    5.21    0.32
  -2   5  12    5.63    0.32
   1  -5 -12    0.67    0.12
   1  -5 -12    0.53    0.07
  -1   5  12    0.61    0.11
   0  -5 -12    8.11    0.33
   0   5  12    8.34    0.42
  -1  -5 -12    7.33    0.32
   1   5  12    7.02    0.38
  -2  -5 -12   -0.04    0.08
  -2  -5 -12   -0.02    0.07
   2   5  12    0.02    0.08
  -3  -5 -12    4.68    0.25
  -3  -5 -12    4.92    0.27
  -9   6  12    3.43    0.27
  -8   6  12   12.79    0.60
  -8   6  12   12.61    0.57
  -8   6  12   12.41    0.57
  -7   6  12    2.08    0.19
  -7   6  12    2.21    0.20
  -6   6  12    2.68    0.21
  -6   6  12    1.96    0.19
  -5   6  12   19.45    0.85
  -4   6  12    6.09    0.34
  -4   6  12    5.84    0.33
  -3   6  12    4.92    0.29
  -3   6  12    4.28    0.28
  -2   6  12   12.74    0.62
  -2   6  12   14.60    0.64
   1  -6 -12    3.82    0.19
  -1   6  12    3.75    0.26
   0  -6 -12    1.44    0.13
   0   6  12    1.18    0.15
  -1  -6 -12    7.19    0.31
   1   6  12    6.58    0.38
  -2  -6 -12    2.38    0.17
   2   6  12    2.18    0.21
  -8   7  12    2.16    0.22
  -7   7  12    7.22    0.39
  -7   7  12    8.06    0.40
  -7   7  12    8.07    0.42
  -6   7  12    3.56    0.25
  -6   7  12    3.90    0.26
  -6   7  12    3.57    0.27
  -5   7  12    3.05    0.24
  -5   7  12    2.77    0.23
  -4   7  12   11.68    0.55
  -4   7  12   11.26    0.54
  -3   7  12    4.42    0.29
  -3   7  12    3.89    0.28
  -2   7  12    1.10    0.15
   1  -7 -12   11.91    0.44
  -1   7  12   11.86    0.57
   0  -7 -12    3.48    0.19
   0   7  12    3.51    0.26
  -6   8  12    7.36    0.40
  -5   8  12    0.19    0.11
  -5   8  12    0.18    0.10
  -4   8  12    1.53    0.18
  -4   8  12    1.44    0.17
  -4   8  12    1.74    0.20
  -3   8  12    5.70    0.34
  -2   8  12    1.83    0.20
   4  13 -13    0.48    0.13
   3  13 -13    9.05    0.47
   2  13 -13    2.65    0.24
   1  13 -13   -0.15    0.09
   1  13 -13    0.05    0.11
   6  12 -13    2.11    0.22
   5  12 -13    3.38    0.27
  -5 -12  13    3.79    0.26
   4  12 -13    0.62    0.14
  -4 -12  13    0.59    0.12
   3  12 -13    0.05    0.10
  -3 -12  13    0.08    0.08
   2  12 -13    4.75    0.30
   2  12 -13    4.41    0.30
  -2 -12  13    5.06    0.31
   1  12 -13    2.73    0.24
   1  12 -13    2.86    0.23
   0  12 -13    0.69    0.15
   0  12 -13    0.63    0.09
  -1  12 -13    2.22    0.17
  -1  12 -13    1.98    0.21
   7  11 -13    7.96    0.43
   6  11 -13    0.53    0.13
  -6 -11  13    0.67    0.11
   5  11 -13    5.00    0.32
  -5 -11  13    5.63    0.31
   4  11 -13    7.68    0.42
  -4 -11  13    8.36    0.42
   3  11 -13    0.12    0.11
   3  11 -13   -0.03    0.10
  -3 -11  13    0.09    0.08
   2  11 -13    4.80    0.30
   2  11 -13    4.92    0.30
  -2 -11  13    5.03    0.31
   1  11 -13    3.00    0.24
   1  11 -13    2.98    0.24
  -1 -11  13    3.57    0.26
   0  11 -13    0.00    0.11
   0  11 -13    0.17    0.07
  -1  11 -13    2.15    0.22
  -1  11 -13    1.87    0.16
  -2  11 -13    2.86    0.25
  -2  11 -13    3.22    0.21
   8  10 -13    0.42    0.12
   7  10 -13    3.71    0.27
  -7 -10  13    3.93    0.24
   6  10 -13    7.73    0.42
  -6 -10  13    8.08    0.40
   5  10 -13    1.03    0.15
  -5 -10  13    1.18    0.13
   4  10 -13    6.21    0.35
  -4 -10  13    6.59    0.35
   3  10 -13   13.32    0.61
   3  10 -13   13.59    0.58
  -3 -10  13   13.30    0.61
   2  10 -13    0.28    0.11
   2  10 -13    0.25    0.10
  -2 -10  13    0.29    0.09
   1  10 -13    7.39    0.39
   1  10 -13    7.53    0.39
  -1 -10  13    8.32    0.41
   0  10 -13   10.83    0.51
   0  10 -13   10.61    0.42
   0  10 -13   11.47    0.51
  -1  10 -13   -0.04    0.11
  -1  10 -13    0.16    0.08
  -2  10 -13    7.53    0.41
  -2  10 -13    7.86    0.34
  -3  10 -13    6.47    0.32
  -3  10 -13    6.96    0.38
   9   9 -13    6.35    0.36
   8   9 -13    4.33    0.29
  -8  -9  13    4.52    0.25
   7   9 -13   -0.01    0.09
  -7  -9  13    0.10    0.07
   6   9 -13    4.59    0.30
  -6  -9  13    5.22    0.28
   5   9 -13    8.24    0.43
  -5  -9  13    8.62    0.41
   4   9 -13    0.19    0.10
   4   9 -13    0.11    0.09
  -4  -9  13    0.12    0.08
   3   9 -13    6.79    0.36
   3   9 -13    6.20    0.34
  -3  -9  13    6.75    0.35
   2   9 -13   11.76    0.55
   2   9 -13   12.17    0.54
  -2  -9  13   12.43    0.56
   1   9 -13    0.84    0.13
   1   9 -13    0.69    0.12
  -1  -9  13    0.80    0.12
   0   9 -13    9.22    0.45
   0   9 -13    9.67    0.44
   0   9 -13    8.96    0.36
  -1   9 -13   10.38    0.49
  -1   9 -13   10.23    0.41
  -2   9 -13    0.81    0.11
  -2   9 -13    0.85    0.15
  -3   9 -13    4.17    0.25
  -3   9 -13    4.31    0.29
  -4   9 -13   11.48    0.54
  -4   9 -13   11.47    0.47
  10   8 -13    3.70    0.26
   9   8 -13    0.06    0.09
  -9  -8  13    0.03    0.06
   8   8 -13    5.93    0.34
  -8  -8  13    6.36    0.31
   7   8 -13   13.40    0.62
  -7  -8  13   13.77    0.59
   6   8 -13    0.14    0.09
  -6  -8  13    0.25    0.08
   5   8 -13   18.70    0.74
   5   8 -13   17.38    0.78
  -5  -8  13   18.65    0.78
   4   8 -13    6.21    0.33
   4   8 -13    6.24    0.34
  -4  -8  13    6.27    0.33
   3   8 -13    0.17    0.09
   3   8 -13    0.10    0.09
  -3  -8  13    0.08    0.07
   2   8 -13   10.08    0.46
   2   8 -13   10.00    0.47
  -2  -8  13    9.88    0.47
   1   8 -13   10.77    0.50
   1   8 -13   10.74    0.50
  -1  -8  13   11.62    0.52
   0   8 -13    0.13    0.06
   0   8 -13    0.09    0.08
   0   8 -13    0.33    0.11
   0  -8  13    0.16    0.08
  -1   8 -13    7.07    0.37
  -1   8 -13    7.55    0.31
  -2   8 -13   10.73    0.49
  -2   8 -13   10.20    0.42
  -3   8 -13    0.04    0.09
  -3   8 -13    0.08    0.11
  -4   8 -13    2.96    0.21
  -4   8 -13    3.13    0.24
  10   7 -13    6.35    0.35
   9   7 -13    3.98    0.27
  -9  -7  13    4.71    0.23
   8   7 -13    0.99    0.13
  -8  -7  13    1.10    0.13
   7   7 -13    7.95    0.40
  -7  -7  13    7.95    0.37
   6   7 -13    4.02    0.24
   6   7 -13    3.60    0.25
  -6  -7  13    3.70    0.22
   5   7 -13    0.97    0.13
   5   7 -13    0.80    0.12
  -5  -7  13    0.85    0.10
   4   7 -13   15.98    0.65
   4   7 -13   14.95    0.68
  -4  -7  13   16.02    0.68
   3   7 -13   20.27    0.84
   3   7 -13   19.52    0.80
  -3  -7  13   20.69    0.86
   2   7 -13    2.46    0.20
   2   7 -13    2.38    0.20
  -2  -7  13    2.76    0.20
   1   7 -13   13.54    0.59
   1   7 -13   13.31    0.58
  -1  -7  13   13.63    0.61
   0   7 -13    8.28    0.39
   0   7 -13    7.18    0.38
   0   7 -13    7.64    0.31
   0  -7  13    8.24    0.40
  -1   7 -13   -0.04    0.07
  -1   7 -13    0.06    0.10
  -2   7 -13    8.66    0.42
  -2   7 -13    8.23    0.36
  -3   7 -13    8.83    0.43
  -3   7 -13    8.84    0.38
  -4   7 -13    0.10    0.09
  -4   7 -13    0.21    0.11
  10   6 -13    1.28    0.15
   9   6 -13   10.13    0.48
   8   6 -13    3.42    0.23
  -8  -6  13    3.19    0.19
   7   6 -13    2.26    0.19
   7   6 -13    2.18    0.19
  -7  -6  13    2.16    0.16
   6   6 -13   21.38    0.82
   6   6 -13   20.49    0.86
  -6  -6  13   20.16    0.85
   5   6 -13    3.55    0.23
   5   6 -13    3.37    0.23
  -5  -6  13    3.55    0.21
   4   6 -13    7.19    0.37
   4   6 -13    7.86    0.37
  -4  -6  13    7.57    0.37
   3   6 -13    4.71    0.27
   3   6 -13    4.55    0.26
  -3  -6  13    4.09    0.25
   2   6 -13    9.79    0.45
   2   6 -13    9.38    0.43
  -2  -6  13    9.49    0.45
   1   6 -13    0.18    0.09
   1   6 -13    0.32    0.09
   1   6 -13    0.07    0.05
  -1  -6  13    0.21    0.08
   0   6 -13   27.54    1.09
   0   6 -13   26.97    1.05
   0   6 -13   26.50    0.93
   0  -6  13   27.20    1.13
  -1   6 -13    7.90    0.38
  -1   6 -13    7.72    0.33
  -2   6 -13    0.67    0.10
  -2   6 -13    0.77    0.13
  -3   6 -13    5.75    0.28
  -3   6 -13    5.68    0.32
  -4   6 -13    6.06    0.34
  -4   6 -13    6.28    0.31
  -5   6 -13    0.28    0.11
  -5   6 -13    0.10    0.10
  10   5 -13    1.77    0.18
   9   5 -13    3.10    0.22
   8   5 -13   13.48    0.60
  -8  -5  13   13.56    0.56
   7   5 -13    5.43    0.30
   7   5 -13    5.09    0.29
  -7  -5  13    5.23    0.26
   6   5 -13    6.02    0.33
   6   5 -13    6.02    0.31
  -6  -5  13    6.06    0.29
   5   5 -13   25.27    1.04
   5   5 -13   25.83    0.99
  -5  -5  13   25.77    1.05
   4   5 -13   11.32    0.47
   4   5 -13   11.78    0.51
   4   5 -13   12.02    0.54
  -4  -5  13   12.41    0.53
   3   5 -13   12.47    0.54
   3   5 -13   11.75    0.52
  -3  -5  13   11.70    0.53
   2   5 -13   45.16    1.70
   2   5 -13   42.12    1.62
  -2  -5  13   43.55    1.76
   1   5 -13    0.76    0.11
   1   5 -13    0.46    0.06
   1   5 -13    0.57    0.11
  -1  -5  13    0.32    0.10
   0   5 -13    2.54    0.19
   0   5 -13    2.21    0.18
   0   5 -13    1.58    0.14
   0  -5  13    1.80    0.20
  -1   5 -13    7.28    0.32
  -1   5 -13    7.92    0.38
  -2   5 -13   16.14    0.61
  -2   5 -13   17.17    0.69
  -3   5 -13    1.01    0.15
  -3   5 -13    0.67    0.11
  -4   5 -13   10.01    0.43
  -4   5 -13   10.53    0.47
  -5   5 -13    1.57    0.15
  -5   5 -13    2.27    0.21
  10   4 -13    6.34    0.34
   9   4 -13    3.81    0.25
   8   4 -13    6.49    0.32
   8   4 -13    6.09    0.33
  -8  -4  13    6.17    0.28
   7   4 -13   19.73    0.84
   7   4 -13   20.56    0.81
  -7  -4  13   20.40    0.82
   6   4 -13    3.88    0.23
   6   4 -13    3.69    0.24
  -6  -4  13    3.44    0.20
   5   4 -13    4.94    0.28
   5   4 -13    4.93    0.27
  -5  -4  13    4.64    0.25
   4   4 -13   29.05    1.20
   4   4 -13   30.41    1.14
  -4  -4  13   30.42    1.22
   3   4 -13   13.27    0.56
   3   4 -13   13.50    0.58
  -3  -4  13   13.15    0.58
   2   4 -13    2.14    0.19
   2   4 -13    2.13    0.19
  -2  -4  13    2.05    0.18
   1   4 -13   43.39    1.47
   1   4 -13   45.15    1.73
   1   4 -13   44.87    1.65
  -1  -4  13   44.03    1.79
   0   4 -13   22.18    0.78
   0   4 -13   22.50    0.88
   0   4 -13   21.82    0.91
   0  -4  13   23.01    0.95
  -1   4 -13   11.81    0.46
  -1   4 -13   12.19    0.54
  -1   4 -13   11.90    0.52
   1  -4  13   12.49    0.53
  -2   4 -13   16.17    0.60
  -2   4 -13   16.48    0.67
  -3   4 -13    3.19    0.21
  -3   4 -13    3.46    0.23
  -4   4 -13    0.33    0.11
  -4   4 -13    0.06    0.09
  -5   4 -13    8.01    0.37
  10   3 -13   11.63    0.53
   9   3 -13    7.93    0.39
   8   3 -13    0.09    0.08
   8   3 -13    0.19    0.09
  -8  -3  13    0.07    0.05
   7   3 -13    4.11    0.26
   7   3 -13    4.21    0.25
  -7  -3  13    4.13    0.21
   6   3 -13   25.95    0.99
   6   3 -13   25.18    1.03
  -6  -3  13   25.04    1.03
   5   3 -13    5.00    0.28
   5   3 -13    5.24    0.29
  -5  -3  13    5.03    0.26
   4   3 -13   10.70    0.47
   4   3 -13   10.63    0.49
  -4  -3  13   10.73    0.48
   3   3 -13   21.34    0.88
   3   3 -13   21.32    0.84
  -3  -3  13   21.40    0.89
   2   3 -13    8.61    0.39
   2   3 -13    8.49    0.40
  -2  -3  13    8.14    0.40
   1   3 -13    0.82    0.12
   1   3 -13    0.76    0.07
   1   3 -13    0.89    0.13
  -1  -3  13    0.74    0.11
   0   3 -13   16.13    0.66
   0   3 -13   15.88    0.68
   0   3 -13   15.24    0.57
   0  -3  13   15.32    0.67
   0  -3  13   17.19    0.71
  -1   3 -13   18.74    0.70
  -1   3 -13   20.13    0.79
   1  -3  13   20.70    0.82
  -2   3 -13    0.18    0.10
  -2   3 -13    0.13    0.08
  -3   3 -13   24.01    0.85
  -3   3 -13   23.55    0.93
  -4   3 -13    5.99    0.32
  -4   3 -13    5.83    0.30
  -5   3 -13    0.79    0.12
  10   2 -13    0.82    0.12
   9   2 -13    9.43    0.44
   9   2 -13    9.52    0.44
   8   2 -13   28.32    1.16
   8   2 -13   29.71    1.12
   7   2 -13    0.17    0.09
   7   2 -13    0.28    0.09
  -7  -2  13    0.19    0.06
   6   2 -13   19.26    0.76
   6   2 -13   19.40    0.79
  -6  -2  13   18.08    0.78
   5   2 -13   16.34    0.66
   5   2 -13   15.29    0.68
  -5  -2  13   16.65    0.68
   4   2 -13    4.43    0.27
   4   2 -13    4.84    0.27
  -4  -2  13    4.62    0.25
   3   2 -13    8.18    0.38
   3   2 -13    7.63    0.38
  -3  -2  13    8.08    0.38
   2   2 -13   31.64    1.21
   2   2 -13   31.77    1.26
  -2  -2  13   31.99    1.30
   1   2 -13    1.63    0.12
   1   2 -13    1.99    0.18
   1   2 -13    1.76    0.17
  -1  -2  13    1.93    0.18
  -1  -2  13    2.02    0.17
   0   2 -13    4.08    0.20
   0   2 -13    4.48    0.25
   0  -2  13    4.50    0.26
   0  -2  13    4.19    0.25
  -1   2 -13    6.80    0.30
  -1   2 -13    6.85    0.34
   1  -2  13    6.70    0.34
  -2   2 -13    2.60    0.20
  -2   2 -13    2.53    0.18
  -3   2 -13    0.14    0.10
  -3   2 -13    0.09    0.08
  -4   2 -13    2.66    0.20
  -5   2 -13    6.00    0.30
 -10  -1  13   10.45    0.48
   9   1 -13    0.08    0.07
   8   1 -13    8.07    0.39
   8   1 -13    8.19    0.39
  -8  -1  13    7.99    0.35
   7   1 -13   18.94    0.78
   7   1 -13   18.10    0.75
  -7  -1  13   18.74    0.76
   6   1 -13    4.73    0.28
   6   1 -13    4.83    0.28
  -6  -1  13    5.07    0.25
   5   1 -13   18.36    0.76
   5   1 -13   17.43    0.72
  -5  -1  13   18.09    0.75
   4   1 -13   33.55    1.36
   4   1 -13   35.08    1.30
  -4  -1  13   34.57    1.39
   3   1 -13    0.47    0.10
   3   1 -13    0.35    0.10
  -3  -1  13    0.40    0.08
  -3  -1  13    0.50    0.10
   2   1 -13    8.38    0.39
   2   1 -13    8.22    0.38
  -2  -1  13    8.28    0.39
  -2  -1  13    7.40    0.39
   1   1 -13   16.78    0.63
   1   1 -13   18.80    0.74
  -1  -1  13   17.89    0.79
  -1  -1  13   20.52    0.78
   0   1 -13    5.02    0.24
   0   1 -13    5.60    0.30
   0  -1  13    5.81    0.30
   0  -1  13    5.88    0.31
  -1   1 -13    8.26    0.34
  -1   1 -13    8.50    0.39
   1  -1  13    7.92    0.39
  -2   1 -13   11.68    0.47
  -2   1 -13   12.37    0.52
  -3   1 -13    0.09    0.09
  -4   1 -13    1.96    0.18
   9   0 -13    8.29    0.40
  -9   0  13    8.33    0.40
   8   0 -13    0.06    0.09
   8   0 -13    0.04    0.07
  -8   0  13    0.06    0.07
  -8   0  13    0.08    0.05
   7   0 -13   13.71    0.59
   7   0 -13   13.34    0.57
  -7   0  13   12.80    0.59
  -7   0  13   13.61    0.57
   6   0 -13   14.63    0.59
   6   0 -13   13.94    0.60
  -6   0  13   13.58    0.58
  -6   0  13   13.06    0.60
   5   0 -13    0.34    0.09
   5   0 -13    0.46    0.11
  -5   0  13    0.45    0.09
  -5   0  13    0.29    0.07
   4   0 -13    8.14    0.38
   4   0 -13    7.65    0.39
  -4   0  13    8.27    0.39
  -4   0  13    7.98    0.38
   3   0 -13   21.93    0.91
   3   0 -13   21.87    0.86
  -3   0  13   22.18    0.92
  -3   0  13   22.13    0.91
   2   0 -13    3.61    0.23
  -2   0  13    3.50    0.23
  -2   0  13    3.45    0.22
   1   0 -13   12.12    0.51
   1   0 -13   11.53    0.43
  -1   0  13   12.50    0.54
  -1   0  13   11.73    0.55
   0   0 -13   14.21    0.58
   0   0 -13   13.56    0.50
   0   0  13   14.36    0.63
   0   0  13   12.87    0.60
  -1   0 -13    0.82    0.13
  -1   0 -13    0.80    0.10
   1   0  13    0.90    0.12
  -2   0 -13    2.34    0.17
  -2   0 -13    2.37    0.19
  -3   0 -13   10.67    0.44
  -4   0 -13    1.03    0.13
  -9   1  13   10.67    0.49
  -9   1  13   10.88    0.47
  -8   1  13   10.77    0.45
  -8   1  13    9.57    0.47
   7  -1 -13    0.19    0.09
  -7   1  13    0.14    0.08
  -7   1  13    0.18    0.06
   6  -1 -13   17.35    0.74
  -6   1  13   19.78    0.78
  -6   1  13   18.13    0.77
   5  -1 -13   16.04    0.65
  -5   1  13   16.37    0.67
  -5   1  13   14.45    0.67
   4  -1 -13    0.14    0.09
  -4   1  13    0.09    0.07
  -4   1  13    0.09    0.07
   3  -1 -13   15.08    0.61
  -3   1  13   14.44    0.63
  -3   1  13   13.91    0.63
   2  -1 -13   13.31    0.58
  -2   1  13   14.47    0.61
  -2   1  13   13.23    0.60
   1  -1 -13    0.24    0.10
   1  -1 -13    0.13    0.05
  -1   1  13    0.16    0.08
  -1   1  13    0.16    0.08
   0  -1 -13    6.18    0.31
   0  -1 -13    5.77    0.26
   0   1  13    5.78    0.32
   0   1  13    6.06    0.33
  -1  -1 -13   10.41    0.42
  -1  -1 -13   11.48    0.48
   1   1  13   10.41    0.49
  -2  -1 -13    0.37    0.09
  -3  -1 -13    4.32    0.24
  -4  -1 -13    3.71    0.23
 -10   2  13    3.89    0.22
  -9   2  13    0.65    0.11
  -9   2  13    0.66    0.09
  -8   2  13   12.08    0.56
  -8   2  13   12.72    0.54
   7  -2 -13    8.30    0.40
  -7   2  13    7.77    0.40
  -7   2  13    8.45    0.38
   6  -2 -13    0.14    0.09
  -6   2  13    0.16    0.08
  -6   2  13    0.06    0.06
   5  -2 -13   12.92    0.59
  -5   2  13   14.73    0.61
  -5   2  13   14.07    0.62
   4  -2 -13   18.06    0.74
  -4   2  13   18.47    0.78
  -4   2  13   18.39    0.78
   3  -2 -13    0.03    0.08
  -3   2  13    0.05    0.07
  -3   2  13    0.06    0.07
   2  -2 -13   15.12    0.61
  -2   2  13   14.83    0.65
  -2   2  13   13.49    0.63
   1  -2 -13   11.83    0.45
   1  -2 -13   12.34    0.53
  -1   2  13   12.80    0.56
  -1   2  13   12.45    0.57
   0  -2 -13    0.23    0.06
   0  -2 -13    0.27    0.10
   0  -2 -13    0.21    0.07
   0   2  13    0.21    0.09
  -1  -2 -13    9.45    0.38
   1   2  13    9.61    0.46
  -2  -2 -13    5.82    0.28
   2   2  13    6.18    0.33
  -3  -2 -13   -0.05    0.08
  -9   3  13    3.28    0.21
  -9   3  13    2.96    0.22
  -8   3  13    1.90    0.16
  -8   3  13    1.63    0.17
  -7   3  13   11.32    0.53
  -7   3  13   11.88    0.52
   6  -3 -13    8.47    0.41
  -6   3  13    8.58    0.41
  -6   3  13    8.46    0.42
   5  -3 -13    1.26    0.15
  -5   3  13    1.05    0.13
  -5   3  13    1.04    0.12
   4  -3 -13   11.24    0.49
  -4   3  13   10.99    0.51
  -4   3  13   10.45    0.50
   3  -3 -13    5.98    0.31
  -3   3  13    5.74    0.32
  -3   3  13    5.70    0.32
   2  -3 -13    0.14    0.09
  -2   3  13    0.17    0.09
  -2   3  13    0.09    0.08
   1  -3 -13    7.54    0.31
   1  -3 -13    7.59    0.37
  -1   3  13    8.77    0.42
  -1   3  13    7.89    0.40
   0  -3 -13    7.30    0.31
   0  -3 -13    8.26    0.38
   0   3  13    7.45    0.39
  -1  -3 -13   -0.04    0.07
  -1  -3 -13    0.10    0.07
   1   3  13   -0.05    0.07
  -2  -3 -13    3.80    0.22
   2   3  13    3.62    0.25
  -3  -3 -13    6.65    0.32
  -8   4  13    6.12    0.35
  -8   4  13    6.96    0.34
  -7   4  13    3.36    0.22
  -7   4  13    3.12    0.23
  -6   4  13   14.72    0.67
  -6   4  13   15.77    0.67
   5  -4 -13    3.69    0.24
  -5   4  13    3.52    0.25
  -5   4  13    3.95    0.24
   4  -4 -13    1.20    0.15
  -4   4  13    1.18    0.14
  -4   4  13    1.48    0.17
   3  -4 -13   12.92    0.57
  -3   4  13   13.28    0.61
  -3   4  13   14.22    0.62
   2  -4 -13    4.52    0.27
  -2   4  13    4.24    0.28
  -2   4  13    4.59    0.28
   1  -4 -13    2.73    0.21
   1  -4 -13    2.39    0.14
  -1   4  13    2.78    0.22
   0  -4 -13    4.58    0.22
   0   4  13    4.63    0.29
  -1  -4 -13    1.86    0.15
   1   4  13    2.06    0.20
  -2  -4 -13    0.27    0.08
  -2  -4 -13    0.18    0.08
   2   4  13    0.21    0.10
  -8   5  13    8.82    0.43
  -7   5  13    2.91    0.22
  -7   5  13    2.58    0.21
  -6   5  13    0.84    0.13
  -6   5  13    0.79    0.12
  -5   5  13   12.21    0.59
  -5   5  13   13.95    0.60
  -4   5  13    5.67    0.34
  -4   5  13    6.61    0.35
  -3   5  13    3.66    0.26
  -3   5  13    3.90    0.26
   2  -5 -13   10.68    0.47
  -2   5  13   10.44    0.51
  -2   5  13    9.82    0.50
   1  -5 -13    3.61    0.18
  -1   5  13    3.62    0.26
   0  -5 -13    1.25    0.12
   0   5  13    1.04    0.14
  -1  -5 -13   11.62    0.45
   1   5  13   11.53    0.55
  -7   6  13    5.16    0.31
  -6   6  13    1.70    0.18
  -6   6  13    1.96    0.20
  -5   6  13    2.60    0.22
  -5   6  13    3.38    0.24
  -4   6  13    6.04    0.36
  -4   6  13    6.74    0.36
  -3   6  13    2.83    0.23
  -3   6  13    2.59    0.22
  -2   6  13    0.83    0.13
  -1   6  13   11.05    0.54
   0  -6 -13    2.45    0.15
   0   6  13    2.28    0.22
  -5   7  13    0.12    0.10
  -4   7  13    2.81    0.23
  -3   7  13    7.19    0.40
  -2   7  13    0.52    0.12
   5  12 -14    3.89    0.29
   4  12 -14   12.63    0.60
   3  12 -14    1.23    0.17
   3  12 -14    1.34    0.17
   2  12 -14    6.00    0.36
   2  12 -14    6.66    0.36
   1  12 -14   10.51    0.51
   6  11 -14    8.63    0.46
   5  11 -14    0.05    0.10
  -5 -11  14    0.24    0.09
   4  11 -14    4.82    0.31
  -4 -11  14    4.92    0.30
   3  11 -14    6.58    0.37
   3  11 -14    6.56    0.38
  -3 -11  14    8.00    0.39
   2  11 -14    3.17    0.25
   2  11 -14    3.33    0.25
  -2 -11  14    3.61    0.26
   1  11 -14    2.59    0.22
   1  11 -14    2.13    0.22
   0  11 -14   12.38    0.57
  -1  11 -14    2.31    0.22
  -1  11 -14    2.02    0.16
   7  10 -14    0.00    0.10
   6  10 -14    6.46    0.38
  -6 -10  14    7.10    0.37
   5  10 -14    6.70    0.39
  -5 -10  14    7.55    0.38
   4  10 -14    0.66    0.13
   4  10 -14    0.59    0.14
  -4 -10  14    0.59    0.11
   3  10 -14    8.31    0.43
   3  10 -14    7.84    0.41
  -3 -10  14    8.95    0.43
   2  10 -14    9.98    0.48
   2  10 -14   10.14    0.49
  -2 -10  14   10.39    0.50
   1  10 -14    0.14    0.12
   1  10 -14    0.00    0.09
  -1 -10  14    0.07    0.08
   0  10 -14    1.63    0.13
   0  10 -14    2.01    0.21
  -1  10 -14    4.63    0.23
  -1  10 -14    4.85    0.31
  -2  10 -14    2.68    0.19
  -2  10 -14    2.76    0.24
   8   9 -14   10.31    0.51
   7   9 -14    6.06    0.36
  -7  -9  14    6.73    0.34
   6   9 -14    0.38    0.12
  -6  -9  14    0.56    0.10
   5   9 -14    8.53    0.45
  -5  -9  14    9.13    0.43
   4   9 -14   10.16    0.46
   4   9 -14    9.56    0.48
  -4  -9  14    9.68    0.47
   3   9 -14    0.10    0.11
   3   9 -14   -0.08    0.08
  -3  -9  14    0.07    0.08
   2   9 -14    6.04    0.35
   2   9 -14    6.61    0.35
  -2  -9  14    6.78    0.36
   1   9 -14   13.13    0.58
   1   9 -14   12.12    0.56
  -1  -9  14   12.61    0.59
   0   9 -14    0.52    0.13
   0   9 -14    0.35    0.10
   0   9 -14    0.44    0.07
  -1   9 -14    8.82    0.44
  -1   9 -14    8.61    0.35
  -2   9 -14    3.43    0.26
  -2   9 -14    3.28    0.20
   9   8 -14    0.24    0.11
   8   8 -14    1.94    0.20
  -8  -8  14    2.30    0.18
   7   8 -14    3.82    0.27
  -7  -8  14    4.02    0.24
   6   8 -14   11.91    0.59
  -6  -8  14   13.68    0.58
   5   8 -14    0.25    0.11
   5   8 -14    0.47    0.11
  -5  -8  14    0.38    0.09
   4   8 -14   18.64    0.75
   4   8 -14   17.72    0.78
  -4  -8  14   18.32    0.79
   3   8 -14    6.70    0.36
   3   8 -14    7.00    0.37
  -3  -8  14    6.97    0.36
   2   8 -14    0.19    0.10
   2   8 -14    0.00    0.08
  -2  -8  14    0.02    0.08
   1   8 -14    7.60    0.39
   1   8 -14    7.35    0.39
  -1  -8  14    7.77    0.40
   0   8 -14    7.57    0.38
   0   8 -14    7.46    0.30
   0   8 -14    7.06    0.38
  -1   8 -14    0.58    0.09
  -1   8 -14    0.72    0.14
  -2   8 -14    3.93    0.22
  -2   8 -14    3.67    0.27
  -3   8 -14    8.93    0.39
  -3   8 -14    9.82    0.47
   9   7 -14   13.16    0.62
  -9  -7  14   14.51    0.60
   8   7 -14   13.91    0.66
  -8  -7  14   15.39    0.63
   7   7 -14    8.17    0.43
  -7  -7  14    8.70    0.40
   6   7 -14   23.25    0.91
   6   7 -14   22.95    0.96
  -6  -7  14   22.98    0.96
   5   7 -14    2.00    0.20
   5   7 -14    1.94    0.19
  -5  -7  14    2.39    0.18
   4   7 -14    0.09    0.08
   4   7 -14    0.15    0.10
  -4  -7  14    0.12    0.07
   3   7 -14   16.45    0.70
   3   7 -14   15.88    0.68
  -3  -7  14   16.25    0.71
   2   7 -14   16.73    0.73
   2   7 -14   17.34    0.76
  -2  -7  14   19.03    0.78
   1   7 -14    1.53    0.17
   1   7 -14    1.36    0.15
  -1  -7  14    1.12    0.14
   0   7 -14    8.43    0.42
   0   7 -14    9.13    0.43
   0   7 -14    8.38    0.34
   0  -7  14    8.96    0.44
  -1   7 -14    4.43    0.23
  -1   7 -14    4.54    0.29
  -2   7 -14   -0.09    0.10
  -2   7 -14   -0.20    0.07
  -3   7 -14    2.19    0.19
  -3   7 -14    2.76    0.23
  10   6 -14    2.36    0.21
   9   6 -14    1.14    0.15
  -9  -6  14    1.21    0.12
   8   6 -14    8.84    0.46
  -8  -6  14   10.17    0.43
   7   6 -14   10.89    0.54
  -7  -6  14   12.28    0.51
   6   6 -14    0.43    0.11
   6   6 -14    0.37    0.11
  -6  -6  14    0.51    0.08
   5   6 -14   33.84    1.38
   5   6 -14   35.32    1.32
  -5  -6  14   34.70    1.40
   4   6 -14   16.67    0.70
   4   6 -14   16.69    0.73
  -4  -6  14   17.49    0.73
   3   6 -14    4.80    0.29
   3   6 -14    5.02    0.30
  -3  -6  14    5.44    0.29
   2   6 -14    7.69    0.39
   2   6 -14    8.06    0.39
  -2  -6  14    7.79    0.39
   1   6 -14   10.22    0.47
   1   6 -14    9.99    0.48
  -1  -6  14   10.62    0.49
   0   6 -14    0.20    0.07
   0   6 -14    0.26    0.09
   0   6 -14    0.25    0.10
   0  -6  14    0.28    0.10
  -1   6 -14   14.16    0.62
  -1   6 -14   14.42    0.53
  -2   6 -14    4.69    0.29
  -2   6 -14    4.81    0.25
  -3   6 -14    0.51    0.11
  -3   6 -14    0.51    0.13
  10   5 -14   10.97    0.51
   9   5 -14    1.32    0.15
   8   5 -14    3.46    0.24
  -8  -5  14    3.70    0.20
   7   5 -14    9.80    0.44
   7   5 -14    8.87    0.45
  -7  -5  14    9.43    0.42
   6   5 -14    2.85    0.22
   6   5 -14    2.72    0.22
  -6  -5  14    2.77    0.18
   5   5 -14    0.25    0.10
   5   5 -14    0.11    0.09
  -5  -5  14    0.37    0.08
   4   5 -14    4.58    0.27
   4   5 -14    4.76    0.28
  -4  -5  14    4.79    0.26
   3   5 -14   17.58    0.75
   3   5 -14   17.59    0.72
  -3  -5  14   17.46    0.75
   2   5 -14    0.24    0.10
   2   5 -14    0.16    0.09
  -2  -5  14    0.03    0.07
   1   5 -14   18.78    0.78
   1   5 -14   18.70    0.76
  -1  -5  14   18.21    0.80
   0   5 -14    2.40    0.19
   0   5 -14    2.25    0.15
   0   5 -14    2.60    0.21
   0  -5  14    2.23    0.21
  -1   5 -14    0.00    0.07
  -1   5 -14    0.07    0.10
  -2   5 -14    3.46    0.24
  -2   5 -14    3.21    0.20
  -3   5 -14    6.56    0.35
  -3   5 -14    6.49    0.31
  -4   5 -14    0.25    0.10
  -4   5 -14    0.40    0.12
  10   4 -14    4.81    0.29
   9   4 -14    7.69    0.39
   8   4 -14    4.03    0.25
   8   4 -14    3.65    0.25
  -8  -4  14    3.49    0.20
   7   4 -14    6.00    0.33
   7   4 -14    6.18    0.33
  -7  -4  14    6.08    0.29
   6   4 -14   18.65    0.80
   6   4 -14   19.15    0.76
  -6  -4  14   18.72    0.78
   5   4 -14    0.55    0.11
   5   4 -14    0.67    0.12
  -5  -4  14    0.64    0.09
   4   4 -14    6.59    0.34
   4   4 -14    6.39    0.33
  -4  -4  14    6.02    0.32
   3   4 -14    5.92    0.32
   3   4 -14    5.95    0.33
  -3  -4  14    6.24    0.32
   2   4 -14    0.12    0.10
   2   4 -14    0.28    0.09
  -2  -4  14    0.17    0.08
   1   4 -14    0.18    0.09
   1   4 -14    0.13    0.10
  -1  -4  14    0.05    0.08
   0   4 -14    5.67    0.31
   0   4 -14    5.17    0.24
   0   4 -14    5.41    0.30
   0  -4  14    5.78    0.32
   0  -4  14    5.46    0.30
  -1   4 -14    4.85    0.27
  -1   4 -14    4.11    0.22
  -2   4 -14    1.87    0.17
  -2   4 -14    2.24    0.20
  -3   4 -14    4.62    0.25
  -3   4 -14    4.93    0.29
  -4   4 -14    0.90    0.14
  -4   4 -14    0.62    0.11
  10   3 -14    1.97    0.18
   9   3 -14    6.39    0.34
   9   3 -14    6.66    0.34
   8   3 -14   13.67    0.62
   8   3 -14   14.01    0.60
  -8  -3  14   14.22    0.59
   7   3 -14    0.61    0.12
   7   3 -14    0.61    0.11
  -7  -3  14    0.57    0.08
   6   3 -14    3.96    0.26
   6   3 -14    4.21    0.26
  -6  -3  14    4.14    0.23
   5   3 -14   16.95    0.75
   5   3 -14   17.89    0.73
  -5  -3  14   18.50    0.75
   4   3 -14    4.37    0.27
   4   3 -14    4.37    0.26
  -4  -3  14    4.21    0.25
   3   3 -14   13.06    0.56
   3   3 -14   12.92    0.58
  -3  -3  14   13.40    0.58
   2   3 -14   19.41    0.78
   2   3 -14   19.26    0.81
  -2  -3  14   19.69    0.83
   1   3 -14   -0.04    0.09
   1   3 -14    0.00    0.08
  -1  -3  14    0.03    0.08
  -1  -3  14    0.09    0.08
   0   3 -14    8.29    0.40
   0   3 -14    7.72    0.32
   0  -3  14    8.78    0.42
   0  -3  14    8.40    0.40
  -1   3 -14    6.90    0.30
  -1   3 -14    7.32    0.36
   1  -3  14    7.27    0.36
  -2   3 -14    0.26    0.08
  -2   3 -14    0.40    0.11
  -3   3 -14    2.28    0.20
  -3   3 -14    2.26    0.18
  10   2 -14    6.02    0.32
   9   2 -14    0.09    0.09
   9   2 -14    0.13    0.08
   8   2 -14    5.16    0.30
   8   2 -14    5.14    0.30
  -8  -2  14    5.32    0.25
   7   2 -14   12.42    0.56
   7   2 -14   12.55    0.54
  -7  -2  14   12.38    0.53
   6   2 -14    1.31    0.15
   6   2 -14    1.13    0.14
  -6  -2  14    1.25    0.13
   5   2 -14    9.45    0.48
   5   2 -14   10.53    0.47
  -5  -2  14   11.08    0.47
   4   2 -14   12.29    0.55
   4   2 -14   12.04    0.53
  -4  -2  14   12.40    0.55
   3   2 -14    0.99    0.13
   3   2 -14    1.28    0.15
  -3  -2  14    1.23    0.13
   2   2 -14    4.46    0.28
   2   2 -14    4.66    0.27
  -2  -2  14    4.56    0.27
  -2  -2  14    5.10    0.28
   1   2 -14   22.13    0.86
  -1  -2  14   20.95    0.89
  -1  -2  14   21.34    0.91
   0   2 -14    2.24    0.15
   0   2 -14    2.30    0.20
   0  -2  14    2.32    0.20
   0  -2  14    2.36    0.19
  -1   2 -14    9.54    0.43
  -1   2 -14    8.60    0.36
   1  -2  14    9.24    0.43
  -2   2 -14   12.44    0.52
  -2   2 -14   11.33    0.46
  -3   2 -14    1.02    0.14
  -3   2 -14    0.59    0.11
  10   1 -14    9.00    0.42
 -10  -1  14    8.26    0.42
   9   1 -14    7.48    0.38
  -9  -1  14    7.31    0.37
   8   1 -14    0.07    0.09
   8   1 -14    0.08    0.08
  -8  -1  14    0.02    0.05
  -8  -1  14    0.07    0.08
   7   1 -14   10.71    0.49
   7   1 -14   11.01    0.50
  -7  -1  14   10.86    0.47
   6   1 -14   11.82    0.53
   6   1 -14   11.98    0.54
  -6  -1  14   12.13    0.52
   5   1 -14    0.02    0.09
   5   1 -14    0.00    0.08
  -5  -1  14    0.00    0.08
  -5  -1  14    0.05    0.06
   4   1 -14    8.03    0.39
   4   1 -14    7.52    0.39
  -4  -1  14    7.92    0.40
  -4  -1  14    8.50    0.39
   3   1 -14   14.40    0.59
   3   1 -14   13.53    0.61
  -3  -1  14   13.51    0.61
  -3  -1  14   13.97    0.61
   2   1 -14    0.28    0.10
  -2  -1  14    0.37    0.09
  -2  -1  14    0.19    0.08
   1   1 -14    8.52    0.41
  -1  -1  14    8.41    0.42
  -1  -1  14    9.08    0.43
   0   1 -14    7.88    0.33
   0   1 -14    8.29    0.40
   0  -1  14    8.55    0.41
   0  -1  14    8.57    0.43
  -1   1 -14    1.46    0.16
  -1   1 -14    1.41    0.14
   1  -1  14    1.53    0.16
  -2   1 -14    3.40    0.23
  -2   1 -14    3.08    0.19
  -3   1 -14    9.51    0.40
  -9   0  14    5.17    0.26
  -9   0  14    5.73    0.31
   8   0 -14   10.05    0.47
   8   0 -14    9.68    0.47
  -8   0  14   10.09    0.44
  -8   0  14   10.38    0.48
   7   0 -14    0.11    0.08
   7   0 -14    0.09    0.09
  -7   0  14    0.18    0.06
  -7   0  14    0.15    0.08
   6   0 -14    8.75    0.40
   6   0 -14    7.78    0.40
  -6   0  14    8.40    0.41
  -6   0  14    7.85    0.38
   5   0 -14   12.88    0.58
   5   0 -14   12.60    0.56
  -5   0  14   12.34    0.58
  -5   0  14   13.56    0.57
   4   0 -14    0.16    0.09
  -4   0  14    0.31    0.08
  -4   0  14    0.27    0.09
   3   0 -14   16.81    0.70
  -3   0  14   16.17    0.72
  -3   0  14   17.78    0.74
   2   0 -14    9.68    0.45
  -2   0  14   10.50    0.47
  -2   0  14    9.48    0.46
   1   0 -14    0.01    0.09
  -1   0  14    0.04    0.08
  -1   0  14    0.00    0.07
   0   0 -14    6.63    0.34
   0   0 -14    6.17    0.27
   0   0  14    6.54    0.34
  -1   0 -14   11.06    0.48
  -1   0 -14    9.87    0.41
   1   0  14   10.71    0.49
  -2   0 -14    0.10    0.07
  -3   0 -14    3.94    0.23
  -9   1  14    1.60    0.17
  -9   1  14    1.76    0.15
  -8   1  14    7.07    0.36
  -8   1  14    7.10    0.34
   7  -1 -14    3.37    0.23
  -7   1  14    3.13    0.22
  -7   1  14    3.06    0.20
   6  -1 -14    0.11    0.09
  -6   1  14    0.14    0.07
  -6   1  14    0.20    0.09
   5  -1 -14   10.39    0.47
  -5   1  14    9.86    0.48
  -5   1  14   10.69    0.48
   4  -1 -14    4.57    0.28
  -4   1  14    5.38    0.29
  -4   1  14    4.74    0.27
   3  -1 -14   -0.01    0.09
  -3   1  14   -0.04    0.07
  -3   1  14    0.02    0.07
   2  -1 -14    7.74    0.37
  -2   1  14    7.86    0.39
  -2   1  14    6.93    0.38
   1  -1 -14   15.72    0.64
  -1   1  14   15.53    0.69
  -1   1  14   14.60    0.67
   0  -1 -14    0.21    0.10
   0  -1 -14    0.26    0.07
   0  -1 -14    0.15    0.06
   0   1  14    0.18    0.09
  -1  -1 -14    8.53    0.36
  -1  -1 -14    9.41    0.42
   1   1  14    8.39    0.43
  -2  -1 -14    3.98    0.22
  -9   2  14    2.68    0.20
  -9   2  14    2.26    0.17
  -8   2  14    1.51    0.14
  -8   2  14    0.99    0.13
   7  -2 -14   16.27    0.70
  -7   2  14   17.08    0.72
  -7   2  14   16.33    0.71
   6  -2 -14    4.83    0.29
  -6   2  14    4.90    0.29
  -6   2  14    4.97    0.28
   5  -2 -14    5.12    0.30
  -5   2  14    5.42    0.29
  -5   2  14    4.60    0.29
   4  -2 -14   13.87    0.60
  -4   2  14   14.06    0.63
  -4   2  14   14.09    0.63
   3  -2 -14    4.66    0.27
  -3   2  14    4.78    0.28
  -3   2  14    4.22    0.27
   2  -2 -14    3.31    0.23
  -2   2  14    3.14    0.23
  -2   2  14    3.28    0.24
   1  -2 -14    7.80    0.38
  -1   2  14    7.73    0.40
  -1   2  14    7.93    0.41
   0  -2 -14    3.42    0.24
   0  -2 -14    3.49    0.18
   0   2  14    3.54    0.24
  -1  -2 -14    0.31    0.08
  -1  -2 -14    0.29    0.07
   1   2  14    0.22    0.09
  -2  -2 -14    7.80    0.34
  -8   3  14    4.29    0.25
  -8   3  14    3.96    0.26
  -7   3  14    2.92    0.22
  -7   3  14    3.21    0.21
   6  -3 -14   12.12    0.54
  -6   3  14   12.50    0.55
  -6   3  14   11.52    0.55
   5  -3 -14    7.61    0.39
  -5   3  14    8.26    0.40
  -5   3  14    7.42    0.40
   4  -3 -14    1.70    0.18
  -4   3  14    1.52    0.18
  -4   3  14    1.90    0.18
   3  -3 -14   24.32    0.96
  -3   3  14   24.96    1.03
  -3   3  14   23.35    1.01
   2  -3 -14    8.79    0.41
  -2   3  14    7.59    0.42
  -2   3  14    9.30    0.44
   1  -3 -14    3.15    0.23
  -1   3  14    3.05    0.23
   0  -3 -14   13.89    0.52
   0   3  14   14.52    0.64
  -1  -3 -14    2.83    0.18
   1   3  14    2.92    0.23
  -8   4  14    6.12    0.34
  -7   4  14    3.07    0.22
  -6   4  14    1.68    0.18
  -6   4  14    1.51    0.17
  -5   4  14   13.06    0.62
  -5   4  14   14.38    0.63
   4  -4 -14    3.76    0.26
  -4   4  14    4.16    0.27
  -4   4  14    3.82    0.26
   3  -4 -14    0.65    0.13
  -3   4  14    0.59    0.12
  -3   4  14    0.72    0.12
   2  -4 -14    8.49    0.42
  -2   4  14    9.30    0.46
  -2   4  14    8.64    0.45
  -1   4  14   10.24    0.50
   0  -4 -14    0.10    0.06
   0   4  14    0.02    0.09
  -6   5  14    0.73    0.12
  -5   5  14    2.20    0.21
  -5   5  14    2.64    0.21
  -4   5  14    8.04    0.42
  -4   5  14    8.23    0.42
  -3   5  14    3.24    0.24
  -3   5  14    3.37    0.25
  -2   5  14    2.00    0.20
  -1   5  14    5.60    0.33
   4  11 -15   -0.06    0.10
   3  11 -15    5.80    0.35
   3  11 -15    5.89    0.34
   2  11 -15    3.08    0.25
   2  11 -15    3.24    0.25
   6  10 -15    0.22    0.11
   5  10 -15    3.67    0.27
   4  10 -15    3.97    0.28
   4  10 -15    3.80    0.27
  -4 -10  15    3.86    0.27
   3  10 -15    1.10    0.16
   3  10 -15    0.86    0.14
  -3 -10  15    0.97    0.13
   2  10 -15    5.69    0.34
   2  10 -15    5.36    0.33
  -2 -10  15    6.16    0.34
   1  10 -15    7.00    0.39
   1  10 -15    7.30    0.39
   0  10 -15    0.04    0.11
   7   9 -15    7.95    0.42
   6   9 -15    5.62    0.34
  -6  -9  15    5.86    0.32
   5   9 -15    0.22    0.10
   5   9 -15    0.41    0.13
  -5  -9  15    0.42    0.10
   4   9 -15    7.75    0.41
   4   9 -15    8.21    0.40
  -4  -9  15    7.63    0.40
   3   9 -15    3.25    0.25
   3   9 -15    2.95    0.24
  -3  -9  15    3.18    0.24
   2   9 -15    0.29    0.12
   2   9 -15    0.24    0.10
  -2  -9  15    0.19    0.09
   1   9 -15    2.31    0.21
   1   9 -15    2.49    0.22
  -1  -9  15    2.67    0.22
   0   9 -15    4.82    0.31
  -1   9 -15    0.07    0.12
  -1   9 -15   -0.06    0.07
   8   8 -15    2.34    0.22
   7   8 -15    0.34    0.11
  -7  -8  15    0.24    0.08
   6   8 -15    4.50    0.27
   6   8 -15    3.74    0.27
  -6  -8  15    3.95    0.25
   5   8 -15    7.77    0.39
   5   8 -15    7.33    0.40
  -5  -8  15    7.61    0.38
   4   8 -15    0.26    0.11
   4   8 -15    0.21    0.10
  -4  -8  15    0.25    0.09
   3   8 -15   10.73    0.50
   3   8 -15   10.37    0.51
  -3  -8  15   10.80    0.51
   2   8 -15    5.54    0.33
   2   8 -15    5.97    0.34
  -2  -8  15    6.02    0.33
   1   8 -15    0.90    0.15
   1   8 -15    1.11    0.14
  -1  -8  15    0.92    0.13
   0   8 -15    8.46    0.43
  -1   8 -15    1.92    0.15
  -1   8 -15    1.88    0.20
   8   7 -15    2.61    0.22
  -8  -7  15    2.81    0.19
   7   7 -15    4.46    0.30
  -7  -7  15    5.04    0.27
   6   7 -15    2.44    0.22
   6   7 -15    2.64    0.22
  -6  -7  15    2.22    0.18
   5   7 -15    6.99    0.38
   5   7 -15    7.02    0.37
  -5  -7  15    7.31    0.36
   4   7 -15    1.53    0.17
   4   7 -15    1.36    0.16
  -4  -7  15    1.49    0.17
   3   7 -15    0.13    0.11
   3   7 -15    0.23    0.09
  -3  -7  15    0.22    0.08
   2   7 -15    9.29    0.47
   2   7 -15    9.96    0.47
  -2  -7  15   10.42    0.48
   1   7 -15    5.88    0.34
   1   7 -15    6.06    0.34
  -1  -7  15    6.78    0.36
   0   7 -15    0.60    0.11
   0   7 -15    0.71    0.14
  -1   7 -15    9.53    0.45
  -1   7 -15    8.90    0.36
  -2   7 -15    5.09    0.31
  -2   7 -15    4.87    0.25
   9   6 -15    0.18    0.10
   8   6 -15    7.37    0.40
  -8  -6  15    8.18    0.37
   7   6 -15    5.32    0.30
   7   6 -15    4.89    0.30
  -7  -6  15    5.26    0.27
   6   6 -15    0.35    0.11
   6   6 -15    0.11    0.11
  -6  -6  15    0.23    0.08
   5   6 -15    2.26    0.20
   5   6 -15    2.34    0.21
  -5  -6  15    2.34    0.18
   4   6 -15   13.77    0.59
   4   6 -15   13.02    0.61
  -4  -6  15   13.87    0.61
   3   6 -15    1.63    0.18
   3   6 -15    1.79    0.19
  -3  -6  15    1.23    0.14
   2   6 -15    3.75    0.26
   2   6 -15    3.69    0.25
  -2  -6  15    4.27    0.26
   1   6 -15    6.98    0.37
   1   6 -15    7.12    0.37
  -1  -6  15    7.38    0.38
   0   6 -15    3.91    0.27
   0   6 -15    4.12    0.26
  -1   6 -15    0.44    0.13
  -1   6 -15    0.18    0.08
  -2   6 -15    6.78    0.36
  -2   6 -15    6.46    0.30
   9   5 -15    8.94    0.44
   8   5 -15    2.01    0.20
   8   5 -15    2.03    0.19
  -8  -5  15    2.12    0.16
   7   5 -15    7.49    0.40
   7   5 -15    7.92    0.39
  -7  -5  15    7.77    0.36
   6   5 -15   19.19    0.78
   6   5 -15   18.56    0.82
  -6  -5  15   19.59    0.81
   5   5 -15    0.66    0.12
   5   5 -15    0.63    0.13
  -5  -5  15    0.67    0.10
   4   5 -15    8.58    0.43
   4   5 -15    8.62    0.42
  -4  -5  15    8.56    0.42
   3   5 -15   14.85    0.64
   3   5 -15   14.29    0.66
  -3  -5  15   15.65    0.67
   2   5 -15    3.27    0.24
   2   5 -15    3.34    0.24
  -2  -5  15    3.36    0.24
   1   5 -15    5.31    0.30
   1   5 -15    5.27    0.30
  -1  -5  15    5.06    0.31
   0   5 -15   11.94    0.54
   0   5 -15   12.11    0.54
   0  -5  15   11.76    0.54
  -1   5 -15    1.98    0.15
  -1   5 -15    1.89    0.20
  -2   5 -15    0.42    0.09
  -2   5 -15    0.69    0.14
   9   4 -15    4.09    0.27
   8   4 -15    7.17    0.39
   8   4 -15    7.62    0.38
  -8  -4  15    7.73    0.35
   7   4 -15    1.08    0.15
   7   4 -15    1.39    0.16
  -7  -4  15    1.22    0.14
   6   4 -15    4.45    0.29
   6   4 -15    5.07    0.29
  -6  -4  15    5.14    0.27
   5   4 -15   17.53    0.74
   5   4 -15   16.66    0.76
  -5  -4  15   19.29    0.77
   4   4 -15    3.49    0.24
   4   4 -15    3.14    0.23
  -4  -4  15    3.41    0.23
   3   4 -15    5.87    0.32
   3   4 -15    5.69    0.32
  -3  -4  15    5.58    0.31
   2   4 -15   18.07    0.76
   2   4 -15   18.08    0.78
  -2  -4  15   19.08    0.80
   1   4 -15    3.85    0.25
   1   4 -15    3.87    0.26
  -1  -4  15    3.75    0.26
  -1  -4  15    3.96    0.25
   0   4 -15    3.31    0.23
   0   4 -15    2.90    0.16
   0  -4  15    3.03    0.22
  -1   4 -15   11.21    0.44
  -1   4 -15   11.96    0.53
  -2   4 -15    2.27    0.21
  -2   4 -15    1.95    0.17
   9   3 -15    0.06    0.10
   9   3 -15   -0.01    0.08
   8   3 -15    7.80    0.38
   8   3 -15    6.93    0.38
  -8  -3  15    7.74    0.35
   7   3 -15    9.88    0.46
   7   3 -15    9.44    0.47
  -7  -3  15   10.20    0.44
   6   3 -15    0.17    0.10
   6   3 -15    0.01    0.08
  -6  -3  15    0.11    0.07
   5   3 -15    6.97    0.36
   5   3 -15    6.57    0.36
  -5  -3  15    7.18    0.35
   4   3 -15   12.52    0.56
   4   3 -15   12.57    0.58
  -4  -3  15   13.30    0.58
   3   3 -15    1.16    0.14
   3   3 -15    1.07    0.15
  -3  -3  15    1.33    0.14
   2   3 -15    5.49    0.31
   2   3 -15    5.51    0.31
  -2  -3  15    5.44    0.31
  -2  -3  15    4.70    0.29
   1   3 -15    9.73    0.45
   1   3 -15    9.38    0.46
  -1  -3  15    9.72    0.47
  -1  -3  15    9.84    0.46
   0   3 -15    2.77    0.22
   0  -3  15    2.68    0.20
  -1   3 -15    1.17    0.11
  -1   3 -15    1.54    0.17
  -2   3 -15    8.89    0.37
  -2   3 -15    8.88    0.43
   9   2 -15    8.62    0.42
   9   2 -15    7.98    0.41
   8   2 -15    0.09    0.08
   8   2 -15    0.10    0.10
  -8  -2  15    0.03    0.05
   7   2 -15   10.80    0.49
   7   2 -15   10.72    0.50
  -7  -2  15   10.61    0.47
   6   2 -15    9.55    0.47
   6   2 -15    9.83    0.46
  -6  -2  15   10.29    0.46
   5   2 -15    0.08    0.09
   5   2 -15    0.19    0.10
  -5  -2  15    0.15    0.07
   4   2 -15    9.17    0.46
   4   2 -15    9.18    0.44
  -4  -2  15    9.84    0.45
  -4  -2  15   10.03    0.46
   3   2 -15   12.69    0.58
   3   2 -15   13.10    0.56
  -3  -2  15   13.61    0.58
  -3  -2  15   11.45    0.57
   2   2 -15    0.87    0.14
  -2  -2  15    0.91    0.12
  -2  -2  15    1.00    0.13
   1   2 -15    7.39    0.37
  -1  -2  15    7.17    0.38
  -1  -2  15    7.12    0.37
   0   2 -15    9.32    0.37
   0   2 -15   10.58    0.47
   0  -2  15   10.13    0.47
  -1   2 -15    0.23    0.11
  -1   2 -15    0.16    0.07
  -2   2 -15    2.12    0.20
  -2   2 -15    1.86    0.16
   9   1 -15    5.53    0.31
  -9  -1  15    5.61    0.27
  -9  -1  15    5.07    0.31
   8   1 -15    3.86    0.26
   8   1 -15    4.26    0.27
  -8  -1  15    3.76    0.22
  -8  -1  15    3.74    0.26
   7   1 -15    0.09    0.09
   7   1 -15    0.08    0.10
  -7  -1  15    0.15    0.06
  -7  -1  15    0.12    0.09
   6   1 -15   12.36    0.56
   6   1 -15   12.90    0.55
  -6  -1  15   12.23    0.54
  -6  -1  15   11.87    0.56
   5   1 -15   12.85    0.57
   5   1 -15   12.42    0.59
  -5  -1  15   13.44    0.58
  -5  -1  15   13.94    0.60
   4   1 -15    0.16    0.09
   4   1 -15   -0.09    0.09
  -4  -1  15    0.04    0.08
  -4  -1  15    0.09    0.07
   3   1 -15    8.57    0.40
  -3  -1  15    7.10    0.39
  -3  -1  15    8.34    0.40
   2   1 -15   10.32    0.46
  -2  -1  15    8.90    0.46
  -2  -1  15   10.66    0.49
   1   1 -15    0.80    0.14
  -1  -1  15    0.61    0.11
  -1  -1  15    0.66    0.12
   0   1 -15    4.34    0.20
   0   1 -15    4.60    0.27
   0  -1  15    4.09    0.26
  -1   1 -15    9.27    0.38
  -1   1 -15   10.30    0.46
  -2   1 -15    0.59    0.09
  -9   0  15    1.14    0.14
   8   0 -15   19.88    0.82
  -8   0  15   21.52    0.83
  -8   0  15   18.19    0.84
   7   0 -15    4.54    0.28
  -7   0  15    4.58    0.25
  -7   0  15    4.20    0.27
   6   0 -15    2.10    0.19
  -6   0  15    1.62    0.18
  -6   0  15    1.83    0.17
   5   0 -15    6.65    0.34
  -5   0  15    6.37    0.33
  -5   0  15    5.81    0.33
   4   0 -15   12.80    0.55
  -4   0  15   11.78    0.57
  -4   0  15   12.90    0.57
   3   0 -15    0.04    0.10
  -3   0  15    0.16    0.08
  -3   0  15    0.15    0.09
   2   0 -15   13.98    0.59
  -2   0  15   13.86    0.63
  -2   0  15   13.23    0.61
   1   0 -15    5.65    0.32
  -1   0  15    6.80    0.35
  -1   0  15    5.70    0.33
   0   0 -15    0.14    0.10
   0   0  15    0.11    0.08
  -1   0 -15    2.48    0.17
  -1   0 -15    2.77    0.22
   1   0  15    2.50    0.21
  -9   1  15    5.45    0.31
  -8   1  15    0.06    0.07
  -8   1  15    0.02    0.08
   7  -1 -15   14.68    0.62
  -7   1  15   13.15    0.62
  -7   1  15   14.07    0.61
   6  -1 -15   18.54    0.76
  -6   1  15   19.29    0.78
  -6   1  15   16.92    0.78
   5  -1 -15    2.50    0.21
  -5   1  15    2.02    0.19
  -5   1  15    2.12    0.19
   4  -1 -15   18.81    0.76
  -4   1  15   17.60    0.79
  -4   1  15   18.57    0.80
   3  -1 -15    3.53    0.25
  -3   1  15    3.53    0.24
  -3   1  15    3.22    0.24
   2  -1 -15    0.33    0.11
  -2   1  15    0.20    0.10
  -2   1  15    0.26    0.09
   1  -1 -15    6.25    0.33
  -1   1  15    5.81    0.33
   0  -1 -15   10.92    0.48
   0   1  15    9.95    0.49
  -1  -1 -15    0.17    0.07
  -1  -1 -15    0.31    0.08
   1   1  15    0.42    0.10
  -8   2  15    3.08    0.23
   7  -2 -15    0.42    0.12
  -7   2  15    0.05    0.09
  -7   2  15    0.24    0.08
   6  -2 -15    5.82    0.32
  -6   2  15    5.28    0.32
  -6   2  15    5.65    0.31
   5  -2 -15    8.41    0.41
  -5   2  15    8.25    0.41
  -5   2  15    7.79    0.41
   4  -2 -15    1.17    0.15
  -4   2  15    0.96    0.13
  -4   2  15    0.84    0.13
   3  -2 -15   14.26    0.61
  -3   2  15   13.52    0.63
  -3   2  15   14.66    0.65
   2  -2 -15   10.23    0.47
  -2   2  15   10.78    0.51
  -2   2  15    9.37    0.49
   1  -2 -15    1.83    0.19
  -1   2  15    1.69    0.18
   0   2  15    2.93    0.23
  -7   3  15    1.30    0.15
  -6   3  15    2.55    0.21
   5  -3 -15    5.06    0.30
  -5   3  15    4.52    0.29
  -5   3  15    5.25    0.30
   4  -3 -15    0.92    0.14
  -4   3  15    1.06    0.14
  -4   3  15    0.75    0.13
   3  -3 -15    0.23    0.11
  -3   3  15    0.25    0.10
  -3   3  15    0.16    0.10
   2  -3 -15    1.82    0.18
  -2   3  15    1.31    0.16
   1  -3 -15    5.36    0.30
  -1   3  15    5.04    0.31
  -5   4  15    3.21    0.24
   4  -4 -15   11.01    0.49
  -4   4  15    9.51    0.50
   3  -4 -15    0.44    0.12
  -3   4  15    0.51    0.11
   5   9 -16    4.96    0.31
   5   9 -16    4.87    0.31
   4   9 -16    0.09    0.11
   4   9 -16    0.13    0.10
   3   9 -16    8.76    0.45
   3   9 -16    8.99    0.45
   2   9 -16    5.35    0.32
   2   9 -16    5.62    0.34
   6   8 -16    0.92    0.15
   6   8 -16    1.02    0.16
   5   8 -16    6.60    0.38
   5   8 -16    7.40    0.38
   4   8 -16    4.14    0.28
   4   8 -16    4.50    0.29
  -4  -8  16    4.36    0.27
   3   8 -16    0.14    0.11
   3   8 -16    0.16    0.09
  -3  -8  16    0.26    0.09
   2   8 -16    5.31    0.32
   2   8 -16    5.74    0.33
  -2  -8  16    5.57    0.33
   1   8 -16    5.21    0.32
   1   8 -16    5.29    0.31
   7   7 -16   10.29    0.50
   6   7 -16    3.65    0.26
   6   7 -16    3.62    0.26
  -6  -7  16    3.46    0.23
   5   7 -16    3.01    0.23
   5   7 -16    2.83    0.23
  -5  -7  16    2.93    0.21
   4   7 -16    7.90    0.40
   4   7 -16    7.47    0.40
  -4  -7  16    7.84    0.39
   3   7 -16    2.75    0.23
   3   7 -16    2.88    0.24
  -3  -7  16    2.97    0.23
   2   7 -16    0.92    0.15
   2   7 -16    0.71    0.13
  -2  -7  16    0.56    0.12
   1   7 -16    5.20    0.31
   1   7 -16    5.18    0.30
  -1  -7  16    5.00    0.32
   0   7 -16    2.31    0.22
   8   6 -16    2.04    0.20
   7   6 -16    1.65    0.19
   7   6 -16    1.86    0.20
   6   6 -16   10.46    0.49
   6   6 -16   10.37    0.51
  -6  -6  16   10.51    0.48
   5   6 -16    3.55    0.25
   5   6 -16    3.41    0.25
  -5  -6  16    3.52    0.23
   4   6 -16    2.38    0.21
   4   6 -16    2.71    0.22
  -4  -6  16    2.56    0.20
   3   6 -16    9.78    0.48
   3   6 -16   10.07    0.47
  -3  -6  16    9.87    0.48
   2   6 -16    1.84    0.18
   2   6 -16    1.74    0.19
  -2  -6  16    1.31    0.16
   1   6 -16    1.66    0.18
   1   6 -16    1.57    0.18
  -1  -6  16    1.48    0.16
   0   6 -16    5.52    0.32
   8   5 -16    8.36    0.43
   8   5 -16    8.80    0.43
   7   5 -16    0.25    0.12
   7   5 -16    0.25    0.10
  -7  -5  16    0.17    0.07
   6   5 -16    3.50    0.25
   6   5 -16    3.24    0.24
  -6  -5  16    3.21    0.22
   5   5 -16    5.58    0.33
   5   5 -16    5.72    0.33
  -5  -5  16    5.96    0.32
   4   5 -16    2.62    0.22
   4   5 -16    2.45    0.21
  -4  -5  16    2.41    0.20
   3   5 -16    2.23    0.20
   3   5 -16    1.95    0.20
  -3  -5  16    1.99    0.20
   2   5 -16   11.05    0.53
   2   5 -16   11.08    0.52
  -2  -5  16   12.15    0.55
   1   5 -16    1.32    0.15
   1   5 -16    1.39    0.17
  -1  -5  16    0.89    0.14
  -1  -5  16    1.33    0.15
   0   5 -16    2.68    0.23
   8   4 -16    4.65    0.28
   8   4 -16    4.18    0.28
   7   4 -16    8.49    0.44
   7   4 -16    8.90    0.43
  -7  -4  16    8.93    0.41
   6   4 -16    1.67    0.18
   6   4 -16    1.72    0.18
  -6  -4  16    1.65    0.17
   5   4 -16    7.71    0.41
   5   4 -16    8.05    0.41
  -5  -4  16    8.43    0.40
   4   4 -16    9.92    0.48
   4   4 -16    9.54    0.48
  -4  -4  16   10.84    0.48
   3   4 -16    0.02    0.10
   3   4 -16    0.02    0.08
  -3  -4  16   -0.12    0.08
   2   4 -16    2.06    0.19
   2   4 -16    2.14    0.20
  -2  -4  16    1.77    0.20
  -2  -4  16    1.94    0.18
   1   4 -16    6.85    0.37
  -1  -4  16    7.17    0.37
  -1  -4  16    7.36    0.39
   0   4 -16    2.62    0.23
   0  -4  16    2.68    0.20
   8   3 -16    0.01    0.09
   8   3 -16    0.10    0.10
   7   3 -16    5.23    0.30
   7   3 -16    5.15    0.31
  -7  -3  16    4.93    0.27
   6   3 -16    7.03    0.37
   6   3 -16    6.57    0.37
  -6  -3  16    7.11    0.35
   5   3 -16    0.44    0.11
   5   3 -16    0.53    0.13
  -5  -3  16    0.58    0.10
   4   3 -16    2.65    0.21
   4   3 -16    2.82    0.22
  -4  -3  16    2.30    0.20
  -4  -3  16    2.50    0.20
   3   3 -16   12.30    0.55
   3   3 -16   12.31    0.57
  -3  -3  16   11.69    0.56
  -3  -3  16   13.18    0.58
   2   3 -16    0.68    0.14
  -2  -3  16    0.70    0.12
  -2  -3  16    1.03    0.13
   1   3 -16    6.88    0.36
  -1  -3  16    7.01    0.36
  -1  -3  16    6.89    0.37
   0   3 -16    3.81    0.26
   0  -3  16    3.46    0.24
   8   2 -16   11.00    0.49
   8   2 -16    9.91    0.49
  -8  -2  16    9.31    0.48
   7   2 -16    0.06    0.08
   7   2 -16    0.13    0.10
  -7  -2  16    0.16    0.07
  -7  -2  16    0.04    0.08
   6   2 -16    8.40    0.41
   6   2 -16    8.24    0.42
  -6  -2  16    8.54    0.40
  -6  -2  16    7.76    0.42
   5   2 -16    4.72    0.28
   5   2 -16    4.26    0.28
  -5  -2  16    4.80    0.27
  -5  -2  16    4.63    0.29
   4   2 -16    0.01    0.10
   4   2 -16   -0.11    0.08
  -4  -2  16   -0.08    0.07
  -4  -2  16   -0.15    0.07
   3   2 -16    4.35    0.27
  -3  -2  16    4.41    0.27
  -3  -2  16    4.07    0.27
   2   2 -16    3.92    0.26
  -2  -2  16    3.62    0.24
  -2  -2  16    3.78    0.26
   1   2 -16    0.88    0.14
  -1  -2  16    0.74    0.12
  -1  -2  16    0.55    0.12
   0   2 -16    2.70    0.23
   0  -2  16    3.11    0.22
   8   1 -16    6.04    0.33
  -8  -1  16    5.63    0.33
   7   1 -16    3.11    0.24
  -7  -1  16    2.94    0.23
   6   1 -16    0.67    0.13
  -6  -1  16    0.60    0.10
  -6  -1  16    0.57    0.11
   5   1 -16    9.96    0.46
  -5  -1  16    9.70    0.46
  -5  -1  16    8.88    0.46
   4   1 -16    8.57    0.43
  -4  -1  16    9.40    0.44
  -4  -1  16    8.40    0.43
   3   1 -16    1.06    0.15
  -3  -1  16    1.12    0.13
  -3  -1  16    0.85    0.13
   2   1 -16    8.37    0.40
  -2  -1  16    7.69    0.40
  -2  -1  16    8.03    0.42
   1   1 -16    3.56    0.25
  -1  -1  16    3.40    0.24
   0   1 -16    0.02    0.11
   0  -1  16    0.17    0.08
   7   0 -16   11.21    0.51
  -7   0  16   10.44    0.51
   6   0 -16    3.41    0.25
  -6   0  16    3.23    0.24
  -6   0  16    3.58    0.23
   5   0 -16    1.80    0.19
  -5   0  16    1.80    0.17
  -5   0  16    1.53    0.17
   4   0 -16    2.74    0.22
  -4   0  16    2.43    0.21
  -4   0  16    2.69    0.21
   3   0 -16    6.99    0.37
  -3   0  16    6.79    0.37
  -3   0  16    6.88    0.37
   2   0 -16    0.05    0.10
  -2   0  16    0.21    0.09
  -2   0  16    0.13    0.09
   1   0 -16   11.93    0.51
  -1   0  16   10.30    0.52
   7  -1 -16    1.01    0.15
  -7   1  16    0.64    0.12
   6  -1 -16    2.75    0.23
  -6   1  16    2.76    0.22
   5  -1 -16    5.72    0.32
  -5   1  16    4.87    0.31
   4  -1 -16    1.33    0.17
  -4   1  16    1.54    0.17
   3  -1 -16   11.02    0.50
  -3   1  16   10.27    0.51
   2  -1 -16    1.05    0.16
  -2   1  16    0.88    0.13
   5  -2 -16    6.38    0.35
  -5   2  16    5.99    0.35
   4  -2 -16    0.75    0.15
  -4   2  16    0.77    0.13
   5   6 -17    7.65    0.39
   5   6 -17    6.91    0.39
   4   6 -17    2.43    0.21
   4   6 -17    2.39    0.22
   3   6 -17    2.19    0.22
   3   6 -17    1.97    0.20
   6   5 -17   -0.01    0.11
   6   5 -17    0.03    0.08
   5   5 -17    4.15    0.27
   5   5 -17    3.83    0.27
   4   5 -17    3.27    0.24
   4   5 -17    3.41    0.25
   3   5 -17    0.46    0.11
   3   5 -17    1.04    0.16
   2   5 -17    0.97    0.15
   2   5 -17    1.25    0.15
  -2  -5  17    0.93    0.14
   6   4 -17    3.95    0.27
   6   4 -17    3.82    0.26
   5   4 -17    0.34    0.11
   5   4 -17    0.53    0.13
   4   4 -17    6.15    0.34
   4   4 -17    5.80    0.34
  -4  -4  17    6.21    0.34
   3   4 -17    5.50    0.32
   3   4 -17    5.77    0.33
  -3  -4  17    5.24    0.32
   2   4 -17    0.20    0.11
  -2  -4  17    0.06    0.08
   6   3 -17   10.00    0.47
   6   3 -17    9.15    0.47
   5   3 -17    4.05    0.27
   5   3 -17    4.09    0.27
  -5  -3  17    3.62    0.26
   4   3 -17    0.03    0.11
   4   3 -17    0.05    0.09
  -4  -3  17   -0.09    0.08
   3   3 -17    4.78    0.30
  -3  -3  17    5.03    0.30
   5   2 -17    9.59    0.46
  -5  -2  17    9.23    0.46
   4   2 -17    8.29    0.41
  -4  -2  17    7.67    0.41
   3   2 -17    0.18    0.11
  -3  -2  17    0.10    0.09
   0   0   0    0.00    0.00
;
_shelx_hkl_checksum              75969
loop_
_space_group_symop_operation_xyz
'x, y, z'
'-x, -y, -z'
loop_
_atom_site_label
_atom_site_type_symbol
_atom_site_fract_x
_atom_site_fract_y
_atom_site_fract_z
_atom_site_U_iso_or_equiv
_atom_site_adp_type
_atom_site_occupancy
_atom_site_site_symmetry_order
_atom_site_calc_flag
_atom_site_refinement_flags_posn
_atom_site_refinement_flags_adp
_atom_site_refinement_flags_occupancy
_atom_site_disorder_assembly
_atom_site_disorder_group
N1 N 0.19792(12) 0.13971(9) -0.02879(9) 0.01412(11) Uani 1 1 d . . . . .
H1N H 0.221(3) 0.124(2) 0.070(2) 0.027(5) Uiso 1 1 d . . . . .
N2 N 0.29034(12) -0.11367(9) -0.09311(9) 0.01464(11) Uani 1 1 d . . . . .
H2N H 0.300(3) -0.189(2) -0.163(3) 0.032(5) Uiso 1 1 d . . . . .
N3 N 0.29733(12) -0.03834(9) 0.16239(9) 0.01496(12) Uani 1 1 d . . . . .
C1 C 0.13855(15) 0.27382(11) -0.06437(11) 0.01731(14) Uani 1 1 d . . . . .
H1 H 0.1169 0.3565 0.0118 0.021 Uiso 1 1 calc R U . . .
C2 C 0.10993(16) 0.29050(12) -0.20853(12) 0.01943(15) Uani 1 1 d . . . . .
H2 H 0.0696 0.3842 -0.2336 0.023 Uiso 1 1 calc R U . . .
C3 C 0.14165(16) 0.16517(13) -0.31923(11) 0.01925(15) Uani 1 1 d . . . . .
H3 H 0.1226 0.1745 -0.4202 0.023 Uiso 1 1 calc R U . . .
C4 C 0.19958(15) 0.03008(11) -0.28286(10) 0.01672(14) Uani 1 1 d . . . . .
H4 H 0.2194 -0.0545 -0.3583 0.020 Uiso 1 1 calc R U . . .
C5 C 0.22950(13) 0.01785(10) -0.13185(9) 0.01333(12) Uani 1 1 d . . . . .
C6 C 0.31674(13) -0.14907(10) 0.04610(10) 0.01325(12) Uani 1 1 d . . . . .
C7 C 0.36411(15) -0.29887(11) 0.05758(11) 0.01701(14) Uani 1 1 d . . . . .
H7 H 0.3743 -0.3757 -0.0283 0.020 Uiso 1 1 calc R U . . .
C8 C 0.39533(16) -0.33070(12) 0.19811(13) 0.01975(16) Uani 1 1 d . . . . .
H8 H 0.4292 -0.4303 0.2108 0.024 Uiso 1 1 calc R U . . .
C9 C 0.37679(16) -0.21548(13) 0.32121(12) 0.01958(15) Uani 1 1 d . . . . .
H9 H 0.3978 -0.2350 0.4187 0.023 Uiso 1 1 calc R U . . .
C10 C 0.32722(15) -0.07240(12) 0.29794(11) 0.01758(14) Uani 1 1 d . . . . .
H10 H 0.3135 0.0058 0.3815 0.021 Uiso 1 1 calc R U . . .
O1S O 0.62552(14) 0.33360(11) 0.31892(11) 0.02822(18) Uani 1 1 d . . . . .
H1O H 0.5202 0.3341 0.3356 0.042 Uiso 1 1 d R U . . .
H1P H 0.7142 0.3971 0.3927 0.042 Uiso 1 1 d R U . . .
I1 I 0.16168(2) 0.35160(2) 0.34953(2) 0.01533(2) Uani 1 1 d . . . . .
loop_
_atom_site_aniso_label
_atom_site_aniso_U_11
_atom_site_aniso_U_22
_atom_site_aniso_U_33
_atom_site_aniso_U_23
_atom_site_aniso_U_13
_atom_site_aniso_U_12
N1 0.0150(3) 0.0148(3) 0.0130(3) 0.0045(2) 0.0045(2) 0.0029(2)
N2 0.0176(3) 0.0134(2) 0.0125(2) 0.0025(2) 0.0050(2) 0.0021(2)
N3 0.0172(3) 0.0153(3) 0.0130(3) 0.0040(2) 0.0056(2) 0.0022(2)
C1 0.0182(4) 0.0161(3) 0.0188(3) 0.0066(3) 0.0061(3) 0.0044(3)
C2 0.0193(4) 0.0204(4) 0.0203(4) 0.0104(3) 0.0048(3) 0.0037(3)
C3 0.0191(4) 0.0246(4) 0.0150(3) 0.0095(3) 0.0037(3) 0.0008(3)
C4 0.0177(3) 0.0202(3) 0.0124(3) 0.0047(3) 0.0047(3) 0.0005(3)
C5 0.0121(3) 0.0151(3) 0.0125(3) 0.0038(2) 0.0035(2) 0.0008(2)
C6 0.0126(3) 0.0135(3) 0.0136(3) 0.0039(2) 0.0040(2) 0.0010(2)
C7 0.0183(4) 0.0137(3) 0.0199(3) 0.0050(3) 0.0072(3) 0.0026(3)
C8 0.0203(4) 0.0179(3) 0.0244(4) 0.0105(3) 0.0080(3) 0.0033(3)
C9 0.0202(4) 0.0232(4) 0.0190(3) 0.0114(3) 0.0069(3) 0.0032(3)
C10 0.0199(4) 0.0202(3) 0.0142(3) 0.0061(3) 0.0065(3) 0.0028(3)
O1S 0.0212(3) 0.0293(4) 0.0262(4) -0.0095(3) 0.0099(3) -0.0012(3)
I1 0.01693(3) 0.01492(3) 0.01493(3) 0.00334(2) 0.00676(2) 0.00199(2)
loop_
_atom_type_symbol
_atom_type_description
_atom_type_scat_dispersion_real
_atom_type_scat_dispersion_imag
_atom_type_scat_source
C C 0.0033 0.0016 'International Tables Vol C Tables 4.2.6.8 and 6.1.1.4'
H H 0.0000 0.0000 'International Tables Vol C Tables 4.2.6.8 and 6.1.1.4'
I I -0.4742 1.8119 'International Tables Vol C Tables 4.2.6.8 and 6.1.1.4'
N N 0.0061 0.0033 'International Tables Vol C Tables 4.2.6.8 and 6.1.1.4'
O O 0.0106 0.0060 'International Tables Vol C Tables 4.2.6.8 and 6.1.1.4'
loop_
_geom_angle_atom_site_label_1
_geom_angle_atom_site_label_2
_geom_angle_atom_site_label_3
_geom_angle
_geom_angle_site_symmetry_1
_geom_angle_site_symmetry_3
C5 N1 C1 122.59(8) . .
C5 N1 H1N 114.4(12) . .
C1 N1 H1N 123.1(12) . .
C5 N2 C6 127.76(8) . .
C5 N2 H2N 117.7(15) . .
C6 N2 H2N 114.0(15) . .
C6 N3 C10 117.84(8) . .
N1 C1 C2 120.56(9) . .
N1 C1 H1 119.7 . .
C2 C1 H1 119.7 . .
C1 C2 C3 118.32(9) . .
C1 C2 H2 120.8 . .
C3 C2 H2 120.8 . .
C4 C3 C2 120.73(9) . .
C4 C3 H3 119.6 . .
C2 C3 H3 119.6 . .
C3 C4 C5 119.26(9) . .
C3 C4 H4 120.4 . .
C5 C4 H4 120.4 . .
N1 C5 N2 121.42(8) . .
N1 C5 C4 118.53(8) . .
N2 C5 C4 120.05(8) . .
N3 C6 N2 118.16(8) . .
N3 C6 C7 123.33(8) . .
N2 C6 C7 118.50(8) . .
C8 C7 C6 117.75(9) . .
C8 C7 H7 121.1 . .
C6 C7 H7 121.1 . .
C7 C8 C9 119.52(9) . .
C7 C8 H8 120.2 . .
C9 C8 H8 120.2 . .
C10 C9 C8 118.40(9) . .
C10 C9 H9 120.8 . .
C8 C9 H9 120.8 . .
N3 C10 C9 123.14(9) . .
N3 C10 H10 118.4 . .
C9 C10 H10 118.4 . .
H1O O1S H1P 112.2 . .
loop_
_geom_bond_atom_site_label_1
_geom_bond_atom_site_label_2
_geom_bond_distance
_geom_bond_site_symmetry_2
_geom_bond_publ_flag
N1 C5 1.3466(12) . yes
N1 C1 1.3614(12) . yes
N1 H1N 0.95(2) . yes
N2 C5 1.3538(12) . yes
N2 C6 1.3906(12) . yes
N2 H2N 0.84(2) . ?
N3 C6 1.3326(12) . yes
N3 C10 1.3479(12) . yes
C1 C2 1.3651(14) . ?
C1 H1 0.9500 . ?
C2 C3 1.4090(16) . ?
C2 H2 0.9500 . ?
C3 C4 1.3697(14) . ?
C3 H3 0.9500 . ?
C4 C5 1.4139(12) . ?
C4 H4 0.9500 . ?
C6 C7 1.4049(13) . ?
C7 C8 1.3830(15) . ?
C7 H7 0.9500 . ?
C8 C9 1.3957(16) . ?
C8 H8 0.9500 . ?
C9 C10 1.3809(14) . ?
C9 H9 0.9500 . ?
C10 H10 0.9500 . ?
O1S H1O 0.8393 . ?
O1S H1P 0.8626 . ?
loop_
_geom_hbond_atom_site_label_D
_geom_hbond_atom_site_label_H
_geom_hbond_atom_site_label_A
_geom_hbond_distance_DH
_geom_hbond_distance_HA
_geom_hbond_distance_DA
_geom_hbond_angle_DHA
_geom_hbond_site_symmetry_A
_geom_hbond_publ_flag
N1 H1N N3 0.95(2) 1.88(2) 2.6412(11) 136.0(17) . yes
N1 H1N I1 0.95(2) 3.07(2) 3.7153(8) 126.8(15) . yes
N2 H2N O1S 0.84(2) 1.93(2) 2.7580(12) 167(2) 2_655 yes
O1S H1O I1 0.84 2.69 3.5249(10) 171.1 . yes
O1S H1P I1 0.86 3.47 3.8705(10) 111.7 1_655 yes
O1S H1P I1 0.86 2.77 3.5553(9) 152.4 2_666 yes
