#------------------------------------------------------------------------------
#$Date: 2019-07-10 06:30:08 +0300 (Wed, 10 Jul 2019) $
#$Revision: 216916 $
#$URL: file:///home/coder/svn-repositories/cod/cif/7/23/30/7233045.cif $
#------------------------------------------------------------------------------
#
# This file is available in the Crystallography Open Database (COD),
# http://www.crystallography.net/
#
# All data on this site have been placed in the public domain by the
# contributors.
#
data_7233045
loop_
_publ_author_name
'Schlachter, Adrien Camille'
'Bonnot, Antoine'
'Fortin, Daniel'
'Karsenti, Paul-Ludovic'
'Knorr, Michael'
'Harvey, Pierre D.'
_publ_section_title
;
 Unusual Triplet-Triplet Annihilation in a 3D Copper Chloride Coordination
 Polymer
;
_journal_name_full               'Physical Chemistry Chemical Physics'
_journal_paper_doi               10.1039/C9CP02891A
_journal_year                    2019
_chemical_formula_moiety         'C4 H9 Cl Cu S'
_chemical_formula_sum            'C4 H9 Cl Cu S'
_chemical_formula_weight         188.16
_space_group_IT_number           14
_space_group_name_Hall           '-P 2yn'
_space_group_name_H-M_alt        'P 1 21/n 1'
_symmetry_cell_setting           monoclinic
_symmetry_Int_Tables_number      14
_symmetry_space_group_name_Hall  '-P 2yn'
_symmetry_space_group_name_H-M   'P 1 21/n 1'
_atom_sites_solution_hydrogens   geom
_atom_sites_solution_primary     'direct - structure invariant direct methods'
_atom_sites_solution_secondary   'direct - structure invariant direct methods'
_audit_conform_dict_location     ftp://ftp.iucr.org/pub/cif_core.dic
_audit_conform_dict_name         cif_core.dic
_audit_conform_dict_version      2.4.3
_audit_creation_date             2018-10-31T13:00:27-00:00
_audit_creation_method           'WinGX routine CIF_UPDATE'
_audit_update_record
;
2019-05-21 deposited with the CCDC.    2019-07-09 downloaded from the CCDC.
;
_cell_angle_alpha                90
_cell_angle_beta                 108.995(2)
_cell_angle_gamma                90
_cell_formula_units_Z            4
_cell_length_a                   8.9401(9)
_cell_length_b                   6.7780(7)
_cell_length_c                   10.9123(11)
_cell_measurement_reflns_used    8996
_cell_measurement_temperature    184(2)
_cell_measurement_theta_max      26.38
_cell_measurement_theta_min      2.57
_cell_measurement_wavelength     0.71073
_cell_volume                     625.24(11)
_computing_cell_refinement       'SAINT V8.34A integration software'
_computing_data_collection       'Bruker APEX2 software'
_computing_data_reduction        'SORTAV (Blessing, 1995)'
_computing_molecular_graphics    'Ortep for Windows (Farrugia, 2012)'
_computing_publication_material  'WinGX publication routines (Farrugia, 2012)'
_computing_structure_refinement  'SHELXL-2016/6 (Sheldrick, 2016)'
_computing_structure_solution    'SHELXS-2013/1 (Sheldrick, 2008)'
_diffrn_ambient_temperature      184(2)
_diffrn_detector                 'APEX-II CCD'
_diffrn_measured_fraction_theta_full 0.999
_diffrn_measured_fraction_theta_max 0.999
_diffrn_measurement_device       '\k-geometry diffractometer'
_diffrn_measurement_device_type  'Bruker APEX-II'
_diffrn_measurement_method       '\f or \w oscillation scans'
_diffrn_orient_matrix_UB_11      -0.009197
_diffrn_orient_matrix_UB_12      -0.146767
_diffrn_orient_matrix_UB_13      0.003603
_diffrn_orient_matrix_UB_21      -0.069729
_diffrn_orient_matrix_UB_22      0.014654
_diffrn_orient_matrix_UB_23      0.054871
_diffrn_orient_matrix_UB_31      -0.095118
_diffrn_orient_matrix_UB_32      0.003448
_diffrn_orient_matrix_UB_33      -0.079807
_diffrn_radiation_monochromator  graphite
_diffrn_radiation_probe          x-ray
_diffrn_radiation_type           MoK\a
_diffrn_radiation_wavelength     0.71073
_diffrn_reflns_av_unetI/netI     0.0426
_diffrn_reflns_Laue_measured_fraction_full 0.999
_diffrn_reflns_Laue_measured_fraction_max 0.999
_diffrn_reflns_limit_h_max       11
_diffrn_reflns_limit_h_min       -11
_diffrn_reflns_limit_k_max       8
_diffrn_reflns_limit_k_min       -8
_diffrn_reflns_limit_l_max       13
_diffrn_reflns_limit_l_min       -13
_diffrn_reflns_number            10342
_diffrn_reflns_point_group_measured_fraction_full 0.999
_diffrn_reflns_point_group_measured_fraction_max 0.999
_diffrn_reflns_theta_full        25
_diffrn_reflns_theta_max         26.409
_diffrn_reflns_theta_min         2.57
_diffrn_source                   'sealed x-ray tube'
_diffrn_standards_number         0
_exptl_absorpt_coefficient_mu    4.121
_exptl_absorpt_correction_T_max  0.745
_exptl_absorpt_correction_T_min  0.602
_exptl_absorpt_correction_type   multi-scan
_exptl_absorpt_process_details
;
SADABS-2014/5 - Bruker AXS area detector scaling and absorption correction
;
_exptl_crystal_density_diffrn    1.999
_exptl_crystal_density_method    'not measured'
_exptl_crystal_description       Needle
_exptl_crystal_F_000             380
_exptl_crystal_size_max          0.33
_exptl_crystal_size_mid          0.1
_exptl_crystal_size_min          0.04
_refine_diff_density_max         0.76
_refine_diff_density_min         -1.099
_refine_diff_density_rms         0.119
_refine_ls_extinction_method     none
_refine_ls_goodness_of_fit_ref   1.016
_refine_ls_hydrogen_treatment    constr
_refine_ls_matrix_type           full
_refine_ls_number_constraints    0
_refine_ls_number_parameters     66
_refine_ls_number_reflns         10342
_refine_ls_number_restraints     0
_refine_ls_restrained_S_all      1.016
_refine_ls_R_factor_all          0.04
_refine_ls_R_factor_gt           0.0326
_refine_ls_shift/su_max          0
_refine_ls_shift/su_mean         0
_refine_ls_structure_factor_coef Fsqd
_refine_ls_weighting_details
'w=1/[\s^2^(Fo^2^)+3.2683P] where P=(Fo^2^+2Fc^2^)/3'
_refine_ls_weighting_scheme      calc
_refine_ls_wR_factor_gt          0.0762
_refine_ls_wR_factor_ref         0.0789
_reflns_Friedel_coverage         0
_reflns_number_gt                9057
_reflns_number_total             10342
_reflns_threshold_expression     'I > 2\s(I)'
_iucr_refine_instructions_details
;
TITL mo_Harvey_AS_CP2_184K_0m in P2(1)/n
    shelx.res
    created by SHELXL-2016/6 at 12:59:15 on 31-Oct-2018
CELL  0.71073   8.9401   6.7780  10.9123   90.000  108.995   90.000
ZERR     4.00   0.0009   0.0007   0.0011    0.000    0.002    0.000
LATT   1
SYMM  1/2 - X, 1/2 + Y, 1/2 - Z
SFAC  C    H    S    CL   CU
UNIT  16 36 4 4 4
MERG   0
 
EQIV $2 -x+3/2, y+1/2, -z+1/2
HTAB C1 Cl1_$2
EQIV $5 -x+2, -y+1, -z+1
HTAB C4 Cl1_$5
HTAB C1 Cl1_$2
HTAB C4 Cl1_$5
FMAP   2
PLAN    2
SIZE     0.040   0.100   0.330
ACTA    50.00
BOND
CONF
L.S.  20
 
TEMP   -88.93
 
WGHT    0.000000    3.268300
BASF   0.13540
FVAR       0.23170
MOLE    1
C1    1    0.845490    0.860059    0.055375    11.00000    0.01385    0.00939 =
         0.01073    0.00272    0.00157    0.00046
AFIX  23
H1A   2    0.828470    0.746564   -0.004726    11.00000   -1.20000
H1B   2    0.759955    0.956544    0.016796    11.00000   -1.20000
AFIX   0
C2    1    1.003463    0.956107    0.065183    11.00000    0.01372    0.01225 =
         0.01467   -0.00100    0.00430   -0.00179
AFIX  23
H2A   2    1.027768    1.061313    0.131715    11.00000   -1.20000
H2B   2    1.088814    0.856307    0.091995    11.00000   -1.20000
AFIX   0
C3    1    1.010384    0.634122    0.278102    11.00000    0.01119    0.01531 =
         0.01175    0.00495   -0.00086    0.00273
AFIX  23
H3A   2    1.100955    0.726601    0.299326    11.00000   -1.20000
H3B   2    1.008886    0.573337    0.360188    11.00000   -1.20000
AFIX   0
C4    1    1.036426    0.473705    0.190838    11.00000    0.01877    0.01493 =
         0.02113    0.00354    0.00703    0.00481
AFIX 137
H4A   2    0.943566    0.387250    0.163426    11.00000   -1.50000
H4B   2    1.129969    0.396253    0.238140    11.00000   -1.50000
H4C   2    1.052617    0.533671    0.114405    11.00000   -1.50000
AFIX   0
S1    3    0.828080    0.773835    0.208287    11.00000    0.01010    0.00994 =
         0.00908    0.00028    0.00322    0.00011
CL1   4    0.868625    0.864940    0.551992    11.00000    0.01390    0.02088 =
         0.01500    0.00510    0.00339   -0.00427
CU1   5    0.867165    1.036045    0.356498    11.00000    0.01302    0.01712 =
         0.01347   -0.00033    0.00420    0.00302
HKLF    5
 
 
 
 
REM  mo_Harvey_AS_CP2_184K_0m in P2(1)/n
REM R1 =  0.0326 for    9057 Fo > 4sig(Fo)  and  0.0400 for all   10342 data
REM     66 parameters refined using      0 restraints
 
END
 
WGHT      0.0090      2.1880
 
REM Highest difference peak  0.760,  deepest hole -1.099,  1-sigma level  0.119
Q1    1   0.9441  0.5305  0.4367  11.00000  0.05    0.76
Q2    1   0.8289  1.1263  0.1348  11.00000  0.05    0.53
;
_cod_data_source_file            c9cp02891a2.cif
_cod_data_source_block           shelx_CCDC4
_cod_original_cell_volume        625.23(11)
_cod_original_sg_symbol_H-M      'P 21/n'
_cod_database_code               7233045
_shelx_estimated_absorpt_t_min   0.343
_shelx_estimated_absorpt_t_max   0.852
_iucr_refine_reflections_details
;
   1   0   0    0.03    0.09
   1   0   0   -0.08    0.09
   1   0   0   -0.07    0.07
  -1   0   0   -0.16    0.12
  -1   0   0   -0.06    0.13
  -1   0   0    0.21    0.10
  -1   0   0    0.03    0.09
  -1   0   0    0.02    0.08
  -2   0   0    5.96    0.51
  -2   0   0    6.31    0.42
   2   0   0    4.85    0.40
  -2   0   0    5.76    0.58
   2   0   0    5.19    0.44
   3   0   0   -0.61    0.28
  -3   0   0   -0.14    0.40
   3   0   0    0.12    0.32
  -3   0   0   -0.30    0.27
  -3   0   0   -0.70    0.44
   4   0   0  605.53   16.97
  -4   0   0  685.14   17.26
  -4   0   0  618.54   16.98
  -4   0   0  639.22   17.12
   4   0   0  625.81   16.97
  -5   0   0   -0.44    0.56
  -5   0   0    0.36    0.46
  -5   0   0    0.04    0.28
  -5   0   0   -1.15    0.71
   5   0   0   -0.16    0.40
  -6   0   0  275.34    7.93
  -6   0   0  266.58    7.71
  -6   0   0  265.18    7.58
   6   0   0  264.44    7.53
  -7   0   0   -0.61    0.91
  -7   0   0   -0.56    0.76
  -7   0   0   -0.41    0.58
   7   0   0    0.01    0.60
  -8   0   0  157.30    4.86
   8   0   0  158.13    4.88
  -8   0   0  154.15    5.35
   8   0   0  166.17    5.07
  -8   0   0  148.02    5.02
  -9   0   0    1.75    0.96
  -9   0   0    1.13    0.74
   9   0   0    0.58    0.75
   9   0   0   -0.32    0.84
  -9   0   0    0.79    0.79
  10   0   0   32.13    2.24
  10   0   0   32.97    2.03
 -10   0   0   32.70    2.49
 -10   0   0   30.74    1.91
   0  -1   0   -0.14    0.17
   0  -1   0   -0.09    0.15
   0  -1   0   -0.39    0.23
   0  -1   0    0.13    0.23
   0   1   0    0.08    0.18
   0   1   0   -0.23    0.22
   0   1   0   -0.20    0.17
   1  -1   0  404.83   10.70
   1  -1   0  403.36   10.66
  -1  -1   0  395.70   10.77
  -1  -1   0  403.02   10.71
  -1  -1   0  399.85   10.78
   1  -1   0  399.48   10.70
   1   1   0  388.39   10.66
  -1   1   0  408.46   10.74
   1   1   0  399.88   10.71
   1   1   0  401.76   10.71
  -1   1   0  401.52   10.70
  -1   1   0  408.53   10.71
  -2  -1   0  234.30    6.73
  -2  -1   0  242.32    6.56
   2  -1   0  246.75    6.56
   2  -1   0  240.91    6.52
   2  -1   0  239.21    6.52
  -2  -1   0  231.98    6.63
   2   1   0  247.71    6.53
  -2   1   0  255.34    6.50
  -2   1   0  242.23    6.54
   2   1   0  242.17    6.46
  -2   1   0  237.93    6.51
   2   1   0  236.79    6.55
   2   1   0  235.96    6.48
  -3  -1   0  701.26   18.15
  -3  -1   0  645.11   18.22
  -3  -1   0  660.02   18.35
   3  -1   0  659.74   18.10
  -3   1   0  659.57   18.11
   3   1   0  676.20   18.06
  -3   1   0  711.09   18.05
  -3   1   0  686.84   18.15
  -3   1   0  687.63   18.15
   3   1   0  692.61   18.14
   3   1   0  689.59   18.09
   3   1   0  675.79   18.03
  -3   1   0  688.60   18.20
  -4  -1   0  124.37    3.49
  -4  -1   0  122.92    3.71
  -4  -1   0  107.05    3.09
   4  -1   0  107.22    3.25
  -4  -1   0  114.85    3.31
  -4   1   0  111.14    3.10
  -4   1   0  102.72    3.38
   4   1   0  113.09    3.27
  -4   1   0  109.39    3.36
  -4   1   0  107.62    3.24
  -4   1   0  112.79    3.42
   4   1   0  107.86    3.15
   4   1   0  108.52    3.29
   5  -1   0   93.50    2.86
  -5  -1   0   93.47    3.07
  -5  -1   0   89.71    3.33
  -5  -1   0   92.39    2.90
   5   1   0   91.51    2.71
   5   1   0   92.40    2.90
  -5   1   0   93.34    3.04
  -5   1   0   92.75    2.86
  -5   1   0   91.70    2.98
   5   1   0   92.64    2.89
  -6  -1   0    2.14    0.76
   6  -1   0    1.75    0.57
  -6  -1   0    1.82    0.76
  -6  -1   0    0.96    0.57
   6   1   0    2.30    0.49
   6   1   0    1.82    0.59
   6   1   0    2.15    0.40
  -6   1   0    1.39    0.73
  -6   1   0    1.12    0.73
   7  -1   0  231.29    6.78
  -7  -1   0  239.29    7.38
  -7  -1   0  232.98    6.81
  -7  -1   0  238.11    6.97
   7   1   0  237.65    6.82
  -7   1   0  228.90    6.66
   7   1   0  229.99    6.55
  -7   1   0  229.97    6.95
  -7   1   0  242.94    7.07
   7   1   0  231.59    6.78
  -8  -1   0   20.54    1.42
  -8  -1   0   22.04    1.94
  -8  -1   0   22.43    1.58
   8  -1   0   20.38    1.48
   8   1   0   20.93    1.50
  -8   1   0   22.00    1.74
  -8   1   0   20.13    1.72
   8   1   0   21.70    1.47
  -9  -1   0   13.51    1.75
  -9  -1   0   13.93    1.25
   9  -1   0   13.32    1.24
  -9  -1   0   13.61    1.31
   9   1   0   14.03    1.28
  -9   1   0   14.08    1.44
  -9   1   0   12.49    1.44
 -10  -1   0   14.02    1.91
 -10  -1   0   10.49    1.25
  10  -1   0   11.43    1.27
 -10   1   0    9.27    1.42
  10   1   0   12.82    1.32
 -10   1   0   11.51    1.48
   0  -2   0  233.24    6.27
   0  -2   0  231.50    6.19
   0  -2   0  218.67    6.25
   0  -2   0  222.53    6.27
   0   2   0  229.02    6.28
   0   2   0  223.20    6.25
   0   2   0  231.36    6.30
  -1  -2   0   47.94    1.68
  -1  -2   0   49.85    1.81
   1  -2   0   49.07    1.61
   1  -2   0   49.62    1.39
   1  -2   0   51.55    1.74
  -1  -2   0   51.04    1.65
  -1  -2   0   49.92    1.77
   1  -2   0   51.79    1.68
   1   2   0   48.17    1.63
  -1   2   0   50.67    1.62
  -1   2   0   51.18    1.73
  -1   2   0   49.72    1.66
   1   2   0   50.35    1.72
   1   2   0   48.49    1.60
  -2  -2   0   84.84    2.84
  -2  -2   0   88.69    2.67
   2  -2   0   89.66    2.56
   2  -2   0   89.65    2.72
  -2  -2   0   88.92    2.71
   2  -2   0   90.71    2.65
  -2  -2   0   84.82    2.81
  -2   2   0   90.30    2.71
   2   2   0   87.79    2.57
   2   2   0   89.79    2.69
  -2   2   0   90.65    2.66
   2   2   0   87.22    2.70
   3  -2   0    1.39    0.47
  -3  -2   0    1.05    0.40
  -3   2   0    0.75    0.47
   3   2   0    0.44    0.38
   3   2   0    0.59    0.27
  -3   2   0    0.74    0.24
   4  -2   0   42.85    1.66
   4  -2   0   44.90    1.52
  -4  -2   0   42.57    1.79
  -4  -2   0   42.48    1.92
  -4   2   0   43.99    1.65
   4   2   0   43.73    1.51
  -4   2   0   45.43    1.49
   4   2   0   41.84    1.42
  -4   2   0   47.67    1.78
  -5  -2   0   10.72    1.09
  -5  -2   0    9.63    0.84
   5  -2   0   12.58    1.02
  -5  -2   0   10.28    0.69
  -5  -2   0   10.22    1.11
  -5   2   0    9.69    0.67
  -5   2   0   10.40    0.88
  -5   2   0   10.81    0.85
   5   2   0    9.17    0.80
  -5   2   0   11.67    0.81
   5   2   0   11.21    0.60
   6  -2   0    1.22    0.65
  -6  -2   0    1.85    0.49
  -6  -2   0    1.45    0.64
  -6  -2   0    2.32    1.15
   6   2   0    1.70    0.38
  -6   2   0    2.51    0.59
  -6   2   0    1.57    0.58
  -6   2   0    2.08    0.65
   6   2   0    0.55    0.62
  -7  -2   0    6.88    1.45
  -7  -2   0    6.54    0.92
   7  -2   0    8.64    0.94
  -7  -2   0    7.22    0.92
  -7   2   0    9.10    0.91
   7   2   0    9.32    0.76
   7   2   0    8.36    0.96
  -7   2   0    7.39    0.86
  -8  -2   0  124.32    4.39
  -8  -2   0  123.70    4.86
  -8  -2   0  117.68    4.11
   8  -2   0  126.45    4.13
   8   2   0  124.45    4.17
  -8   2   0  128.44    4.16
  -8   2   0  123.17    4.21
  -9  -2   0    0.11    0.77
  -9  -2   0    2.06    1.06
   9  -2   0    0.13    0.83
  -9  -2   0    2.75    1.03
   9   2   0    0.78    0.63
  -9   2   0    2.73    1.00
 -10  -2   0    5.68    1.71
  10  -2   0    4.52    0.85
 -10  -2   0    5.76    1.21
 -10  -2   0    3.27    1.00
 -10   2   0    4.91    0.93
  10   2   0    6.42    1.14
   0  -3   0   -0.07    0.33
   0  -3   0   -0.01    0.33
   0  -3   0    0.40    0.38
   0  -3   0   -0.53    0.55
   0   3   0   -0.96    0.49
   0   3   0    0.94    0.41
   0   3   0    0.49    0.51
   1  -3   0    9.34    0.78
   1  -3   0    8.63    0.72
  -1  -3   0    7.80    0.71
  -1  -3   0    9.04    0.81
  -1  -3   0    8.42    0.85
  -1  -3   0    8.17    0.70
   1  -3   0    9.70    0.83
   1  -3   0    8.60    0.46
   1   3   0    8.41    0.74
   1   3   0    8.31    0.69
  -1   3   0    9.54    0.71
  -1   3   0    9.37    0.78
  -1   3   0    9.87    0.77
   1   3   0    8.47    0.70
  -2  -3   0  121.72    3.83
   2  -3   0  122.08    3.58
  -2  -3   0  121.41    3.72
   2  -3   0  124.72    3.72
  -2  -3   0  126.94    3.87
  -2  -3   0  122.75    3.76
   2  -3   0  124.58    3.69
   2   3   0  121.79    3.70
  -2   3   0  122.02    3.69
   2   3   0  125.17    3.63
  -2   3   0  126.24    3.74
   2   3   0  121.89    3.72
  -3  -3   0    2.86    0.49
  -3  -3   0    2.56    0.67
   3  -3   0    3.45    0.55
   3  -3   0    4.02    0.57
  -3  -3   0    3.23    0.49
  -3   3   0    3.77    0.55
  -3   3   0    7.34    0.64
   3   3   0    4.37    0.54
   3   3   0    4.41    0.48
   3   3   0    4.14    0.55
   4  -3   0   39.52    1.60
  -4  -3   0   40.36    1.72
  -4  -3   0   41.13    1.55
  -4  -3   0   39.14    1.82
  -4  -3   0   37.93    2.15
   4  -3   0   39.37    1.50
   4   3   0   37.37    1.48
   4   3   0   37.07    1.39
   4   3   0   40.93    1.74
  -4   3   0   40.20    1.08
  -4   3   0   39.58    1.61
  -4   3   0   34.60    1.51
  -5  -3   0    5.49    0.80
  -5  -3   0    4.08    0.94
  -5  -3   0    6.82    0.92
   5  -3   0    5.85    0.85
  -5  -3   0    3.93    0.65
   5   3   0    5.66    0.83
  -5   3   0    5.21    0.84
   5   3   0    5.17    0.60
  -5   3   0    5.49    0.83
   5   3   0    5.99    0.52
  -5   3   0    5.34    0.58
  -5   3   0    5.05    0.42
  -6  -3   0    7.97    1.24
  -6  -3   0    7.99    1.19
  -6  -3   0    8.03    0.85
   6  -3   0    8.83    0.87
  -6   3   0    7.37    0.80
   6   3   0    7.64    0.60
   6   3   0    8.52    1.00
  -6   3   0    6.63    0.83
  -6   3   0    8.54    0.68
  -7  -3   0   30.66    1.79
  -7  -3   0   28.85    2.10
   7  -3   0   33.10    1.83
  -7  -3   0   33.98    1.94
  -7   3   0   36.27    1.84
   7   3   0   34.01    1.85
  -7   3   0   31.56    1.89
  -8  -3   0   11.51    1.29
  -8  -3   0   10.94    1.21
   8  -3   0   10.26    1.18
  -8  -3   0   12.19    1.82
   8   3   0   11.75    1.24
  -8   3   0    9.87    1.09
  -9  -3   0   18.88    1.69
  -9  -3   0   22.34    2.39
  -9  -3   0   19.48    1.59
   9  -3   0   18.55    1.50
  -9   3   0   19.26    1.56
   9   3   0   20.46    1.80
   0  -4   0   59.82    2.06
   0  -4   0   65.26    2.39
   0  -4   0   61.80    2.30
   0  -4   0   58.89    2.30
   0   4   0   58.86    2.28
   0   4   0   62.77    2.26
   0   4   0   61.23    2.21
  -1  -4   0  209.05    6.24
   1  -4   0  209.55    6.17
   1  -4   0  208.00    6.11
   1  -4   0  212.35    6.09
   1  -4   0  208.18    5.76
  -1  -4   0  207.01    6.11
  -1  -4   0  214.01    6.11
  -1  -4   0  208.31    6.14
   1   4   0  215.15    6.06
  -1   4   0  208.53    6.08
   1   4   0  211.03    6.16
  -1   4   0  215.10    6.20
  -1   4   0  202.55    6.16
   1   4   0  206.25    6.12
  -2  -4   0    9.16    1.08
  -2  -4   0   10.80    0.95
   2  -4   0    9.22    0.87
  -2  -4   0    8.91    1.02
  -2  -4   0    9.50    0.95
   2  -4   0    9.52    0.87
   2  -4   0    8.49    0.99
   2   4   0   10.09    0.78
   2   4   0   10.29    0.99
  -2   4   0   10.00    1.04
  -2   4   0    8.52    0.89
   2   4   0   10.44    0.97
  -3  -4   0   75.38    2.92
   3  -4   0   72.83    2.42
  -3  -4   0   69.00    2.72
  -3  -4   0   69.64    2.54
   3  -4   0   72.27    2.36
  -3  -4   0   69.56    2.62
   3  -4   0   71.96    2.69
  -3   4   0   67.71    2.67
   3   4   0   73.81    2.41
   3   4   0   71.39    2.64
   3   4   0   69.21    2.56
  -3   4   0   67.45    2.40
  -4  -4   0   11.66    1.29
  -4  -4   0    9.92    0.99
  -4  -4   0    7.16    1.06
  -4  -4   0    6.59    0.71
   4  -4   0    7.39    1.05
  -4   4   0    5.61    0.98
   4   4   0    7.23    0.74
   4   4   0   10.88    1.03
   5  -4   0  124.46    4.15
  -5  -4   0  119.45    4.46
  -5  -4   0  123.72    4.60
  -5  -4   0  133.12    4.18
  -5  -4   0  124.26    4.08
   5   4   0  124.74    3.75
  -5   4   0  129.52    4.17
   5   4   0  121.21    4.06
  -6  -4   0   21.62    1.98
   6  -4   0   19.17    1.56
  -6  -4   0   13.39    1.72
  -6  -4   0   13.48    1.20
  -6   4   0   12.38    1.21
  -6   4   0   14.64    1.30
   6   4   0   13.58    0.85
   6   4   0   11.68    1.10
  -7  -4   0    5.40    1.03
  -7  -4   0    6.19    1.27
  -7  -4   0    7.40    1.15
   7  -4   0    5.77    1.06
   7   4   0    5.14    1.04
  -7   4   0    6.83    1.10
  -7   4   0    7.02    1.08
  -8  -4   0    6.39    1.44
   8  -4   0    8.39    1.24
  -8  -4   0    8.38    1.03
  -8  -4   0    8.23    1.47
  -8   4   0    7.52    1.21
   8   4   0    9.68    1.11
  -8   4   0    8.12    1.21
  -9  -4   0   32.38    2.95
  -9  -4   0   36.35    2.75
  -9  -4   0   35.69    2.21
   9  -4   0   37.84    2.35
   9   4   0   35.55    2.33
  -9   4   0   34.14    2.03
   0  -5   0    0.09    0.50
   0  -5   0   -1.02    0.45
   0  -5   0   -0.18    0.61
   0  -5   0    0.00    0.74
   0   5   0   -0.48    0.75
   0   5   0    0.12    0.85
   0   5   0    0.69    0.56
  -1  -5   0   12.77    1.08
   1  -5   0   12.27    1.11
  -1  -5   0   11.76    1.10
  -1  -5   0   12.16    1.22
   1  -5   0   12.75    1.07
   1  -5   0   12.05    0.69
  -1  -5   0   12.38    1.05
   1  -5   0   11.73    1.11
  -1   5   0   11.94    1.05
  -1   5   0   12.90    1.15
   1   5   0   11.59    1.16
   1   5   0   15.17    1.28
  -1   5   0   13.48    1.28
   1   5   0   15.39    1.20
  -2  -5   0  171.08    5.38
   2  -5   0  163.04    5.11
  -2  -5   0  167.15    5.22
  -2  -5   0  168.22    5.22
   2  -5   0  170.76    5.34
   2  -5   0  168.21    5.10
  -2  -5   0  162.00    5.13
   2   5   0  167.26    5.07
  -2   5   0  167.96    5.20
   2   5   0  164.53    5.24
  -2   5   0  172.33    5.35
   2   5   0  168.59    5.29
   3  -5   0   28.13    1.56
  -3  -5   0   30.00    1.79
  -3  -5   0   26.93    2.04
  -3  -5   0   24.13    1.67
   3  -5   0   31.45    1.95
   3  -5   0   25.92    1.39
  -3  -5   0   26.80    1.94
   3   5   0   21.60    1.47
  -3   5   0   26.27    1.86
  -3   5   0   28.07    1.64
   3   5   0   26.63    1.69
   3   5   0   29.14    1.54
  -4  -5   0    0.06    0.76
  -4  -5   0    0.18    0.59
  -4   5   0    0.63    0.50
   4   5   0    0.65    0.55
   4   5   0   -0.28    0.59
   4   5   0   -0.03    0.41
   5  -5   0    3.89    0.84
  -5  -5   0    3.44    0.98
  -5  -5   0    4.67    1.28
  -5  -5   0    4.63    1.34
   5   5   0    4.12    0.68
  -5   5   0    4.13    1.05
   5   5   0    4.46    1.03
  -6  -5   0  183.90    5.93
  -6  -5   0  189.43    6.39
  -6  -5   0  181.74    6.49
   6  -5   0  192.31    6.00
   6   5   0  184.26    5.92
  -6   5   0  187.34    5.96
  -6   5   0  186.28    6.00
  -7  -5   0    8.08    1.25
  -7  -5   0    7.61    1.75
  -7  -5   0    7.84    1.32
   7  -5   0    8.81    1.33
  -7   5   0    9.08    1.24
  -7   5   0    7.81    1.23
   7   5   0    7.48    1.24
  -8  -5   0    2.53    1.39
  -8  -5   0    3.26    1.68
   8  -5   0    0.83    0.81
  -8  -5   0    0.65    0.73
   8   5   0    1.33    0.78
  -8   5   0    1.88    0.84
  -8   5   0    0.94    1.00
   0  -6   0    3.16    0.78
   0  -6   0    3.11    1.12
   0  -6   0    3.74    0.77
   0  -6   0    3.63    0.73
   0   6   0    3.85    1.09
   0   6   0    3.38    0.99
   0   6   0    5.17    1.09
  -1  -6   0   64.17    2.50
  -1  -6   0   62.48    2.62
   1  -6   0   63.66    2.54
  -1  -6   0   58.58    2.72
  -1  -6   0   62.51    2.65
   1  -6   0   61.72    2.85
   1  -6   0   61.79    2.50
  -1   6   0   63.68    2.88
   1   6   0   63.35    2.79
  -1   6   0   58.76    2.68
   1   6   0   60.94    2.80
   1   6   0   68.66    2.73
  -2  -6   0    3.13    0.97
   2  -6   0    6.22    1.02
  -2  -6   0    4.21    0.85
   2  -6   0    3.53    0.68
  -2  -6   0    4.13    0.82
   2  -6   0    3.69    0.90
  -2  -6   0    4.09    1.21
   2   6   0    2.63    1.01
  -2   6   0    4.28    1.16
  -2   6   0    5.54    0.86
   2   6   0    3.23    0.90
   2   6   0    2.86    1.05
  -3  -6   0   87.99    3.47
  -3  -6   0   86.89    3.38
  -3  -6   0   89.13    3.54
  -3  -6   0   89.95    3.57
   3  -6   0   89.90    3.16
   3  -6   0   80.84    3.67
   3  -6   0   93.99    3.58
  -3   6   0   87.63    3.31
  -3   6   0   89.87    3.38
   3   6   0   87.91    3.39
   3   6   0   88.34    3.48
   3   6   0   91.15    3.24
   4  -6   0    4.65    0.77
  -4  -6   0    3.37    1.34
   4  -6   0    3.87    1.18
  -4  -6   0    3.55    0.87
  -4  -6   0    3.82    1.25
  -4   6   0    4.73    0.94
   4   6   0    4.98    0.88
   4   6   0    1.78    0.78
  -5  -6   0   45.50    2.61
  -5  -6   0   44.00    2.81
  -5  -6   0   47.39    2.33
   5  -6   0   49.95    2.66
   5   6   0   42.67    2.02
  -5   6   0   47.40    2.35
   5   6   0   50.51    2.39
  -6  -6   0    2.30    1.48
   6  -6   0    2.85    1.18
  -6  -6   0    1.00    1.35
  -6  -6   0    1.79    1.08
   6   6   0    2.67    1.13
  -6   6   0    1.03    1.18
  -7  -6   0   32.57    2.48
   7  -6   0   32.31    2.44
  -7  -6   0   32.46    2.42
  -7  -6   0   34.68    2.08
   7   6   0   36.57    2.15
  -7   6   0   31.00    1.98
  -7   6   0   30.66    2.37
   0  -7   0   -0.64    0.63
   0  -7   0    0.55    0.96
   0  -7   0   -1.45    1.09
   0   7   0   -0.86    0.75
   0   7   0    1.18    1.01
  -1  -7   0    1.11    0.83
  -1  -7   0    0.31    0.70
   1  -7   0   -0.67    0.88
   1  -7   0    1.01    0.96
  -1  -7   0    1.22    1.05
   1  -7   0    1.18    1.19
  -1  -7   0   -0.11    0.77
   1   7   0    1.49    1.13
   1   7   0    0.62    0.78
  -1   7   0    0.27    0.79
  -1   7   0    3.03    1.12
   1   7   0    1.03    1.01
  -2  -7   0  119.41    4.23
   2  -7   0  117.58    4.09
  -2  -7   0  122.29    4.46
  -2  -7   0  118.71    4.22
   2  -7   0  114.79    4.46
   2  -7   0  116.16    4.87
  -2  -7   0  117.07    4.54
  -2   7   0  118.44    4.32
  -2   7   0  123.94    4.37
   2   7   0  116.94    4.28
   2   7   0  116.42    4.39
   2   7   0  118.36    4.23
   3  -7   0   12.13    1.20
  -3  -7   0    7.71    1.32
  -3  -7   0    7.22    1.52
  -3  -7   0    8.90    1.40
   3  -7   0   10.38    1.57
   3   7   0    8.22    1.39
   3   7   0    9.12    1.20
  -3   7   0   11.60    1.54
  -4  -7   0   24.65    1.80
   4  -7   0   20.90    1.91
  -4  -7   0   23.65    2.18
  -4  -7   0   24.99    2.27
   4   7   0   22.72    1.48
   4   7   0   21.94    1.88
  -4   7   0   20.99    1.80
  -5  -7   0   22.45    2.08
  -5  -7   0   25.12    2.39
   5  -7   0   23.08    1.96
  -5  -7   0   22.65    1.96
  -5   7   0   22.11    2.01
   5   7   0   23.61    2.03
   0  -8   0   17.09    1.86
   0  -8   0   21.28    1.89
   0  -8   0   17.09    1.62
   0   8   0   19.45    1.75
   0   8   0   18.31    1.63
  -1  -8   0   44.72    2.53
  -1  -8   0   41.50    2.47
   1  -8   0   44.05    2.54
  -1  -8   0   44.60    2.75
   1  -8   0   40.67    2.52
   1   8   0   50.06    2.87
  -1   8   0   41.94    2.69
  -1   8   0   60.46    3.11
   1   8   0   51.15    2.93
  -2  -8   0    3.49    1.28
   2  -8   0    1.95    1.03
   2  -8   0    3.37    1.11
  -2  -8   0    0.92    0.91
  -2  -8   0   -0.17    1.28
  -2   8   0    1.84    1.36
   2   8   0    0.58    1.21
   3  -8   0    6.76    1.26
  -3  -8   0    5.86    1.27
  -3  -8   0    6.28    1.65
  -3  -8   0    7.14    1.24
   3   8   0    5.64    1.47
  -3   8   0    6.17    1.57
 -10   0   1    0.71    0.86
  10   0  -1   -1.57    0.86
 -10   0   1    1.24    1.07
  10   0  -1    0.35    0.92
 -10   0   1    1.39    1.22
   9   0  -1   56.66    2.55
  -9   0   1   59.53    2.63
  -9   0   1   57.42    2.36
  -9   0   1   60.31    3.07
   9   0  -1   54.59    2.68
  -9   0   1   56.87    2.51
   8   0  -1   -0.24    0.70
  -8   0   1   -0.50    1.05
   8   0  -1   -0.42    0.83
  -8   0   1    0.57    0.64
  -8   0   1   -0.29    0.71
  -7   0   1  103.15    3.43
   7   0  -1  104.16    3.56
  -7   0   1   93.44    3.56
   7   0  -1   99.70    3.29
  -7   0   1  101.26    3.83
  -6   0   1   -0.38    0.48
   6   0  -1   -0.90    0.56
  -6   0   1   -0.69    0.91
   5   0  -1  900.25   25.26
  -5   0   1  941.95   25.42
  -5   0   1  991.63   25.55
  -4   0   1   -0.36    0.36
   4   0  -1   -0.06    0.29
  -4   0   1    0.16    0.50
   4   0  -1   -0.22    0.33
  -4   0   1   -0.08    0.53
  -3   0   1  179.13    5.14
  -3   0   1  175.28    5.00
   3   0  -1  172.66    4.92
  -3   0   1  177.62    4.90
   3   0  -1  174.01    4.90
  -2   0   1   -0.02    0.36
  -2   0   1   -0.20    0.40
   2   0  -1    0.92    0.34
   2   0  -1   -0.29    0.32
  -1   0   1  869.40   23.77
   1   0  -1  895.77   23.78
   1   0  -1  898.98   23.80
  -1   0   1  881.38   23.74
   1   0  -1  895.09   23.83
   0   0  -1   -0.17    0.16
   0   0  -1    0.05    0.07
   0   0   1    0.08    0.06
   0   0  -1    0.01    0.07
   0   0  -1    0.02    0.13
   0   0   1   -0.03    0.06
   0   0   1    0.04    0.06
   0   0  -1   -0.04    0.07
   0   0  -1   -0.01    0.05
  -1   0  -1  145.69    4.01
  -1   0  -1  143.12    3.92
  -1   0  -1  144.04    3.88
  -1   0  -1  148.03    3.91
  -2   0  -1    0.08    0.24
  -2   0  -1    0.07    0.29
  -2   0  -1   -0.70    0.30
  -3   0  -1  325.13    8.62
  -3   0  -1  318.41    8.68
   3   0   1  315.23    8.49
  -3   0  -1  317.69    8.50
   3   0   1  317.71    8.49
  -3   0  -1  320.93    8.50
  -3   0  -1  315.80    8.82
  -4   0  -1    0.36    0.27
   4   0   1    0.41    0.30
   4   0   1    0.32    0.23
  -4   0  -1    0.37    0.43
  -4   0  -1    0.12    0.33
  -4   0  -1    0.46    0.46
   5   0   1   20.06    0.97
  -5   0  -1   18.65    1.40
   5   0   1   18.20    0.90
  -5   0  -1   20.64    1.20
  -5   0  -1   19.78    0.88
  -5   0  -1   20.16    1.00
  -6   0  -1   -0.25    0.37
   6   0   1   -0.79    0.39
   6   0   1   -0.47    0.37
  -6   0  -1    0.06    0.45
  -6   0  -1    0.14    0.57
  -6   0  -1    0.01    0.64
  -7   0  -1   56.73    2.34
   7   0   1   61.97    2.21
  -7   0  -1   61.97    2.58
  -7   0  -1   61.27    2.25
  -8   0  -1    0.58    0.55
  -8   0  -1    0.61    0.80
   8   0   1    0.10    0.57
  -8   0  -1   -0.46    0.64
   9   0   1    6.47    0.93
   9   0   1    7.79    1.12
  -9   0  -1    7.49    1.35
  -9   0  -1    7.03    0.92
 -10   0  -1    0.64    1.19
 -10   0  -1   -0.81    0.71
  10   0   1    0.07    0.79
  10  -1  -1    1.52    1.18
  10  -1  -1    0.88    0.92
 -10  -1   1   -0.93    0.82
 -10  -1   1    1.60    1.00
 -10  -1   1    0.22    0.98
 -10   1   1    0.69    1.07
  10   1  -1    1.16    0.94
 -10   1   1    1.19    1.08
  -9  -1   1   41.90    2.27
  -9  -1   1   38.60    2.45
   9  -1  -1   41.66    2.19
  -9  -1   1   40.02    2.10
  -9   1   1   41.90    2.43
  -9   1   1   41.22    2.39
   9   1  -1   38.30    1.95
   9   1  -1   39.52    2.06
   8  -1  -1  161.92    5.22
  -8  -1   1  166.65    5.24
  -8  -1   1  164.00    5.31
  -8  -1   1  177.93    5.92
  -8   1   1  168.65    5.47
   8   1  -1  168.91    4.95
   8   1  -1  168.68    5.19
  -8   1   1  170.62    5.49
  -8   1   1  161.24    5.07
   8   1  -1  165.33    5.19
  -7  -1   1   10.21    1.54
  -7  -1   1   10.47    1.02
  -7  -1   1    8.58    1.00
   7  -1  -1   11.09    1.01
  -7  -1   1   11.96    1.27
   7   1  -1   10.77    0.82
  -7   1   1    9.63    1.14
   7   1  -1   10.22    0.98
   7   1  -1   10.95    1.04
  -7   1   1    9.19    1.19
  -6  -1   1   37.89    2.33
  -6  -1   1   38.95    1.96
  -6  -1   1   37.43    1.94
  -6  -1   1   41.26    1.64
   6  -1  -1   40.96    1.74
  -6   1   1   42.33    1.98
   6   1  -1   38.79    1.52
   6   1  -1   37.60    1.74
  -6   1   1   39.95    1.46
  -6   1   1   39.65    1.91
   6   1  -1   38.05    1.75
  -5  -1   1   69.45    2.42
  -5  -1   1   77.01    2.58
  -5  -1   1   82.27    3.00
   5  -1  -1   69.70    2.30
  -5  -1   1   82.77    2.69
   5  -1  -1   72.82    2.46
   5   1  -1   72.77    2.50
   5   1  -1   65.14    2.27
   5   1  -1   74.08    2.33
   5   1  -1   76.47    2.49
  -5   1   1   69.92    2.51
  -5   1   1   79.66    2.65
  -4  -1   1  408.77   11.13
   4  -1  -1  371.89   11.06
   4  -1  -1  402.57   11.06
  -4  -1   1  425.48   11.45
  -4  -1   1  384.39   11.18
   4   1  -1  404.98   11.05
   4   1  -1  407.52   11.10
   4   1  -1  407.80   11.03
   4   1  -1  409.28   11.12
  -4   1   1  433.01   11.21
  -4   1   1  421.79   11.05
  -4   1   1  419.58   11.22
  -3  -1   1   37.04    1.43
   3  -1  -1   39.38    1.44
  -3  -1   1   38.61    1.54
   3  -1  -1   39.45    1.34
  -3  -1   1   37.33    1.84
  -3   1   1   40.67    1.44
   3   1  -1   38.08    1.45
  -3   1   1   39.08    1.43
   3   1  -1   37.75    1.41
  -3   1   1   40.24    1.43
   3   1  -1   39.98    1.41
   3   1  -1   40.46    1.33
  -3   1   1   38.09    1.42
   2  -1  -1  231.79    6.36
  -2  -1   1  238.72    6.39
  -2  -1   1  230.91    6.58
   2  -1  -1  232.57    6.38
   2   1  -1  233.68    6.39
   2   1  -1  230.32    6.38
  -2   1   1  231.47    6.38
  -2   1   1  234.43    6.37
   2   1  -1  232.36    6.33
  -1  -1   1   44.14    1.42
   1  -1  -1   42.89    1.38
   1  -1  -1   43.88    1.41
   1  -1  -1   43.97    1.38
   1   1  -1   43.48    1.38
   1   1  -1   45.14    1.43
   1   1  -1   43.14    1.35
  -1   1   1   44.32    1.42
  -1   1   1   44.02    1.42
   0  -1   1  260.46    6.79
   0  -1  -1  251.98    6.83
   0  -1  -1  249.34    6.84
   0  -1  -1  256.09    6.80
   0  -1  -1  242.60    6.78
   0   1  -1  253.24    6.82
   0   1  -1  261.43    6.79
   0   1   1  250.01    6.80
   0   1   1  244.72    6.79
   0   1  -1  257.67    6.81
  -1  -1  -1    7.94    0.68
  -1  -1  -1    6.99    0.60
  -1  -1  -1    8.05    0.42
   1  -1   1    7.06    0.42
   1  -1   1    7.24    0.40
   1  -1   1    7.56    0.30
  -1  -1  -1    7.83    0.46
  -1  -1  -1    7.60    0.47
   1   1   1    7.27    0.40
  -1   1  -1    6.68    0.38
   1   1   1    7.54    0.39
   1   1   1    8.12    0.46
  -1   1  -1    6.78    0.37
  -1   1  -1    7.04    0.59
  -1   1  -1    7.11    0.43
  -1   1  -1    7.73    0.40
  -2  -1  -1  433.12   11.44
   2  -1   1  419.86   11.42
  -2  -1  -1  456.70   11.46
  -2  -1  -1  405.65   11.42
  -2  -1  -1  432.71   11.60
  -2  -1  -1  432.26   11.69
   2   1   1  435.36   11.43
  -2   1  -1  415.55   11.42
   2   1   1  433.38   11.37
  -2   1  -1  426.04   11.52
   2   1   1  416.10   11.43
   2   1   1  441.62   11.36
  -2   1  -1  435.02   11.43
  -2   1  -1  419.00   11.48
  -2   1  -1  432.66   11.48
  -3  -1  -1   -0.35    0.24
  -3  -1  -1    0.06    0.42
  -3  -1  -1   -0.22    0.24
  -3  -1  -1    0.23    0.33
   3  -1   1    0.18    0.23
   3  -1   1    0.15    0.23
   3   1   1   -0.12    0.24
  -3   1  -1   -0.03    0.24
   3   1   1    0.13    0.27
  -3   1  -1   -0.35    0.22
  -3   1  -1   -0.51    0.25
   3   1   1    0.04    0.12
  -3   1  -1    0.02    0.16
  -3   1  -1   -0.63    0.33
   4  -1   1  195.36    5.55
   4  -1   1  206.47    5.55
  -4  -1  -1  198.71    5.58
  -4  -1  -1  205.19    5.97
  -4  -1  -1  205.48    5.57
  -4  -1  -1  198.49    5.74
  -4   1  -1  201.78    5.55
   4   1   1  205.98    5.42
  -4   1  -1  202.10    5.57
  -4   1  -1  200.43    5.46
  -4   1  -1  199.67    5.71
   4   1   1  198.49    5.57
   4   1   1  193.62    5.55
  -4   1  -1  203.18    5.75
  -5  -1  -1   64.16    2.07
   5  -1   1   64.36    2.10
  -5  -1  -1   64.36    2.31
   5  -1   1   65.19    2.07
  -5  -1  -1   64.76    2.12
  -5  -1  -1   63.88    2.66
  -5   1  -1   67.64    2.10
   5   1   1   62.43    2.11
   5   1   1   65.01    2.09
  -5   1  -1   66.28    2.31
  -5   1  -1   68.20    2.37
  -5   1  -1   63.47    1.95
  -5   1  -1   64.55    2.11
   5   1   1   64.90    1.90
   5   1   1   63.96    2.11
   6  -1   1   69.48    2.25
  -6  -1  -1   64.51    2.44
  -6  -1  -1   69.59    2.29
  -6  -1  -1   68.27    2.73
  -6   1  -1   63.30    2.07
  -6   1  -1   61.25    2.36
   6   1   1   67.68    2.29
   6   1   1   68.07    2.01
   6   1   1   70.31    2.31
  -6   1  -1   65.53    2.46
  -7  -1  -1   11.71    1.06
  -7  -1  -1   10.68    1.24
   7  -1   1   12.39    0.94
  -7  -1  -1   11.58    0.94
  -7   1  -1    9.47    1.07
  -7   1  -1    9.63    1.13
   7   1   1   11.65    0.90
   7   1   1   10.42    0.91
  -7   1  -1   10.57    0.80
  -8  -1  -1    5.63    1.35
   8  -1   1    6.47    0.85
  -8  -1  -1    8.26    0.90
  -8  -1  -1    6.93    0.95
  -8   1  -1    7.82    0.97
  -8   1  -1    7.84    1.08
   8   1   1    8.47    0.92
   8   1   1    7.87    0.85
  -9  -1  -1   10.92    1.05
  -9  -1  -1    7.86    1.49
   9  -1   1   11.21    1.08
  -9   1  -1   11.71    1.34
  -9   1  -1   10.44    1.24
   9   1   1    9.95    1.07
 -10  -1  -1   52.37    2.46
 -10  -1  -1   53.07    3.27
  10  -1   1   53.89    2.53
 -10   1  -1   54.29    2.78
  10   1   1   57.06    2.56
 -10   1  -1   59.67    2.92
  10  -2  -1    4.77    1.16
 -10  -2   1    4.08    1.26
 -10  -2   1    5.72    1.38
 -10  -2   1    3.43    1.08
  10   2  -1    3.43    1.12
 -10   2   1    5.37    1.29
  -9  -2   1   29.14    1.88
   9  -2  -1   26.58    1.65
  -9  -2   1   29.15    2.65
  -9  -2   1   26.49    1.83
   9   2  -1   26.45    1.92
  -9   2   1   26.85    1.77
  -9   2   1   26.80    1.78
  -8  -2   1   40.21    2.36
  -8  -2   1   35.75    1.96
   8  -2  -1   36.60    1.99
  -8  -2   1   38.16    2.74
  -8   2   1   42.30    2.22
  -8   2   1   38.13    1.94
   8   2  -1   38.73    1.86
  -7  -2   1   22.08    1.87
   7  -2  -1   24.21    1.57
  -7  -2   1   24.59    1.39
  -7  -2   1   21.54    1.59
   7   2  -1   24.69    1.40
  -7   2   1   24.76    1.74
   7   2  -1   23.47    1.13
  -7   2   1   25.35    1.51
   6  -2  -1    2.13    0.73
  -6  -2   1    0.17    1.17
  -6  -2   1    1.05    0.68
  -6  -2   1    1.28    0.70
   6   2  -1    0.11    0.67
  -6   2   1    1.27    0.66
  -6   2   1    0.99    0.44
  -6   2   1    1.26    0.61
   6   2  -1    1.40    0.50
  -6   2   1    1.38    0.58
   5  -2  -1   95.39    3.04
   5  -2  -1   88.26    2.87
  -5  -2   1   90.50    3.16
  -5  -2   1   93.94    3.07
  -5  -2   1   94.30    3.38
  -5   2   1   91.86    2.90
  -5   2   1   89.29    3.03
   5   2  -1   90.34    2.87
   5   2  -1   92.60    3.06
  -5   2   1   95.43    3.14
   5   2  -1   90.51    2.79
  -5   2   1   95.53    2.88
   4  -2  -1   10.84    0.81
  -4  -2   1   11.24    1.05
  -4  -2   1   11.87    1.08
  -4  -2   1    8.70    0.78
   4  -2  -1   11.90    0.99
  -4   2   1   10.24    0.73
   4   2  -1   11.33    0.70
  -4   2   1   10.89    0.87
  -4   2   1   10.11    0.86
   4   2  -1   11.00    0.69
  -4   2   1   11.14    0.92
   4   2  -1   10.60    0.80
  -3  -2   1   41.66    1.94
   3  -2  -1   39.45    1.44
   3  -2  -1   41.52    1.59
  -3  -2   1   38.97    1.64
  -3  -2   1   41.12    1.60
  -3   2   1   41.36    1.54
   3   2  -1   39.05    1.41
   3   2  -1   39.34    1.50
   3   2  -1   41.41    1.54
  -3   2   1   42.95    1.60
  -2  -2   1   19.49    1.35
   2  -2  -1   17.84    0.96
   2  -2  -1   17.03    0.80
  -2  -2   1   19.14    1.01
   2  -2  -1   19.31    1.08
  -2  -2   1   18.81    1.21
  -2   2   1   17.88    0.88
  -2   2   1   19.09    1.04
   2   2  -1   16.95    1.01
   2   2  -1   17.53    0.89
   2   2  -1   16.95    0.87
   1  -2  -1   45.55    1.59
  -1  -2   1   42.88    1.66
  -1  -2   1   46.52    1.73
  -1  -2   1   44.84    1.58
   1  -2  -1   43.19    1.50
   1  -2  -1   44.38    1.38
   1  -2  -1   41.86    1.52
   1   2  -1   42.54    1.53
  -1   2   1   44.22    1.52
   1   2  -1   45.79    1.59
   1   2  -1   42.92    1.48
  -1   2   1   43.93    1.62
   0  -2  -1   62.47    2.00
   0  -2  -1   62.85    2.11
   0  -2  -1   63.45    2.00
   0  -2  -1   62.55    2.00
   0  -2   1   64.85    1.99
   0  -2   1   65.31    2.03
   0  -2   1   65.87    2.03
   0   2   1   64.82    2.06
   0   2  -1   63.87    2.06
   0   2  -1   62.69    2.03
   0   2   1   65.71    2.07
   0   2  -1   62.08    2.02
  -1  -2  -1    4.21    0.65
   1  -2   1    4.33    0.45
  -1  -2  -1    4.78    0.44
  -1  -2  -1    4.19    0.52
  -1  -2  -1    4.01    0.41
   1  -2   1    4.05    0.39
  -1   2  -1    4.32    0.39
   1   2   1    4.71    0.43
  -1   2  -1    4.46    0.49
   1   2   1    4.43    0.43
  -1   2  -1    4.73    0.55
   1   2   1    4.40    0.43
  -2  -2  -1    4.20    0.42
   2  -2   1    2.56    0.26
  -2  -2  -1    5.78    0.69
  -2  -2  -1    2.66    0.43
   2  -2   1    2.63    0.35
   2  -2   1    2.86    0.48
  -2  -2  -1    2.79    0.53
   2   2   1    2.58    0.40
  -2   2  -1    2.82    0.39
  -2   2  -1    3.28    0.56
   2   2   1    2.77    0.30
   2   2   1    2.57    0.44
  -2   2  -1    2.86    0.35
  -3  -2  -1  384.16   11.19
   3  -2   1  395.01   10.88
  -3  -2  -1  392.14   11.09
  -3  -2  -1  445.45   10.96
   3   2   1  393.69   10.91
  -3   2  -1  414.95   10.76
  -3   2  -1  390.48   10.75
  -3   2  -1  400.10   10.90
   3   2   1  399.96   10.71
  -4  -2  -1   38.88    1.84
  -4  -2  -1   40.51    1.70
  -4  -2  -1   39.42    1.53
   4  -2   1   41.31    1.52
   4   2   1   41.64    1.22
  -4   2  -1   41.50    1.52
  -4   2  -1   40.14    1.39
  -4   2  -1   40.71    1.60
   4   2   1   39.59    1.53
  -5  -2  -1    2.13    0.59
   5  -2   1    1.87    0.54
  -5  -2  -1    1.33    0.99
  -5  -2  -1    1.93    0.54
  -5   2  -1    1.33    0.52
  -5   2  -1    2.27    0.22
  -5   2  -1    2.31    0.48
  -5   2  -1    1.51    0.62
   5   2   1    1.91    0.23
   5   2   1    2.03    0.54
  -5   2  -1    1.94    0.54
  -6  -2  -1    7.62    1.08
  -6  -2  -1    7.50    0.71
  -6  -2  -1    8.52    1.04
   6  -2   1    8.42    0.80
  -6   2  -1    8.62    0.81
  -6   2  -1    8.04    0.78
   6   2   1    6.82    0.78
  -6   2  -1    7.38    0.77
  -7  -2  -1  181.56    5.54
   7  -2   1  192.84    5.51
  -7  -2  -1  176.55    5.71
  -7  -2  -1  183.82    6.11
  -7   2  -1  184.01    5.69
  -7   2  -1  179.64    5.48
   7   2   1  185.39    5.55
  -7   2  -1  189.86    5.59
  -8  -2  -1   38.18    2.38
  -8  -2  -1   43.83    2.04
  -8  -2  -1   39.08    1.92
   8  -2   1   42.79    1.97
  -8   2  -1   39.45    1.95
  -8   2  -1   38.31    1.94
   8   2   1   41.21    1.98
   9  -2   1   53.81    2.34
  -9  -2  -1   51.96    2.33
  -9  -2  -1   51.22    2.52
  -9  -2  -1   53.33    2.92
  -9   2  -1   48.28    2.50
   9   2   1   47.49    2.34
 -10  -3   1   16.13    1.61
 -10  -3   1   17.33    2.34
  10  -3  -1   17.18    1.65
 -10  -3   1   15.72    1.94
  10   3  -1   15.03    1.60
 -10   3   1   17.24    1.70
  -9  -3   1   18.62    1.97
  -9  -3   1   15.33    1.50
   9  -3  -1   17.03    1.56
  -9  -3   1   17.06    1.62
   9   3  -1   15.83    1.53
  -9   3   1   16.88    1.63
   8  -3  -1    3.14    1.00
  -8  -3   1    1.66    0.91
  -8  -3   1    4.54    1.58
  -8  -3   1    3.09    1.19
   8   3  -1    0.84    0.90
  -8   3   1    2.54    1.00
   7  -3  -1   59.03    2.45
  -7  -3   1   54.73    2.29
  -7  -3   1   55.70    2.81
  -7  -3   1   53.00    2.81
  -7   3   1   54.17    2.50
  -7   3   1   57.28    2.42
   7   3  -1   53.12    2.28
   7   3  -1   53.96    1.93
  -6  -3   1   38.48    2.02
  -6  -3   1   37.09    2.54
   6  -3  -1   39.83    1.94
  -6  -3   1   34.53    1.71
  -6   3   1   39.94    2.00
  -6   3   1   36.25    1.90
   6   3  -1   37.89    1.48
  -6   3   1   37.34    1.44
   6   3  -1   36.16    1.74
  -5  -3   1    2.02    0.63
   5  -3  -1    2.13    0.58
  -5  -3   1    1.26    1.16
  -5  -3   1    2.11    0.72
  -5  -3   1    3.15    1.02
   5   3  -1    2.34    0.63
  -5   3   1    1.58    0.57
  -5   3   1    2.26    0.58
  -5   3   1    0.98    0.75
  -5   3   1    2.41    0.38
   5   3  -1    2.91    0.77
   4  -3  -1    3.71    0.61
  -4  -3   1    7.57    1.05
   4  -3  -1    6.29    0.68
  -4   3   1    5.20    0.67
   3  -3  -1  292.82    8.11
   3  -3  -1  289.86    7.97
  -3  -3   1  286.39    8.28
   3  -3  -1  288.36    8.04
  -3  -3   1  283.83    8.10
  -3  -3   1  288.88    8.27
  -3   3   1  290.35    8.13
   3   3  -1  283.54    8.09
   3   3  -1  280.48    8.06
   3   3  -1  284.48    7.96
  -3   3   1  289.10    7.65
  -3   3   1  288.96    8.04
  -2  -3   1   66.18    2.45
  -2  -3   1   66.14    2.30
   2  -3  -1   64.22    2.24
  -2  -3   1   66.38    2.45
   2  -3  -1   66.84    2.26
   2  -3  -1   64.34    2.19
   2   3  -1   64.96    2.23
   2   3  -1   66.57    2.20
   2   3  -1   67.64    2.26
  -2   3   1   66.64    2.28
  -2   3   1   67.32    2.26
  -1  -3   1   99.26    3.13
   1  -3  -1  101.82    3.17
   1  -3  -1  101.14    2.90
   1  -3  -1   99.84    3.12
  -1  -3   1   99.93    3.14
  -1  -3   1   97.85    3.19
   1  -3  -1  100.87    3.13
  -1   3   1  100.20    3.12
   1   3  -1  102.71    3.13
   1   3  -1  100.28    3.09
  -1   3   1   99.93    3.14
   1   3  -1   99.86    3.10
   0  -3   1   19.77    0.97
   0  -3  -1   20.25    1.00
   0  -3  -1   20.27    1.19
   0  -3   1   20.48    0.98
   0  -3  -1   18.99    0.97
   0  -3  -1   17.84    1.16
   0  -3   1   21.02    1.23
   0  -3   1   21.09    0.93
   0   3   1   19.54    0.95
   0   3   1   18.63    1.15
   0   3  -1   21.84    1.21
   0   3  -1   19.50    1.00
   0   3  -1   20.47    1.12
   0   3   1   21.10    1.16
  -1  -3  -1  108.15    3.33
   1  -3   1  108.65    3.24
   1  -3   1  110.09    3.00
  -1  -3  -1  106.97    3.26
   1  -3   1  109.70    3.22
   1  -3   1  107.64    3.30
  -1  -3  -1  109.67    3.39
  -1  -3  -1  107.72    3.46
   1   3   1  106.22    3.22
  -1   3  -1  106.31    3.23
  -1   3  -1  109.31    3.34
   1   3   1  110.08    3.34
   1   3   1  106.80    3.31
  -1   3  -1  105.10    3.36
  -2  -3  -1  147.85    3.98
   2  -3   1  125.18    3.71
   2  -3   1  129.31    3.93
   2  -3   1  124.24    3.79
  -2  -3  -1  138.44    4.15
  -2   3  -1  124.85    3.92
   2   3   1  126.82    3.83
   2   3   1  131.44    3.76
   2   3   1  136.78    3.95
  -2   3  -1  122.01    3.78
   3  -3   1  163.16    4.81
   3  -3   1  169.65    4.70
  -3  -3  -1  166.04    4.84
   3  -3   1  172.14    4.94
  -3  -3  -1  165.29    5.15
  -3  -3  -1  167.29    5.28
  -3  -3  -1  174.18    5.00
  -3   3  -1  174.95    4.82
   3   3   1  172.61    4.75
   3   3   1  179.52    5.00
  -3   3  -1  167.62    4.97
   3   3   1  163.44    4.86
  -4  -3  -1   27.40    1.16
  -4  -3  -1   30.57    1.59
  -4  -3  -1   29.43    1.42
  -4  -3  -1   29.45    1.94
   4  -3   1   28.88    1.33
   4   3   1   29.76    1.07
  -4   3  -1   30.78    1.46
  -4   3  -1   29.27    1.20
   4   3   1   29.73    1.46
  -5  -3  -1    5.59    0.67
  -5  -3  -1    5.79    1.04
   5  -3   1    5.88    0.68
   5   3   1    5.38    0.45
   5   3   1    5.52    0.78
  -5   3  -1    5.37    0.79
  -5   3  -1    6.23    0.55
  -5   3  -1    6.06    0.81
  -6  -3  -1  112.32    3.92
   6  -3   1  110.26    3.64
  -6  -3  -1  115.64    4.34
  -6  -3  -1  107.94    3.66
   6   3   1  114.14    3.70
  -6   3  -1  107.88    3.70
  -6   3  -1  112.79    3.39
  -6   3  -1  111.38    3.65
   7  -3   1   11.86    1.10
  -7  -3  -1   13.84    1.45
  -7  -3  -1   13.51    1.17
  -7  -3  -1   11.88    1.46
  -7   3  -1   10.39    1.15
  -7   3  -1   12.84    1.12
   7   3   1   13.57    1.19
  -8  -3  -1    1.27    1.01
   8  -3   1    3.09    0.91
  -8  -3  -1    1.32    0.78
  -8  -3  -1    2.63    1.10
  -8   3  -1    3.21    0.85
   8   3   1    1.86    0.85
  -8   3  -1    2.50    0.70
  -9  -3  -1    0.85    1.50
   9  -3   1    1.17    0.93
  -9  -3  -1    2.59    0.91
  -9  -3  -1    2.23    1.14
  -9   3  -1    1.41    0.70
   9   3   1    2.74    0.92
  -9  -4   1    6.34    1.26
   9  -4  -1    7.21    1.32
  -9  -4   1    3.98    1.15
  -9  -4   1    5.09    1.85
  -9   4   1    6.85    1.33
   9   4  -1    4.90    1.24
  -8  -4   1    6.34    0.98
   8  -4  -1    5.57    0.95
  -8  -4   1    6.96    1.22
  -8  -4   1    6.44    1.72
  -8   4   1    4.79    0.87
   8   4  -1    8.11    1.07
  -8   4   1    5.18    1.14
   7  -4  -1    1.22    0.93
  -7  -4   1   -0.40    1.36
  -7  -4   1   -0.90    0.85
  -7  -4   1   -0.30    1.10
  -7   4   1   -0.75    0.58
   7   4  -1   -0.23    0.88
  -7   4   1   -1.27    0.83
   6  -4  -1  111.17    3.90
  -6  -4   1  112.91    4.27
  -6  -4   1  110.92    3.83
  -6  -4   1  113.51    4.46
   6   4  -1  108.04    3.46
  -6   4   1  113.56    3.90
   6   4  -1  107.90    3.80
  -6   4   1  112.29    3.93
  -5  -4   1  132.15    4.32
  -5  -4   1  131.76    4.82
   5  -4  -1  133.52    4.29
  -5  -4   1  132.78    4.20
  -5  -4   1  141.42    4.73
   5  -4  -1  135.03    4.23
   5   4  -1  134.23    4.05
  -5   4   1  131.92    4.30
   5   4  -1  123.42    4.14
  -5   4   1  133.20    4.16
   5   4  -1  132.21    4.31
  -4  -4   1  108.28    3.49
   4  -4  -1  101.89    3.58
   4  -4  -1  101.41    3.39
  -4  -4   1  103.37    3.57
  -4  -4   1  102.41    3.89
  -4  -4   1  104.98    3.85
   4   4  -1  102.62    3.56
  -4   4   1  106.73    3.42
   4   4  -1  103.12    3.30
  -4   4   1  108.29    3.62
   4   4  -1   99.39    3.39
   3  -4  -1   10.25    0.86
  -3  -4   1    7.12    0.90
  -3  -4   1    9.41    1.02
   3  -4  -1    8.50    0.89
  -3  -4   1    7.44    0.94
  -3  -4   1    8.42    1.01
   3  -4  -1    9.26    1.05
  -3   4   1    8.60    0.91
   3   4  -1    7.69    0.95
   3   4  -1    8.10    0.97
  -3   4   1    8.26    1.02
   3   4  -1    8.14    0.71
  -2  -4   1  151.93    4.70
  -2  -4   1  148.23    4.77
   2  -4  -1  148.22    4.65
   2  -4  -1  150.92    4.54
  -2  -4   1  152.37    4.65
  -2  -4   1  149.87    4.63
   2  -4  -1  151.68    4.59
   2   4  -1  147.46    4.48
  -2   4   1  147.79    4.60
   2   4  -1  143.88    4.56
  -2   4   1  152.49    4.68
   2   4  -1  152.33    4.66
  -1  -4   1  105.01    3.29
   1  -4  -1  102.81    3.38
  -1  -4   1  106.21    3.43
   1  -4  -1  105.82    3.35
   1  -4  -1  105.23    3.10
   1  -4  -1  105.73    3.41
  -1  -4   1  104.51    3.48
  -1  -4   1  103.59    3.41
   1   4  -1  106.28    3.49
  -1   4   1  104.94    3.48
   1   4  -1  100.71    3.41
   1   4  -1  101.85    3.38
  -1   4   1  108.33    3.44
   0  -4   1  122.03    3.87
   0  -4  -1  120.88    3.89
   0  -4  -1  125.38    3.97
   0  -4  -1  124.97    3.79
   0  -4   1  128.06    3.72
   0  -4  -1  130.63    3.99
   0  -4   1  124.38    3.93
   0  -4   1  127.16    3.90
   0   4  -1  128.85    4.04
   0   4  -1  124.78    3.91
   0   4   1  130.57    4.01
   0   4   1  126.13    3.98
   0   4  -1  122.75    3.94
   0   4   1  126.23    3.91
   1  -4   1  179.38    4.87
   1  -4   1  171.23    5.17
  -1  -4  -1  179.55    5.31
  -1  -4  -1  177.76    5.38
   1  -4   1  173.26    5.31
  -1  -4  -1  176.12    5.25
   1  -4   1  177.47    5.18
  -1  -4  -1  175.95    5.26
   1   4   1  175.90    5.28
  -1   4  -1  178.56    5.35
  -1   4  -1  175.81    5.22
   1   4   1  177.18    5.17
  -1   4  -1  177.41    5.34
   1   4   1  175.58    5.30
  -2  -4  -1    7.10    0.74
   2  -4   1    8.83    0.78
   2  -4   1    8.29    0.98
  -2  -4  -1    6.79    0.83
   2  -4   1    8.00    0.77
  -2  -4  -1    7.22    0.84
  -2  -4  -1    6.41    0.88
  -2   4  -1    7.19    0.97
   2   4   1    6.45    0.73
   2   4   1   10.08    0.91
   2   4   1    7.00    0.71
  -2   4  -1    7.66    0.95
  -2   4  -1    8.71    0.81
   3  -4   1   18.02    1.20
   3  -4   1   17.99    0.97
  -3  -4  -1   19.98    1.23
  -3  -4  -1   19.34    1.16
  -3  -4  -1   18.62    1.39
   3  -4   1   19.08    0.93
  -3   4  -1   16.82    1.09
  -3   4  -1   18.77    1.21
   3   4   1   18.01    1.16
   3   4   1   19.43    1.23
  -4  -4  -1   89.60    3.33
  -4  -4  -1   87.10    2.89
   4  -4   1   91.42    3.08
  -4  -4  -1   90.82    3.14
  -4  -4  -1   93.84    3.58
  -4   4  -1   87.45    2.85
  -4   4  -1   89.44    3.16
   4   4   1   91.95    2.78
   4   4   1   87.75    3.15
  -5  -4  -1   72.88    2.78
   5  -4   1   72.56    2.80
  -5  -4  -1   89.25    3.34
  -5  -4  -1   68.83    3.07
   5   4   1   73.36    2.80
  -5   4  -1   73.73    2.80
   5   4   1   70.42    2.31
   6  -4   1    7.04    1.03
  -6  -4  -1    7.95    1.35
  -6  -4  -1    7.72    1.03
  -6  -4  -1    6.67    1.49
  -6   4  -1    8.83    1.05
   6   4   1    8.13    1.05
  -6   4  -1    7.70    1.01
  -7  -4  -1    3.70    0.97
  -7  -4  -1    3.41    1.09
   7  -4   1    2.14    0.93
  -7  -4  -1    3.06    0.89
   7   4   1    3.34    0.76
  -7   4  -1    3.06    0.93
  -7   4  -1    2.29    0.68
   8  -4   1    4.54    1.07
  -8  -4  -1    6.21    1.46
  -8  -4  -1    3.53    1.60
  -8  -4  -1    2.63    0.99
  -8   4  -1    4.40    1.04
  -8   4  -1    5.41    1.08
   8   4   1    4.27    1.05
  -9  -4  -1   16.40    2.32
  -9  -4  -1   18.44    2.04
   9  -4   1   18.12    1.60
  -9  -4  -1   13.70    1.47
  -9   4  -1   11.42    1.23
   9   4   1   15.34    1.39
  -9   4  -1   17.14    1.56
  -8  -5   1   17.63    1.57
   8  -5  -1   20.18    1.79
  -8  -5   1   18.72    2.02
  -8  -5   1   19.10    1.89
   8   5  -1   16.75    1.52
  -8   5   1   15.61    1.65
  -8   5   1   17.47    1.51
  -7  -5   1   49.08    2.87
   7  -5  -1   53.98    2.47
  -7  -5   1   48.78    3.11
  -7  -5   1   51.43    2.64
  -7   5   1   53.56    2.47
  -7   5   1   51.58    2.66
   7   5  -1   52.75    2.68
  -6  -5   1    7.26    1.00
  -6  -5   1    6.07    1.20
   6  -5  -1    7.35    1.24
  -6  -5   1    8.25    1.33
   6   5  -1    5.83    1.17
  -6   5   1    7.56    1.22
   6   5  -1    7.74    0.85
  -5  -5   1   12.79    1.29
   5  -5  -1   12.20    1.35
  -5  -5   1   11.28    1.15
  -5  -5   1    9.50    1.28
  -5  -5   1   10.67    1.56
  -5   5   1   11.96    1.34
   5   5  -1    9.25    1.07
   5   5  -1   12.52    1.02
   4  -5  -1   20.29    1.80
   4  -5  -1   18.55    1.25
  -4  -5   1   17.92    1.42
   4  -5  -1   17.54    1.41
  -4  -5   1   17.03    1.35
  -4  -5   1   18.20    1.67
  -4  -5   1   17.96    1.71
   4   5  -1   18.98    1.32
   4   5  -1   19.13    1.17
   4   5  -1   18.76    1.49
  -4   5   1   19.11    1.51
  -4   5   1   17.91    1.42
  -3  -5   1   44.48    2.26
   3  -5  -1   50.39    2.41
  -3  -5   1   50.31    2.47
   3  -5  -1   50.16    2.02
  -3  -5   1   45.12    2.27
  -3  -5   1   48.04    2.12
   3  -5  -1   49.77    2.05
   3   5  -1   43.66    1.92
  -3   5   1   47.28    2.21
  -3   5   1   48.53    2.18
   3   5  -1   49.83    2.30
   3   5  -1   46.09    2.11
   2  -5  -1   84.98    3.04
  -2  -5   1   81.72    3.23
   2  -5  -1   83.81    2.98
  -2  -5   1   81.39    2.98
   2  -5  -1   83.40    3.04
  -2  -5   1   86.96    3.14
  -2  -5   1   79.72    2.99
  -2   5   1   85.14    3.09
  -2   5   1   80.19    3.17
   2   5  -1   84.58    3.01
   2   5  -1   85.58    3.17
   2   5  -1   80.94    3.10
  -1  -5   1   24.70    1.81
   1  -5  -1   23.62    1.37
   1  -5  -1   21.56    1.53
  -1  -5   1   23.40    1.44
  -1  -5   1   23.13    1.58
   1  -5  -1   23.72    1.07
  -1  -5   1   23.88    1.27
   1  -5  -1   24.34    1.79
   1   5  -1   23.06    1.38
   1   5  -1   24.95    1.50
  -1   5   1   24.21    1.42
  -1   5   1   24.71    1.76
   1   5  -1   21.17    1.64
   0  -5  -1   -0.24    0.50
   0  -5  -1    0.19    0.85
   0  -5   1    0.12    0.96
   0  -5   1    0.66    0.76
   0  -5   1    0.27    0.71
   0  -5  -1    0.64    0.52
   0  -5   1   -0.12    0.45
   0  -5  -1    0.23    0.59
   0   5  -1    0.20    0.74
   0   5  -1    0.21    0.59
   0   5   1   -0.35    0.77
   0   5  -1   -0.06    0.63
   0   5   1    0.23    0.84
  -1  -5  -1  186.17    5.70
   1  -5   1  187.39    5.19
  -1  -5  -1  197.99    5.72
   1  -5   1  180.52    5.75
   1  -5   1  181.19    5.63
  -1  -5  -1  187.69    5.87
  -1  -5  -1  189.09    5.65
   1  -5   1  186.49    5.60
   1   5   1  185.31    5.71
  -1   5  -1  187.07    5.81
   1   5   1  181.37    5.66
  -1   5  -1  185.30    5.65
  -1   5  -1  182.94    5.70
   1   5   1  186.85    5.56
  -2  -5  -1   58.18    2.75
  -2  -5  -1   65.31    2.64
   2  -5   1   63.54    2.63
   2  -5   1   60.96    2.25
  -2  -5  -1   57.77    2.38
  -2  -5  -1   60.35    2.46
   2  -5   1   58.44    2.34
  -2   5  -1   59.92    2.28
   2   5   1   58.42    2.20
  -2   5  -1   60.12    2.63
   2   5   1   60.91    2.47
  -2   5  -1   63.59    2.63
   2   5   1   59.18    2.55
   3  -5   1   32.93    1.55
  -3  -5  -1   38.44    1.81
  -3   5  -1   37.40    1.62
   3   5   1   34.77    1.78
   3   5   1   39.74    1.72
   4  -5   1    9.93    0.79
  -4  -5  -1   10.47    1.18
  -4  -5  -1   11.77    1.48
  -4  -5  -1   12.27    1.50
   4  -5   1   12.04    1.31
   4   5   1   11.31    0.98
  -4   5  -1   11.49    1.25
   4   5   1   12.12    1.24
  -5  -5  -1  129.93    4.43
  -5  -5  -1  131.44    4.96
  -5  -5  -1  135.20    4.93
   5  -5   1  135.18    4.53
   5   5   1  128.55    4.43
  -5   5  -1  130.92    4.52
   5   5   1  146.96    4.66
  -6  -5  -1   12.92    1.70
   6  -5   1   10.59    1.29
  -6  -5  -1   13.88    1.37
  -6  -5  -1   12.13    1.78
  -6   5  -1   14.15    1.39
   6   5   1   11.34    1.30
  -6   5  -1   11.58    1.12
  -7  -5  -1   -0.14    0.61
   7  -5   1    0.40    0.95
  -7  -5  -1    1.45    1.26
  -7  -5  -1    0.25    1.00
   7   5   1    1.11    0.69
  -7   5  -1   -0.48    0.91
  -7   5  -1    0.64    0.63
  -8  -5  -1    8.33    1.45
   8  -5   1   11.11    1.44
  -8  -5  -1   10.27    2.03
  -8  -5  -1    7.11    1.28
  -8   5  -1    9.05    1.37
   8   5   1    8.17    1.32
  -8   5  -1    8.15    1.25
  -7  -6   1    2.41    0.89
   7  -6  -1    0.30    1.17
  -7  -6   1    1.65    1.06
  -7  -6   1    0.52    1.53
  -7   6   1    0.22    0.78
  -7   6   1    0.73    1.19
   7   6  -1   -0.04    1.14
  -6  -6   1   16.37    1.78
  -6  -6   1   18.55    2.04
   6  -6  -1   18.67    1.76
  -6  -6   1   16.87    1.69
   6   6  -1   16.00    1.69
  -6   6   1   18.20    1.74
   5  -6  -1   -0.90    1.05
  -5  -6   1   -0.34    1.25
  -5  -6   1    1.15    1.26
  -5  -6   1    0.49    0.71
   5   6  -1    0.79    0.76
   5   6  -1    0.83    0.75
  -5   6   1    0.71    0.83
  -4  -6   1   14.32    1.41
   4  -6  -1   15.22    1.32
   4  -6  -1   16.97    1.67
  -4  -6   1   15.10    1.34
  -4  -6   1   16.24    1.66
  -4  -6   1   16.39    1.56
   4   6  -1   15.53    1.53
   4   6  -1   15.21    1.29
  -4   6   1   13.20    1.54
  -4   6   1   13.80    1.20
   3  -6  -1    3.96    0.98
  -3  -6   1    5.74    1.20
   3  -6  -1    4.15    0.93
  -3  -6   1    4.79    1.00
  -3  -6   1    5.79    1.15
  -3  -6   1    6.43    1.15
   3  -6  -1    6.15    0.95
  -3   6   1    5.62    1.25
   3   6  -1    5.20    1.14
   3   6  -1    5.22    1.00
  -3   6   1    3.67    0.99
   3   6  -1    6.19    0.94
   2  -6  -1  110.74    3.89
   2  -6  -1  113.94    4.10
  -2  -6   1  109.69    4.00
  -2  -6   1  104.25    3.87
  -2  -6   1  111.56    4.03
  -2  -6   1  114.91    4.06
   2  -6  -1  113.82    3.96
   2   6  -1  110.24    3.92
  -2   6   1  115.03    4.13
  -2   6   1  113.30    3.87
   2   6  -1  110.47    4.04
   2   6  -1  109.82    3.92
  -1  -6   1    0.68    0.93
  -1  -6   1   -1.08    0.83
   1  -6  -1    0.99    0.87
  -1  -6   1   -0.95    0.61
   1  -6  -1   -0.60    0.57
  -1  -6   1    0.02    0.73
   1  -6  -1   -0.09    0.39
   1  -6  -1    0.09    0.99
   1   6  -1    0.05    0.99
   1   6  -1   -0.13    0.90
  -1   6   1    0.36    0.73
  -1   6   1   -0.53    0.91
   1   6  -1    1.52    0.93
   0  -6   1   -0.33    0.58
   0  -6  -1    0.57    0.69
   0  -6   1    1.12    0.83
   0  -6  -1    0.56    0.94
   0  -6   1    0.23    0.56
   0  -6  -1    1.15    0.57
   0  -6  -1   -0.79    0.83
   0   6  -1    0.12    0.60
   0   6  -1    0.74    0.69
   0   6   1    1.93    1.01
   0   6  -1    0.16    1.00
   0   6   1   -0.79    0.58
  -1  -6  -1   15.83    1.43
  -1  -6  -1   16.99    1.48
  -1  -6  -1   16.31    1.37
   1  -6   1   17.08    1.37
  -1  -6  -1   15.12    1.35
   1  -6   1   16.38    1.43
   1  -6   1   14.31    1.49
   1   6   1   15.94    1.47
  -1   6  -1   16.39    1.41
   1   6   1   14.11    1.24
  -1   6  -1   17.60    1.40
  -1   6  -1   17.73    1.57
  -2  -6  -1   92.13    3.64
   2  -6   1   86.14    3.28
  -2  -6  -1   86.03    3.22
  -2  -6  -1   81.07    3.27
   2  -6   1   91.33    3.13
   2  -6   1   85.71    3.21
  -2  -6  -1   88.22    3.27
  -2   6  -1   89.90    3.32
  -2   6  -1   83.73    3.10
   2   6   1   85.07    3.40
   2   6   1   84.63    3.18
  -2   6  -1   85.92    3.47
  -3  -6  -1    5.93    1.39
   3  -6   1    6.97    0.85
  -3  -6  -1    7.64    1.28
  -3  -6  -1    8.12    0.93
   3  -6   1    8.03    1.07
  -3  -6  -1    9.99    1.27
   3   6   1    8.33    1.23
   3   6   1    7.79    0.99
  -3   6  -1    8.35    1.30
   4  -6   1   69.09    2.84
  -4  -6  -1   69.01    3.02
  -4  -6  -1   67.10    2.80
  -4  -6  -1   72.70    3.41
   4   6   1   60.95    2.47
  -4   6  -1   63.86    2.97
   4   6   1   63.41    2.76
  -5  -6  -1    1.55    0.98
  -5  -6  -1    1.95    1.01
   5  -6   1    1.84    1.11
  -5  -6  -1    1.94    0.77
   5   6   1    2.18    0.81
  -5   6  -1    2.29    0.81
  -6  -6  -1  101.43    3.97
  -6  -6  -1   91.39    4.15
  -6  -6  -1   96.21    4.19
   6  -6   1  108.43    4.07
  -6   6  -1  104.54    4.00
   6   6   1  104.68    4.04
  -7  -6  -1   21.74    2.36
  -7  -6  -1   18.17    2.19
  -7  -6  -1   19.52    1.80
   7  -6   1   16.14    1.71
  -7   6  -1   17.26    1.73
  -7   6  -1   16.00    1.59
   7   6   1   14.32    1.69
  -6  -7   1    6.93    1.66
   6  -7  -1    3.77    1.44
  -6  -7   1    3.65    1.33
  -6  -7   1    4.82    1.14
  -6   7   1    3.34    1.39
   6   7  -1    4.08    1.41
   5  -7  -1    8.24    1.31
  -5  -7   1    9.84    1.52
  -5  -7   1    8.53    1.36
  -5  -7   1   10.16    1.53
  -5   7   1    9.73    1.56
   5   7  -1    9.44    1.22
   5   7  -1    6.50    1.44
  -4  -7   1    3.91    1.46
   4  -7  -1    8.08    1.49
  -4  -7   1    6.68    1.33
   4  -7  -1    5.97    1.03
   4   7  -1    2.98    0.78
   4   7  -1    5.34    1.28
  -4   7   1    5.58    1.13
  -3  -7   1   85.79    3.67
  -3  -7   1   93.69    3.70
   3  -7  -1   86.15    3.31
  -3  -7   1   86.87    3.92
  -3  -7   1   91.02    3.67
   3  -7  -1   90.68    3.61
   3   7  -1   85.19    3.48
   3   7  -1   92.16    3.59
  -3   7   1   91.59    3.63
  -3   7   1   87.73    3.80
   3   7  -1   94.00    3.85
   2  -7  -1   20.94    1.75
  -2  -7   1   19.47    1.59
   2  -7  -1   20.42    1.81
  -2  -7   1   17.85    1.79
  -2  -7   1   20.80    1.75
   2  -7  -1   20.36    1.57
  -2  -7   1   19.39    1.65
  -2   7   1   21.53    1.88
   2   7  -1   17.63    1.52
   2   7  -1   18.74    1.77
  -2   7   1   21.97    1.77
   2   7  -1   15.97    1.67
   1  -7  -1    4.73    1.13
  -1  -7   1    3.22    0.80
  -1  -7   1    3.47    0.87
   1  -7  -1    3.80    0.98
  -1  -7   1    4.39    0.93
  -1  -7   1    2.80    1.22
   1  -7  -1    5.01    1.12
   1   7  -1    3.33    0.87
  -1   7   1    2.06    1.20
  -1   7   1    3.83    0.89
   1   7  -1    3.51    0.95
   1   7  -1    4.04    1.14
   0  -7   1   16.39    1.55
   0  -7  -1   15.56    1.61
   0  -7   1   17.17    1.57
   0  -7  -1   17.62    1.59
   0  -7   1   14.79    1.45
   0  -7  -1   17.05    1.63
   0   7   1   19.04    1.72
   0   7  -1   15.32    1.36
   0   7   1   16.00    1.57
   0   7  -1   12.92    1.55
   0   7  -1   17.37    1.74
   1  -7   1   93.71    3.61
  -1  -7  -1   93.57    3.79
  -1  -7  -1   98.64    3.49
  -1  -7  -1   98.52    3.64
  -1  -7  -1   95.09    3.91
   1  -7   1   90.40    3.52
   1  -7   1   93.69    3.94
  -1   7  -1   93.93    3.69
   1   7   1   94.99    3.80
  -1   7  -1   98.48    3.91
   1   7   1   96.70    3.84
  -1   7  -1   96.38    3.93
  -2  -7  -1   13.15    1.56
  -2  -7  -1   13.22    1.68
   2  -7   1   14.36    1.32
  -2  -7  -1   13.44    1.29
  -2  -7  -1   15.49    1.49
   2  -7   1   11.82    1.37
  -2   7  -1   13.24    1.65
   2   7   1   11.98    1.33
  -2   7  -1   13.95    1.46
   3  -7   1    5.13    1.37
  -3  -7  -1    5.32    1.20
   3  -7   1    6.61    0.98
  -3  -7  -1    5.70    1.05
  -3  -7  -1    7.19    1.09
  -3   7  -1    7.27    1.44
   3   7   1    7.15    1.32
  -4  -7  -1   38.23    2.85
  -4  -7  -1   34.93    2.11
  -4  -7  -1   34.61    2.49
   4  -7   1   34.35    2.51
  -4   7  -1   31.50    2.14
   4   7   1   38.61    2.51
   5  -7   1   19.79    1.71
  -5  -7  -1   25.66    2.19
  -5  -7  -1   20.13    2.11
  -5  -7  -1   23.09    2.14
  -5   7  -1   22.23    1.88
   5   7   1   24.00    2.01
  -3  -8   1    5.24    1.42
   3  -8  -1    1.77    1.07
  -3  -8   1    3.77    1.45
   3  -8  -1    2.99    1.11
  -3  -8   1    1.97    1.10
   3   8  -1    4.03    0.94
   3   8  -1    3.26    1.04
  -3   8   1    2.44    1.44
  -2  -8   1   25.42    2.02
  -2  -8   1   24.78    1.97
   2  -8  -1   27.60    2.11
   2  -8  -1   22.93    2.05
  -2  -8   1   38.89    2.64
   2   8  -1   22.44    2.27
   2   8  -1   34.59    2.36
  -1  -8   1    0.95    1.16
  -1  -8   1    1.00    1.23
   1  -8  -1    1.86    0.87
   1  -8  -1    0.65    1.11
   1  -8  -1    0.43    1.32
  -1  -8   1    0.97    1.35
   1   8  -1    1.43    1.23
   1   8  -1   -0.02    0.91
  -1   8   1    0.24    0.90
  -1   8   1    0.69    1.18
   1   8  -1   -0.21    0.83
   0  -8   1   60.80    3.10
   0  -8   1   69.90    3.24
   0  -8  -1   73.10    3.40
   0  -8  -1   64.20    3.07
   0  -8  -1   67.89    3.09
   0   8   1   74.55    3.46
   0   8  -1   66.61    3.03
   0   8   1   71.84    3.39
   0   8  -1   69.82    3.48
  -1  -8  -1    1.94    1.27
  -1  -8  -1    1.55    1.21
  -1  -8  -1    1.73    1.32
   1  -8   1    0.69    0.98
   1  -8   1    2.93    1.08
   1   8   1    2.63    1.28
  -1   8  -1    0.79    1.37
  -2  -8  -1    1.44    0.94
  -2  -8  -1    2.66    0.97
   2  -8   1    1.01    0.93
   2  -8   1    1.47    1.04
  -2  -8  -1    1.02    1.01
  -2   8  -1    3.70    1.48
   2   8   1    1.25    1.23
  -3  -8  -1    3.34    1.05
  -3  -8  -1    4.49    1.23
  -3  -8  -1    3.53    1.19
   3  -8   1    2.83    1.14
   3   8   1    2.55    1.05
  -3   8  -1    5.62    1.25
 -11   0   2   -0.10    0.67
  10   0  -2   46.29    2.30
 -10   0   2   46.40    2.47
  10   0  -2   48.73    2.63
 -10   0   2   42.52    2.45
 -10   0   2   46.73    3.01
 -10   0   2   47.18    2.44
  -9   0   2   -0.34    0.81
  -9   0   2   -0.54    0.82
   9   0  -2   -1.25    0.88
   9   0  -2   -0.76    0.81
  -9   0   2    0.21    0.88
  -9   0   2   -0.46    1.01
  -8   0   2   34.95    1.71
  -8   0   2   30.58    2.11
   8   0  -2   31.81    2.12
  -8   0   2   39.88    2.55
   8   0  -2   34.52    1.92
   7   0  -2    1.45    0.74
   7   0  -2    0.73    0.84
  -7   0   2    0.66    1.15
  -7   0   2    0.26    0.61
   6   0  -2  199.46    5.83
   6   0  -2  215.06    5.91
  -6   0   2  203.07    6.23
  -6   0   2  196.69    5.96
  -6   0   2  192.79    5.63
   6   0  -2  176.04    5.62
  -5   0   2    0.43    0.53
   5   0  -2    0.96    0.68
  -5   0   2   -0.39    0.63
  -5   0   2   -0.31    0.66
   5   0  -2   -0.05    0.48
   5   0  -2    0.50    0.56
   4   0  -2    3.26    0.60
   4   0  -2    1.77    0.52
  -4   0   2    3.57    0.77
   4   0  -2    1.73    0.50
  -4   0   2    2.71    0.57
  -4   0   2    2.30    0.49
   3   0  -2    0.62    0.60
   3   0  -2    0.02    0.36
  -3   0   2   -0.22    0.37
   3   0  -2   -0.55    0.49
  -3   0   2    0.05    0.54
  -2   0   2   72.44    2.31
  -2   0   2   72.08    2.22
   2   0  -2   74.71    2.35
   2   0  -2   73.17    2.23
   2   0  -2   75.80    2.25
   1   0  -2   -0.33    0.34
   1   0  -2   -0.03    0.22
   1   0  -2   -0.28    0.22
  -1   0   2   -0.09    0.23
  -1   0   2   -0.19    0.29
  -1   0   2   -0.32    0.18
   1   0  -2   -0.16    0.25
   0   0  -2   42.99    1.23
   0   0   2   42.47    1.23
   0   0  -2   41.88    1.31
   0   0   2   42.09    1.23
   0   0   2   42.30    1.22
   0   0  -2   43.58    1.23
   0   0  -2   43.21    1.19
  -1   0  -2   -0.08    0.18
  -1   0  -2    0.07    0.25
  -1   0  -2   -0.30    0.41
  -2   0  -2   77.62    2.45
  -2   0  -2   79.32    2.20
  -2   0  -2   78.45    2.27
  -3   0  -2   -0.08    0.31
  -3   0  -2   -0.04    0.26
  -3   0  -2   -0.18    0.36
   4   0   2   33.10    1.00
  -4   0  -2   33.79    1.02
  -4   0  -2   32.94    1.24
  -4   0  -2   32.65    1.01
  -4   0  -2   31.21    1.58
  -4   0  -2   33.25    1.32
  -5   0  -2    0.51    0.50
   5   0   2   -0.18    0.31
  -5   0  -2   -0.17    0.28
   5   0   2    0.49    0.30
  -5   0  -2   -0.36    0.71
  -5   0  -2   -0.14    0.43
  -6   0  -2    8.37    0.74
  -6   0  -2    9.84    1.15
   6   0   2    8.68    0.67
  -6   0  -2   10.00    0.93
  -6   0  -2    8.45    0.71
   7   0   2   -0.06    0.51
  -7   0  -2   -0.40    0.51
  -7   0  -2    0.63    0.60
   8   0   2   27.55    1.42
  -8   0  -2   27.56    2.04
  -9   0  -2   -0.34    1.02
   9   0   2    0.88    0.64
  -9   0  -2   -0.93    0.54
 -10  -1   2   18.86    1.78
 -10  -1   2   15.12    1.79
  10  -1  -2   17.78    1.77
  10  -1  -2   15.24    1.36
 -10  -1   2   18.86    1.60
  10   1  -2   16.25    1.45
 -10   1   2   18.73    1.73
 -10   1   2   18.88    1.80
  10   1  -2   21.23    1.69
  -9  -1   2   76.20    3.30
   9  -1  -2   74.83    3.11
   9  -1  -2   78.81    3.43
  -9  -1   2   75.00    3.49
  -9  -1   2   74.78    3.31
  -9  -1   2   73.34    3.06
  -9   1   2   73.56    3.31
   9   1  -2   75.42    2.74
  -9   1   2   80.23    3.42
   9   1  -2   81.59    3.09
   9   1  -2   77.94    3.13
  -8  -1   2    0.84    0.98
  -8  -1   2    1.83    1.04
  -8  -1   2    0.57    0.94
  -8  -1   2    2.61    0.85
   8  -1  -2    2.56    0.93
   8   1  -2    2.11    0.67
  -8   1   2    2.49    0.77
   8   1  -2    2.05    0.88
   8   1  -2    0.97    0.76
  -8   1   2    2.57    1.08
  -7  -1   2    8.99    1.01
  -7  -1   2    8.42    1.16
   7  -1  -2    8.91    1.02
  -7  -1   2    8.18    1.56
  -7   1   2    9.13    0.98
   7   1  -2    9.70    0.86
  -7   1   2    9.50    1.30
   7   1  -2    6.54    0.96
   7   1  -2    6.20    0.94
  -6  -1   2    2.09    1.23
  -6  -1   2    0.59    0.65
   6  -1  -2    0.39    0.47
   6  -1  -2   -0.18    0.49
  -6  -1   2   -0.70    0.75
   6   1  -2    1.34    0.53
   6   1  -2    0.79    0.62
  -6   1   2    0.18    0.76
  -6   1   2    0.79    0.65
   6   1  -2    0.42    0.65
  -6   1   2    0.58    0.70
   5  -1  -2   56.86    2.03
  -4  -1   2   39.79    1.58
   4  -1  -2   39.14    1.47
  -4  -1   2   36.69    2.14
   4  -1  -2   40.53    1.61
  -4  -1   2   41.71    1.63
  -4  -1   2   39.43    1.61
  -4   1   2   39.62    1.57
   4   1  -2   41.06    1.58
   4   1  -2   39.60    1.51
   4   1  -2   37.21    1.49
  -4   1   2   38.04    1.48
   4   1  -2   40.75    1.62
  -3  -1   2  162.47    4.62
  -3  -1   2  164.98    4.63
   3  -1  -2  157.43    4.55
  -3  -1   2  161.48    4.58
   3  -1  -2  157.01    4.55
   3   1  -2  153.05    4.53
   3   1  -2  152.35    4.57
  -3   1   2  161.12    4.60
   3   1  -2  159.94    4.57
   3   1  -2  159.39    4.57
  -3   1   2  164.22    4.60
  -2  -1   2    7.93    0.63
  -2  -1   2    9.10    0.76
   2  -1  -2    7.68    0.67
   2  -1  -2    7.72    0.63
  -2  -1   2    9.80    0.67
  -2   1   2    9.06    0.85
   2   1  -2    9.01    0.72
   2   1  -2    7.34    0.64
   2   1  -2    7.97    0.72
   1  -1  -2  388.01   10.62
   1  -1  -2  390.17   10.56
  -1  -1   2  407.98   10.57
  -1  -1   2  388.17   10.57
   1  -1  -2  391.93   10.56
   1   1  -2  386.77   10.58
   1   1  -2  404.24   10.56
   1   1  -2  386.45   10.57
  -1   1   2  390.04   10.56
   0  -1   2  290.62    7.74
   0  -1   2  283.70    7.76
   0  -1   2  297.63    7.72
   0  -1  -2  284.69    7.73
   0  -1  -2  293.90    7.74
   0  -1  -2  276.98    7.72
   0  -1  -2  283.06    7.83
   0  -1  -2  288.90    7.86
   0   1  -2  296.14    7.81
   0   1   2  263.99    7.79
   0   1  -2  289.04    7.76
   0   1   2  287.51    7.74
   0   1  -2  296.35    7.72
   1  -1   2    0.83    0.28
  -1  -1  -2    0.27    0.52
  -1  -1  -2    0.41    0.27
  -1  -1  -2    0.44    0.20
   1  -1   2    0.55    0.21
  -1  -1  -2    0.76    0.34
  -1   1  -2    0.43    0.38
  -1   1  -2    0.47    0.21
  -1   1  -2    0.81    0.22
   1   1   2    0.90    0.22
   1   1   2    0.54    0.21
  -2  -1  -2   60.09    1.69
   2  -1   2   59.38    1.66
  -2  -1  -2   59.26    2.04
   2  -1   2   58.37    1.65
  -2  -1  -2   58.06    1.90
  -2  -1  -2   58.25    1.69
  -2   1  -2   58.77    1.66
  -2   1  -2   58.12    1.87
  -2   1  -2   60.04    1.86
   2   1   2   59.27    1.68
  -2   1  -2   57.21    1.74
   2   1   2   58.00    1.68
  -2   1  -2   59.76    1.66
  -3  -1  -2   11.42    0.49
  -3  -1  -2   11.31    0.53
  -3  -1  -2   11.33    0.93
   3  -1   2   10.93    0.47
  -3  -1  -2   10.88    0.83
  -3   1  -2   11.06    0.62
  -3   1  -2   11.63    0.49
  -3   1  -2   11.51    0.67
   3   1   2   11.08    0.51
  -3   1  -2   11.18    0.49
   3   1   2   11.52    0.51
  -3   1  -2   11.02    0.69
  -4  -1  -2  188.42    5.20
   4  -1   2  189.37    5.14
  -4  -1  -2  188.65    5.44
   4  -1   2  184.63    5.15
  -4  -1  -2  187.69    5.68
  -4  -1  -2  195.10    5.18
  -4   1  -2  190.10    5.07
  -4   1  -2  188.77    5.17
  -4   1  -2  187.16    5.47
   4   1   2  187.17    5.18
  -4   1  -2  183.25    5.34
  -4   1  -2  189.53    5.15
  -5  -1  -2  142.78    4.05
  -5  -1  -2  138.38    4.28
  -5  -1  -2  142.01    4.67
  -5  -1  -2  141.88    4.02
   5  -1   2  139.99    4.02
   5  -1   2  142.32    4.00
  -5   1  -2  140.30    4.03
  -5   1  -2  138.88    4.23
   5   1   2  143.13    4.05
  -5   1  -2  140.13    3.89
  -5   1  -2  140.09    4.02
  -5   1  -2  145.90    4.40
  -6  -1  -2   91.15    3.45
  -6  -1  -2   95.03    2.94
   6  -1   2   94.33    2.86
  -6  -1  -2   94.78    3.13
   6   1   2   93.17    2.93
  -6   1  -2   95.46    2.88
  -6   1  -2   89.84    3.25
  -6   1  -2   97.75    3.09
  -6   1  -2   92.28    2.70
   6   1   2   91.33    2.95
   7  -1   2   42.08    1.72
  -7  -1  -2   40.72    1.85
  -7  -1  -2   44.10    1.69
  -7  -1  -2   35.43    2.37
   7   1   2   41.42    1.69
  -7   1  -2   43.37    2.11
  -7   1  -2   42.79    1.93
   7   1   2   41.20    1.70
  -8  -1  -2   10.27    0.92
   8  -1   2   10.84    0.92
  -8  -1  -2   10.80    1.04
  -8  -1  -2   10.72    1.51
   8   1   2   11.61    1.04
  -8   1  -2   11.70    1.27
  -8   1  -2   10.70    1.15
  -9  -1  -2   13.62    1.72
   9  -1   2   13.30    1.18
  -9  -1  -2   14.79    1.22
   9   1   2   10.35    1.03
  -9   1  -2   12.35    1.30
  -9   1  -2   14.52    1.47
  10  -2  -2   29.48    2.20
 -10  -2   2   31.42    1.89
 -10  -2   2   29.35    2.44
 -10  -2   2   28.34    2.68
 -10   2   2   31.24    2.05
  10   2  -2   32.22    2.24
  -9  -2   2   46.84    2.76
   9  -2  -2   45.94    2.40
  -9  -2   2   45.64    3.16
  -9  -2   2   44.04    2.34
  -9   2   2   44.47    2.34
   9   2  -2   43.37    2.37
  -9   2   2   45.39    2.52
  -8  -2   2    2.97    1.50
  -8  -2   2    1.90    0.68
   8  -2  -2    2.46    0.71
  -8  -2   2    4.43    0.98
   8   2  -2    2.09    0.91
  -8   2   2    1.73    0.78
  -8   2   2    1.73    0.91
   8   2  -2    2.74    0.63
  -7  -2   2   26.67    2.09
   7  -2  -2   28.45    1.72
  -7  -2   2   26.68    1.49
  -7  -2   2   28.33    2.28
   7   2  -2   25.44    1.51
  -7   2   2   27.82    1.72
   7   2  -2   23.57    1.33
  -7   2   2   26.93    1.61
   6  -2  -2   28.92    1.61
  -6  -2   2   27.81    2.35
  -6  -2   2   28.06    1.59
  -6  -2   2   26.01    1.64
   6  -2  -2   28.53    1.39
   6   2  -2   24.62    1.63
  -6   2   2   28.38    1.52
   6   2  -2   26.47    1.31
  -6   2   2   28.75    1.63
   6   2  -2   26.30    1.38
  -6   2   2   26.22    1.40
  -5  -2   2  108.32    3.97
  -5  -2   2  100.31    3.49
  -5  -2   2  104.35    3.36
   5  -2  -2  108.64    3.30
   5  -2  -2   97.36    3.29
   5   2  -2  105.29    3.32
  -5   2   2  108.17    3.48
  -5   2   2  107.71    3.32
   5   2  -2  104.26    3.21
   5   2  -2   96.63    3.32
  -5   2   2  102.30    3.36
   4  -2  -2    3.67    0.55
   4  -2  -2    3.78    0.61
  -4  -2   2    2.83    0.53
  -4  -2   2    4.42    0.88
   4   2  -2    3.86    0.54
  -4   2   2    5.09    0.71
  -4   2   2    3.92    0.60
  -4   2   2    4.73    0.67
   4   2  -2    2.53    0.64
   4   2  -2    3.98    0.55
   3  -2  -2   29.00    1.19
  -3  -2   2   27.94    1.82
   3  -2  -2   26.52    1.21
  -3  -2   2   27.02    1.33
   3   2  -2   27.17    1.20
  -3   2   2   28.76    1.35
  -3   2   2   28.39    1.31
   3   2  -2   27.04    1.22
   3   2  -2   29.32    1.24
   2  -2  -2  454.70   12.52
   2  -2  -2  457.81   12.54
  -2  -2   2  473.63   12.55
   2  -2  -2  470.24   12.54
  -2   2   2  465.50   12.53
   2   2  -2  458.62   12.54
   2   2  -2  462.21   12.50
   2   2  -2  459.67   12.56
  -2   2   2  456.89   12.54
   1  -2  -2  562.83   15.54
   1  -2  -2  570.69   15.50
   1  -2  -2  576.17   15.45
  -1  -2   2  594.24   15.51
   1  -2  -2  580.85   15.51
  -1   2   2  575.67   15.52
   1   2  -2  584.79   15.50
   1   2  -2  574.10   15.50
   1   2  -2  575.72   15.53
  -1   2   2  573.86   15.51
   0  -2  -2    6.05    0.58
   0  -2  -2    6.48    0.59
   0  -2  -2    6.69    0.58
   0  -2   2    7.16    0.59
   0  -2   2    5.85    0.50
   0  -2  -2    6.33    0.59
   0   2   2    5.90    0.57
   0   2  -2    5.71    0.61
   0   2  -2    6.22    0.54
   0   2   2    5.70    0.57
   0   2  -2    6.25    0.54
   1  -2   2   62.34    1.90
  -1  -2  -2   60.23    1.98
  -1  -2  -2   64.04    2.20
   1  -2   2   64.36    1.87
  -1  -2  -2   64.13    2.20
  -1  -2  -2   64.11    1.95
  -1   2  -2   61.46    2.00
   1   2   2   64.00    1.95
  -1   2  -2   61.14    2.09
  -1   2  -2   62.76    1.90
   1   2   2   63.21    1.96
  -2  -2  -2  620.56   16.54
  -2  -2  -2  612.30   16.74
  -2  -2  -2  632.88   16.85
   2  -2   2  623.62   16.32
  -2   2  -2  632.19   16.54
  -2   2  -2  589.67   16.37
  -2   2  -2  623.47   16.52
  -2   2  -2  613.91   16.64
   2   2   2  608.81   16.53
  -3  -2  -2  236.26    6.40
  -3  -2  -2  231.60    6.41
   3  -2   2  234.04    6.38
  -3  -2  -2  226.72    6.78
  -3  -2  -2  226.66    6.63
   3  -2   2  228.46    6.37
  -3   2  -2  240.10    6.40
  -3   2  -2  233.30    6.38
  -3   2  -2  232.24    6.54
  -3   2  -2  231.50    6.37
  -3   2  -2  220.71    6.39
   3   2   2  232.04    6.40
  -4  -2  -2   49.68    1.67
  -4  -2  -2   48.51    1.68
  -4  -2  -2   43.87    2.24
   4  -2   2   46.11    1.61
  -4  -2  -2   47.66    1.89
   4  -2   2   47.61    1.63
   4   2   2   47.75    1.67
  -4   2  -2   47.74    1.73
  -4   2  -2   46.71    1.65
  -4   2  -2   47.36    1.64
  -4   2  -2   48.30    1.62
  -5  -2  -2    6.66    0.63
  -5  -2  -2    5.89    0.90
  -5  -2  -2    6.38    0.64
   5  -2   2    6.42    0.70
  -5  -2  -2    6.72    1.16
   5  -2   2    6.19    0.58
  -5   2  -2    6.18    0.66
  -5   2  -2    6.52    0.62
  -5   2  -2    5.37    0.60
  -5   2  -2    4.89    0.58
   5   2   2    5.73    0.62
  -6  -2  -2  161.74    4.76
   6  -2   2  162.33    4.72
  -6  -2  -2  161.79    5.05
  -6  -2  -2  154.40    5.42
  -6   2  -2  156.94    4.83
   6   2   2  162.76    4.77
  -6   2  -2  157.64    4.87
  -6   2  -2  157.49    4.69
   7  -2   2  134.70    4.20
  -7  -2  -2  137.74    4.56
  -7  -2  -2  136.42    4.90
  -7  -2  -2  136.95    4.27
   7   2   2  140.40    4.28
  -7   2  -2  138.68    4.23
  -7   2  -2  135.66    4.42
  -7   2  -2  139.24    4.44
  -8  -2  -2  105.72    3.76
  -8  -2  -2  104.28    4.13
   8  -2   2  105.47    3.44
  -8  -2  -2  100.45    3.46
   8   2   2   98.73    3.44
  -8   2  -2  106.13    3.64
  -8   2  -2   93.93    3.58
  -9   2  -2    6.13    1.08
  10  -3  -2    6.90    1.38
 -10  -3   2    9.51    1.70
 -10  -3   2    6.73    1.29
 -10  -3   2    7.74    1.62
 -10   3   2    5.80    1.12
  10   3  -2    8.14    1.17
   9  -3  -2   21.05    1.71
  -9  -3   2   23.07    2.08
  -9  -3   2   19.71    1.56
  -9  -3   2   21.13    2.14
   9   3  -2   17.93    1.65
  -9   3   2   20.27    1.79
   8  -3  -2  172.72    5.47
  -8  -3   2  166.15    5.40
  -8  -3   2  169.00    5.69
  -8  -3   2  158.45    6.13
   8   3  -2  169.28    5.42
  -8   3   2  166.42    5.55
   8   3  -2  166.43    5.01
  -7  -3   2   77.60    3.49
   7  -3  -2   78.98    2.92
  -7  -3   2   79.51    3.08
  -7  -3   2   75.78    3.41
  -7   3   2   78.67    2.67
  -7   3   2   79.41    2.99
   7   3  -2   75.27    2.65
   7   3  -2   78.95    3.10
  -6  -3   2   10.79    1.65
  -6  -3   2   15.74    1.53
  -6  -3   2   16.35    1.44
   6   3  -2    9.75    0.87
   6   3  -2   11.70    1.18
   5  -3  -2  108.79    3.53
  -5  -3   2  105.43    3.53
  -5  -3   2  109.38    3.68
   5  -3  -2  102.22    3.34
  -5  -3   2  104.49    4.04
   5   3  -2  104.11    3.52
   5   3  -2  100.05    3.38
  -5   3   2  106.07    3.15
  -5   3   2  101.84    3.44
   5   3  -2  103.65    3.26
  -5   3   2   84.00    3.33
  -5   3   2  104.23    3.37
  -4  -3   2  314.35    8.89
   4  -3  -2  315.14    8.83
   4  -3  -2  310.44    8.77
  -4  -3   2  314.51    9.15
  -4  -3   2  309.77    9.05
   4   3  -2  309.54    8.70
   4   3  -2  310.62    8.83
   4   3  -2  311.87    8.85
  -4   3   2  315.99    8.80
  -4   3   2  309.98    8.84
  -3  -3   2  191.89    5.77
  -3  -3   2  196.98    5.60
   3  -3  -2  188.82    5.52
  -3  -3   2  186.07    5.64
   3  -3  -2  190.60    5.49
   3  -3  -2  188.17    5.52
   3   3  -2  186.98    5.44
  -3   3   2  186.59    5.57
   3   3  -2  183.39    5.52
  -3   3   2  190.60    5.49
   3   3  -2  185.33    5.56
   2  -3  -2  150.61    4.43
   2  -3  -2  151.10    4.43
  -2  -3   2  149.02    4.57
  -2  -3   2  149.75    4.58
  -2  -3   2  145.11    4.42
   2  -3  -2  153.14    4.50
  -2   3   2  152.35    4.47
  -2   3   2  146.12    4.45
   2   3  -2  147.12    4.45
   2   3  -2  150.47    4.42
   2   3  -2  146.34    4.46
  -1  -3   2   97.36    3.09
   1  -3  -2   96.35    2.94
   1  -3  -2   98.91    3.15
  -1  -3   2   99.82    3.19
   1  -3  -2   97.68    3.06
  -1  -3   2  100.12    3.05
   1  -3  -2   96.53    3.10
   1   3  -2   96.32    3.05
  -1   3   2   99.84    3.13
  -1   3   2  100.14    3.13
   1   3  -2   97.67    3.09
   1   3  -2   95.98    3.08
   0  -3   2  107.70    3.34
   0  -3  -2  112.52    3.42
   0  -3  -2  113.30    3.41
   0  -3   2  115.53    3.39
   0  -3  -2  110.11    3.41
   0  -3  -2  110.84    3.49
   0   3  -2  112.32    3.48
   0   3   2  111.32    3.42
   0   3  -2  112.57    3.39
   0   3   2  111.15    3.40
   0   3  -2  110.41    3.47
  -1  -3  -2  374.73   10.75
   1  -3   2  381.81   10.54
  -1  -3  -2  366.09   10.59
  -1  -3  -2  372.33   10.79
  -1  -3  -2  380.94   10.67
   1  -3   2  413.69   10.61
   1   3   2  371.68   10.61
   1   3   2  380.70   10.66
  -1   3  -2  423.66   10.78
  -1   3  -2  387.32   10.69
  -1   3  -2  418.57   10.61
  -2  -3  -2  108.07    3.56
   2  -3   2  114.19    3.35
  -2  -3  -2  113.01    3.62
   2  -3   2  104.57    3.15
  -2  -3  -2  106.29    3.20
  -2  -3  -2  105.84    3.31
   2  -3   2  108.24    3.08
   2   3   2  106.22    3.31
   2   3   2  105.43    3.21
  -2   3  -2  104.99    3.28
  -2   3  -2  107.62    3.45
  -2   3  -2  105.02    3.15
  -3  -3  -2    9.71    0.99
  -3  -3  -2    8.60    0.92
   3  -3   2    9.55    0.42
   3  -3   2    9.34    0.83
  -3  -3  -2    9.50    0.66
  -3  -3  -2   10.28    0.87
  -3   3  -2    9.31    0.82
  -3   3  -2   10.76    0.67
  -3   3  -2    9.90    0.97
   3   3   2    9.17    0.80
  -4  -3  -2   12.64    1.18
  -4  -3  -2   12.31    1.36
   4  -3   2   14.47    1.12
  -4  -3  -2   14.15    1.02
  -4   3  -2   13.43    1.04
   4   3   2   13.04    1.04
  -4   3  -2   13.60    1.05
  -5  -3  -2  320.66    9.64
   5  -3   2  332.50    9.02
  -5  -3  -2  324.17    9.05
  -5  -3  -2  323.59    9.40
  -5   3  -2  310.47    8.98
  -5   3  -2  315.86    9.05
   5   3   2  325.25    9.06
  -5   3  -2  318.85    8.79
   6  -3   2   11.23    0.99
  -6  -3  -2    9.31    1.54
  -6  -3  -2   11.00    0.97
  -6  -3  -2   12.23    1.35
  -6   3  -2   10.76    1.01
   6   3   2   10.59    0.98
  -6   3  -2   10.38    0.94
   7  -3   2    1.01    0.71
  -7  -3  -2    1.31    1.29
  -7  -3  -2    2.40    0.57
  -7  -3  -2    1.84    0.76
  -7   3  -2    1.84    0.59
   7   3   2    1.00    0.70
  -7   3  -2    1.50    0.69
  -8  -3  -2   14.80    1.56
  -8  -3  -2   15.12    1.70
   8  -3   2   16.04    1.28
  -8  -3  -2   14.29    1.23
  -8   3  -2   17.26    1.37
   8   3   2   15.51    1.29
  -8   3  -2   15.38    1.35
  -9  -3  -2   81.01    3.87
   9  -3   2   83.21    3.17
  -9  -3  -2   81.32    3.54
  -9  -3  -2   77.34    3.13
   9   3   2   82.55    3.20
  -9  -4   2   13.65    2.23
  -9  -4   2   14.71    1.43
   9  -4  -2   12.86    1.57
  -9  -4   2   16.18    2.00
  -9   4   2   12.48    1.59
   9   4  -2   15.95    1.47
  -8  -4   2    5.34    1.39
   8  -4  -2    6.10    1.25
  -8  -4   2    6.57    1.53
  -8  -4   2    6.66    1.21
   8   4  -2    6.82    1.25
  -8   4   2    5.34    1.22
  -7  -4   2   71.05    3.51
  -7  -4   2   74.36    3.78
  -7  -4   2   72.15    2.94
   7  -4  -2   74.08    3.09
   7   4  -2   72.89    2.62
   7   4  -2   73.68    3.11
  -7   4   2   76.15    2.96
  -7   4   2   73.04    3.07
  -6  -4   2  183.61    5.68
   6  -4  -2  183.15    5.87
  -6  -4   2  186.54    6.12
  -6  -4   2  184.15    5.93
  -6  -4   2  181.42    6.24
  -6   4   2  180.20    5.82
  -6   4   2  207.30    6.06
  -6   4   2  189.01    5.94
   6   4  -2  190.19    5.94
   6   4  -2  184.58    5.56
   5  -4  -2   51.62    2.11
   5  -4  -2   46.06    2.13
  -5  -4   2   47.22    2.51
  -5  -4   2   50.93    2.35
  -5  -4   2   49.32    2.67
  -5   4   2   52.82    2.18
   5   4  -2   50.74    2.03
  -5   4   2   50.27    2.17
   5   4  -2   47.03    2.30
   5   4  -2   52.13    2.27
  -4  -4   2  114.72    4.11
   4  -4  -2  114.03    3.68
  -4  -4   2  112.15    4.22
   4  -4  -2  115.32    3.78
  -4  -4   2  112.03    3.85
   4   4  -2  117.95    3.87
  -4   4   2  115.56    3.89
   4   4  -2  114.01    3.77
  -4   4   2  111.75    3.76
   4   4  -2  113.81    3.60
   3  -4  -2   11.41    0.92
   3  -4  -2   13.95    1.22
  -3  -4   2   11.62    1.35
  -3  -4   2   13.19    1.07
  -3  -4   2   10.56    1.08
   3  -4  -2   13.83    1.19
   3   4  -2   11.99    1.09
  -3   4   2   12.12    1.02
  -3   4   2   11.04    1.09
   3   4  -2   12.64    1.19
   3   4  -2   10.99    0.98
  -2  -4   2  327.61    9.40
   2  -4  -2  322.98    9.36
   2  -4  -2  341.20    9.43
  -2  -4   2  352.15    9.54
  -2  -4   2  325.02    9.48
   2  -4  -2  319.60    9.41
   2   4  -2  333.56    9.37
   2   4  -2  331.11    9.43
  -2   4   2  338.50    9.47
   2   4  -2  330.71    9.47
  -2   4   2  337.19    9.43
  -1  -4   2  138.00    4.23
  -1  -4   2  135.82    4.33
   1  -4  -2  140.47    4.35
   1  -4  -2  137.64    4.26
   1  -4  -2  134.40    4.06
   1  -4  -2  134.41    4.32
  -1  -4   2  140.57    4.26
   1   4  -2  135.93    4.28
   1   4  -2  142.61    4.40
  -1   4   2  135.47    4.26
  -1   4   2  140.84    4.33
   1   4  -2  138.12    4.30
   0  -4   2  151.21    4.60
   0  -4   2  154.07    4.62
   0  -4   2  156.29    4.45
   0  -4  -2  154.48    4.68
   0  -4  -2  147.24    4.57
   0  -4  -2  151.19    4.71
   0  -4  -2  156.07    4.59
   0   4  -2  148.83    4.63
   0   4  -2  151.02    4.61
   0   4  -2  152.04    4.72
   0   4   2  155.33    4.64
   0   4   2  149.44    4.65
  -1  -4  -2   11.81    1.04
   1  -4   2   10.84    0.80
  -1  -4  -2   10.24    0.91
   1  -4   2   10.80    0.70
   1  -4   2   12.53    0.92
  -1  -4  -2   11.53    1.17
   1  -4   2   11.41    1.04
  -1  -4  -2   12.39    0.97
  -1   4  -2   11.53    0.83
  -1   4  -2   13.06    1.08
   1   4   2   11.09    0.96
  -1   4  -2   10.97    0.93
   1   4   2    9.86    0.87
   2  -4   2   40.37    1.63
   2  -4   2   38.98    1.51
  -2  -4  -2   42.31    1.89
  -2  -4  -2   39.62    1.81
   2  -4   2   40.18    1.76
  -2  -4  -2   44.14    1.73
  -2  -4  -2   45.81    2.15
   2   4   2   44.92    1.76
  -2   4  -2   40.91    1.65
   2   4   2   43.42    1.89
  -2   4  -2   41.71    1.77
  -2   4  -2   40.03    1.83
  -3  -4  -2   15.09    1.24
   3  -4   2   16.43    0.95
  -3  -4  -2   16.48    1.36
   3  -4   2   17.90    1.42
  -3  -4  -2   17.96    1.07
   3  -4   2   17.76    0.78
  -3  -4  -2   17.73    1.38
   3   4   2   15.56    1.31
  -3   4  -2   16.04    1.04
   3   4   2   15.35    1.06
  -3   4  -2   18.00    1.26
  -3   4  -2   16.08    1.36
   4  -4   2   83.17    2.83
  -4  -4  -2   81.24    3.40
  -4  -4  -2   83.82    3.16
  -4  -4  -2   79.91    2.89
  -4   4  -2   79.49    2.92
   4   4   2   80.26    2.92
   5  -4   2    3.83    0.87
  -5  -4  -2    3.35    0.98
  -5  -4  -2    2.91    1.10
  -5  -4  -2    3.45    0.63
  -5   4  -2    4.28    0.64
  -5   4  -2    3.03    0.82
   5   4   2    1.20    0.77
  -6  -4  -2   12.09    1.14
  -6  -4  -2   13.91    1.53
   6  -4   2   10.54    1.13
  -6  -4  -2   13.83    1.74
  -6   4  -2   12.96    1.16
   6   4   2   10.14    0.99
  -6   4  -2   13.53    1.16
  -7  -4  -2    7.58    1.65
  -7  -4  -2    7.56    0.89
   7  -4   2    7.08    1.04
  -7  -4  -2    7.33    1.15
  -7   4  -2    7.27    0.88
   7   4   2    5.66    0.99
  -7   4  -2    8.08    1.06
  -8  -4  -2    7.22    1.10
  -8  -4  -2    9.74    1.60
  -8  -4  -2    7.03    1.76
   8  -4   2    9.35    1.18
  -8   4  -2    7.79    1.15
  -8   4  -2    9.12    1.15
   8   4   2    8.97    1.20
   8  -5  -2    1.11    1.19
  -8  -5   2    2.46    1.72
  -8  -5   2   -0.44    0.92
  -8  -5   2    0.16    0.75
  -8   5   2    1.53    1.10
  -8   5   2   -0.60    0.73
   8   5  -2    1.40    1.11
  -7  -5   2   44.67    3.09
  -7  -5   2   48.61    3.04
   7  -5  -2   45.43    2.35
  -7  -5   2   47.76    2.37
  -7   5   2   49.16    2.39
  -7   5   2   45.67    2.35
   7   5  -2   45.78    2.61
   7   5  -2   47.65    2.06
   6  -5  -2   14.68    1.33
  -6  -5   2   15.05    1.59
  -6  -5   2   13.96    1.48
  -6  -5   2   14.65    1.89
   6   5  -2   15.52    1.53
  -6   5   2   13.29    1.50
   6   5  -2   17.72    1.35
  -5  -5   2   35.47    2.44
  -5  -5   2   31.50    1.96
  -5  -5   2   36.36    2.49
   5  -5  -2   33.80    1.88
  -5  -5   2   32.19    1.83
  -5   5   2   34.83    2.13
   5   5  -2   27.18    1.70
  -5   5   2   34.73    1.95
   5   5  -2   33.82    2.11
   5   5  -2   32.51    1.59
   4  -5  -2    9.21    1.01
  -4  -5   2    8.82    1.16
   4  -5  -2    9.05    1.05
  -4  -5   2    8.47    0.99
   4  -5  -2    9.93    0.97
  -4  -5   2    9.93    1.46
  -4  -5   2    7.48    1.12
   4   5  -2    7.22    1.16
  -4   5   2    8.52    1.10
   4   5  -2    8.63    1.18
   4   5  -2    8.59    0.87
  -4   5   2    6.97    1.00
  -3  -5   2   91.52    3.39
  -3  -5   2   87.30    3.38
  -3  -5   2   83.81    3.31
  -3  -5   2   92.74    3.61
   3  -5  -2   96.52    3.48
   3  -5  -2   90.94    3.24
   3  -5  -2   90.95    3.29
  -3   5   2   93.53    3.46
   3   5  -2   88.59    3.12
   3   5  -2   94.49    3.41
  -3   5   2   92.12    3.35
   3   5  -2   88.85    3.26
  -2  -5   2   56.72    2.61
  -2  -5   2   58.93    2.62
   2  -5  -2   60.44    2.49
   2  -5  -2   56.73    2.30
   2  -5  -2   56.86    2.58
  -2  -5   2   59.88    2.49
  -2  -5   2   57.29    2.49
  -2   5   2   59.80    2.42
   2   5  -2   59.49    2.52
   2   5  -2   58.18    2.44
  -2   5   2   55.99    2.33
   2   5  -2   57.19    2.57
   1  -5  -2    0.67    0.57
  -1  -5   2    0.47    0.94
  -1  -5   2    0.34    0.51
  -1  -5   2   -1.11    0.79
  -1  -5   2    0.73    0.67
   1  -5  -2    0.77    0.90
   1  -5  -2    0.20    0.79
   1  -5  -2    0.28    0.47
   1   5  -2    0.99    0.79
  -1   5   2   -0.21    0.60
   1   5  -2    0.32    0.84
   1   5  -2   -0.39    0.60
  -1   5   2   -0.98    0.77
   0  -5  -2   94.64    3.11
   0  -5   2   97.05    3.31
   0  -5  -2   94.11    3.27
   0  -5   2   94.58    2.99
   0  -5  -2   93.41    3.45
   0  -5  -2   92.45    3.23
   0  -5   2   94.96    3.32
   0  -5   2   91.86    3.18
   0   5  -2   92.94    3.20
   0   5   2   97.66    3.42
   0   5   2   96.63    3.28
   0   5  -2   95.77    3.36
   0   5  -2   91.56    3.41
  -1  -5  -2   50.15    2.28
   1  -5   2   48.57    2.10
   1  -5   2   49.14    1.69
  -1  -5  -2   56.17    2.28
  -1  -5  -2   50.27    2.14
   1  -5   2   48.80    1.95
   1  -5   2   53.64    2.44
  -1  -5  -2   59.28    2.30
  -1   5  -2   48.56    2.19
  -1   5  -2   54.02    2.43
   1   5   2   45.77    2.04
   1   5   2   51.08    2.33
  -1   5  -2   53.86    2.16
  -2  -5  -2   30.55    1.95
   2  -5   2   35.30    2.04
  -2  -5  -2   36.71    1.90
  -2  -5  -2   35.48    2.15
   2  -5   2   35.23    1.65
  -2   5  -2   34.77    2.05
  -2   5  -2   34.59    2.01
   2   5   2   34.06    1.93
  -2   5  -2   34.62    1.67
  -3  -5  -2    9.00    1.08
   3  -5   2    9.21    1.15
  -3  -5  -2    9.51    1.16
  -3  -5  -2    9.13    1.09
  -3  -5  -2    9.35    0.83
   3  -5   2    9.50    0.78
   3   5   2    8.03    1.10
  -3   5  -2    7.50    0.98
  -3   5  -2    8.43    1.15
  -4  -5  -2   75.12    2.87
   4  -5   2   66.56    2.84
  -4  -5  -2   66.91    3.20
  -4  -5  -2   71.96    3.26
  -4   5  -2   66.19    2.84
   4   5   2   77.37    2.92
   5  -5   2   18.67    1.48
  -5  -5  -2   17.11    1.63
  -5  -5  -2   17.76    1.63
  -5  -5  -2   15.06    1.38
   5   5   2   17.90    1.46
  -5   5  -2   18.11    1.62
  -6  -5  -2    9.47    1.03
  -6  -5  -2   11.38    1.72
  -6  -5  -2   10.80    1.40
   6  -5   2    9.10    1.23
  -6   5  -2    9.86    1.22
   6   5   2    8.93    1.22
  -6   5  -2   11.51    1.16
  -7  -5  -2    0.07    0.85
  -7  -5  -2    3.32    1.50
   7  -5   2    1.08    1.00
  -7  -5  -2   -0.70    0.82
   7   5   2   -0.47    0.88
  -7   5  -2    0.18    0.59
  -7   5  -2    1.22    0.95
  -7  -6   2    6.73    1.77
  -7  -6   2    8.69    1.46
   7  -6  -2    6.50    1.45
  -7  -6   2    4.20    1.72
   7   6  -2    7.25    1.43
  -7   6   2    5.94    1.35
  -7   6   2    6.95    1.45
  -6  -6   2    5.35    1.64
  -6  -6   2    6.94    1.32
  -6  -6   2    5.50    1.60
   6  -6  -2    6.91    1.36
  -6   6   2    6.30    1.37
   6   6  -2    6.21    1.00
   6   6  -2    6.21    1.08
   5  -6  -2   17.07    1.70
  -5  -6   2   19.61    1.96
  -5  -6   2   17.19    1.67
  -5  -6   2   17.31    1.56
  -5  -6   2   16.07    1.87
   5   6  -2   18.74    1.44
   5   6  -2   19.41    1.72
  -5   6   2   19.43    1.75
   4  -6  -2   22.71    1.62
  -4  -6   2   22.17    1.89
   4  -6  -2   21.00    1.49
  -4  -6   2   23.80    1.65
   4  -6  -2   22.84    1.73
  -4  -6   2   20.06    1.84
  -4  -6   2   20.97    1.84
  -4   6   2   21.70    1.81
   4   6  -2   22.60    1.45
   4   6  -2   19.28    1.67
  -4   6   2   23.61    1.88
   4   6  -2   20.83    1.71
  -3  -6   2   39.81    2.30
  -3  -6   2   33.19    2.18
  -3  -6   2   30.99    1.83
   3  -6  -2   34.57    1.96
   3  -6  -2   35.93    2.08
   3  -6  -2   33.66    2.25
  -3  -6   2   32.08    2.30
   3   6  -2   38.20    2.22
   3   6  -2   30.10    1.87
  -3   6   2   26.35    2.19
   3   6  -2   35.08    2.01
  -3   6   2   33.58    2.12
  -2  -6   2   -0.78    0.58
  -2  -6   2    0.63    0.72
  -2  -6   2    0.13    0.80
  -2  -6   2   -0.78    1.02
   2  -6  -2   -2.00    0.96
   2  -6  -2   -0.28    0.88
   2  -6  -2   -0.26    0.57
   2   6  -2   -0.59    0.58
  -2   6   2   -0.06    0.70
  -2   6   2    0.27    0.92
   2   6  -2    0.26    1.01
   2   6  -2   -1.20    0.90
   1  -6  -2    3.79    0.80
  -1  -6   2    3.21    1.02
   1  -6  -2    3.84    0.71
  -1  -6   2    3.07    1.15
   1  -6  -2    3.08    0.77
  -1  -6   2    2.30    0.95
  -1  -6   2    2.88    0.76
   1  -6  -2    2.96    0.81
   1   6  -2    2.49    1.02
  -1   6   2    3.43    1.06
   1   6  -2    2.78    0.76
   1   6  -2    1.47    0.81
   0  -6  -2   13.09    1.19
   0  -6  -2   13.40    1.44
   0  -6  -2   13.58    1.38
   0  -6   2   13.89    1.30
   0  -6   2   13.77    0.99
   0  -6   2   14.55    1.22
   0  -6   2   12.96    1.28
   0  -6  -2   12.76    1.34
   0   6  -2   13.49    1.15
   0   6  -2   13.34    1.47
   0   6   2   15.07    1.42
   0   6  -2   13.40    1.25
   0   6   2   12.88    1.38
   1  -6   2  122.38    4.12
   1  -6   2  111.45    4.21
  -1  -6  -2  128.48    4.29
  -1  -6  -2  114.66    4.18
  -1  -6  -2  134.57    4.32
   1  -6   2  134.19    4.20
  -1  -6  -2  129.69    4.56
   1   6   2  130.47    4.41
  -1   6  -2  118.70    4.27
  -1   6  -2  125.06    4.21
   1   6   2  127.25    4.32
  -1   6  -2  128.10    4.34
  -2  -6  -2   22.20    1.88
  -2  -6  -2   18.69    1.46
  -2  -6  -2   18.02    1.44
   2  -6   2   23.82    1.94
   2  -6   2   23.15    1.40
  -2  -6  -2   19.82    1.65
  -2   6  -2   23.96    1.60
   2   6   2   22.69    1.83
  -2   6  -2   20.70    1.69
  -2   6  -2   15.66    1.40
  -3  -6  -2   27.01    2.29
  -3  -6  -2   26.26    2.03
  -3  -6  -2   23.73    1.79
   3  -6   2   25.75    1.48
   3  -6   2   25.28    2.01
   3   6   2   21.93    1.92
  -3   6  -2   25.29    2.01
  -4  -6  -2    1.13    0.85
  -4  -6  -2    1.27    1.00
   4  -6   2    1.18    1.10
  -4  -6  -2    0.95    0.91
  -4   6  -2    2.72    1.10
   4   6   2    1.18    0.97
  -5  -6  -2   34.82    2.59
  -5  -6  -2   30.44    2.11
  -5  -6  -2   30.65    2.60
   5  -6   2   32.70    2.25
   5   6   2   32.88    2.20
  -5   6  -2   31.77    2.19
   6  -6   2    4.16    0.97
  -6  -6  -2    6.67    1.65
  -6  -6  -2    3.75    0.90
  -6  -6  -2    3.71    1.56
  -6   6  -2    4.15    0.96
   6   6   2    4.92    1.21
  -6   6  -2    3.35    1.03
   6  -7  -2    1.94    1.35
  -6  -7   2    1.54    1.30
  -6  -7   2    2.96    1.11
  -6  -7   2    1.34    1.10
   6   7  -2    0.59    0.64
  -6   7   2    1.28    1.32
   6   7  -2    0.10    1.28
  -5  -7   2    1.95    0.94
  -5  -7   2    3.97    1.55
   5  -7  -2    2.07    1.03
  -5  -7   2    2.24    1.36
   5   7  -2    4.01    0.86
  -5   7   2    1.99    1.28
   5   7  -2    1.14    1.27
  -4  -7   2   55.93    2.97
  -4  -7   2   56.65    3.17
  -4  -7   2   54.14    2.88
   4  -7  -2   51.87    2.57
   4  -7  -2   54.07    2.99
  -4  -7   2   55.40    2.65
   4   7  -2   55.20    2.95
   4   7  -2   49.43    2.61
  -4   7   2   51.22    2.67
  -4   7   2   51.31    2.77
  -3  -7   2   63.53    3.13
   3  -7  -2   63.06    2.77
  -3  -7   2   67.02    2.99
   3  -7  -2   65.74    3.19
   3  -7  -2   63.56    2.72
  -3  -7   2   59.80    2.99
  -3  -7   2   60.87    3.21
   3   7  -2   61.72    2.73
  -3   7   2   63.17    3.03
   3   7  -2   59.75    2.83
  -3   7   2   65.16    2.94
   3   7  -2   63.98    3.14
  -2  -7   2    8.86    1.45
  -2  -7   2    7.96    1.11
   2  -7  -2    7.94    1.43
   2  -7  -2    7.92    1.33
  -2  -7   2    9.78    1.20
  -2  -7   2    6.56    1.37
   2  -7  -2    7.45    1.26
   2   7  -2    9.17    1.17
   2   7  -2    7.75    1.33
  -2   7   2    7.47    1.19
  -2   7   2    8.70    1.16
   2   7  -2    7.97    1.19
  -1  -7   2   22.60    1.80
  -1  -7   2   19.06    1.56
  -1  -7   2   22.10    1.93
   1  -7  -2   20.02    1.77
   1  -7  -2   19.12    1.61
   1  -7  -2   22.48    1.87
  -1   7   2   22.38    1.81
  -1   7   2   21.54    1.73
   1   7  -2   24.29    2.11
   1   7  -2   19.63    1.65
   1   7  -2   22.38    1.81
   0  -7   2   30.85    2.10
   0  -7   2   30.61    2.44
   0  -7   2   33.34    2.08
   0  -7  -2   30.86    2.29
   0  -7  -2   36.52    2.02
   0  -7  -2   33.48    1.78
   0  -7  -2   31.64    2.27
   0   7  -2   33.08    2.38
   0   7   2   37.34    2.33
   0   7  -2   31.45    2.42
   0   7  -2   36.44    1.96
   0   7   2   34.28    2.31
   1  -7   2   37.06    2.46
  -1  -7  -2   36.18    2.27
   1  -7   2   33.91    1.97
  -1  -7  -2   30.29    1.95
  -1  -7  -2   32.54    1.94
  -1  -7  -2   33.82    2.44
  -1   7  -2   32.23    2.05
   1   7   2   31.70    2.31
  -1   7  -2   33.71    1.89
  -1   7  -2   30.39    2.36
  -2  -7  -2    5.53    1.25
   2  -7   2    6.59    0.95
  -2  -7  -2    5.98    1.42
   2  -7   2    2.70    0.95
  -2  -7  -2    4.36    0.91
  -2   7  -2    4.76    1.32
   2   7   2    5.91    1.29
  -2   7  -2    4.74    1.33
  -3  -7  -2    9.25    1.43
  -3  -7  -2    9.62    1.42
  -3  -7  -2   12.97    1.54
   3  -7   2   11.05    1.61
  -3   7  -2   10.48    1.56
   3   7   2   11.69    1.54
   4  -7   2   16.47    1.72
  -4  -7  -2    7.93    1.37
  -4  -7  -2    9.54    1.74
  -4  -7  -2   11.36    1.64
  -4   7  -2   13.23    1.65
   4   7   2   10.09    1.49
  -5  -7  -2    2.97    1.23
  -5  -7  -2    3.60    1.10
  -5  -7  -2    3.02    1.25
   5  -7   2    3.87    1.37
  -5   7  -2    3.91    1.38
   5   7   2    1.85    1.23
  -3  -8   2    0.84    1.01
   3  -8  -2    1.51    1.41
  -3  -8   2    0.63    0.95
  -3  -8   2    0.46    1.30
  -3  -8   2    1.33    0.91
   3  -8  -2    0.66    1.04
  -3   8   2    0.85    0.87
   3   8  -2    2.33    1.23
  -3   8   2    3.57    1.45
   3   8  -2    1.44    1.32
  -2  -8   2   27.87    2.46
   2  -8  -2   30.72    2.32
  -2  -8   2   30.67    2.40
   2  -8  -2   26.12    2.21
  -2  -8   2   29.88    2.17
   2  -8  -2   27.20    2.29
  -2   8   2   28.86    2.48
  -2   8   2   26.69    2.10
   2   8  -2   29.13    2.36
   2   8  -2   31.49    2.12
   2   8  -2   29.68    2.36
  -1  -8   2  115.60    4.56
   1  -8  -2  103.67    4.21
   1  -8  -2  116.81    4.45
  -1  -8   2  108.56    4.20
   1  -8  -2  109.94    4.46
   1   8  -2  107.95    4.29
   1   8  -2  108.10    4.39
   1   8  -2  114.61    4.40
  -1   8   2  110.17    4.46
  -1   8   2  106.05    4.42
   0  -8  -2    0.03    0.84
   0  -8   2    0.60    0.92
   0  -8  -2    2.09    1.20
   0  -8  -2    1.64    1.22
   0  -8   2   -0.04    1.04
   0   8  -2    1.41    1.36
   0   8   2    1.10    0.91
   0   8  -2    1.11    0.82
   0   8  -2   -0.31    1.23
  -1  -8  -2   -0.18    0.80
  -1  -8  -2   -0.30    0.86
   1  -8   2    0.13    0.66
   1  -8   2    0.97    1.01
   1   8   2    0.08    1.21
  -1   8  -2    0.73    1.36
  -2  -8  -2   14.93    1.68
  -2  -8  -2   13.45    1.49
  -2  -8  -2   13.84    1.71
   2  -8   2   10.26    1.45
   2   8   2   13.53    1.49
  -2   8  -2   15.79    1.91
  11   0  -3   38.09    2.22
 -11   0   3   33.65    2.96
 -11   0   3   34.51    2.69
 -11   0   3   33.88    2.37
  11   0  -3   35.91    2.20
  10   0  -3    0.18    0.99
  10   0  -3   -1.10    0.75
  10   0  -3   -0.49    1.01
 -10   0   3    0.01    1.13
 -10   0   3    1.08    1.05
 -10   0   3    0.19    0.95
 -10   0   3   -0.17    0.91
  -9   0   3   14.64    1.39
  -9   0   3   14.62    1.40
   9   0  -3   14.53    1.28
  -9   0   3   13.72    1.88
   9   0  -3   13.87    1.25
   9   0  -3   12.04    1.42
   8   0  -3   -0.66    0.58
  -8   0   3   -0.40    0.93
   8   0  -3    0.86    0.95
  -8   0   3    0.48    0.59
  -8   0   3    1.15    0.97
  -7   0   3  102.42    4.08
   7   0  -3  108.31    3.69
   7   0  -3  113.65    3.61
   7   0  -3  112.15    3.80
  -7   0   3  109.52    3.69
  -7   0   3  116.44    3.86
  -7   0   3  115.61    3.63
  -6   0   3   -0.44    0.66
   6   0  -3   -0.01    0.70
  -6   0   3   -0.60    1.23
   6   0  -3    0.71    0.46
   6   0  -3   -0.23    0.79
  -6   0   3   -0.07    0.55
   5   0  -3   97.88    3.19
  -5   0   3   98.30    3.13
   5   0  -3   95.63    3.14
  -5   0   3  103.05    3.31
   5   0  -3   95.31    3.22
   4   0  -3    0.42    0.55
  -4   0   3   -0.63    0.57
   4   0  -3    0.40    0.56
  -4   0   3    0.20    0.59
   4   0  -3    0.31    0.63
  -3   0   3   53.34    1.93
  -3   0   3   53.18    1.93
   3   0  -3   56.60    1.97
   3   0  -3   55.21    2.06
   3   0  -3   54.34    1.95
  -3   0   3   50.52    1.87
   2   0  -3    0.52    0.54
  -2   0   3    0.17    0.40
  -2   0   3   -0.02    0.34
   2   0  -3   -0.52    0.48
   2   0  -3   -0.43    0.34
  -2   0   3    0.08    0.31
   1   0  -3   92.06    2.78
   1   0  -3   94.89    2.79
  -1   0   3   93.22    2.68
  -1   0   3   91.93    2.78
  -1   0   3   93.43    2.73
   1   0  -3   94.20    2.72
   0   0  -3    0.11    0.23
   0   0   3   -0.06    0.21
   0   0  -3    0.03    0.21
   0   0  -3   -0.11    0.12
   0   0   3    0.11    0.23
   0   0  -3    0.06    0.25
  -1   0  -3    4.89    0.65
  -1   0  -3    5.17    0.47
  -1   0  -3    5.49    0.50
  -2   0  -3   -0.04    0.50
  -2   0  -3    0.04    0.28
  -2   0  -3   -0.19    0.20
  -3   0  -3    6.01    0.43
  -3   0  -3    6.13    0.78
  -3   0  -3    5.93    0.52
  -4   0  -3    0.22    0.37
  -4   0  -3   -0.70    0.63
   5   0   3   12.79    0.59
  -5   0  -3   13.47    0.78
  -5   0  -3   11.70    1.17
   5   0   3   13.36    0.58
  -5   0  -3   13.20    0.58
  -6   0  -3    0.08    0.45
  -6   0  -3    0.06    0.37
   6   0   3    0.28    0.34
  -6   0  -3    0.62    0.85
  -7   0  -3   30.40    2.01
   8   0   3    0.20    0.46
  -8   0  -3    0.70    0.71
  -9   0  -3   42.84    2.66
   9   0   3   42.99    1.88
  -9   0  -3   42.26    1.85
 -11  -1   3   -0.27    1.21
 -11  -1   3    0.56    1.62
  11  -1  -3    1.19    1.17
 -11  -1   3   -0.26    1.02
  11  -1  -3   -0.90    1.18
  11   1  -3   -0.15    1.16
 -11   1   3   -1.52    1.03
 -11   1   3   -0.19    0.87
 -11   1   3    1.98    1.33
  11   1  -3   -0.44    0.92
 -10  -1   3   14.26    1.82
 -10  -1   3   18.97    1.83
 -10  -1   3   17.32    1.81
 -10  -1   3   14.18    1.53
  10  -1  -3   17.28    1.80
  10  -1  -3   17.09    1.60
 -10   1   3   17.68    1.94
  10   1  -3   17.56    1.58
 -10   1   3   13.49    1.45
  10   1  -3   19.82    1.60
  10   1  -3   18.00    1.66
  -9  -1   3    4.69    1.04
  -9  -1   3    1.93    1.16
   9  -1  -3    1.41    1.18
  -9  -1   3    3.98    1.25
  -9  -1   3    3.33    0.93
   9  -1  -3    4.04    0.87
   9   1  -3    3.84    1.05
  -9   1   3    3.45    1.32
  -9   1   3    4.22    0.92
   9   1  -3    3.68    1.00
   9   1  -3    4.01    0.85
   8  -1  -3   50.43    2.42
  -8  -1   3   51.68    2.21
  -8  -1   3   45.11    3.06
   8  -1  -3   48.79    2.39
  -8  -1   3   52.34    2.37
   8   1  -3   49.70    2.36
  -8   1   3   49.14    2.31
  -8   1   3   46.22    2.71
   8   1  -3   46.36    2.16
   8   1  -3   49.38    2.13
   7  -1  -3   43.83    2.13
  -7  -1   3   40.40    2.05
  -7  -1   3   43.59    2.05
   7  -1  -3   38.75    2.05
  -7  -1   3   41.11    2.46
   7   1  -3   43.07    1.93
   7   1  -3   43.46    1.91
   7   1  -3   44.12    1.90
  -7   1   3   43.48    1.91
   7   1  -3   44.08    2.12
  -7   1   3   39.96    2.54
  -7   1   3   45.85    2.25
  -6  -1   3   44.42    2.16
   6  -1  -3   45.93    2.08
  -6  -1   3   46.65    2.02
  -6  -1   3   45.23    2.05
  -6  -1   3   50.08    2.52
   6  -1  -3   46.86    1.84
   6   1  -3   47.75    1.94
   6   1  -3   47.98    2.12
   6   1  -3   49.38    2.11
  -6   1   3   46.28    1.99
   6   1  -3   47.18    1.96
  -6   1   3   46.18    2.19
  -6   1   3   41.77    2.49
  -5  -1   3   58.35    2.24
  -5  -1   3   57.29    2.24
  -5  -1   3   55.64    2.29
   5  -1  -3   56.99    2.16
  -5  -1   3   53.59    2.57
   5  -1  -3   57.86    2.23
   5   1  -3   55.79    2.23
   5   1  -3   56.20    2.24
   5   1  -3   57.21    2.10
   5   1  -3   55.41    2.12
  -5   1   3   60.70    2.33
  -5   1   3   65.18    2.23
  -4  -1   3   84.57    2.80
   4  -1  -3   85.67    2.78
  -4  -1   3   81.49    2.80
   4  -1  -3   81.40    2.73
  -4  -1   3   85.83    2.79
   4   1  -3   81.75    2.78
   4   1  -3   80.62    2.77
   4   1  -3   82.90    2.65
  -4   1   3   84.56    2.77
  -4   1   3   83.79    2.80
   4   1  -3   80.32    2.69
  -3  -1   3   28.38    1.30
  -3  -1   3   27.21    1.31
   3  -1  -3   29.18    1.20
   3  -1  -3   26.89    1.21
  -3  -1   3   26.40    1.43
  -3   1   3   26.14    1.19
   3   1  -3   26.52    1.16
   3   1  -3   26.78    1.35
  -3   1   3   27.62    1.37
   3   1  -3   27.41    1.19
   2  -1  -3    1.62    0.52
  -2  -1   3    1.24    0.51
   2  -1  -3    1.98    0.56
   2  -1  -3    1.10    0.48
  -2  -1   3    1.47    0.64
  -2  -1   3    0.87    0.33
   2   1  -3    0.56    0.49
   2   1  -3    1.71    0.54
   2   1  -3    1.41    0.44
  -2   1   3    1.24    0.42
   1  -1  -3  443.09   11.76
   1  -1  -3  436.67   11.76
  -1  -1   3  427.62   11.78
  -1  -1   3  446.76   11.73
   1  -1  -3  421.75   11.78
   1  -1  -3  438.83   11.86
   1   1  -3  435.08   11.78
   1   1  -3  425.53   11.78
   1   1  -3  446.56   11.73
  -1   1   3  439.59   11.76
   0  -1  -3  375.76    8.90
   0  -1   3  319.62    8.81
   0  -1   3  352.96    8.91
   0  -1  -3  308.91    9.04
   0  -1  -3  348.74    8.85
   0  -1  -3  321.33    8.87
   0  -1   3  321.99    8.86
   0  -1  -3  317.88    9.03
   0   1  -3  315.78    8.80
   0   1  -3  313.58    8.95
   0   1  -3  326.85    8.87
   0   1   3  331.38    8.97
   0   1  -3  342.83    8.91
   0   1   3  312.94    8.86
  -1  -1  -3    7.06    0.76
   1  -1   3    9.79    0.50
  -1  -1  -3    7.85    0.63
   1  -1   3    7.71    0.38
  -1  -1  -3    7.55    0.44
  -1  -1  -3    7.82    0.42
  -1   1  -3    8.42    0.30
  -1   1  -3    8.75    0.44
   1   1   3    7.31    0.46
  -1   1  -3    8.09    0.39
  -1   1  -3    7.60    0.66
  -2  -1  -3    5.06    0.30
  -2  -1  -3    4.70    0.61
  -2  -1  -3    5.23    0.59
  -2  -1  -3    5.29    0.32
  -2  -1  -3    4.99    0.24
   2  -1   3    4.62    0.26
   2  -1   3    4.38    0.24
  -2   1  -3    5.86    0.51
  -2   1  -3    4.95    0.27
  -2   1  -3    5.15    0.57
   2   1   3    4.69    0.31
  -2   1  -3    4.80    0.31
  -2   1  -3    4.64    0.29
   2   1   3    4.68    0.33
  -3  -1  -3  148.42    4.45
  -3  -1  -3  154.35    4.12
  -3  -1  -3  153.41    4.72
   3  -1   3  144.61    4.04
  -3  -1  -3  153.16    4.12
   3  -1   3  152.49    4.04
  -3   1  -3  157.32    4.34
   3   1   3  150.13    4.10
   3   1   3  153.58    4.10
  -3   1  -3  149.11    4.46
  -3   1  -3  152.05    4.23
  -3   1  -3  153.74    4.07
  -3   1  -3  151.73    4.07
   4  -1   3  163.87    4.59
  -4  -1  -3  170.75    4.65
  -4  -1  -3  172.65    5.33
  -4  -1  -3  171.36    4.96
  -4  -1  -3  171.90    4.64
  -4   1  -3  170.29    4.60
   4   1   3  169.47    4.63
  -4   1  -3  171.10    4.62
  -4   1  -3  169.48    5.07
  -4   1  -3  167.05    4.80
   4   1   3  167.90    4.62
  -5  -1  -3   52.29    1.68
  -5  -1  -3   53.47    1.64
  -5  -1  -3   50.94    2.42
   5  -1   3   52.31    1.62
  -5  -1  -3   49.94    1.97
   5  -1   3   50.73    1.62
  -5   1  -3   52.95    1.64
  -5   1  -3   51.55    2.14
  -5   1  -3   51.91    1.51
   5   1   3   52.01    1.67
  -5   1  -3   52.88    1.63
  -5   1  -3   51.85    1.87
  -6  -1  -3    0.46    0.41
  -6  -1  -3    0.81    0.35
   6  -1   3    0.71    0.34
  -6  -1  -3   -0.74    0.91
  -6   1  -3    0.35    0.38
  -6   1  -3    0.66    0.71
   6   1   3    0.54    0.42
  -6   1  -3    0.35    0.52
   7  -1   3    8.23    0.72
  -7  -1  -3    7.83    1.13
  -7  -1  -3    6.86    0.72
  -7  -1  -3    8.28    0.90
  -7   1  -3    8.48    0.90
  -7   1  -3    8.63    0.98
   7   1   3    7.19    0.67
   8  -1   3   30.34    1.54
  -8  -1  -3   30.08    1.45
  -8  -1  -3   34.26    2.40
  -8   1  -3   32.54    2.05
   8   1   3   32.97    1.52
  -9  -1  -3    7.43    1.51
   9  -1   3    7.88    0.97
  -9  -1  -3    8.48    0.92
  -9   1  -3    8.17    1.12
   9   1   3    8.75    0.94
  10  -2  -3    6.91    1.61
  10  -2  -3    4.38    1.25
 -10  -2   3    8.39    1.62
 -10  -2   3    3.64    1.80
 -10  -2   3    6.26    1.21
 -10   2   3    3.93    1.00
 -10   2   3    7.62    1.37
  10   2  -3    5.32    1.28
  -9  -2   3    2.65    1.77
  -9  -2   3    4.64    1.13
   9  -2  -3    4.70    1.16
  -9   2   3    7.09    1.26
  -9   2   3    3.54    1.22
   9   2  -3    4.30    1.16
   9   2  -3    3.96    0.83
  -8  -2   3   30.44    1.96
  -8  -2   3   25.71    2.43
   8  -2  -3   28.38    1.94
  -8  -2   3   29.32    1.69
   8   2  -3   27.76    1.56
   8   2  -3   28.95    1.71
  -8   2   3   25.97    1.97
  -8   2   3   29.25    1.80
  -7  -2   3   72.95    3.76
  -7  -2   3   75.14    2.91
   7  -2  -3   81.53    3.07
  -7  -2   3   83.68    3.38
  -7   2   3   75.93    3.15
  -7   2   3   81.50    2.83
  -7   2   3   77.43    3.00
   7   2  -3   78.60    3.07
   7   2  -3   82.32    2.81
  -6  -2   3   65.99    2.50
   6  -2  -3   60.07    2.42
   6  -2  -3   67.04    2.46
  -6  -2   3   66.64    3.05
   6   2  -3   65.02    2.49
  -6   2   3   68.56    2.50
   6   2  -3   69.78    2.41
  -6   2   3   66.40    2.53
  -6   2   3   56.75    2.69
   6   2  -3   67.39    2.51
  -5  -2   3   22.19    1.91
   5  -2  -3   19.39    1.30
  -5  -2   3   21.53    1.26
   5  -2  -3   20.06    1.43
   5   2  -3   18.87    1.38
  -5   2   3   20.36    1.41
   5   2  -3   20.64    1.43
   5   2  -3   19.23    1.22
  -5   2   3   20.48    1.49
  -4  -2   3  198.86    5.85
  -4  -2   3  198.74    6.29
   4  -2  -3  200.72    5.77
   4  -2  -3  195.40    5.75
  -4   2   3  200.25    5.81
  -4   2   3  194.31    5.75
   4   2  -3  200.48    5.84
   4   2  -3  199.16    5.73
   4   2  -3  197.55    5.83
  -3  -2   3  589.63   15.90
   3  -2  -3  591.58   15.88
  -3  -2   3  584.91   15.91
   3  -2  -3  584.35   15.88
   3   2  -3  575.52   15.83
   3   2  -3  588.59   15.90
   3   2  -3  587.51   15.91
  -3   2   3  581.46   15.87
   2  -2  -3   68.58    2.28
   2  -2  -3   71.24    2.40
  -2  -2   3   71.09    2.28
   2  -2  -3   68.62    2.27
  -2  -2   3   69.84    2.34
   2   2  -3   69.72    2.28
  -2   2   3   73.35    2.39
   2   2  -3   69.92    2.33
   2   2  -3   69.38    2.39
  -2   2   3   70.17    2.34
   1  -2  -3    0.09    0.46
  -1  -2   3   -0.15    0.39
  -1  -2   3   -0.08    0.61
   1  -2  -3   -0.17    0.39
   1  -2  -3    0.08    0.33
   1  -2  -3   -0.65    0.43
  -1   2   3   -0.02    0.44
   1   2  -3    0.28    0.42
   1   2  -3   -0.02    0.50
   1   2  -3   -0.61    0.49
  -1   2   3   -0.21    0.47
   0  -2  -3   58.65    2.02
   0  -2  -3   58.12    1.85
   0  -2   3   58.90    2.01
   0  -2   3   57.87    1.82
   0  -2  -3   59.37    1.93
   0  -2  -3   57.54    2.03
   0   2   3   57.42    1.94
   0   2  -3   59.19    1.97
   0   2  -3   60.51    1.86
   0   2  -3   58.65    1.97
  -1  -2  -3  469.43   13.25
  -1  -2  -3  521.49   12.87
  -1  -2  -3  472.70   13.21
  -1  -2  -3  525.28   12.95
  -1  -2  -3  474.90   13.02
  -1   2  -3  476.96   13.03
  -1   2  -3  462.97   12.88
   1   2   3  480.33   13.02
  -1   2  -3  466.79   13.13
  -2  -2  -3  231.25    6.44
  -2  -2  -3  233.15    6.80
  -2  -2  -3  228.82    6.68
   2  -2   3  236.87    6.23
  -2  -2  -3  229.11    6.43
   2  -2   3  234.37    6.41
   2   2   3  231.23    6.44
  -2   2  -3  231.06    6.57
  -2   2  -3  236.13    6.42
  -2   2  -3  231.78    6.44
   2   2   3  244.56    6.58
  -3  -2  -3  152.67    4.86
   3  -2   3  153.31    4.30
  -3  -2  -3  158.04    4.37
  -3  -2  -3  151.07    4.62
  -3  -2  -3  153.79    4.34
  -3   2  -3  151.53    4.52
  -3   2  -3  147.44    4.31
  -3   2  -3  149.32    4.42
  -3   2  -3  158.11    4.33
   3   2   3  151.64    4.32
  -3   2  -3  151.88    4.30
   3   2   3  155.44    4.34
   4  -2   3   64.08    2.06
  -4  -2  -3   65.84    2.77
   4  -2   3   66.37    2.07
  -4  -2  -3   65.51    2.48
  -4  -2  -3   67.00    2.10
  -4  -2  -3   65.09    2.10
   4   2   3   64.14    2.08
  -4   2  -3   68.52    2.09
  -4   2  -3   64.56    2.15
  -4   2  -3   64.04    2.24
  -4   2  -3   65.38    2.31
  -4   2  -3   68.02    2.09
   4   2   3   67.78    2.11
   5  -2   3   89.33    2.87
  -5  -2  -3   94.74    3.52
  -5  -2  -3   94.93    2.95
  -5  -2  -3   92.77    3.29
  -5   2  -3   92.68    2.99
  -5   2  -3   96.14    2.88
   5   2   3   99.11    2.95
  -5   2  -3   95.27    3.15
  -6  -2  -3   50.97    1.90
  -6  -2  -3   47.50    2.24
  -6  -2  -3   50.33    2.49
   6  -2   3   54.70    1.87
  -6   2  -3   55.69    2.16
  -6   2  -3   52.08    1.86
  -6   2  -3   49.59    2.01
   6   2   3   54.15    1.91
  -7  -2  -3  114.08    4.38
   7  -2   3  107.82    3.40
  -7  -2  -3  108.17    3.46
  -7  -2  -3  110.88    3.80
  -7   2  -3  106.95    3.44
  -7   2  -3  108.53    3.78
   7   2   3  110.11    3.47
  -7   2  -3  102.00    3.56
  -8  -2  -3    2.71    0.86
   8  -2   3    2.34    0.76
  -8  -2  -3    2.94    0.66
  -8  -2  -3    2.90    1.02
   8   2   3    1.38    0.61
  -9  -2  -3    4.83    1.57
   9  -2   3    3.03    0.79
  -9  -2  -3    3.81    0.78
   9   2   3    3.71    0.80
  10  -3  -3   45.65    2.74
 -10  -3   3   38.38    3.34
 -10  -3   3   43.48    2.69
 -10  -3   3   44.22    2.60
 -10   3   3   43.08    2.43
  10   3  -3   45.10    2.71
  -9  -3   3  123.33    4.85
  -9  -3   3  116.17    5.15
  -9  -3   3  118.77    4.41
   9  -3  -3  116.61    4.37
  -9   3   3  119.03    4.47
   9   3  -3  115.02    4.41
  -8  -3   3   27.43    1.95
   8  -3  -3   23.55    1.94
  -8  -3   3   25.96    2.03
  -8  -3   3   24.92    2.46
  -8   3   3   24.21    2.02
   8   3  -3   24.78    1.96
   8   3  -3   26.08    1.51
   7  -3  -3   10.26    1.04
  -6  -3   3  158.37    5.08
   6  -3  -3  157.37    4.88
  -6  -3   3  157.94    5.21
  -6  -3   3  158.94    5.50
   6  -3  -3  155.63    5.01
  -6   3   3  143.81    4.86
   6   3  -3  155.33    5.06
   6   3  -3  162.99    4.82
   6   3  -3  153.26    4.94
  -6   3   3  163.72    4.92
  -6   3   3  161.62    5.02
  -5  -3   3  107.11    4.09
  -5  -3   3  105.85    3.83
   5  -3  -3  113.47    3.75
   5  -3  -3  106.18    3.60
  -5  -3   3  104.40    3.63
  -5   3   3  112.05    3.65
   5   3  -3  108.53    3.53
   5   3  -3  109.57    3.75
   5   3  -3  113.80    3.72
  -5   3   3  114.42    3.80
  -5   3   3  111.78    3.57
  -4  -3   3   81.95    3.09
  -4  -3   3   83.22    3.45
   4  -3  -3   76.64    2.68
  -4  -3   3   79.09    2.87
   4  -3  -3   75.04    2.85
   4   3  -3   76.78    2.75
   4   3  -3   78.53    2.88
  -4   3   3   79.07    2.87
  -4   3   3   75.72    2.83
   4   3  -3   83.99    2.75
  -3  -3   3   50.56    1.94
  -3  -3   3   48.87    2.23
   3  -3  -3   49.51    2.01
   3  -3  -3   48.18    2.05
  -3  -3   3   52.39    2.58
   3  -3  -3   50.65    2.00
   3   3  -3   50.61    2.05
  -3   3   3   50.80    1.94
   3   3  -3   51.40    2.09
   3   3  -3   47.89    1.96
  -3   3   3   48.40    1.94
   2  -3  -3  122.39    3.78
  -2  -3   3  120.01    3.92
   2  -3  -3  123.55    3.83
  -2  -3   3  121.06    3.80
   2  -3  -3  129.17    3.85
  -2   3   3  125.88    3.86
   2   3  -3  118.87    3.81
   2   3  -3  122.39    3.76
   2   3  -3  120.05    3.79
  -2   3   3  127.98    3.81
  -1  -3   3   24.58    1.17
   1  -3  -3   26.69    1.27
  -1  -3   3   30.00    1.43
   1  -3  -3   29.51    1.47
   1  -3  -3   28.82    1.27
   1  -3  -3   27.46    1.39
  -1   3   3   27.25    1.28
   1   3  -3   30.72    1.45
  -1   3   3   28.55    1.25
   1   3  -3   27.88    1.31
   1   3  -3   26.57    1.44
   0  -3  -3  416.19   11.61
   0  -3  -3  429.39   11.70
   0  -3  -3  409.75   11.52
   0  -3  -3  429.57   11.50
   0  -3   3  436.54   11.49
   0  -3   3  424.00   11.47
   0   3   3  421.11   11.53
   0   3  -3  413.12   11.55
   0   3  -3  408.99   11.58
   0   3   3  408.08   11.49
   0   3  -3  427.86   11.48
  -1  -3  -3    8.89    0.94
   1  -3   3    5.83    0.50
   1  -3   3    6.70    0.56
  -1  -3  -3    5.71    0.70
  -1  -3  -3    7.04    0.62
  -1  -3  -3    9.79    0.79
  -1   3  -3    7.08    0.70
   1   3   3    7.05    0.71
  -1   3  -3    6.91    0.56
  -1   3  -3    6.73    0.73
  -2  -3  -3  106.78    2.99
   2  -3   3  111.60    3.13
  -2  -3  -3  113.41    3.42
  -2  -3  -3  107.61    3.25
  -2  -3  -3  111.12    3.75
  -2  -3  -3  113.98    3.72
  -2   3  -3  113.94    3.44
   2   3   3  113.47    3.38
  -2   3  -3  106.36    3.49
  -3  -3  -3   56.59    2.41
  -3  -3  -3   56.81    2.04
  -3  -3  -3   53.45    2.35
  -3   3  -3   60.26    2.18
   3   3   3   61.01    2.08
  -3   3  -3   54.79    2.04
  -4  -3  -3  157.14    5.24
  -4  -3  -3  160.90    4.76
   4  -3   3  163.01    4.74
  -4  -3  -3  165.99    5.16
  -4   3  -3  161.55    4.89
   4   3   3  159.91    4.75
  -4   3  -3  157.44    4.70
  -4   3  -3  157.97    4.74
  -5  -3  -3    6.97    1.28
  -5  -3  -3    5.23    0.69
   5  -3   3    3.61    0.67
  -5   3  -3    4.26    0.69
   5   3   3    5.03    0.70
  -5   3  -3    5.01    0.71
  -6  -3  -3    1.28    0.59
  -6  -3  -3    2.59    1.24
  -6  -3  -3    2.11    0.92
   6  -3   3    1.18    0.62
  -6   3  -3    1.48    0.63
  -6   3  -3    1.98    0.61
   6   3   3    1.70    0.75
  -7  -3  -3   57.09    2.31
  -7  -3  -3   60.44    2.97
  -7  -3  -3   59.60    2.75
   7  -3   3   59.20    2.30
  -7   3  -3   57.74    2.27
  -7   3  -3   60.06    2.30
   7   3   3   57.83    2.34
  -8  -3  -3   57.81    2.39
   8  -3   3   60.43    2.52
  -8  -3  -3   56.39    2.79
  -8  -3  -3   54.42    3.30
  -8   3  -3   56.70    2.34
   8   3   3   57.21    2.41
  -9  -4   3    0.63    1.25
  -9  -4   3    0.49    1.07
   9  -4  -3    0.68    1.13
  -9  -4   3   -0.72    0.95
   9   4  -3    0.20    1.11
  -9   4   3   -1.62    1.04
  -8  -4   3    8.81    1.37
  -8  -4   3    9.79    2.01
  -8  -4   3    8.17    1.15
   8  -4  -3    9.38    1.41
  -8   4   3    9.21    1.36
   8   4  -3    8.21    0.97
   8   4  -3    9.40    1.20
  -7  -4   3  156.12    5.45
  -7  -4   3  151.02    5.24
   7  -4  -3  156.70    5.23
  -7  -4   3  153.52    5.87
   7   4  -3  159.99    4.88
   7   4  -3  153.06    5.14
  -7   4   3  154.60    5.25
   6  -4  -3   84.26    3.22
  -6  -4   3   82.82    3.16
   6  -4  -3   87.92    3.32
  -6  -4   3   86.23    3.65
  -6  -4   3   83.77    3.61
   6   4  -3   81.97    2.97
   6   4  -3   82.25    3.29
  -6   4   3   81.53    3.16
  -6   4   3   84.24    3.11
   6   4  -3   77.31    3.01
  -6   4   3   81.74    3.27
   5  -4  -3   25.37    1.60
  -5  -4   3   28.76    1.61
   5  -4  -3   25.38    1.61
  -5  -4   3   25.65    2.44
  -5  -4   3   29.00    1.83
  -5   4   3   24.21    1.72
   5   4  -3   25.77    1.38
   5   4  -3   25.55    1.77
  -5   4   3   27.62    1.88
   5   4  -3   22.39    1.53
  -4  -4   3    8.09    1.05
   4  -4  -3    9.93    1.06
  -4  -4   3    8.98    1.11
  -4  -4   3    9.21    1.23
   4  -4  -3    9.36    1.14
   4   4  -3    7.46    1.05
   4   4  -3    9.51    0.98
   4   4  -3    8.01    0.96
  -4   4   3    8.40    0.94
  -4   4   3    8.26    1.07
  -3  -4   3  151.23    4.67
  -3  -4   3  151.27    4.99
  -3  -4   3  141.58    4.70
   3  -4  -3  148.20    4.62
   3  -4  -3  144.25    4.55
   3  -4  -3  146.04    4.59
   3   4  -3  143.58    4.61
   3   4  -3  144.79    4.51
   3   4  -3  141.54    4.56
  -3   4   3  149.05    4.70
  -3   4   3  148.56    4.65
   2  -4  -3   51.49    2.11
   2  -4  -3   53.33    2.13
   2  -4  -3   56.46    2.14
  -2  -4   3   53.11    2.20
  -2  -4   3   57.45    2.54
  -2  -4   3   54.10    2.19
   2   4  -3   52.01    2.08
   2   4  -3   48.96    2.19
   2   4  -3   56.24    2.19
  -2   4   3   53.89    2.28
  -2   4   3   58.04    2.28
  -1  -4   3    3.64    0.70
  -1  -4   3    3.32    0.82
   1  -4  -3    2.94    0.67
   1  -4  -3    3.02    0.49
  -1  -4   3    3.14    0.67
   1  -4  -3    2.76    0.78
   1  -4  -3    3.08    0.61
  -1   4   3    2.29    0.77
   1   4  -3    2.83    0.64
  -1   4   3    2.50    0.76
   1   4  -3    4.00    0.73
   1   4  -3    2.92    0.66
   0  -4  -3    1.33    0.63
   0  -4  -3    0.99    0.68
   0  -4   3    1.35    0.67
   0  -4  -3    1.18    0.59
   0  -4  -3    0.59    0.49
   0  -4   3    2.38    0.65
   0  -4   3    1.74    0.59
   0   4   3    1.47    0.71
   0   4  -3    1.08    0.57
   0   4  -3    2.86    0.63
   0   4   3    3.09    0.70
   0   4  -3    1.23    0.75
  -1  -4  -3   30.50    1.64
  -1  -4  -3   32.49    1.64
   1  -4   3   39.80    1.53
  -1  -4  -3   37.99    1.63
  -1  -4  -3   38.28    1.95
   1  -4   3   31.87    1.43
   1   4   3   38.55    1.61
  -1   4  -3   38.08    1.87
  -1   4  -3   29.74    1.57
  -1   4  -3   38.20    1.52
   1   4   3   31.38    1.68
  -2  -4  -3   34.61    1.66
   2  -4   3   34.71    1.27
  -2  -4  -3   34.14    1.49
   2  -4   3   32.15    1.35
   2  -4   3   33.42    1.76
  -2  -4  -3   32.71    1.93
  -2  -4  -3   31.22    1.94
  -2   4  -3   32.39    1.71
  -2   4  -3   36.17    1.88
   2   4   3   32.31    1.45
  -2   4  -3   32.20    1.36
   2   4   3   34.68    1.70
  -3  -4  -3    0.21    0.91
   3  -4   3    0.66    0.77
  -3  -4  -3   -0.21    0.61
  -3  -4  -3    0.20    0.67
   3  -4   3    0.19    0.24
  -3   4  -3   -0.10    0.59
  -3   4  -3    0.82    0.73
   3   4   3   -0.89    0.62
  -4  -4  -3    9.85    1.33
  -4  -4  -3    9.60    1.43
   4  -4   3    9.10    0.88
  -4  -4  -3   10.16    0.96
  -4   4  -3   11.39    1.19
  -4   4  -3   10.16    1.01
   4   4   3   10.00    1.01
  -5  -4  -3   81.61    3.38
  -5  -4  -3   79.05    3.37
  -5  -4  -3   79.61    2.90
   5  -4   3   82.47    2.92
  -5   4  -3   77.44    2.80
  -5   4  -3   79.64    2.91
   5   4   3   82.07    2.93
  -6  -4  -3   20.15    1.79
  -6  -4  -3   22.18    1.45
  -6  -4  -3   19.67    1.84
   6  -4   3   23.06    1.55
  -6   4  -3   22.89    1.49
  -6   4  -3   18.75    1.36
   6   4   3   20.59    1.50
  -7  -4  -3    3.01    0.93
  -7  -4  -3    2.10    0.78
   7  -4   3    3.40    0.88
  -7  -4  -3    2.85    1.36
  -7   4  -3    1.35    0.77
   7   4   3    1.10    0.75
   8  -4   3    2.91    0.93
  -8  -4  -3    1.28    0.82
  -8  -4  -3    3.58    1.27
  -8  -4  -3    2.15    1.16
  -8   4  -3    3.51    0.89
   8   4   3    2.17    0.89
  -9  -5   3    2.91    1.93
  -9  -5   3   -0.62    0.83
  -9  -5   3   -0.74    1.52
   9  -5  -3    1.06    0.93
  -9   5   3    1.95    1.21
   9   5  -3   -0.50    1.19
  -8  -5   3   24.46    2.32
   8  -5  -3   23.39    1.87
  -8  -5   3   24.70    2.18
  -8  -5   3   25.55    2.42
  -8   5   3   26.33    2.25
   8   5  -3   26.47    2.26
   7  -5  -3    0.67    0.83
  -7  -5   3    0.39    1.06
  -7  -5   3    2.10    1.64
  -7  -5   3    1.92    1.07
   7   5  -3    2.34    0.83
   7   5  -3    1.09    1.10
  -7   5   3    2.35    0.87
  -7   5   3    1.25    1.12
  -6  -5   3   12.93    1.90
  -6  -5   3   14.84    1.80
  -6  -5   3   17.21    1.51
   6  -5  -3   17.75    1.62
  -6   5   3   16.32    1.40
  -6   5   3   11.80    1.28
   6   5  -3   18.73    1.55
   6   5  -3   19.19    1.50
  -5  -5   3   52.43    2.62
  -5  -5   3   49.69    3.00
   5  -5  -3   52.98    2.65
   5  -5  -3   54.94    2.43
  -5  -5   3   49.06    2.91
   5   5  -3   54.74    2.37
   5   5  -3   54.84    2.45
  -5   5   3   57.48    2.69
   5   5  -3   55.72    2.63
  -5   5   3   54.27    2.34
   4  -5  -3   18.36    1.30
  -4  -5   3   19.52    1.79
   4  -5  -3   16.80    1.48
  -4  -5   3   21.49    1.89
  -4  -5   3   19.89    1.46
   4  -5  -3   21.66    1.40
   4   5  -3   21.32    1.80
   4   5  -3   18.23    1.51
  -4   5   3   18.97    1.52
  -4   5   3   18.03    1.55
   4   5  -3   21.11    1.58
  -3  -5   3    8.96    1.14
  -3  -5   3    7.05    0.92
  -3  -5   3    9.00    1.35
   3  -5  -3    9.65    1.13
   3  -5  -3    7.82    1.11
   3  -5  -3    6.15    0.93
   3   5  -3    7.95    1.04
  -3   5   3    6.75    1.17
   3   5  -3    7.24    1.04
  -3   5   3    8.17    0.99
   3   5  -3    6.61    1.09
  -2  -5   3    0.80    0.95
   2  -5  -3    0.02    0.81
  -2  -5   3   -0.44    0.74
  -2  -5   3    0.07    0.93
   2  -5  -3    0.56    0.80
   2  -5  -3    0.22    0.66
   2   5  -3   -0.08    0.84
  -2   5   3   -0.03    0.84
   2   5  -3    0.82    0.96
  -2   5   3    0.06    0.87
   2   5  -3   -0.36    0.58
  -1  -5   3   69.79    2.67
  -1  -5   3   70.41    2.64
   1  -5  -3   64.03    2.79
   1  -5  -3   68.82    2.65
   1  -5  -3   68.21    2.47
   1  -5  -3   67.01    2.76
  -1  -5   3   69.29    2.65
  -1   5   3   68.49    2.81
   1   5  -3   70.54    2.73
  -1   5   3   69.89    2.78
   1   5  -3   73.07    2.84
   1   5  -3   68.88    2.71
   0  -5  -3   15.70    1.34
   0  -5  -3   12.83    1.09
   0  -5  -3   19.50    1.55
   0  -5  -3   14.39    1.22
   0  -5   3   21.06    1.41
   0  -5   3   23.68    1.43
   0   5   3   25.55    1.66
   0   5  -3   14.63    1.25
   0   5   3   24.38    1.56
   0   5  -3   24.12    1.70
   1  -5   3   71.08    2.30
   1  -5   3   71.22    2.60
   1  -5   3   75.95    2.94
   1  -5   3   71.32    2.57
  -1  -5  -3   77.11    2.90
  -1  -5  -3   68.23    3.00
  -1  -5  -3   70.79    2.72
  -1  -5  -3   74.86    2.84
  -1   5  -3   69.94    2.78
  -1   5  -3   75.25    2.95
   1   5   3   71.71    2.71
  -1   5  -3   69.57    2.61
   1   5   3   74.38    2.86
  -2  -5  -3   10.48    1.00
   2  -5   3   10.38    1.22
  -2  -5  -3   10.61    1.25
  -2  -5  -3   10.78    1.01
  -2  -5  -3   10.32    1.18
   2  -5   3   11.51    0.90
  -2   5  -3   10.23    1.23
   2   5   3    9.70    1.15
  -2   5  -3    9.26    0.88
  -2   5  -3   12.16    1.31
  -3  -5  -3  104.22    3.58
  -3  -5  -3  103.65    3.89
  -3  -5  -3  105.62    3.86
   3  -5   3  100.64    3.57
  -3   5  -3  105.71    3.71
   3   5   3  105.69    3.59
  -3   5  -3  104.57    3.70
  -4  -5  -3    5.84    0.98
   4  -5   3    6.61    0.91
  -4  -5  -3    5.81    1.08
  -4  -5  -3    7.31    1.38
  -4   5  -3    6.25    0.87
   4   5   3    7.55    1.06
   5  -5   3   34.60    1.85
  -5  -5  -3   37.34    2.31
  -5  -5  -3   36.19    2.51
  -5  -5  -3   38.63    2.01
  -5   5  -3   35.52    2.03
  -5   5  -3   36.55    1.71
   5   5   3   36.00    2.04
  -6  -5  -3   14.49    1.32
  -6  -5  -3   12.02    1.56
   6  -5   3   12.02    1.32
  -6  -5  -3   10.07    1.63
  -6   5  -3   11.71    1.15
  -6   5  -3   13.22    1.33
   6   5   3   14.50    1.35
  -7  -5  -3    2.67    1.04
  -7  -5  -3    3.88    1.26
   7  -5   3    8.06    1.21
  -7  -5  -3    3.68    0.98
  -7   5  -3    5.42    1.10
   7   5   3    2.66    0.98
  -7  -6   3    2.40    1.27
   7  -6  -3    1.74    1.30
  -7  -6   3    2.67    1.23
  -7  -6   3    2.01    1.17
  -7   6   3    1.91    0.97
   7   6  -3    4.43    1.05
  -7   6   3    3.87    1.05
   7   6  -3    1.17    0.87
  -6  -6   3    3.13    1.52
  -6  -6   3    4.66    1.25
   6  -6  -3    4.40    1.34
  -6  -6   3    3.10    0.94
   6   6  -3    4.95    1.02
   6   6  -3    4.67    1.29
  -6   6   3    4.70    1.36
  -5  -6   3   10.18    1.44
  -5  -6   3    9.70    1.19
  -5  -6   3   10.24    1.63
   5  -6  -3   10.31    1.25
  -5  -6   3   10.85    1.70
   5   6  -3    9.78    1.43
  -5   6   3   12.23    1.53
   5   6  -3   11.12    1.28
  -5   6   3   12.46    1.40
   5   6  -3   10.32    1.26
  -4  -6   3   42.21    2.20
   4  -6  -3   54.14    2.71
  -4  -6   3   36.19    2.32
  -4  -6   3   38.19    2.55
   4  -6  -3   40.39    2.11
  -4  -6   3   40.38    2.21
   4  -6  -3   49.17    2.32
  -4   6   3   43.44    2.53
   4   6  -3   56.77    2.68
  -4   6   3   39.81    2.40
  -3  -6   3    8.78    1.27
  -3  -6   3   12.36    1.25
  -3  -6   3   10.58    1.42
  -3  -6   3   10.58    1.51
   3  -6  -3   11.03    1.42
   3  -6  -3    9.61    1.10
   3  -6  -3    9.47    1.11
  -3   6   3   12.02    1.38
   3   6  -3    9.92    1.14
   3   6  -3   11.48    1.47
  -3   6   3   11.59    1.23
   3   6  -3   10.44    1.30
  -2  -6   3   48.43    2.38
   2  -6  -3   51.97    2.53
   2  -6  -3   47.67    2.56
  -2  -6   3   49.20    2.25
   2  -6  -3   47.29    2.44
  -2  -6   3   49.58    2.34
  -2  -6   3   48.90    2.36
   2   6  -3   56.22    2.68
   2   6  -3   49.69    2.29
  -2   6   3   47.45    2.30
  -2   6   3   51.02    2.57
   2   6  -3   51.62    2.50
  -1  -6   3    2.53    0.74
   1  -6  -3    1.43    0.96
   1  -6  -3    1.42    0.62
  -1  -6   3    0.51    0.89
   1  -6  -3    0.80    0.70
   1  -6  -3    1.92    1.00
  -1  -6   3    1.63    0.87
  -1  -6   3    0.05    1.09
   1   6  -3    1.01    1.08
   1   6  -3    1.72    1.01
   1   6  -3    1.12    0.66
  -1   6   3    1.44    0.74
  -1   6   3    1.90    0.96
   0  -6  -3   29.57    2.11
   0  -6   3   35.12    1.88
   0  -6   3   32.65    2.22
   0  -6   3   29.30    1.53
   0  -6  -3   33.86    2.04
   0   6  -3   30.96    2.16
   0   6  -3   35.61    1.93
   0   6   3   33.61    2.01
   0   6  -3   31.80    2.21
   0   6   3   35.59    2.13
  -1  -6  -3   13.61    1.29
  -1  -6  -3   13.52    1.38
   1  -6   3   11.04    1.22
   1  -6   3   13.69    1.17
  -1  -6  -3   16.50    1.65
  -1  -6  -3   12.69    1.28
  -1   6  -3   14.16    1.32
  -1   6  -3   14.53    1.52
  -1   6  -3   10.68    1.13
   1   6   3   16.63    1.49
   2  -6   3   99.73    3.24
  -2  -6  -3   97.52    3.68
  -2  -6  -3   98.00    3.81
   2  -6   3   92.58    3.71
  -2  -6  -3   93.43    3.72
   2   6   3   96.22    3.68
  -2   6  -3   93.12    3.69
  -2   6  -3   96.42    3.79
  -3  -6  -3   11.75    1.42
   3  -6   3   11.92    1.42
  -3  -6  -3   10.62    1.48
  -3  -6  -3   11.75    1.18
  -3   6  -3   13.21    1.45
   3   6   3   10.43    1.14
  -3   6  -3   13.66    1.55
  -4  -6  -3    7.58    1.55
  -4  -6  -3    6.20    1.15
   4  -6   3    5.69    1.21
  -4  -6  -3    9.52    1.52
   4   6   3    6.79    1.20
  -4   6  -3    7.20    1.28
  -5  -6  -3   -0.29    0.87
  -5  -6  -3   -0.25    0.89
  -5  -6  -3   -0.72    0.62
   5  -6   3    0.35    1.08
   5   6   3   -0.49    0.66
  -5   6  -3    0.71    1.02
  -6  -6  -3   44.12    3.04
  -6  -6  -3   41.85    2.72
   6  -6   3   46.40    2.59
  -6  -6  -3   39.90    2.40
   6   6   3   38.15    2.48
  -6   6  -3   42.28    2.46
  -6  -7   3    1.38    0.94
   6  -7  -3    3.17    1.46
  -6  -7   3    1.70    1.59
  -6  -7   3    0.73    1.48
  -6   7   3    0.31    1.04
   6   7  -3    3.09    1.06
   6   7  -3    0.77    1.26
  -5  -7   3   36.16    2.60
  -5  -7   3   38.70    2.94
   5  -7  -3   38.72    2.39
  -5  -7   3   40.27    2.46
  -5  -7   3   45.90    3.24
  -5   7   3   36.83    2.68
   5   7  -3   37.93    2.33
   5   7  -3   36.86    2.33
   4  -7  -3   12.18    1.69
  -4  -7   3   11.30    1.60
  -4  -7   3   11.88    1.61
  -4  -7   3   13.26    1.61
   4  -7  -3   12.86    1.48
  -4  -7   3   11.82    1.51
   4   7  -3   15.36    1.71
  -4   7   3   12.19    1.53
  -4   7   3   13.31    1.67
   4   7  -3   15.10    1.47
   4   7  -3   11.01    1.24
  -3  -7   3   10.12    1.41
   3  -7  -3    9.03    1.18
  -3  -7   3   10.81    1.26
  -3  -7   3   10.18    1.33
   3  -7  -3   10.09    1.23
   3  -7  -3   11.04    1.58
  -3  -7   3   10.47    1.59
  -3   7   3   11.82    1.51
  -3   7   3   10.81    1.53
   3   7  -3   10.73    1.58
   3   7  -3    9.19    1.45
   3   7  -3   11.92    1.26
   2  -7  -3    3.55    0.95
  -2  -7   3    5.32    1.11
  -2  -7   3    3.96    1.00
  -2  -7   3    5.00    1.02
   2  -7  -3    3.74    0.92
   2  -7  -3    3.78    1.00
  -2   7   3    6.38    1.34
   2   7  -3    5.72    1.36
   2   7  -3    3.05    0.93
   2   7  -3    5.25    1.22
   1  -7  -3    7.32    1.36
  -1  -7   3    7.75    1.04
  -1  -7   3    9.55    1.52
   1  -7  -3   10.29    1.44
  -1  -7   3    8.83    1.36
   1  -7  -3    7.67    1.36
   1   7  -3    7.72    1.52
   1   7  -3    8.56    1.42
  -1   7   3    7.75    1.16
   1   7  -3    7.79    1.27
  -1   7   3    6.13    1.05
   0  -7  -3    2.51    1.20
   0  -7   3    1.95    1.25
   0  -7   3    2.35    0.97
   0  -7  -3    5.81    1.24
   0  -7  -3    1.81    1.09
   0  -7  -3    3.24    0.87
   0   7  -3    1.93    0.98
   0   7  -3    0.51    0.91
   0   7  -3    3.15    1.25
   0   7   3    2.44    0.88
   1  -7   3   19.02    1.85
   1  -7   3   17.48    1.52
  -1  -7  -3   18.44    1.59
  -1  -7  -3   20.97    1.95
  -1  -7  -3   17.77    1.66
  -1   7  -3   21.08    1.90
  -1   7  -3   19.23    1.81
   1   7   3   17.90    1.70
   2  -7   3    4.13    1.02
  -2  -7  -3    3.73    1.11
  -2  -7  -3    3.74    1.19
  -2  -7  -3    4.28    1.12
   2   7   3    4.05    1.25
  -2   7  -3    2.89    0.98
  -2   7  -3    4.01    1.30
  -3  -7  -3   40.03    2.43
  -3  -7  -3   30.41    2.09
  -3  -7  -3   32.76    2.37
   3  -7   3   29.91    2.40
   3   7   3   47.22    2.60
  -3   7  -3   33.41    2.46
  -4  -7  -3    5.88    1.74
  -4  -7  -3    7.29    1.36
   4  -7   3    6.07    1.44
  -4  -7  -3    7.82    1.30
   4   7   3    5.09    1.33
  -4   7  -3    5.20    1.38
   3  -8  -3   21.46    2.12
   3  -8  -3   23.15    2.05
  -3  -8   3   19.41    1.81
  -3  -8   3   21.78    1.86
  -3  -8   3   23.24    2.23
   3   8  -3   23.31    2.08
  -3   8   3   21.71    1.93
  -3   8   3   21.36    1.99
   3   8  -3   19.34    1.73
   3   8  -3   23.94    2.19
   2  -8  -3   19.90    1.96
   2  -8  -3   16.66    1.84
  -2  -8   3   17.87    1.71
   2  -8  -3   18.69    1.96
  -2  -8   3   19.70    1.78
  -2   8   3   18.28    1.93
   2   8  -3   19.51    1.89
   2   8  -3   17.15    1.61
   2   8  -3   20.49    2.06
  -2   8   3   17.90    1.91
   1  -8  -3   -1.31    1.16
   1  -8  -3   -0.88    1.18
   1  -8  -3   -0.67    0.81
  -1  -8   3   -1.22    1.03
  -1  -8   3    0.43    1.36
   1   8  -3   -0.33    0.94
   1   8  -3   -0.71    1.23
  -1   8   3   -0.03    1.26
   1   8  -3    0.49    0.79
   0  -8  -3   -1.25    1.15
   0  -8   3    0.40    0.71
   0  -8   3    0.26    0.98
   0  -8  -3    1.29    1.31
   0   8   3    2.26    1.27
   0   8  -3   -0.37    0.87
   0   8  -3   -2.00    1.31
   1  -8   3   19.64    1.50
  -1  -8  -3   23.08    1.88
   1  -8   3   22.91    2.04
  -1  -8  -3   20.48    1.95
  -1   8  -3   24.28    2.15
   1   8   3   22.61    2.00
  -1   8  -3   20.36    2.10
 -11   0   4   -1.90    1.17
 -11   0   4    0.98    1.56
  11   0  -4   -0.67    0.76
 -11   0   4   -0.16    1.25
  11   0  -4    0.29    0.91
  11   0  -4   -0.78    1.08
 -11   0   4   -0.45    1.08
  10   0  -4   62.89    2.98
 -10   0   4   59.96    2.90
 -10   0   4   60.10    3.15
  10   0  -4   59.59    2.71
  10   0  -4   60.45    2.79
 -10   0   4   51.71    3.07
   9   0  -4   -0.88    0.66
   9   0  -4    0.29    0.84
  -9   0   4    0.76    0.70
  -9   0   4   -1.58    1.44
   9   0  -4   -0.82    0.66
  -9   0   4    1.98    0.86
  -8   0   4   94.87    4.39
   8   0  -4  110.09    4.00
   8   0  -4  108.30    3.76
  -8   0   4  108.36    3.75
  -8   0   4  108.52    4.01
  -7   0   4   -0.14    0.56
   7   0  -4    1.08    0.83
  -7   0   4    0.94    0.68
   7   0  -4    0.43    0.65
  -7   0   4    0.13    0.79
  -7   0   4   -0.38    1.04
   7   0  -4    0.03    0.51
  -6   0   4  211.03    6.32
   6   0  -4  206.79    6.21
  -6   0   4  213.39    6.23
   6   0  -4  208.64    6.27
  -6   0   4  208.72    6.21
   6   0  -4  201.22    6.19
   5   0  -4    0.08    0.67
   5   0  -4    0.26    0.72
  -5   0   4    0.16    0.47
  -5   0   4   -0.86    0.49
   5   0  -4   -0.34    0.63
  -5   0   4   -0.45    0.67
  -4   0   4  103.96    3.39
  -4   0   4  109.57    3.43
   4   0  -4  105.39    3.42
   4   0  -4  108.89    3.37
  -4   0   4  101.56    3.42
   4   0  -4  109.18    3.38
  -3   0   4    0.18    0.51
   3   0  -4    0.32    0.60
  -3   0   4   -0.83    0.49
   3   0  -4    0.00    0.38
  -3   0   4    0.11    0.62
   3   0  -4    0.12    0.56
   3   0  -4    0.05    0.58
   2   0  -4  248.53    7.16
  -2   0   4  253.48    7.06
   2   0  -4  254.37    7.20
  -2   0   4  263.86    7.13
   2   0  -4  259.07    7.14
   2   0  -4  257.30    7.11
  -2   0   4  254.68    7.15
   1   0  -4   -0.33    0.31
  -1   0   4    0.09    0.29
  -1   0   4    0.16    0.24
   1   0  -4   -0.14    0.28
  -1   0   4   -0.13    0.44
   1   0  -4   -0.07    0.47
   0   0   4   57.59    1.77
   0   0  -4   58.39    1.79
   0   0   4   57.14    1.81
   0   0   4   65.65    1.71
   0   0  -4   57.28    1.79
  -1   0  -4   -0.17    0.14
  -1   0  -4   -0.20    0.13
   1   0   4   -0.24    0.13
   1   0   4    0.03    0.13
  -1   0  -4    0.26    0.57
  -1   0  -4   -0.20    0.20
  -2   0  -4  132.71    3.89
  -2   0  -4  136.74    3.78
  -2   0  -4  135.34    4.17
  -3   0  -4    0.09    0.22
  -3   0  -4   -0.37    0.63
  -3   0  -4    0.32    0.39
  -4   0  -4  146.38    4.65
  -4   0  -4  142.84    4.17
  -5   0  -4    0.03    0.35
  -5   0  -4   -0.03    0.78
  -5   0  -4   -0.12    0.15
   5   0   4   -0.17    0.12
  -5   0  -4    0.00    0.16
   6   0   4   86.43    2.52
  -6   0  -4   87.57    3.42
  -7   0  -4   -1.52    0.87
   7   0   4    0.31    0.43
  -8   0  -4   25.90    1.26
  -8   0  -4   25.35    1.82
   8   0   4   24.46    1.26
   9   0   4    0.01    0.61
  -9   0  -4    0.01    0.61
  -9   0  -4    1.31    1.17
 -11  -1   4   15.19    1.54
 -11  -1   4   14.86    2.32
 -11  -1   4   20.73    1.90
  11  -1  -4   15.36    1.92
  11  -1  -4   20.76    1.90
 -11   1   4   20.77    1.89
 -11   1   4   17.50    1.70
  11   1  -4   17.35    1.66
 -11   1   4   19.95    2.12
  11   1  -4   15.80    1.58
 -10  -1   4    0.83    0.73
 -10  -1   4   -0.29    1.56
  10  -1  -4    1.57    0.94
 -10  -1   4    0.74    1.25
 -10  -1   4    0.26    1.21
  10  -1  -4    1.40    1.08
 -10   1   4    0.66    1.37
  10   1  -4    0.69    0.78
 -10   1   4    0.23    0.81
  10   1  -4    0.59    0.82
  10   1  -4   -0.27    0.93
 -10   1   4   -0.19    1.00
  -9  -1   4   79.09    3.91
  -9  -1   4   91.98    3.74
  -9  -1   4   92.85    3.42
   9  -1  -4   91.36    3.56
   9  -1  -4   91.23    3.60
   9   1  -4   92.99    3.33
   9   1  -4   91.28    3.39
  -9   1   4   85.39    3.48
  -9   1   4   78.59    3.87
   9   1  -4   87.94    3.53
  -8  -1   4   81.52    4.12
  -8  -1   4   92.32    3.39
   8  -1  -4   85.37    3.25
   8  -1  -4   90.62    3.44
  -8  -1   4   84.09    3.35
  -8   1   4   73.75    3.73
   8   1  -4   91.50    3.42
   8   1  -4   91.51    3.44
  -8   1   4   87.41    3.35
   8   1  -4   94.15    3.24
  -7  -1   4   19.08    2.09
   6  -1  -4   44.98    1.98
  -6  -1   4   43.57    2.12
   6  -1  -4   41.77    2.04
   6  -1  -4   42.77    1.91
  -6  -1   4   43.53    2.13
  -6  -1   4   41.25    2.02
  -6  -1   4   46.93    2.98
  -6   1   4   42.03    2.12
   6   1  -4   40.51    1.83
  -6   1   4   39.09    1.98
   6   1  -4   40.51    2.08
   6   1  -4   41.62    1.79
   6   1  -4   41.35    1.88
   5  -1  -4  284.65    8.43
   5  -1  -4  290.07    8.36
  -5  -1   4  299.64    8.41
   5  -1  -4  287.83    8.39
  -5  -1   4  301.32    8.41
  -5  -1   4  295.15    8.41
   5   1  -4  288.60    8.35
  -5   1   4  289.07    8.32
   5   1  -4  289.61    8.41
  -5   1   4  296.74    8.38
   5   1  -4  296.67    8.40
   5   1  -4  296.95    8.34
  -4  -1   4   47.62    1.93
  -4  -1   4   43.46    2.01
   4  -1  -4   47.85    1.82
   4  -1  -4   48.43    2.15
  -4  -1   4   50.04    1.93
   4  -1  -4   46.89    1.84
   4   1  -4   45.10    1.91
  -4   1   4   45.94    1.97
   4   1  -4   46.50    1.89
   4   1  -4   46.61    1.95
  -4   1   4   47.86    1.82
   4   1  -4   47.02    2.01
   3  -1  -4    4.95    0.82
   3  -1  -4    5.84    0.74
   3  -1  -4    4.90    0.73
  -3  -1   4    5.22    0.64
  -3  -1   4    5.67    0.81
  -3  -1   4    4.66    0.56
  -3   1   4    4.81    0.56
   3   1  -4    5.09    0.70
   3   1  -4    5.38    0.73
  -3   1   4    5.59    0.76
   3   1  -4    4.41    0.61
  -2  -1   4  293.06    8.23
   2  -1  -4  294.29    8.19
  -2  -1   4  295.18    8.10
   2  -1  -4  294.98    8.20
   2  -1  -4  289.60    8.28
  -2  -1   4  307.00    8.19
   2   1  -4  298.96    8.25
   2   1  -4  298.88    8.19
  -2   1   4  297.48    8.21
   2   1  -4  294.59    8.24
  -1  -1   4  589.14   14.77
   1  -1  -4  595.38   14.88
  -1  -1   4  578.91   14.93
  -1  -1   4  533.62   14.82
   1  -1  -4  535.54   14.90
   1  -1  -4  527.17   14.87
   1   1  -4  588.72   14.95
   1   1  -4  530.51   14.93
  -1   1   4  524.10   14.87
   1   1  -4  532.67   14.81
   0  -1   4   10.15    0.59
   0  -1   4   10.57    0.74
   0  -1  -4   10.44    0.64
   0  -1  -4   10.35    1.00
   0  -1  -4   10.32    0.53
   0  -1  -4   10.04    0.94
   0   1   4   11.51    0.67
   0   1  -4   11.04    0.70
   0   1  -4   10.77    0.60
   0   1  -4   10.34    0.82
   0   1  -4   11.21    0.47
   1  -1   4    0.05    0.22
   1  -1   4   -0.13    0.27
  -1  -1  -4    0.66    0.25
  -1  -1  -4    0.36    0.25
  -1  -1  -4    0.65    0.61
  -1  -1  -4    0.36    0.48
   1   1   4    0.14    0.22
  -1   1  -4   -0.09    0.28
  -1   1  -4    0.63    0.19
  -1   1  -4    0.28    0.29
   1   1   4    0.39    0.26
   2  -1   4   13.47    0.51
  -2  -1  -4   14.27    0.55
   2  -1   4   13.65    0.48
  -2  -1  -4   14.61    0.84
  -2  -1  -4   14.28    0.54
  -2  -1  -4   13.63    1.01
   2   1   4   14.28    0.55
  -2   1  -4   13.94    0.50
  -2   1  -4   13.63    0.82
  -2   1  -4   13.04    0.53
   2   1   4   14.57    0.54
  -2   1  -4   13.93    1.02
  -3  -1  -4  266.76    7.14
  -3  -1  -4  274.10    7.15
  -3  -1  -4  267.03    7.53
  -3  -1  -4  274.29    7.86
  -3   1  -4  268.29    7.08
  -3   1  -4  261.78    7.39
   3   1   4  269.57    7.12
   3   1   4  256.83    7.12
  -3   1  -4  265.33    7.08
  -3   1  -4  268.29    7.64
  -4  -1  -4   10.36    1.05
   4  -1   4    8.81    0.35
  -4  -1  -4    9.44    0.47
  -4  -1  -4   10.07    0.93
  -4  -1  -4    9.18    0.47
   4   1   4    9.68    0.46
  -4   1  -4    9.54    0.39
  -4   1  -4   10.14    0.98
  -4   1  -4    9.17    0.39
   4   1   4   10.11    0.46
  -4   1  -4    9.30    0.73
  -5  -1  -4   19.02    0.78
   5  -1   4   19.29    0.74
  -5  -1  -4   19.43    1.19
  -5  -1  -4   18.65    1.71
   5  -1   4   17.99    0.76
  -5  -1  -4   19.37    0.81
  -5   1  -4   20.53    1.46
  -5   1  -4   19.38    0.75
  -5   1  -4   18.71    0.75
   5   1   4   18.49    0.79
   6  -1   4    1.04    0.33
  -6   1  -4    1.37    0.34
  -7  -1  -4  120.88    4.53
   7  -1   4  121.43    3.68
  -7  -1  -4  124.23    3.72
   7   1   4  125.08    3.73
  -7   1  -4  133.60    4.44
   8  -1   4   11.77    1.05
  -8  -1  -4   10.63    1.62
  -8  -1  -4   12.26    0.94
   8   1   4   11.85    0.91
  -8   1  -4   14.84    1.52
 -10  -2   4   14.68    1.66
  10  -2  -4   15.43    1.48
 -10  -2   4   15.37    2.04
 -10  -2   4   18.34    2.07
  10  -2  -4   15.09    1.66
 -10   2   4   14.66    1.54
  10   2  -4   17.07    1.38
 -10   2   4   17.63    1.85
  10   2  -4   15.20    1.68
  -9  -2   4   40.00    2.70
   9  -2  -4   33.53    2.74
  -9  -2   4   36.23    2.27
   9  -2  -4   36.20    2.36
  -9  -2   4   33.05    2.61
   9   2  -4   34.90    1.91
  -9   2   4   38.98    2.48
   9   2  -4   36.02    2.31
  -9   2   4   34.87    2.46
  -8  -2   4  119.25    5.11
   8  -2  -4  123.78    4.33
  -8  -2   4  123.21    4.33
  -8   2   4  108.90    4.40
   8   2  -4  125.94    4.35
  -8   2   4  125.41    4.29
   8   2  -4  121.88    3.97
  -7  -2   4    4.44    1.34
   7  -2  -4    2.46    0.75
   7  -2  -4    1.95    0.61
  -7  -2   4    3.33    0.95
  -7   2   4    1.78    1.25
   7   2  -4    2.79    0.62
  -7   2   4    3.23    0.71
   7   2  -4    2.93    0.69
   7   2  -4    3.76    0.99
  -7   2   4    2.95    1.04
  -6  -2   4   20.66    2.16
  -6  -2   4   23.41    1.65
   6  -2  -4   22.04    1.49
   6  -2  -4   18.77    1.63
   6   2  -4   21.74    1.43
  -6   2   4   20.25    1.59
   6   2  -4   18.64    1.62
   6   2  -4   18.08    1.31
  -6   2   4   20.57    1.50
  -5  -2   4  106.97    3.54
  -5  -2   4  110.61    3.67
   5  -2  -4  109.59    3.56
   5  -2  -4  106.16    3.59
  -5  -2   4  103.91    4.33
  -5   2   4  103.89    3.61
   5   2  -4  106.14    3.52
  -5   2   4  108.44    3.49
   5   2  -4  102.87    3.50
   5   2  -4  104.21    3.48
   4  -2  -4  449.12   12.28
   4  -2  -4  443.04   12.27
  -4  -2   4  445.68   12.28
  -4  -2   4  437.17   12.27
  -4   2   4  437.81   12.26
  -4   2   4  433.92   12.23
   4   2  -4  454.21   12.25
   4   2  -4  433.27   12.30
   4   2  -4  448.86   12.30
  -3  -2   4    0.26    0.54
   3  -2  -4    0.80    0.63
  -3  -2   4   -0.20    0.54
   3  -2  -4    0.42    0.59
  -3   2   4    0.65    0.46
   3   2  -4    0.42    0.43
   3   2  -4    0.77    0.68
   3   2  -4    1.03    0.45
   2  -2  -4  102.84    3.32
   2  -2  -4  101.03    3.27
  -2  -2   4  103.32    3.28
  -2  -2   4  107.38    3.25
   2  -2  -4  103.85    3.24
   2   2  -4  103.23    3.28
   2   2  -4  103.27    3.25
  -2   2   4  107.03    3.25
   2   2  -4  105.70    3.24
   1  -2  -4  116.26    3.77
  -1  -2   4  119.58    3.51
   1  -2  -4  121.99    3.63
   1  -2  -4  117.68    3.59
  -1  -2   4  124.56    3.70
   1  -2  -4  116.88    3.63
   1   2  -4  123.94    3.68
   1   2  -4  118.21    3.64
  -1   2   4  121.19    3.63
   1   2  -4  119.45    3.53
   0  -2   4  393.13   10.92
   0  -2  -4  408.16   11.12
   0  -2  -4  383.23   11.09
   0  -2  -4  409.22   10.86
   0  -2   4  387.33   10.80
   0  -2  -4  419.18   10.86
   0  -2  -4  392.56   10.91
   0   2  -4  416.00   10.96
   0   2  -4  399.62   11.02
   0   2   4  394.73   10.91
   0   2  -4  405.94   10.81
  -1  -2  -4   31.08    1.17
   1  -2   4   31.48    1.30
  -1  -2  -4   29.31    1.39
  -1  -2  -4   29.04    1.09
  -1  -2  -4   32.47    1.64
  -1   2  -4   33.72    1.26
   1   2   4   30.93    1.23
  -1   2  -4   31.87    1.33
  -1   2  -4   34.10    1.19
  -2  -2  -4  191.29    5.18
  -2  -2  -4  190.66    5.77
   2  -2   4  190.13    5.30
  -2  -2  -4  193.12    5.34
  -2  -2  -4  192.28    5.34
  -2  -2  -4  190.50    5.66
   2   2   4  187.45    5.32
   2   2   4  193.10    5.33
  -2   2  -4  187.75    5.19
  -2   2  -4  191.04    5.53
  -2   2  -4  189.22    5.30
  -2   2  -4  192.54    5.33
   3  -2   4   63.01    1.99
  -3  -2  -4   65.61    2.05
  -3  -2  -4   66.33    2.04
  -3  -2  -4   63.11    2.43
  -3  -2  -4   62.35    2.56
  -3   2  -4   64.63    2.22
   3   2   4   66.37    2.04
  -3   2  -4   68.80    2.07
   3   2   4   65.35    2.07
  -3   2  -4   62.60    1.95
  -3   2  -4   64.88    1.99
  -4  -2  -4   50.41    1.67
  -4  -2  -4   47.36    2.42
   4  -2   4   45.29    1.56
  -4  -2  -4   46.33    1.61
  -4  -2  -4   45.49    2.03
   4   2   4   49.36    1.61
  -4   2  -4   48.09    1.91
  -4   2  -4   46.27    1.62
  -4   2  -4   48.29    1.63
  -4   2  -4   48.06    1.56
  -4   2  -4   47.39    1.88
   4   2   4   46.25    1.63
  -5  -2  -4    6.89    1.05
   5  -2   4    6.35    0.55
  -5  -2  -4    6.38    0.93
  -5  -2  -4    6.96    0.62
   5   2   4    7.45    0.64
  -5   2  -4    6.65    0.60
  -5   2  -4    6.74    0.62
  -5   2  -4    6.90    0.85
  -6  -2  -4   51.63    2.20
  -6  -2  -4   50.57    2.48
  -6  -2  -4   47.46    1.73
   6  -2   4   47.24    1.73
  -6   2  -4   46.73    2.08
   6   2   4   47.20    1.72
  -6   2  -4   41.44    1.64
  -7  -2  -4   13.11    1.07
   7  -2   4   14.27    1.11
  -7  -2  -4   13.37    1.28
  -7  -2  -4   14.84    1.74
  -7   2  -4   16.76    1.07
   7   2   4   14.45    1.11
  -7   2  -4   16.03    1.39
  -8  -2  -4    1.53    1.28
  -8  -2  -4   -0.15    0.48
   8  -2   4    0.87    0.67
  -8   2  -4   -0.19    0.55
   8   2   4    0.35    0.63
 -10  -3   4   27.72    2.51
  10  -3  -4   21.94    1.90
 -10  -3   4   23.57    1.99
 -10  -3   4   23.52    2.44
  10   3  -4   26.61    2.30
 -10   3   4   22.77    1.93
   9  -3  -4    3.47    0.93
  -9  -3   4    2.59    1.16
  -9  -3   4    3.48    1.24
  -9  -3   4    3.36    1.40
  -9   3   4    3.11    1.26
   9   3  -4    2.88    1.19
   9   3  -4    4.14    0.88
  -8  -3   4    2.35    1.06
  -8  -3   4    3.72    1.41
   8  -3  -4    2.96    0.81
  -8  -3   4    3.16    1.33
  -8   3   4    2.70    0.88
  -8   3   4    2.98    1.02
   7  -3  -4   82.40    3.21
  -7  -3   4   82.51    3.24
  -7  -3   4   81.76    3.68
  -7  -3   4   80.75    3.58
   7   3  -4   83.32    2.95
  -7   3   4   79.42    3.03
  -7   3   4   70.68    3.09
   7   3  -4   79.64    3.25
  -7   3   4   80.22    3.08
   7   3  -4   67.56    3.06
   6  -3  -4    1.14    0.59
  -6  -3   4    0.93    0.91
  -6  -3   4    1.19    1.65
   6  -3  -4    1.29    0.69
  -6  -3   4   -0.02    1.18
   6   3  -4    1.55    0.70
   6   3  -4   -0.03    0.89
  -6   3   4    2.40    0.67
   6   3  -4    0.83    0.73
  -6   3   4    2.33    1.00
   5  -3  -4   47.94    2.16
   5  -3  -4   48.58    2.28
  -5  -3   4   47.47    2.26
  -5  -3   4   50.59    3.15
  -5   3   4   51.58    2.28
   5   3  -4   50.77    2.13
   5   3  -4   46.89    2.10
  -5   3   4   51.89    2.34
   5   3  -4   44.09    2.24
  -4  -3   4    2.87    0.63
   4  -3  -4    4.11    0.88
   4  -3  -4    3.11    0.63
  -4  -3   4    3.01    1.13
   4   3  -4    4.12    0.63
  -4   3   4    2.53    0.85
   4   3  -4    3.65    0.72
   4   3  -4    4.43    0.84
   3  -3  -4  223.96    6.59
   3  -3  -4  228.65    6.66
  -3  -3   4  228.16    6.60
   3  -3  -4  225.81    6.57
  -3   3   4  226.07    6.62
   3   3  -4  220.02    6.65
   3   3  -4  226.99    6.55
   3   3  -4  221.83    6.54
   2  -3  -4   47.71    1.83
  -2  -3   4   47.01    1.79
   2  -3  -4   47.19    1.85
   2  -3  -4   45.80    1.92
   2   3  -4   46.82    1.98
  -2   3   4   47.88    1.99
   2   3  -4   45.94    1.87
   2   3  -4   48.76    2.05
  -2   3   4   46.07    1.92
   1  -3  -4   71.05    2.53
  -1  -3   4   68.30    2.34
   1  -3  -4   72.56    2.48
   1  -3  -4   73.40    2.52
   1  -3  -4   70.28    2.55
   1   3  -4   70.94    2.57
  -1   3   4   76.45    2.56
  -1   3   4   71.75    2.47
   1   3  -4   72.55    2.49
   1   3  -4   71.17    2.36
   0  -3   4  101.34    3.01
   0  -3  -4   98.23    3.26
   0  -3  -4   97.46    3.36
   0  -3  -4   99.77    3.12
   0   3  -4   99.05    3.22
   0   3  -4   99.63    3.22
   0   3  -4  100.33    3.04
   0   3   4   98.51    3.12
  -1  -3  -4   53.89    2.01
   1  -3   4   56.74    1.85
  -1  -3  -4   54.94    2.31
  -1  -3  -4   55.49    2.19
  -1  -3  -4   54.61    1.78
  -1  -3  -4   53.68    1.86
  -1   3  -4   56.77    1.80
  -1   3  -4   57.12    2.11
   1   3   4   57.60    2.05
  -1   3  -4   56.14    2.07
  -2  -3  -4   49.30    2.14
   2  -3   4   50.43    1.53
  -2  -3  -4   47.10    2.05
  -2  -3  -4   49.41    1.83
   2   3   4   48.63    1.85
  -2   3  -4   48.70    1.94
  -2   3  -4   48.31    1.86
  -3  -3  -4   82.53    3.28
  -3  -3  -4   83.36    2.68
  -3  -3  -4   79.97    3.08
  -3   3  -4   82.57    2.83
  -3   3  -4   84.62    2.70
   3   3   4   82.81    2.69
  -3   3  -4   78.01    2.51
   4  -3   4    1.02    0.57
  -4  -3  -4    1.76    0.89
  -4  -3  -4    0.95    0.50
  -4  -3  -4    2.22    1.03
  -4   3  -4    0.68    0.53
  -4   3  -4    1.11    0.73
  -4   3  -4    2.57    0.47
   4   3   4    1.51    0.53
   5  -3   4    6.04    0.81
  -5  -3  -4    5.49    0.68
  -5  -3  -4    8.85    1.41
  -5  -3  -4    8.07    0.99
  -5   3  -4    6.77    0.67
   5   3   4    6.58    0.73
  -5   3  -4    6.36    0.72
  -6  -3  -4  140.65    4.33
  -6  -3  -4  142.76    4.82
  -6  -3  -4  139.41    5.19
   6  -3   4  139.30    4.33
   6   3   4  141.29    4.38
  -6   3  -4  138.94    4.29
   7  -3   4   24.02    1.58
  -7  -3  -4   25.94    1.42
  -7  -3  -4   25.71    1.70
  -7  -3  -4   29.53    2.14
   7   3   4   26.94    1.49
  -7   3  -4   23.75    1.40
  -8  -3  -4    2.31    0.70
  -8  -3  -4    2.14    1.44
  -8  -3  -4    2.70    1.06
   8  -3   4    3.04    0.76
   8   3   4    1.57    0.82
  -8   3  -4    2.00    0.67
  -9  -4   4    4.18    1.28
  -9  -4   4    4.89    1.96
   9  -4  -4    6.06    1.37
  -9  -4   4    4.89    1.41
  -9   4   4    3.73    1.03
   9   4  -4    4.75    1.34
   9   4  -4    4.27    1.12
   8  -4  -4   24.51    2.11
  -8  -4   4   20.34    2.11
  -8  -4   4   27.00    2.17
  -8  -4   4   18.38    1.75
   8   4  -4   21.94    1.64
   8   4  -4   23.61    1.79
  -8   4   4   20.45    1.74
  -7  -4   4   48.32    2.53
   7  -4  -4   45.72    2.27
  -7  -4   4   46.66    2.62
  -7  -4   4   47.23    2.87
   7   4  -4   42.74    1.98
  -7   4   4   45.63    2.34
  -7   4   4   42.56    2.27
   7   4  -4   44.83    2.29
  -6  -4   4   14.17    1.99
  -6  -4   4   15.32    1.35
   6  -4  -4   16.55    1.37
  -6  -4   4   15.48    1.56
   6  -4  -4   15.93    1.47
  -6   4   4   15.84    1.39
   6   4  -4   14.35    1.25
   6   4  -4   16.36    1.46
  -6   4   4   14.20    1.29
   6   4  -4   13.30    1.41
   5  -4  -4    0.38    0.83
  -5  -4   4    0.80    0.64
  -5  -4   4   -0.40    1.52
  -5  -4   4    0.20    1.17
   5  -4  -4    0.67    0.68
   5   4  -4    1.21    0.94
   5   4  -4    0.19    0.94
  -5   4   4    1.40    0.95
  -5   4   4    1.95    0.68
   5   4  -4    0.15    0.75
  -4  -4   4   -0.05    0.78
  -4  -4   4    1.25    1.42
  -4  -4   4   -0.52    1.08
   4  -4  -4   -0.30    0.86
   4  -4  -4    0.10    0.57
   4   4  -4   -1.13    0.77
  -4   4   4   -0.62    0.81
  -4   4   4   -0.01    0.87
   4   4  -4   -0.12    0.75
   4   4  -4   -0.37    0.63
  -3  -4   4   67.93    3.14
  -3  -4   4   60.10    2.73
   3  -4  -4   61.69    2.53
   3  -4  -4   61.65    2.54
   3  -4  -4   60.05    2.57
  -3  -4   4   60.14    2.49
   3   4  -4   60.44    2.37
  -3   4   4   61.90    2.57
   3   4  -4   62.28    2.50
   3   4  -4   63.09    2.48
  -3   4   4   60.79    2.42
   2  -4  -4   29.13    1.50
   2  -4  -4   29.88    1.52
  -2  -4   4   28.13    1.55
   2  -4  -4   27.72    1.72
  -2  -4   4   29.40    1.61
  -2   4   4   28.92    1.69
   2   4  -4   28.93    1.61
   2   4  -4   25.26    1.69
   2   4  -4   28.40    1.57
  -2   4   4   29.90    1.75
   1  -4  -4   17.46    1.36
   1  -4  -4   16.49    1.45
   1   4  -4   14.85    1.20
  -1   4   4   16.52    1.41
  -1   4   4   17.48    1.33
   0  -4   4   53.66    1.96
   0  -4  -4   55.59    2.15
   0  -4  -4   55.38    2.28
   0  -4  -4   58.57    2.45
   0  -4  -4   52.95    2.10
   0  -4   4   55.24    2.02
   0   4  -4   54.07    2.19
   0   4  -4   53.09    1.96
   0   4   4   56.65    2.16
   0   4  -4   53.47    2.15
   0   4   4   52.35    2.10
  -1  -4  -4   43.37    2.04
  -1  -4  -4   45.75    1.85
  -1  -4  -4   41.86    1.78
  -1  -4  -4   44.54    2.01
   1  -4   4   44.41    1.68
   1  -4   4   46.98    1.72
  -1   4  -4   44.22    1.88
   1   4   4   44.01    1.97
  -1   4  -4   47.52    1.98
  -1   4  -4   45.86    1.69
   1   4   4   45.46    1.80
  -2  -4  -4   61.91    2.29
  -2  -4  -4   65.30    2.79
   2  -4   4   60.91    1.99
  -2  -4  -4   65.56    1.93
  -2  -4  -4   60.56    2.72
   2   4   4   63.11    2.42
  -2   4  -4   60.64    2.44
  -2   4  -4   63.71    2.45
  -3  -4  -4    8.48    0.91
   3  -4   4    8.46    0.98
  -3  -4  -4   10.94    1.37
  -3  -4  -4    9.75    1.09
   3   4   4    7.91    0.91
  -3   4  -4    9.48    0.98
  -3   4  -4    8.14    1.11
   4  -4   4  107.64    3.66
  -4  -4  -4  114.02    3.68
  -4  -4  -4  113.91    4.14
  -4  -4  -4  111.68    4.28
  -4   4  -4  111.69    3.67
  -4   4  -4  111.03    3.49
   4   4   4  110.96    3.61
  -4   4  -4  110.12    3.90
   5  -4   4   76.26    2.83
  -5  -4  -4   78.72    3.18
  -5  -4  -4   76.51    2.83
  -5  -4  -4   78.14    3.35
   5   4   4   75.48    2.84
  -5   4  -4   77.91    2.75
  -5   4  -4   77.33    2.73
  -6  -4  -4    5.06    0.85
  -6  -4  -4    4.17    1.22
   6  -4   4    5.50    1.03
  -6  -4  -4    4.09    1.38
  -6   4  -4    4.58    0.83
   6   4   4    3.11    0.79
   7  -4   4    4.89    0.91
  -7  -4  -4    2.35    0.79
  -7  -4  -4    3.73    1.17
  -7  -4  -4    2.72    0.96
   7   4   4    4.35    0.89
  -7   4  -4    3.17    0.81
  -9  -5   4   -1.01    1.87
  -9  -5   4    0.99    1.26
  -9  -5   4   -0.30    1.58
   9  -5  -4    0.52    1.29
   9   5  -4    0.96    0.95
  -9   5   4    0.92    0.92
  -8  -5   4    3.23    1.82
  -8  -5   4   -0.76    1.10
   8  -5  -4    0.38    0.83
  -8  -5   4    1.73    1.56
   8   5  -4    1.38    1.23
   8   5  -4    0.55    0.82
  -8   5   4    0.44    0.83
  -7  -5   4    3.11    1.70
   7  -5  -4    6.30    1.32
   7   5  -4    2.44    0.90
  -6  -5   4  103.12    4.24
  -6  -5   4  104.52    4.34
  -6  -5   4  100.07    3.95
   6  -5  -4  103.89    3.98
  -6   5   4  100.32    3.64
   6   5  -4   98.04    3.91
   6   5  -4   97.76    3.65
   6   5  -4   98.97    3.79
  -6   5   4  103.64    3.97
   5  -5  -4    0.09    1.02
   5  -5  -4    0.52    0.65
  -5  -5   4    0.52    0.94
  -5  -5   4    0.55    1.38
  -5  -5   4    0.16    1.23
  -5   5   4    1.42    0.97
   5   5  -4   -0.02    0.71
   5   5  -4    0.73    1.02
  -5   5   4    1.06    0.75
   5   5  -4    0.23    0.83
  -4  -5   4   96.70    3.81
  -4  -5   4   98.77    3.90
  -4  -5   4   93.21    3.48
   4  -5  -4   93.78    3.54
   4  -5  -4   94.16    3.44
   4  -5  -4   92.88    3.49
  -4   5   4   97.86    3.64
   4   5  -4   99.22    3.55
   4   5  -4   98.09    3.66
  -4   5   4   95.93    3.68
   4   5  -4   94.24    3.70
   3  -5  -4    6.31    0.92
  -3  -5   4    8.64    0.95
  -3  -5   4    6.19    1.42
  -3  -5   4    8.17    1.11
   3  -5  -4    6.58    0.95
   3  -5  -4    9.81    1.06
   3   5  -4    7.02    0.95
   3   5  -4    6.39    1.09
  -3   5   4    8.54    1.23
  -3   5   4    7.36    1.17
   3   5  -4    7.95    1.29
   2  -5  -4  200.04    6.11
  -2  -5   4  208.92    6.30
   2  -5  -4  197.21    6.24
  -2  -5   4  191.69    6.07
   2  -5  -4  199.62    6.14
  -2  -5   4  196.75    6.14
  -2   5   4  202.07    6.20
   2   5  -4  192.59    6.23
   2   5  -4  202.54    6.19
   2   5  -4  192.74    6.08
  -2   5   4  197.89    6.09
  -1  -5   4    8.29    1.08
  -1  -5   4    6.31    1.10
   1  -5  -4    8.87    1.12
   1  -5  -4   10.44    1.01
  -1  -5   4    5.89    0.75
   1  -5  -4    8.39    1.07
   1  -5  -4    8.49    1.21
   1   5  -4    6.62    1.12
   1   5  -4    7.96    1.00
   1   5  -4    7.68    1.21
  -1   5   4    8.83    1.07
  -1   5   4   10.56    1.23
   0  -5  -4  158.65    5.07
   0  -5   4  159.98    4.89
   0  -5  -4  163.00    4.98
   0  -5   4  155.03    4.93
   0  -5  -4  153.32    5.17
   0  -5   4  152.08    4.84
   0  -5  -4  162.36    5.11
   0   5   4  160.49    5.10
   0   5  -4  158.87    4.86
   0   5  -4  164.67    5.20
   0   5   4  166.18    5.02
   0   5  -4  154.73    5.06
  -1  -5  -4   30.03    1.60
  -1  -5  -4   26.16    1.72
  -1  -5  -4   30.07    1.88
   1  -5   4   28.36    1.49
   1  -5   4   29.56    1.44
  -1  -5  -4   28.69    1.75
  -1   5  -4   26.23    1.86
   1   5   4   27.12    1.79
  -1   5  -4   26.94    1.90
  -1   5  -4   27.99    1.44
  -2  -5  -4   17.20    1.29
   2  -5   4   19.31    1.68
  -2  -5  -4   20.48    1.91
  -2  -5  -4   21.13    1.77
   2  -5   4   18.52    1.11
  -2   5  -4   19.31    1.65
  -2   5  -4   17.36    1.44
   2   5   4   18.26    1.32
  -3  -5  -4    6.11    0.96
   3  -5   4    5.47    1.06
  -3  -5  -4    6.43    1.06
  -3  -5  -4    8.03    1.38
  -3   5  -4    4.93    0.91
   3   5   4    5.62    0.82
  -3   5  -4    5.81    0.87
   4  -5   4  161.62    5.19
  -4  -5  -4  158.20    5.60
  -4  -5  -4  162.69    5.19
  -4  -5  -4  164.62    5.67
  -4   5  -4  158.90    5.10
   4   5   4  157.07    5.17
  -4   5  -4  165.64    5.43
   5  -5   4   23.69    1.74
  -5  -5  -4   19.57    1.58
  -5  -5  -4   24.15    2.11
  -5  -5  -4   24.33    2.22
   5   5   4   24.02    1.75
  -5   5  -4   23.25    1.70
  -6  -5  -4    2.63    1.40
   6  -5   4    0.40    0.93
  -6  -5  -4    2.83    0.90
  -6  -5  -4    2.67    1.28
  -6   5  -4    2.06    0.93
   6   5   4    0.37    0.82
  -7  -6   4   49.35    3.37
  -7  -6   4   49.26    2.86
   7  -6  -4   49.01    2.96
  -7  -6   4   44.88    2.90
  -7   6   4   46.53    2.94
   7   6  -4   43.58    2.84
   7   6  -4   42.59    2.19
  -6  -6   4   -0.52    0.73
  -6  -6   4    0.83    1.13
   6  -6  -4   -0.90    1.16
  -6  -6   4   -0.32    0.97
  -6  -6   4   -1.20    1.46
   6   6  -4   -0.54    0.91
   6   6  -4   -0.84    1.11
  -6   6   4   -1.74    1.11
  -5  -6   4   14.73    1.92
   5  -6  -4   15.92    1.41
   5  -6  -4   14.24    1.67
   5   6  -4   17.94    1.78
   5   6  -4   14.20    1.32
  -5   6   4   18.47    1.66
   5   6  -4   14.78    1.44
  -5   6   4   16.20    1.54
   4  -6  -4   24.89    2.17
  -4  -6   4   21.61    1.86
  -4  -6   4   20.51    1.64
   4  -6  -4   21.68    1.63
   4  -6  -4   23.73    1.86
  -4  -6   4   22.13    1.99
  -4   6   4   21.55    1.80
   4   6  -4   21.28    1.71
   4   6  -4   20.22    1.76
   4   6  -4   23.85    1.94
  -4   6   4   23.16    1.77
  -3  -6   4  234.82    7.37
  -3  -6   4  235.28    7.57
   3  -6  -4  234.49    7.37
  -3  -6   4  237.48    7.39
   3  -6  -4  240.54    7.44
   3  -6  -4  241.83    7.43
  -3   6   4  243.91    7.36
  -3   6   4  240.75    7.39
   3   6  -4  229.89    7.27
   3   6  -4  242.74    7.45
   3   6  -4  237.92    7.32
  -2  -6   4   15.32    1.37
  -2  -6   4   14.46    1.30
   2  -6  -4   15.30    1.37
  -2  -6   4   14.12    1.44
   2  -6  -4   15.72    1.43
   2  -6  -4   12.63    1.25
   2   6  -4   17.07    1.55
  -2   6   4   16.33    1.51
   2   6  -4   18.98    1.71
   2   6  -4   15.08    1.42
  -2   6   4   18.46    1.62
   1  -6  -4   15.76    1.48
   1  -6  -4   11.06    1.11
  -1  -6   4   17.75    1.52
   1  -6  -4   13.96    1.50
   1   6  -4   13.16    1.26
   0  -6  -4    7.65    1.35
   0  -6   4    5.99    1.26
   0  -6  -4    7.86    1.13
   0  -6  -4    6.62    1.03
   0  -6  -4    6.08    1.14
   0  -6   4    5.05    0.96
   0   6  -4    3.82    1.17
   0   6   4    5.81    1.16
   0   6  -4    6.25    1.07
   0   6  -4    4.67    0.93
  -1  -6  -4  173.22    5.62
  -1  -6  -4  172.05    5.88
   1  -6   4  169.46    5.64
   1  -6   4  168.35    5.28
  -1  -6  -4  172.21    5.64
  -1   6  -4  166.91    5.60
   1   6   4  170.69    5.61
  -1   6  -4  177.76    5.71
   2  -6   4   46.33    2.48
  -2  -6  -4   43.84    2.49
  -2  -6  -4   39.16    2.10
  -2  -6  -4   43.15    2.68
   2   6   4   46.76    2.19
  -2   6  -4   40.81    2.24
  -2   6  -4   49.15    2.50
  -3  -6  -4   57.82    3.04
  -3  -6  -4   56.91    2.71
  -3  -6  -4   59.75    3.19
   3  -6   4   61.39    2.84
  -3   6  -4   57.87    2.77
   3   6   4   61.52    2.82
  -3   6  -4   56.96    2.93
   4  -6   4    0.01    0.73
  -4  -6  -4    2.94    1.03
  -4  -6  -4    0.69    1.29
  -4  -6  -4   -1.11    0.87
   4   6   4    0.95    1.00
  -4   6  -4    1.35    0.78
   5  -6   4   62.53    2.99
  -5  -6  -4   64.57    3.23
  -5  -6  -4   64.90    3.54
  -5  -6  -4   65.09    2.78
   5   6   4   65.70    3.00
  -5   6  -4   59.86    2.74
   6  -7  -4   19.06    2.02
  -6  -7   4   17.11    2.28
  -6  -7   4   21.05    2.28
  -6  -7   4   18.26    1.97
  -6   7   4   20.66    1.86
   6   7  -4   19.52    1.79
   6   7  -4   18.30    1.76
  -5  -7   4   10.46    1.69
  -5  -7   4   11.78    1.75
  -5  -7   4    9.25    1.51
   5  -7  -4   10.78    1.68
  -5  -7   4   13.59    1.70
  -5   7   4   10.03    1.32
   5   7  -4   10.88    1.48
  -5   7   4   12.94    1.53
   5   7  -4   12.60    1.68
   4  -7  -4   29.54    2.42
  -4  -7   4   28.77    2.54
  -4  -7   4   26.45    2.05
  -4  -7   4   29.67    2.34
  -4  -7   4   30.89    2.28
   4  -7  -4   27.44    2.14
   4  -7  -4   26.32    1.90
   4   7  -4   27.09    2.22
   4   7  -4   24.98    2.15
  -4   7   4   28.30    2.34
   4   7  -4   28.28    2.02
  -4   7   4   27.62    2.21
  -3  -7   4    1.58    1.03
   3  -7  -4    0.79    0.82
  -3  -7   4    2.63    1.28
  -3  -7   4    3.04    0.89
  -3  -7   4    1.88    1.32
   3  -7  -4    0.99    1.12
   3  -7  -4    4.00    1.28
   3   7  -4    2.48    1.14
  -3   7   4    2.51    0.93
   3   7  -4    2.27    1.14
   3   7  -4    2.01    1.34
  -3   7   4    0.86    0.86
  -2  -7   4   40.90    2.41
  -2  -7   4   39.20    2.49
  -2  -7   4   42.05    2.44
   2  -7  -4   44.27    2.36
   2  -7  -4   46.39    2.63
  -2  -7   4   45.09    2.27
   2  -7  -4   43.65    2.60
   2   7  -4   45.71    2.56
  -2   7   4   45.38    2.59
  -2   7   4   42.70    2.36
   2   7  -4   41.94    2.61
   2   7  -4   45.87    2.79
   1  -7  -4   48.30    2.67
   1  -7  -4   45.87    2.62
  -1  -7   4   44.81    2.48
  -1  -7   4   42.47    2.76
   1  -7  -4   47.19    2.48
   1  -7  -4   49.08    2.29
   1   7  -4   45.05    2.49
   1   7  -4   48.09    2.76
   1   7  -4   49.81    2.84
  -1   7   4   47.24    2.46
   0  -7  -4    1.85    0.87
   0  -7  -4    2.80    0.94
   0  -7   4    2.71    0.97
   0  -7  -4    1.95    0.96
   0  -7   4    1.76    1.26
   0   7   4    0.85    0.82
   0   7  -4    2.08    1.25
   0   7  -4    0.92    1.27
  -1  -7  -4   29.16    2.19
   1  -7   4   28.65    1.74
  -1  -7  -4   26.74    2.28
   1  -7   4   31.53    2.41
  -1  -7  -4   30.64    2.06
  -1   7  -4   27.02    1.97
  -1   7  -4   25.39    2.28
   1   7   4   24.81    2.18
  -2  -7  -4   16.81    1.51
  -2  -7  -4   17.95    1.77
  -2  -7  -4   18.25    1.80
   2  -7   4   19.26    1.80
  -2   7  -4   17.97    1.62
  -2   7  -4   20.50    1.75
   2   7   4   14.27    1.44
  -3  -7  -4    2.74    0.93
   3  -7   4    3.05    1.00
  -3  -7  -4    3.78    1.34
  -3  -7  -4    3.07    1.50
  -3   7  -4    2.39    1.01
   3   7   4    2.33    0.92
  -3   7  -4    3.61    1.00
  -4  -7  -4   19.35    2.09
  -4  -7  -4   16.93    1.57
   4  -7   4   17.08    1.79
  -4  -7  -4   18.30    2.18
   4   7   4   18.89    1.81
  -4   7  -4   19.54    1.86
  -2  -8   4    3.17    1.32
   2  -8  -4    2.40    1.02
  -2  -8   4    1.55    1.08
   2  -8  -4    1.95    1.29
   2  -8  -4    3.40    1.37
   2   8  -4    1.23    1.34
   2   8  -4    1.10    1.93
   2   8  -4   -0.19    1.40
  -2   8   4    2.59    1.39
   1  -8  -4   14.69    1.77
   1  -8  -4   14.53    1.88
  -1  -8   4   14.75    1.68
  -1  -8   4   14.09    1.86
   1   8  -4   15.78    1.91
  -1   8   4   11.42    1.46
   1   8  -4   12.84    1.81
   0  -8   4   10.93    1.41
   0  -8   4    8.36    1.71
   0  -8  -4   10.03    1.48
   0  -8  -4    9.48    1.33
   0   8  -4   10.62    1.70
   0   8   4   11.75    1.71
   0   8  -4   11.28    1.51
 -11   0   5   21.95    2.26
 -11   0   5   18.59    2.08
  11   0  -5   22.61    1.84
 -11   0   5   22.20    1.82
  11   0  -5   23.85    2.03
  11   0  -5   23.85    2.05
 -10   0   5    0.20    0.76
  10   0  -5    2.01    1.15
  10   0  -5   -0.74    0.91
 -10   0   5    0.45    1.64
  10   0  -5    0.56    0.79
 -10   0   5   -0.33    0.84
   9   0  -5   53.64    2.59
  -9   0   5   50.35    2.49
   9   0  -5   53.13    2.53
  -9   0   5   52.10    3.45
   9   0  -5   57.51    2.91
  -9   0   5   60.98    2.98
   8   0  -5   -0.85    0.82
  -8   0   5    1.02    1.13
   8   0  -5   -0.01    0.72
  -8   0   5   -0.35    0.85
  -8   0   5   -0.03    0.72
  -8   0   5    2.15    0.97
   8   0  -5    0.48    0.95
  -7   0   5   52.62    2.46
   7   0  -5   52.52    2.38
   7   0  -5   52.45    2.40
  -7   0   5   50.18    2.25
   7   0  -5   50.35    2.36
  -7   0   5   51.70    2.51
   7   0  -5   50.67    2.27
  -6   0   5   -0.33    0.77
  -6   0   5    0.56    0.62
   6   0  -5    0.08    0.89
   6   0  -5   -0.05    0.81
  -6   0   5   -1.70    0.81
   6   0  -5    0.44    0.59
   6   0  -5   -0.02    0.78
   5   0  -5  222.45    6.72
   5   0  -5  225.56    6.81
   5   0  -5  230.80    6.73
   5   0  -5  230.36    6.74
  -5   0   5  230.46    6.69
  -5   0   5  224.90    6.66
  -5   0   5  226.87    6.65
  -4   0   5    0.21    0.64
   4   0  -5   -0.68    0.46
   4   0  -5   -0.60    0.45
  -4   0   5    0.50    0.61
   4   0  -5    0.07    0.70
  -4   0   5    0.02    0.74
   4   0  -5    0.39    0.66
  -3   0   5    9.45    0.93
  -3   0   5   10.80    0.87
  -3   0   5   11.72    0.85
   3   0  -5    9.10    0.93
   3   0  -5   10.00    0.82
   3   0  -5   10.51    0.92
   3   0  -5    9.73    0.81
   2   0  -5   -0.27    0.54
  -2   0   5    1.27    0.61
   2   0  -5   -0.29    0.45
   2   0  -5    0.34    0.41
  -2   0   5    1.08    0.43
  -2   0   5   -0.29    0.31
   1   0  -5  459.29   12.23
   1   0  -5  428.86   12.09
  -1   0   5  425.99   12.18
  -1   0   5  470.95   12.08
   1   0  -5  472.45   12.30
  -1   0   5  443.78   12.11
   0   0   5   -0.03    0.17
   0   0   5   -0.34    0.31
   0   0   5   -0.01    0.27
   0   0  -5    0.26    0.31
   0   0  -5    0.01    0.41
   0   0  -5   -0.17    0.27
  -1   0  -5  100.18    2.78
  -1   0  -5   97.58    2.93
  -1   0  -5   95.97    3.28
   1   0   5   98.59    2.77
  -1   0  -5   98.30    2.78
   1   0   5   98.78    2.76
  -2   0  -5   -0.43    0.46
  -2   0  -5   -0.18    0.08
  -2   0  -5   -0.08    0.08
  -2   0  -5    0.03    0.35
  -3   0  -5  488.33   13.13
  -3   0  -5  486.34   13.29
  -3   0  -5  493.18   13.69
  -4   0  -5   -0.54    0.46
  -4   0  -5   -0.06    0.81
  -5   0  -5  169.09    5.52
  -6   0  -5    0.00    0.67
   6   0   5    0.25    0.22
  -7   0  -5   75.51    3.36
   7   0   5   75.21    2.31
   8   0   5    0.24    0.42
  -8   0  -5   -0.32    0.40
  -8   0  -5    1.30    0.87
 -11  -1   5   -1.09    0.90
  11  -1  -5   -0.11    1.32
 -11  -1   5    0.52    1.40
 -11  -1   5   -0.92    1.74
  11  -1  -5   -0.31    1.06
 -11  -1   5   -0.59    1.13
  11  -1  -5    1.16    1.21
  11   1  -5    0.45    1.21
  11   1  -5    0.40    0.96
  11   1  -5   -0.59    1.09
 -11   1   5    1.30    1.36
 -11   1   5    0.32    1.51
 -11   1   5    0.33    1.19
 -10  -1   5   67.25    4.23
 -10  -1   5   81.72    3.70
  10  -1  -5   76.55    3.27
  10  -1  -5   78.91    3.70
 -10  -1   5   77.35    3.45
  10   1  -5   78.96    3.49
 -10   1   5   70.85    3.85
  10   1  -5   80.46    3.49
 -10   1   5   78.15    3.26
 -10   1   5   82.41    3.68
  10   1  -5   77.14    3.20
   9  -1  -5    8.66    1.35
  -9  -1   5   10.90    1.72
  -9  -1   5   10.62    1.20
   9  -1  -5   10.07    1.53
  -9  -1   5   12.47    1.53
   9   1  -5   10.08    1.13
  -9   1   5   10.82    1.42
  -9   1   5    7.16    1.78
   9   1  -5    9.86    1.17
  -9   1   5   10.43    1.51
   9   1  -5   12.04    1.29
   8  -1  -5   54.21    2.58
   8  -1  -5   54.23    2.58
  -8  -1   5   50.53    2.52
  -8  -1   5   53.94    2.50
  -8  -1   5   49.31    3.45
  -8  -1   5   46.47    2.59
  -8   1   5   47.63    2.38
   8   1  -5   51.04    2.39
  -8   1   5   44.23    3.09
   8   1  -5   55.43    2.60
   8   1  -5   51.72    2.22
  -8   1   5   48.21    2.62
  -7  -1   5   44.91    2.31
  -7  -1   5   41.97    2.32
   7  -1  -5   44.71    2.27
   7  -1  -5   43.03    2.13
  -7  -1   5   41.58    3.24
   7  -1  -5   39.57    2.52
  -7  -1   5   42.95    2.24
   7   1  -5   42.66    2.28
   7   1  -5   39.25    2.31
   7   1  -5   41.49    2.13
  -7   1   5   45.97    2.34
   7   1  -5   40.52    1.96
  -7   1   5   42.14    1.98
  -6  -1   5  199.66    6.05
   6  -1  -5  201.95    6.29
  -6  -1   5  191.61    6.11
   6  -1  -5  199.15    6.08
   6  -1  -5  196.13    6.12
  -6  -1   5  206.74    6.10
  -6   1   5  203.79    6.09
   6   1  -5  204.12    6.14
   6   1  -5  199.01    6.09
   6   1  -5  195.86    6.05
   6   1  -5  192.27    6.11
  -6   1   5  204.04    6.10
  -5  -1   5    0.86    0.55
   5  -1  -5    0.42    0.63
   5  -1  -5    0.47    0.57
   5  -1  -5   -0.06    0.55
  -5  -1   5   -0.02    0.51
  -5  -1   5    1.67    0.90
  -5   1   5   -0.61    0.80
   5   1  -5   -0.07    0.77
  -5   1   5    0.15    0.75
   5   1  -5   -0.12    0.73
   5   1  -5   -0.77    0.70
   5   1  -5    0.56    0.57
   4  -1  -5   48.98    2.10
   4  -1  -5   47.23    1.94
  -4  -1   5   48.04    2.20
  -4  -1   5   52.78    2.02
   4  -1  -5   47.50    2.06
  -4  -1   5   51.24    1.96
   4   1  -5   50.55    2.00
   4   1  -5   49.62    2.08
  -4   1   5   51.48    2.16
  -4   1   5   48.67    1.90
   4   1  -5   49.38    2.06
  -3  -1   5   -0.19    0.36
  -3  -1   5   -0.85    0.48
   3  -1  -5   -0.98    0.56
   3  -1  -5   -0.23    0.43
  -3  -1   5    0.24    0.40
   3  -1  -5    0.06    0.48
   3   1  -5    1.45    0.58
  -3   1   5   -0.37    0.65
   3   1  -5   -0.19    0.62
   3   1  -5    0.39    0.47
  -3   1   5   -1.36    0.52
   2  -1  -5  340.67    9.37
   2  -1  -5  342.18    9.34
   2  -1  -5  327.76    9.38
  -2  -1   5  335.51    9.39
  -2  -1   5  338.98    9.22
  -2  -1   5  335.65    9.30
  -2   1   5  339.83    9.33
   2   1  -5  336.18    9.40
  -2   1   5  338.03    9.37
   2   1  -5  329.55    9.29
   2   1  -5  351.27    9.43
   1  -1  -5  105.14    3.03
  -1  -1   5   98.43    2.89
   1  -1  -5  108.57    3.19
  -1  -1   5  100.26    2.98
  -1  -1   5  105.32    3.16
   1  -1  -5   95.10    3.05
   1   1  -5   95.98    2.96
  -1   1   5  105.27    3.04
  -1   1   5   96.62    3.10
   1   1  -5  103.90    3.17
   1   1  -5  103.56    3.16
   0  -1  -5    6.04    0.54
   0  -1  -5    6.21    0.79
   0  -1   5    7.92    0.61
   0  -1  -5    6.57    0.87
   0  -1  -5    6.98    0.59
   0   1  -5    5.95    0.55
   0   1  -5    7.57    0.62
   0   1  -5    5.93    0.55
   0   1   5    5.39    0.52
  -1  -1  -5   22.47    0.93
   1  -1   5   23.30    0.86
  -1  -1  -5   21.72    0.87
  -1  -1  -5   21.65    1.12
   1  -1   5   21.45    0.96
  -1  -1  -5   23.86    1.31
   1   1   5   23.04    0.87
  -1   1  -5   22.02    1.01
  -1   1  -5   23.30    0.85
   1   1   5   22.36    0.91
  -1   1  -5   22.69    0.92
  -2  -1  -5  439.36   12.41
  -2  -1  -5  448.71   11.82
  -2  -1  -5  447.78   11.85
   2  -1   5  443.05   11.77
   2  -1   5  430.38   11.79
  -2  -1  -5  438.43   12.18
  -2   1  -5  447.53   12.05
   2   1   5  448.02   11.81
  -2   1  -5  450.37   11.79
  -2   1  -5  437.66   11.81
   2   1   5  433.75   11.81
  -3  -1  -5   -0.04    0.37
   3  -1   5    0.14    0.11
  -3  -1  -5    0.34    0.18
  -3  -1  -5    0.45    0.84
  -3  -1  -5    0.15    0.15
   3  -1   5    0.20    0.13
  -3   1  -5   -0.33    0.67
  -3   1  -5   -0.25    0.40
   3   1   5    0.11    0.20
  -3   1  -5    0.13    0.16
  -3   1  -5    0.15    0.12
   3   1   5    0.17    0.17
  -4  -1  -5    3.80    1.01
  -4  -1  -5    2.63    0.26
  -4  -1  -5    2.46    0.63
  -4  -1  -5    2.20    0.27
   4   1   5    2.40    0.26
  -4   1  -5    1.65    0.47
  -4   1  -5    1.57    0.80
  -4   1  -5    2.11    0.19
   4   1   5    2.50    0.23
  -4   1  -5    2.29    0.19
  -5  -1  -5   57.58    2.74
  -5  -1  -5   57.19    2.14
  -5   1  -5   52.92    1.59
  -5   1  -5   54.32    2.43
   5   1   5   54.30    1.64
  -6  -1  -5  145.79    5.18
  -6  -1  -5  150.38    4.65
   6  -1   5  150.00    4.17
  -6  -1  -5  152.37    4.26
  -6   1  -5  150.62    4.19
   6   1   5  147.06    4.23
  -6   1  -5  156.47    5.07
   7  -1   5   17.92    0.96
  -7  -1  -5   18.38    0.95
  -7  -1  -5   17.54    1.69
  -7   1  -5   20.23    1.71
  -7   1  -5   18.25    0.93
   7   1   5   17.70    0.95
   8  -1   5    3.02    0.63
  -8  -1  -5    3.59    0.58
  -8  -1  -5    3.01    1.32
   8   1   5    2.72    0.57
  -8   1  -5    2.66    1.14
 -10  -2   5    5.75    1.32
 -10  -2   5    7.17    1.15
  10  -2  -5    9.60    1.73
 -10  -2   5    7.24    2.12
  10  -2  -5    7.16    1.39
 -10   2   5    8.35    1.66
 -10   2   5    7.34    1.54
  10   2  -5    9.01    1.47
  10   2  -5    6.61    0.95
  -9  -2   5  111.05    5.11
   9  -2  -5  128.55    4.72
   9  -2  -5  120.81    4.38
  -9  -2   5  107.40    4.26
  -9   2   5  114.01    4.24
   9   2  -5  112.07    4.17
   9   2  -5  118.68    4.04
  -9   2   5  100.88    4.26
  -8  -2   5    1.64    1.01
  -8  -2   5    2.71    1.85
   8  -2  -5    2.45    1.07
   8  -2  -5    1.08    1.26
  -8   2   5    1.55    0.96
   8   2  -5    1.66    0.74
  -8   2   5    2.95    1.12
   8   2  -5    1.24    0.83
  -8   2   5    2.32    0.90
  -7  -2   5    5.88    1.14
   7  -2  -5    6.99    1.23
  -7  -2   5    4.97    1.42
  -7  -2   5    4.31    1.05
   7  -2  -5    6.86    1.09
   7  -2  -5    7.60    1.12
  -7   2   5    4.62    1.04
   7   2  -5    6.40    1.15
   7   2  -5    5.16    0.97
  -7   2   5    6.45    0.98
   7   2  -5    7.51    0.97
  -6  -2   5    3.38    1.12
  -6  -2   5    2.22    0.72
   6  -2  -5    3.87    1.17
   6  -2  -5    2.81    0.99
  -6  -2   5    3.70    1.00
   6  -2  -5    3.96    0.95
   6   2  -5    3.56    1.00
   6   2  -5    3.67    0.79
  -6   2   5    3.41    0.98
   6   2  -5    2.46    0.86
  -6   2   5    3.42    1.00
   5  -2  -5  359.43   10.18
   5  -2  -5  353.01   10.30
  -5  -2   5  357.18   10.20
   5  -2  -5  362.64   10.17
  -5  -2   5  350.16   10.15
   5   2  -5  360.16   10.22
  -5   2   5  362.04   10.19
   5   2  -5  355.54   10.08
   5   2  -5  352.05   10.13
  -5   2   5  355.68   10.11
   4  -2  -5   12.08    1.06
  -4  -2   5   11.37    1.01
  -4  -2   5    9.32    1.18
   4  -2  -5   13.17    1.14
   4  -2  -5   12.73    1.14
   4   2  -5   12.67    1.05
   4   2  -5   12.15    1.10
  -4   2   5   13.17    1.17
   4   2  -5   10.16    1.03
  -4   2   5   12.75    1.06
   3  -2  -5  150.57    4.80
   3  -2  -5  154.77    4.74
   3  -2  -5  156.95    4.79
  -3  -2   5  160.58    4.76
  -3  -2   5  156.24    4.80
   3   2  -5  160.59    4.82
   3   2  -5  159.87    4.77
   3   2  -5  158.04    4.76
  -3   2   5  160.31    4.77
   2  -2  -5    3.97    0.76
  -2  -2   5    3.13    0.62
   2  -2  -5    2.95    0.64
   2  -2  -5    1.67    0.48
  -2  -2   5    2.75    0.55
  -2   2   5    1.59    0.50
   2   2  -5    2.38    0.54
   2   2  -5    1.76    0.66
   2   2  -5    3.40    0.57
  -1  -2   5  130.89    3.88
   1  -2  -5  134.20    3.98
   1  -2  -5  136.45    4.04
   1  -2  -5  131.18    4.17
   1  -2  -5  133.29    4.03
  -1  -2   5  137.57    4.11
   1   2  -5  134.98    4.08
   1   2  -5  131.79    3.89
  -1   2   5  135.86    4.04
   1   2  -5  133.64    4.08
   0  -2  -5    4.35    0.44
   0  -2  -5    3.75    0.82
   0  -2  -5    3.76    0.80
   0  -2  -5    4.21    0.50
   0  -2   5    4.92    0.68
   0  -2  -5    4.43    0.57
   0   2  -5    3.97    0.58
   0   2  -5    4.57    0.63
   0   2   5    4.16    0.58
   0   2  -5    4.67    0.38
  -1  -2  -5  116.39    3.90
  -1  -2  -5  123.44    3.65
  -1  -2  -5  119.82    3.60
  -1  -2  -5  118.82    4.04
   1  -2   5  122.66    3.64
   1   2   5  124.09    3.61
  -1   2  -5  126.25    3.82
  -1   2  -5  125.64    3.64
  -1   2  -5  123.99    3.57
  -2  -2  -5   13.11    0.78
   2  -2   5   13.72    0.71
  -2  -2  -5   12.85    0.81
   2  -2   5   13.51    0.86
  -2  -2  -5   16.21    1.26
  -2  -2  -5   13.03    1.19
   2   2   5   13.48    0.82
  -2   2  -5   14.86    0.44
  -2   2  -5   14.18    0.72
   2   2   5   12.98    0.80
  -2   2  -5   16.10    1.13
  -2   2  -5   14.06    0.81
  -3  -2  -5    3.60    0.45
  -3  -2  -5    2.65    0.78
  -3  -2  -5    2.76    0.78
   3  -2   5    3.14    0.40
  -3  -2  -5    2.74    0.46
  -3   2  -5    3.44    0.40
   3   2   5    2.46    0.42
  -3   2  -5    3.29    0.47
  -3   2  -5    3.01    0.24
   3   2   5    2.46    0.45
  -3   2  -5    3.49    0.56
  -4  -2  -5    0.92    0.34
  -4  -2  -5    1.62    0.74
  -4  -2  -5    0.78    0.73
  -4   2  -5    1.33    0.35
  -4   2  -5    1.40    0.62
   4   2   5    1.30    0.42
  -4   2  -5    1.02    0.67
  -4   2  -5    1.62    0.42
  -5  -2  -5   33.13    1.75
  -5  -2  -5   26.62    2.15
  -5  -2  -5   29.15    1.23
  -5   2  -5   28.85    1.66
   5   2   5   30.81    1.25
   6  -2   5    0.18    0.42
  -6  -2  -5    1.51    0.84
  -6  -2  -5    1.12    0.75
  -6  -2  -5    0.31    0.36
  -6   2  -5    0.63    0.74
   6   2   5    0.41    0.43
  -6   2  -5    0.41    0.43
   7  -2   5    2.27    0.56
  -7  -2  -5    1.39    0.54
  -7  -2  -5    2.00    1.00
  -7  -2  -5    1.56    0.80
  -7   2  -5    2.02    0.89
   7   2   5    2.08    0.58
  -7   2  -5    1.18    0.54
  -8  -2  -5    0.96    0.59
  -8  -2  -5    1.48    1.39
   8  -2   5    0.87    0.62
   8   2   5    0.80    0.60
  -8   2  -5    1.41    0.58
  10  -3  -5    1.55    1.30
 -10  -3   5    1.84    1.45
  10  -3  -5    0.12    1.56
 -10  -3   5   -0.71    1.13
 -10  -3   5   -1.85    1.50
  10   3  -5    0.51    0.89
 -10   3   5    0.93    1.30
  10   3  -5    0.78    1.23
   9  -3  -5   18.71    1.74
  -9  -3   5   14.18    1.62
  -9  -3   5   13.19    2.38
  -9  -3   5   18.47    1.84
   9   3  -5   20.80    1.40
  -9   3   5   15.02    1.51
   9   3  -5   13.82    1.64
   8  -3  -5   35.99    2.05
  -8  -3   5   34.61    2.78
  -8  -3   5   31.94    2.88
  -8  -3   5   31.56    1.96
   8   3  -5   35.11    1.98
   8   3  -5   32.10    2.01
  -8   3   5   36.59    2.39
  -8   3   5   29.59    2.29
  -7  -3   5    1.96    1.03
  -7  -3   5    2.19    1.79
   7  -3  -5    1.12    0.87
   7  -3  -5   -0.80    0.96
  -7   3   5   -0.14    0.96
   7   3  -5    0.33    0.69
  -7   3   5   -0.11    0.92
   7   3  -5   -0.20    0.55
   7   3  -5   -0.19    0.71
   6  -3  -5   42.48    2.19
  -6  -3   5   44.89    2.13
   6  -3  -5   44.27    2.34
  -6  -3   5   41.95    2.80
   6   3  -5   49.83    2.20
   6   3  -5   45.88    2.38
  -6   3   5   42.76    2.37
   6   3  -5   44.31    2.34
  -6   3   5   41.52    2.06
  -5  -3   5   22.95    1.46
   5  -3  -5   25.48    1.79
  -5  -3   5   22.18    2.31
   5  -3  -5   23.39    1.68
  -5   3   5   22.70    1.80
   5   3  -5   23.44    1.52
   5   3  -5   24.30    1.63
   5   3  -5   23.90    1.51
  -5   3   5   24.49    1.54
   4  -3  -5   30.47    1.62
   4  -3  -5   33.71    1.63
  -4  -3   5   31.22    1.76
   4   3  -5   31.48    1.59
  -4   3   5   34.06    1.95
   4   3  -5   29.97    1.91
   4   3  -5   29.22    1.56
   3  -3  -5    1.49    0.78
  -3  -3   5    0.39    0.47
   3  -3  -5    0.31    0.76
   3   3  -5    1.27    0.85
   3   3  -5    0.45    0.53
  -3   3   5    1.29    0.60
   3   3  -5    0.42    0.68
   2  -3  -5   37.54    1.78
   2  -3  -5   40.06    1.83
   2  -3  -5   41.04    1.81
  -2  -3   5   41.81    1.70
   2   3  -5   37.61    1.88
   2   3  -5   39.36    1.70
   2   3  -5   36.88    1.91
  -2   3   5   35.76    1.83
   1  -3  -5    1.25    0.64
   1  -3  -5    1.40    0.55
  -1   3   5    1.42    0.69
   0  -3   5   10.01    0.71
   0  -3  -5    9.86    0.88
   0  -3  -5    9.44    1.09
   0  -3  -5   10.15    0.90
   0  -3  -5   10.86    0.84
   0  -3  -5   10.79    1.11
   0   3  -5   10.61    0.94
   0   3  -5    8.67    0.71
   0   3  -5   10.49    1.03
   0   3   5    9.86    0.90
  -1  -3  -5  119.77    3.49
  -1  -3  -5  124.31    3.78
  -1  -3  -5  118.26    3.99
  -1  -3  -5  121.82    3.56
  -1  -3  -5  121.43    4.15
   1   3   5  121.81    3.78
  -1   3  -5  126.86    3.98
  -1   3  -5  123.04    3.80
  -2  -3  -5   79.16    2.98
  -2  -3  -5   77.52    2.51
   2  -3   5   73.84    2.26
  -2  -3  -5   76.62    2.97
   2   3   5   75.81    2.57
  -2   3  -5   73.38    2.78
  -2   3  -5   77.37    2.58
  -3  -3  -5    1.66    0.64
  -3  -3  -5    1.18    0.49
  -3  -3  -5    1.84    1.05
  -3   3  -5    0.67    0.52
   3   3   5    0.51    0.51
  -3   3  -5    1.42    0.75
  -3   3  -5    1.64    0.31
  -4  -3  -5   -0.69    0.97
  -4  -3  -5    0.76    0.64
  -4  -3  -5    0.20    0.48
  -4   3  -5    0.00    0.72
  -4   3  -5   -0.36    0.49
   4   3   5   -0.14    0.59
   5  -3   5   34.73    1.64
  -5  -3  -5   36.31    2.48
  -5  -3  -5   34.86    2.10
  -5  -3  -5   37.09    1.58
   5   3   5   39.00    1.70
  -5   3  -5   39.05    1.58
  -6  -3  -5    0.28    0.50
   6  -3   5    0.23    0.54
  -6   3  -5    0.00    0.49
   6   3   5    0.41    0.51
  -7  -3  -5   29.97    1.63
   7  -3   5   32.07    1.67
  -7  -3  -5   33.17    2.11
  -7  -3  -5   33.67    2.71
   7   3   5   33.26    1.60
  -7   3  -5   31.31    1.63
  -9  -4   5    3.69    1.33
  -9  -4   5    3.25    2.00
   9  -4  -5    2.97    1.35
  -9  -4   5    5.28    1.38
  -9   4   5    5.44    1.40
   9   4  -5    6.94    1.12
   9   4  -5    4.82    1.38
  -8  -4   5   35.11    2.40
  -8  -4   5   32.91    2.46
   8  -4  -5   36.26    2.46
  -8  -4   5   34.81    3.21
   8   4  -5   34.74    2.07
   8   4  -5   37.03    2.17
  -8   4   5   30.84    2.09
  -7  -4   5    3.81    1.19
   7  -4  -5    3.25    0.89
  -7  -4   5    1.09    1.74
  -7  -4   5    4.00    1.16
   7   4  -5    1.37    1.23
   7   4  -5    3.12    0.91
   7   4  -5    1.67    0.94
  -7   4   5    1.61    0.76
  -7   4   5    2.32    0.92
   6  -4  -5    6.34    1.09
  -6  -4   5    3.30    1.10
   6  -4  -5    3.81    1.12
  -6  -4   5    3.93    0.87
  -6  -4   5    5.35    1.83
   6   4  -5    5.16    1.16
   6   4  -5    3.59    0.99
  -6   4   5    5.26    0.90
  -6   4   5    4.99    0.99
   6   4  -5    5.80    0.97
   5  -4  -5    2.32    0.94
  -5  -4   5    1.32    0.70
  -5  -4   5    2.00    1.26
  -5  -4   5    3.56    1.71
   5  -4  -5    1.82    1.04
  -5   4   5    1.38    0.74
   5   4  -5    2.05    0.81
   5   4  -5    1.78    0.99
   5   4  -5    2.07    0.71
  -4  -4   5   32.00    1.91
   4  -4  -5   32.71    1.79
  -4  -4   5   33.61    1.99
   4  -4  -5   35.08    1.97
  -4  -4   5   33.38    2.87
  -4   4   5   33.42    2.10
   4   4  -5   34.21    1.77
   4   4  -5   33.30    2.11
   4   4  -5   34.33    1.95
  -3  -4   5   17.20    1.39
   3  -4  -5   16.43    1.32
   3  -4  -5   17.02    1.52
   3  -4  -5   15.83    1.28
  -3  -4   5   15.03    1.18
   3   4  -5   15.87    1.44
   3   4  -5   16.92    1.39
  -3   4   5   16.69    1.39
   3   4  -5   18.13    1.33
   2  -4  -5   30.49    1.72
   2  -4  -5   21.67    1.44
   2  -4  -5   33.05    1.89
  -2   4   5   29.77    1.82
  -1  -4   5   37.88    1.75
  -1  -4   5   39.81    1.70
   1  -4  -5   37.36    1.84
   1  -4  -5   36.22    1.90
   1  -4  -5   38.24    1.75
   1  -4  -5   37.52    2.06
  -1   4   5   40.39    1.97
   1   4  -5   39.54    1.72
   1   4  -5   38.21    2.03
   1   4  -5   37.78    1.84
   0  -4   5  122.16    3.75
   0  -4  -5  121.19    4.16
   0  -4  -5  121.04    3.87
   0  -4  -5  125.62    4.19
   0  -4  -5  125.82    3.97
   0  -4   5  122.91    3.90
   0   4   5  121.29    3.95
   0   4  -5  125.63    3.79
   0   4  -5  123.10    4.15
   0   4  -5  127.60    4.11
  -1  -4  -5   14.79    1.41
  -1  -4  -5   15.12    0.99
   1  -4   5   15.57    1.02
  -1  -4  -5   14.89    1.26
  -1  -4  -5   17.17    1.35
  -1  -4  -5   15.44    1.16
  -1   4  -5   15.07    1.21
  -1   4  -5   15.93    1.35
   1   4   5   15.62    1.12
  -2  -4  -5   28.48    2.00
   2  -4   5   27.25    1.13
  -2  -4  -5   29.07    1.55
  -2  -4  -5   28.58    1.93
  -2   4  -5   27.11    1.43
   2   4   5   26.65    1.58
  -2   4  -5   28.02    1.83
  -3  -4  -5   20.22    1.55
  -3  -4  -5   21.26    1.65
  -3  -4  -5   23.01    1.37
   3   4   5   19.10    1.40
  -3   4  -5   20.83    1.43
  -3   4  -5   19.87    1.40
  -4  -4  -5   86.02    3.52
  -4  -4  -5   78.27    3.44
  -4  -4  -5   83.55    2.96
   4  -4   5   83.41    2.97
  -4   4  -5   81.94    2.96
   4   4   5   84.80    2.99
  -4   4  -5   85.51    3.29
  -5  -4  -5   37.22    1.79
   5  -4   5   38.01    1.83
  -5  -4  -5   37.85    2.66
  -5  -4  -5   33.23    2.09
   5   4   5   36.54    1.82
   6  -4   5    1.30    0.77
  -6  -4  -5    2.56    0.89
  -6  -4  -5    0.64    1.34
  -6  -4  -5    1.52    0.69
   6   4   5    2.73    0.76
  -6   4  -5    1.78    0.75
   7  -4   5    6.79    0.99
  -7  -4  -5    6.21    1.76
  -7  -4  -5    6.22    1.39
  -7  -4  -5    4.53    0.88
  -7   4  -5    7.32    1.07
   7   4   5    6.89    0.97
  -8  -5   5    1.34    1.83
  -8  -5   5    4.62    1.35
  -8  -5   5    4.65    1.34
   8  -5  -5    4.19    1.36
   8   5  -5    1.90    0.98
  -8   5   5    3.32    1.07
   8   5  -5    2.17    1.30
  -7  -5   5  183.56    6.12
  -7  -5   5  172.15    6.43
  -7  -5   5  181.40    6.47
   7  -5  -5  176.31    6.04
   7   5  -5  175.03    5.76
   7   5  -5  182.67    6.11
  -7   5   5  170.33    5.92
  -6  -5   5    0.77    1.42
  -6  -5   5    1.95    1.11
   6  -5  -5    1.78    0.86
   6  -5  -5    2.62    0.81
  -6  -5   5   -0.32    1.60
   6   5  -5    2.53    0.90
   6   5  -5    1.37    0.98
  -6   5   5    3.33    1.12
   6   5  -5    2.30    0.86
  -5  -5   5   57.60    2.72
   5  -5  -5   52.88    2.50
  -5  -5   5   58.71    3.38
  -5  -5   5   53.17    3.03
   5  -5  -5   54.37    2.61
   5   5  -5   54.93    2.81
   5   5  -5   53.77    2.41
   5   5  -5   54.72    2.51
  -5   5   5   50.96    2.71
   4  -5  -5    5.44    1.15
   4  -5  -5    5.48    1.15
   4  -5  -5    3.92    0.89
  -4  -5   5    5.34    1.38
  -4  -5   5    3.40    0.82
  -4  -5   5    4.25    1.56
   4   5  -5    3.85    1.07
  -4   5   5    4.92    0.93
   4   5  -5    5.80    1.02
  -4   5   5    4.97    1.11
   4   5  -5    5.00    0.90
  -3  -5   5  118.68    4.28
   3  -5  -5  121.86    4.27
   3  -5  -5  127.56    4.23
   3  -5  -5  121.71    4.29
  -3  -5   5  123.18    4.15
  -3  -5   5  122.15    4.67
  -3   5   5  130.02    4.40
   3   5  -5  123.11    4.32
  -3   5   5  124.58    4.20
   3   5  -5  121.85    4.27
   3   5  -5  121.26    4.23
  -2  -5   5    2.07    0.94
   2  -5  -5    4.11    0.88
  -2  -5   5    2.36    0.77
   2  -5  -5    3.69    0.97
   2  -5  -5    4.27    1.03
  -2  -5   5    3.55    0.69
   2   5  -5    4.20    1.13
  -2   5   5    4.68    1.01
   2   5  -5    0.83    0.98
  -2   5   5    3.51    1.05
   2   5  -5    2.85    0.86
  -1  -5   5  150.83    4.90
  -1  -5   5  160.43    5.06
   1  -5  -5  157.09    5.12
   1  -5  -5  156.54    5.00
   1  -5  -5  157.95    5.29
   1  -5  -5  153.47    5.04
   1   5  -5  157.70    5.19
  -1   5   5  161.61    5.06
   1   5  -5  163.38    4.96
   1   5  -5  155.45    5.09
  -1   5   5  157.30    5.01
   0  -5  -5   10.86    1.22
   0  -5  -5   11.25    0.95
   0  -5  -5    7.70    1.10
   0  -5   5   10.47    1.05
   0  -5  -5    9.13    1.31
   0   5  -5   10.13    0.95
   0   5  -5   11.39    1.31
   0   5   5    9.79    1.18
   0   5  -5    9.73    1.24
  -1  -5  -5   51.01    2.20
  -1  -5  -5   50.08    2.36
  -1  -5  -5   60.20    2.75
   1  -5   5   50.12    2.00
   1   5   5   53.50    2.23
  -1   5  -5   49.50    2.25
  -1   5  -5   50.50    2.33
  -2  -5  -5   20.32    1.38
  -2  -5  -5   21.29    1.70
  -2  -5  -5   23.14    1.67
  -2   5  -5   22.80    1.71
   2   5   5   21.98    1.42
  -2   5  -5   26.37    1.66
   3  -5   5   56.68    2.58
  -3  -5  -5   59.10    2.53
  -3  -5  -5   63.14    3.07
  -3  -5  -5   55.87    2.73
  -3   5  -5   59.90    2.44
   3   5   5   57.40    2.56
  -3   5  -5   63.01    2.87
  -4  -5  -5    5.38    1.48
   4  -5   5    8.13    1.15
  -4  -5  -5    7.63    1.48
  -4  -5  -5    7.81    1.05
  -4   5  -5    6.43    1.07
   4   5   5    6.99    1.08
  -4   5  -5    8.27    1.33
  -5  -5  -5   12.66    1.60
  -5  -5  -5   13.69    1.27
  -5  -5  -5   16.19    1.62
   5  -5   5   14.17    1.32
   5   5   5   14.75    1.34
  -5   5  -5   12.57    1.26
   6  -5   5   11.84    1.30
  -6  -5  -5   11.37    1.50
  -6  -5  -5   12.06    1.31
  -6  -5  -5   11.31    1.94
   6   5   5    8.65    1.23
  -6   5  -5   11.09    1.24
  -7  -6   5    3.86    1.74
   7  -6  -5    3.58    1.41
  -7  -6   5    2.79    1.32
  -7  -6   5    4.48    1.85
   7   6  -5    2.62    1.35
  -7   6   5    4.07    1.47
   7   6  -5    2.90    1.11
  -6  -6   5   37.77    2.60
  -6  -6   5   38.94    2.30
  -6  -6   5   36.01    3.06
   6  -6  -5   35.28    2.28
   6   6  -5   47.43    2.49
  -6   6   5   39.47    2.57
   6   6  -5   34.35    2.58
  -5  -6   5   22.32    1.98
   5  -6  -5   26.11    1.94
  -5  -6   5   23.34    2.10
   5  -6  -5   26.38    1.79
  -5  -6   5   27.64    2.63
   5   6  -5   24.71    2.05
  -5   6   5   26.58    2.21
   5   6  -5   24.82    2.11
   5   6  -5   24.97    1.88
  -5   6   5   22.35    1.90
  -4  -6   5  174.77    5.88
   4  -6  -5  175.49    5.89
  -4  -6   5  185.17    6.29
  -4  -6   5  185.26    6.15
   4  -6  -5  183.51    6.05
   4  -6  -5  180.59    6.01
  -4   6   5  179.60    6.07
   4   6  -5  181.23    5.96
  -4   6   5  177.59    5.90
   4   6  -5  181.71    6.00
   4   6  -5  181.75    6.02
  -3  -6   5   21.95    1.57
  -3  -6   5   22.26    1.82
  -3  -6   5   23.93    1.79
   3  -6  -5   21.99    2.01
   3  -6  -5   20.17    1.75
   3  -6  -5   22.70    1.96
  -3   6   5   24.55    2.11
   3   6  -5   20.96    1.69
   3   6  -5   23.55    1.83
   3   6  -5   21.95    1.80
  -3   6   5   22.88    1.67
   2  -6  -5    2.75    1.04
  -2  -6   5    4.01    0.95
   2  -6  -5    2.08    0.83
   2  -6  -5    4.09    1.18
  -2  -6   5    1.98    1.04
  -2  -6   5    2.46    1.08
   2   6  -5    3.51    0.76
  -2   6   5    3.23    1.03
  -2   6   5    2.04    1.11
   2   6  -5    2.04    0.82
   2   6  -5    0.58    1.16
  -1  -6   5    2.58    0.76
   1  -6  -5    3.45    1.21
  -1  -6   5    1.97    0.95
   1  -6  -5    3.29    0.85
   1  -6  -5    1.69    0.85
   1  -6  -5    2.34    0.98
   1   6  -5    2.13    1.13
   1   6  -5    2.77    0.92
   1   6  -5    2.73    0.70
  -1   6   5    2.40    0.83
   0  -6  -5  183.97    5.91
   0  -6  -5  184.46    6.23
   0  -6   5  195.06    5.79
   0  -6  -5  181.21    5.93
   0   6  -5  181.48    6.06
   0   6   5  182.28    5.89
   0   6  -5  178.20    6.03
  -1  -6  -5   12.54    1.51
   1  -6   5   13.36    1.50
   1  -6   5   13.24    1.19
  -1  -6  -5   12.29    1.39
  -1  -6  -5   16.63    1.75
   1   6   5   14.47    1.47
  -1   6  -5   13.39    1.55
  -1   6  -5   14.50    1.53
  -2  -6  -5   11.33    1.66
   2  -6   5    9.35    1.40
  -2  -6  -5   11.05    1.34
  -2  -6  -5   12.29    1.55
  -2   6  -5   13.11    1.48
   2   6   5    9.79    1.31
  -2   6  -5   11.21    1.29
  -3  -6  -5    2.07    0.98
  -3  -6  -5    0.61    1.20
   3  -6   5    0.71    1.07
  -3  -6  -5    0.62    1.28
  -3   6  -5    1.25    1.16
   3   6   5    2.67    1.05
  -3   6  -5    1.78    0.78
  -4  -6  -5   30.88    2.00
  -4  -6  -5   25.73    2.30
   4  -6   5   25.59    2.10
  -4  -6  -5   26.11    2.15
  -4   6  -5   26.64    2.05
   4   6   5   26.12    2.04
  -4   6  -5   25.61    1.92
  -5  -6  -5    0.69    1.40
  -5  -6  -5   -0.44    1.38
  -5  -6  -5    1.15    0.72
   5  -6   5    1.46    1.09
  -5   6  -5    1.01    1.05
   5   6   5   -0.30    0.98
   5  -7  -5    0.36    1.31
  -5  -7   5   -0.16    1.33
  -5  -7   5    2.27    1.24
  -5  -7   5    3.09    1.50
  -5  -7   5   -0.59    1.42
   5   7  -5   -0.32    1.28
   5   7  -5    1.49    1.18
   5   7  -5    0.03    0.83
  -5   7   5   -0.50    0.86
  -5   7   5   -1.30    0.80
   4  -7  -5    0.76    0.85
  -4  -7   5    0.06    1.10
  -4  -7   5    0.44    1.27
  -4  -7   5    0.78    0.98
   4  -7  -5    1.22    1.19
  -4  -7   5   -0.54    0.94
   4  -7  -5   -0.18    1.19
   4   7  -5    1.98    0.92
   4   7  -5    3.53    1.41
  -4   7   5    2.31    1.28
   4   7  -5    0.40    0.87
  -4   7   5    2.39    1.29
   3  -7  -5   31.08    2.40
   3  -7  -5   30.24    2.36
   3  -7  -5   29.68    2.07
  -3  -7   5   33.06    2.46
  -3  -7   5   30.59    2.18
  -3  -7   5   33.06    2.30
   3   7  -5   27.85    2.26
  -3   7   5   30.75    2.47
   3   7  -5   31.50    2.06
   3   7  -5   33.15    2.60
  -3   7   5   29.89    2.39
   2  -7  -5   33.97    2.50
   2  -7  -5   31.41    2.39
  -2  -7   5   30.51    2.58
  -2  -7   5   35.77    2.06
  -2  -7   5   28.11    2.34
   2  -7  -5   31.79    2.01
   2   7  -5   33.44    2.26
  -2   7   5   28.79    2.42
   2   7  -5   32.85    2.10
   2   7  -5   34.15    2.19
   1  -7  -5   12.55    1.69
   1  -7  -5    8.53    1.17
  -1  -7   5   10.98    1.37
   1  -7  -5   13.88    1.60
  -1  -7   5   10.31    1.34
  -1   7   5    9.98    1.30
   1   7  -5   11.26    1.58
   1   7  -5   10.67    1.67
   0  -7  -5   13.12    1.41
   0  -7  -5   12.23    1.75
   0  -7  -5   11.39    1.31
   0  -7   5   10.15    1.62
   0  -7   5   11.03    1.28
   0   7  -5   10.95    1.37
   0   7  -5    8.84    1.57
   0   7   5   10.36    1.31
  -1  -7  -5   64.78    3.62
  -1  -7  -5   71.55    3.29
   1  -7   5   77.42    3.22
  -1  -7  -5   78.49    3.39
  -1   7  -5   67.90    3.15
  -1   7  -5   72.92    3.27
   1   7   5   77.58    3.42
   2  -7   5    0.42    1.31
  -2  -7  -5    0.66    1.08
  -2  -7  -5    0.95    1.18
  -2  -7  -5    1.53    1.04
   2   7   5    2.63    1.20
  -2   7  -5   -0.62    1.21
  -2   7  -5    1.09    0.93
  -3  -7  -5   19.56    1.83
  -3  -7  -5   19.06    2.16
  -3  -7  -5   19.00    2.00
   3  -7   5   18.38    1.84
  -3   7  -5   17.35    1.81
  -3   7  -5   17.64    1.75
   3   7   5   15.52    1.74
  11   0  -6    0.89    1.30
 -11   0   6   -2.73    1.75
  11   0  -6    0.74    0.93
  11   0  -6   -0.78    1.07
 -11   0   6   -0.75    0.81
 -11   0   6   -0.58    0.96
 -10   0   6   40.91    2.36
 -10   0   6   44.64    2.87
  10   0  -6   43.35    2.40
  10   0  -6   44.79    2.32
 -10   0   6   48.09    3.54
  10   0  -6   49.27    2.89
   9   0  -6    0.09    0.70
  -9   0   6    0.78    0.74
   9   0  -6    0.74    1.10
  -9   0   6    0.64    0.82
  -9   0   6   -0.02    1.72
   9   0  -6    0.66    0.81
  -8   0   6   34.32    2.20
   8   0  -6   35.57    2.00
  -8   0   6   33.82    2.24
   8   0  -6   33.72    2.07
  -8   0   6   35.81    2.33
   8   0  -6   36.53    2.18
   8   0  -6   35.61    2.12
   7   0  -6    0.91    0.92
   7   0  -6   -0.94    0.60
  -7   0   6   -0.33    0.65
   7   0  -6   -0.91    0.90
  -7   0   6    0.36    0.91
   7   0  -6   -0.35    0.74
  -7   0   6   -1.57    0.95
  -6   0   6  252.02    7.43
   6   0  -6  256.25    7.57
   6   0  -6  244.09    7.38
   6   0  -6  248.71    7.40
   6   0  -6  250.79    7.39
  -6   0   6  243.57    7.45
  -6   0   6  245.46    7.45
  -5   0   6   -0.33    0.90
  -5   0   6   -0.13    0.52
   5   0  -6   -0.44    0.52
   5   0  -6   -0.18    0.56
   5   0  -6   -0.10    0.59
   5   0  -6    0.41    0.78
  -5   0   6   -0.64    0.73
   4   0  -6   16.19    1.18
   4   0  -6   16.91    1.23
  -4   0   6   16.60    1.31
  -4   0   6   16.84    1.33
  -4   0   6   15.86    1.25
   4   0  -6   16.93    1.30
   4   0  -6   15.62    1.31
  -3   0   6    0.67    0.39
   3   0  -6   -0.02    0.67
  -3   0   6   -0.11    0.38
   3   0  -6   -0.30    0.66
   3   0  -6    0.06    0.56
  -3   0   6   -0.40    0.69
   2   0  -6  974.17   25.99
  -2   0   6  982.21   25.86
   2   0  -6  952.29   25.95
  -2   0   6  976.35   25.79
  -2   0   6 1000.00   25.96
   2   0  -6  914.07   25.82
   1   0  -6    0.33    0.35
  -1   0   6   -0.29    0.28
  -1   0   6    0.16    0.27
  -1   0   6    0.05    0.49
   1   0  -6    0.76    0.54
   1   0  -6    0.02    0.25
   0   0  -6   27.14    1.10
   0   0  -6   26.96    1.27
   0   0   6   26.37    0.91
   0   0  -6   26.18    1.13
   0   0   6   26.45    1.14
   1   0   6    0.23    0.26
  -1   0  -6    0.74    0.42
   1   0   6    0.27    0.29
  -1   0  -6    0.03    0.23
  -1   0  -6   -0.28    0.31
   1   0   6   -0.17    0.12
  -2   0  -6  490.80   12.95
   2   0   6  481.44   12.73
  -2   0  -6  479.98   12.75
   2   0   6  468.67   12.72
  -2   0  -6  473.21   13.44
  -2   0  -6  476.82   12.75
  -3   0  -6    0.07    0.08
  -3   0  -6   -0.01    0.31
  -3   0  -6   -0.11    0.84
  -4   0  -6  191.48    5.78
  -4   0  -6  218.71    6.50
  -5   0  -6   -0.65    0.91
  -6   0  -6  115.82    4.40
  -7   0  -6    0.49    1.11
  -7   0  -6    0.34    0.29
  11  -1  -6   15.67    1.73
 -11  -1   6   17.44    1.92
 -11  -1   6   18.89    2.29
 -11  -1   6   14.86    1.95
  11  -1  -6   15.31    1.85
  11  -1  -6   14.76    1.74
 -11   1   6   14.58    1.68
  11   1  -6   16.96    1.70
 -11   1   6   16.01    1.84
 -11   1   6   18.54    2.35
  11   1  -6   17.07    1.82
  11   1  -6   15.53    1.64
 -10  -1   6   16.20    1.64
  10  -1  -6   12.91    1.46
 -10  -1   6   16.72    2.50
  10  -1  -6   16.55    1.67
 -10  -1   6   16.19    1.55
 -10   1   6   14.08    1.56
  10   1  -6   17.49    1.61
  10   1  -6   14.71    1.73
 -10   1   6   14.66    1.51
  10   1  -6   14.79    1.71
 -10   1   6   15.25    2.20
   9  -1  -6   76.73    3.16
  -9  -1   6   70.22    4.18
  -9  -1   6   70.15    3.26
  -9  -1   6   71.30    3.15
   9  -1  -6   79.88    3.62
   9   1  -6   68.78    3.06
  -9   1   6   74.49    3.98
  -9   1   6   68.63    3.13
   9   1  -6   77.94    3.03
   9   1  -6   82.84    3.48
  -9   1   6   72.62    3.09
   8  -1  -6   11.46    1.39
  -8  -1   6   10.17    1.36
  -8  -1   6   14.15    2.26
  -8  -1   6   10.12    1.15
   8  -1  -6   11.57    1.15
  -8  -1   6   10.48    1.21
   8  -1  -6    8.75    1.21
  -8   1   6   10.85    1.20
  -8   1   6   10.11    1.21
   8   1  -6   11.52    1.32
  -8   1   6    9.00    1.27
   8   1  -6   11.20    1.33
   8   1  -6    8.34    1.28
   8   1  -6   12.36    1.45
   7  -1  -6   58.30    2.47
  -7  -1   6   63.35    2.83
  -7  -1   6   54.02    2.50
  -7  -1   6   57.02    2.72
   7  -1  -6   58.29    2.67
   7  -1  -6   61.69    2.77
   7   1  -6   58.21    2.61
  -7   1   6   58.36    2.70
  -7   1   6   59.03    2.55
   7   1  -6   61.21    2.63
  -7   1   6   59.61    2.72
   7   1  -6   56.72    2.49
   7   1  -6   60.57    2.56
  -6  -1   6  137.98    4.58
  -6  -1   6  139.71    4.62
   6  -1  -6  138.13    4.66
   6  -1  -6  143.87    4.65
  -6  -1   6  142.74    4.67
   6  -1  -6  139.99    4.67
  -6   1   6  133.85    4.52
   6   1  -6  142.73    4.63
  -6   1   6  140.80    4.56
   6   1  -6  141.62    4.69
   6   1  -6  140.85    4.67
   5  -1  -6   58.37    2.61
  -5  -1   6   69.49    2.68
   5  -1  -6   66.65    2.70
   5  -1  -6   70.93    2.73
  -5  -1   6   70.85    2.63
  -5  -1   6   64.53    2.83
  -5   1   6   68.14    2.52
   5   1  -6   67.28    2.76
   5   1  -6   63.35    2.65
  -5   1   6   64.10    2.78
   5   1  -6   64.32    2.51
  -5   1   6   67.58    2.67
  -4  -1   6   27.80    1.84
   4  -1  -6   25.93    1.65
   4  -1  -6   31.13    1.52
   4  -1  -6   26.43    1.86
  -4  -1   6   27.68    1.51
  -4  -1   6   29.90    1.60
   4   1  -6   30.68    1.65
  -4   1   6   28.31    1.45
   4   1  -6   28.44    1.69
  -4   1   6   25.91    1.51
   4   1  -6   25.49    1.73
  -4   1   6   29.89    1.59
   3  -1  -6  337.20    9.31
  -3  -1   6  329.51    9.40
  -3  -1   6  334.70    9.30
   3  -1  -6  323.04    9.44
  -3  -1   6  333.80    9.19
   3  -1  -6  330.84    9.39
   3   1  -6  329.13    9.41
  -3   1   6  328.95    9.27
  -3   1   6  336.76    9.34
  -3   1   6  330.94    9.38
   3   1  -6  328.13    9.41
   3   1  -6  338.84    9.31
  -2  -1   6  138.19    3.98
   2  -1  -6  121.29    3.78
  -2  -1   6  124.07    3.73
   2  -1  -6  129.02    3.90
   2  -1  -6  124.46    3.96
  -2  -1   6  126.59    3.66
   2   1  -6  122.76    3.93
  -2   1   6  122.29    3.80
  -2   1   6  121.34    3.72
  -2   1   6  126.74    3.90
   2   1  -6  122.26    3.74
   2   1  -6  125.47    3.90
   1  -1  -6  141.19    4.30
   1  -1  -6  146.09    4.09
   1  -1  -6  143.78    4.25
  -1  -1   6  143.94    3.99
  -1  -1   6  143.06    4.06
  -1  -1   6  139.12    4.27
   1   1  -6  141.54    4.35
  -1   1   6  140.04    4.10
   1   1  -6  141.79    4.04
  -1   1   6  145.26    4.26
   1   1  -6  142.99    4.29
   0  -1  -6  100.33    2.99
   0  -1   6   95.80    3.02
   0  -1  -6  100.57    3.01
   0   1  -6   97.08    3.02
   0   1  -6   96.05    3.08
   0   1   6   96.55    2.98
   0   1  -6   97.94    2.95
   1  -1   6  279.96    7.82
  -1  -1  -6  285.29    8.13
  -1  -1  -6  282.57    7.85
  -1  -1  -6  280.36    8.36
   1  -1   6  283.44    7.78
  -1  -1  -6  290.08    7.81
  -1   1  -6  286.40    7.83
  -1   1  -6  290.30    8.01
   1   1   6  281.32    7.81
   1   1   6  288.85    7.80
  -1   1  -6  287.54    7.79
  -2  -1  -6    1.02    0.26
   2  -1   6    1.51    0.27
   2  -1   6    1.17    0.34
  -2  -1  -6    1.68    0.64
  -2  -1  -6    0.92    0.85
  -2  -1  -6    1.05    0.36
  -2   1  -6    1.35    0.34
   2   1   6    0.79    0.31
  -2   1  -6    1.23    0.50
   2   1   6    1.12    0.32
  -2   1  -6    0.96    0.26
  -3  -1  -6    6.71    0.47
  -3  -1  -6    4.87    1.09
  -3  -1  -6    6.88    0.71
  -3  -1  -6    5.79    0.41
   3  -1   6    5.92    0.38
   3  -1   6    5.57    0.44
  -3   1  -6    5.16    0.63
   3   1   6    6.40    0.46
   3   1   6    5.60    0.45
  -3   1  -6    6.70    0.85
  -3   1  -6    6.78    0.46
  -3   1  -6    6.42    0.39
   4  -1   6   38.53    1.15
  -4  -1  -6   39.62    1.24
  -4  -1  -6   39.79    1.77
   4  -1   6   39.03    1.13
  -4  -1  -6   39.80    2.32
  -4  -1  -6   39.36    1.23
  -4   1  -6   41.45    1.57
  -4   1  -6   36.76    1.86
  -4   1  -6   38.22    1.16
   4   1   6   40.42    1.22
  -4   1  -6   40.26    1.19
  -5  -1  -6  163.90    4.56
  -5  -1  -6  159.41    5.06
  -5  -1  -6  166.62    5.70
  -5   1  -6  163.15    4.50
  -5   1  -6  178.09    4.58
  -5   1  -6  165.34    5.44
   5   1   6  164.28    4.55
   6  -1   6    5.02    0.40
  -6  -1  -6    6.12    1.12
  -6  -1  -6    5.69    0.50
  -6   1  -6    4.55    1.11
   6   1   6    4.81    0.44
  -6   1  -6    5.49    0.47
  -7  -1  -6   -0.04    1.21
  -7  -1  -6    0.51    0.31
  -7   1  -6    0.19    0.34
  -7   1  -6   -1.06    0.94
   7   1   6   -0.03    0.61
 -10  -2   6  104.19    4.35
  10  -2  -6  108.14    4.70
 -10  -2   6  102.27    5.18
  10  -2  -6  112.19    4.41
 -10   2   6  118.86    4.77
  10   2  -6  105.85    4.05
  10   2  -6  113.16    4.44
 -10   2   6  101.99    4.22
   9  -2  -6   22.53    2.14
  -9  -2   6   21.68    1.89
  -9  -2   6   26.97    2.47
   9  -2  -6   25.01    2.22
  -9   2   6   23.60    2.32
  -9   2   6   24.76    2.05
   9   2  -6   25.95    1.67
   9   2  -6   25.05    2.03
  -8  -2   6   39.92    2.43
  -8  -2   6   44.73    3.51
   8  -2  -6   34.13    2.28
   8  -2  -6   39.88    2.45
  -8  -2   6   42.19    2.41
   8   2  -6   35.82    1.93
   8   2  -6   39.17    2.12
  -8   2   6   36.90    2.24
  -8   2   6   39.04    2.46
   8   2  -6   39.78    2.43
   7  -2  -6   25.46    2.07
   7  -2  -6   30.38    2.39
   7  -2  -6   27.23    1.91
  -7  -2   6   25.91    1.74
  -7  -2   6   36.01    2.88
  -7  -2   6   27.98    1.75
  -7  -2   6   28.49    2.17
   7   2  -6   29.31    1.76
  -7   2   6   26.94    1.73
   7   2  -6   29.81    2.08
   7   2  -6   27.08    1.64
  -7   2   6   29.85    1.81
   6  -2  -6  122.77    4.14
  -6  -2   6  124.71    4.12
  -6  -2   6  118.17    4.35
   6  -2  -6  126.60    4.20
   6  -2  -6  124.49    4.50
  -6  -2   6  122.33    4.17
  -6   2   6  116.59    4.26
   6   2  -6  130.20    4.23
   6   2  -6  120.79    4.27
  -6   2   6  124.94    4.27
   6   2  -6  124.89    4.20
   5  -2  -6   63.57    2.71
  -5  -2   6   61.66    2.48
   5  -2  -6   62.29    2.89
   5  -2  -6   64.27    2.65
  -5  -2   6   63.91    2.62
  -5  -2   6   57.38    2.50
   5   2  -6   62.48    2.65
   5   2  -6   61.21    2.71
  -5   2   6   62.80    2.73
  -5   2   6   67.04    2.67
   5   2  -6   65.15    2.62
   4  -2  -6  129.47    4.47
  -4  -2   6  130.69    4.43
  -4  -2   6  136.47    4.28
   4  -2  -6  131.71    4.33
   4  -2  -6  132.49    4.33
   4   2  -6  129.04    4.29
   4   2  -6  129.41    4.23
  -4   2   6  137.87    4.28
  -4   2   6  134.79    4.30
   4   2  -6  133.87    4.21
   3  -2  -6   58.30    2.32
  -3  -2   6   54.14    2.26
   3  -2  -6   58.52    2.32
   3  -2  -6   62.34    2.33
  -3  -2   6   52.86    2.07
   3   2  -6   57.00    2.22
  -3   2   6   56.32    2.36
   3   2  -6   58.32    2.27
   3   2  -6   56.58    2.20
  -2  -2   6   13.00    0.84
   2   2  -6   14.84    0.86
   1  -2  -6    0.07    0.54
   1  -2  -6    0.33    0.55
   1  -2  -6   -0.72    0.54
  -1  -2   6    0.11    0.69
   1  -2  -6   -0.21    0.42
  -1  -2   6    0.47    0.35
   1   2  -6    0.23    0.35
   1   2  -6    0.73    0.47
   1   2  -6   -0.10    0.65
  -1   2   6   -0.28    0.57
   0  -2  -6   68.28    2.78
   0  -2  -6   71.14    2.32
   0  -2   6   72.23    2.47
   0  -2  -6   68.37    2.58
   0   2  -6   71.36    2.45
   0   2  -6   69.95    2.56
   0   2   6   69.43    2.38
  -1  -2  -6  118.95    3.53
  -1  -2  -6  115.66    3.55
  -1  -2  -6  115.93    3.97
  -1  -2  -6  119.66    3.48
  -1  -2  -6  118.19    3.91
   1  -2   6  114.74    3.56
  -1   2  -6  115.73    3.48
   1   2   6  115.58    3.52
  -1   2  -6  116.88    3.69
  -1   2  -6  119.63    3.57
  -2  -2  -6    2.79    0.33
  -2  -2  -6    2.44    0.46
   2  -2   6    0.85    0.57
  -2  -2  -6    0.70    0.94
  -2  -2  -6    1.43    0.41
   2  -2   6    1.63    0.37
  -2  -2  -6    1.93    0.79
  -2   2  -6    1.58    0.54
  -2   2  -6    2.00    0.67
   2   2   6    2.28    0.52
  -2   2  -6    1.76    0.42
  -3  -2  -6    2.29    0.61
  -3  -2  -6    1.95    0.78
  -3  -2  -6    2.06    0.45
   3  -2   6    1.57    0.51
   3   2   6    2.54    0.48
  -3   2  -6    1.90    0.68
  -3   2  -6    1.56    0.46
  -4  -2  -6   13.33    0.81
  -4  -2  -6   11.69    1.17
  -4  -2  -6   12.78    1.53
  -4   2  -6   12.75    0.79
  -4   2  -6   13.46    1.15
   4   2   6   13.40    0.76
  -5  -2  -6    6.26    0.96
  -5  -2  -6    4.36    0.53
  -5  -2  -6    6.79    1.13
   5   2   6    5.15    0.56
  -5   2  -6    7.05    0.57
   6  -2   6   30.20    1.28
  -6  -2  -6   28.72    1.25
  -6  -2  -6   26.26    2.37
  -6  -2  -6   30.55    1.78
  -6   2  -6   28.97    1.87
  -6   2  -6   28.56    1.21
   6   2   6   30.11    1.28
  -7  -2  -6    5.66    0.64
  -7  -2  -6    4.89    1.55
   7  -2   6    4.86    0.61
  -7   2  -6    4.60    0.59
   7   2   6    5.46    0.65
 -10  -3   6    6.20    1.83
 -10  -3   6    4.45    2.24
  10  -3  -6    5.11    1.36
 -10  -3   6    2.33    0.96
  10  -3  -6    2.19    1.40
  10   3  -6    3.17    0.84
  10   3  -6    3.36    1.06
 -10   3   6    4.41    1.14
   9  -3  -6    2.86    1.20
  -9  -3   6    1.93    2.04
  -9  -3   6    3.10    0.96
   9  -3  -6    1.12    1.21
   9   3  -6    1.97    1.24
  -9   3   6    2.04    1.41
   9   3  -6    3.13    1.04
  -9   3   6    3.03    1.32
  -8  -3   6    1.79    1.86
  -8  -3   6   -0.46    1.02
   8  -3  -6    0.07    0.82
   8  -3  -6    1.76    1.39
  -8   3   6    0.93    1.14
  -8   3   6   -0.64    0.67
   8   3  -6   -0.31    1.05
   8   3  -6    0.59    0.90
  -7  -3   6   51.28    2.60
  -7  -3   6   50.41    3.09
   7  -3  -6   49.54    2.46
   7  -3  -6   49.21    2.39
   7  -3  -6   50.54    2.93
   7   3  -6   45.51    2.59
  -7   3   6   50.53    2.59
   7   3  -6   45.66    2.38
   7   3  -6   45.41    2.52
  -7   3   6   51.87    2.65
   6  -3  -6    0.84    0.73
  -6  -3   6   -0.46    0.90
   6  -3  -6    4.21    1.30
   6  -3  -6    2.67    0.75
  -6   3   6    2.58    0.81
   6   3  -6    1.96    0.75
   6   3  -6    1.84    0.80
   6   3  -6    1.68    0.69
  -6   3   6    4.09    1.10
  -5  -3   6   54.79    2.69
   5  -3  -6   51.11    2.44
   5  -3  -6   51.50    2.42
  -5  -3   6   48.75    2.34
   5  -3  -6   47.62    2.70
  -5   3   6   48.76    2.25
  -5   3   6   48.26    2.22
   5   3  -6   49.02    2.16
   5   3  -6   52.26    2.32
   5   3  -6   45.08    2.17
  -4  -3   6   47.87    2.01
   4  -3  -6   47.37    2.24
   4  -3  -6   43.02    2.18
   4  -3  -6   44.18    2.16
  -4  -3   6   44.98    2.47
   4   3  -6   44.49    2.16
  -4   3   6   45.50    2.11
   4   3  -6   48.53    2.24
   4   3  -6   45.83    2.13
  -3  -3   6  146.41    4.58
  -3  -3   6  148.33    4.81
   3  -3  -6  154.83    4.68
   3  -3  -6  142.16    4.65
   3  -3  -6  151.44    4.72
   3   3  -6  150.32    4.59
   3   3  -6  150.59    4.74
   3   3  -6  139.23    4.74
  -3   3   6  134.33    4.58
   2  -3  -6   20.72    1.62
  -2  -3   6   19.20    1.20
   2  -3  -6   19.52    1.39
  -2  -3   6   20.92    1.51
   2  -3  -6   18.46    1.32
   2  -3  -6   22.19    1.47
   2   3  -6   21.09    1.24
   2   3  -6   19.86    1.59
  -2   3   6   18.95    1.54
   2   3  -6   19.31    1.31
   1  -3  -6   25.19    1.71
   1  -3  -6   23.44    1.44
   1  -3  -6   21.85    1.30
  -1  -3   6   22.72    1.06
  -1  -3   6   24.32    1.70
   1  -3  -6   25.03    1.46
   1   3  -6   22.17    1.16
   1   3  -6   22.95    1.34
  -1   3   6   24.87    1.51
   1   3  -6   24.07    1.60
   0  -3  -6   68.47    2.35
   0  -3  -6   68.59    2.86
   0  -3  -6   69.88    2.71
   0  -3   6   70.05    2.65
   0  -3  -6   69.96    2.52
   0  -3  -6   70.60    2.32
   0   3  -6   72.11    2.50
   0   3   6   70.32    2.46
   0   3  -6   70.82    2.21
   0   3  -6   70.25    2.58
  -1  -3  -6   36.64    1.64
  -1  -3  -6   38.45    2.16
  -1  -3  -6   38.44    1.87
  -1   3  -6   38.47    1.93
   1   3   6   36.17    1.67
  -1   3  -6   38.32    1.72
  -2  -3  -6   77.38    2.64
  -2  -3  -6   80.56    3.10
  -2  -3  -6   78.38    3.28
   2  -3   6   76.65    2.37
  -2  -3  -6   76.22    2.39
  -2   3  -6   78.00    2.92
   2   3   6   78.64    2.66
  -2   3  -6   79.95    2.67
  -3  -3  -6   34.42    1.80
  -3  -3  -6   32.93    1.49
  -3  -3  -6   34.15    2.03
  -3   3  -6   35.13    1.85
   3   3   6   35.76    1.64
  -3   3  -6   34.51    1.52
  -4  -3  -6    3.88    1.01
  -4  -3  -6    3.03    0.57
  -4  -3  -6    3.34    1.01
  -4   3  -6    3.41    0.68
  -4   3  -6    3.18    0.87
   4   3   6    3.29    0.61
   5  -3   6    6.24    0.70
  -5   3  -6    5.10    0.68
  -5   3  -6    5.60    0.94
   5   3   6    6.49    0.71
   6  -3   6   68.01    2.43
  -6  -3  -6   64.78    3.24
  -6  -3  -6   63.82    2.95
  -6  -3  -6   69.35    2.48
   6   3   6   69.63    2.51
  -6   3  -6   66.81    2.36
  -7  -3  -6    4.69    1.13
  -7  -3  -6    5.31    0.73
   7  -3   6    4.64    0.73
  -7  -3  -6    4.91    1.26
   7   3   6    6.14    0.79
  -7   3  -6    4.25    0.69
  -9  -4   6    8.50    1.95
  -9  -4   6    7.97    2.29
  -9  -4   6    8.52    1.52
   9  -4  -6    7.15    1.23
   9   4  -6    7.12    1.47
   9   4  -6    7.93    1.27
  -9   4   6   11.61    1.71
   8  -4  -6    7.59    1.44
  -8  -4   6    7.26    1.42
  -8  -4   6    8.19    2.13
  -8  -4   6    8.00    1.22
  -8   4   6    8.34    1.54
   8   4  -6    6.81    1.42
   8   4  -6    6.80    1.23
   7  -4  -6   19.04    1.75
  -7  -4   6   19.51    1.86
  -7  -4   6   18.34    1.65
  -7  -4   6   19.77    2.51
   7  -4  -6   20.77    1.70
  -7   4   6   23.70    2.05
   7   4  -6   18.42    1.53
   7   4  -6   18.91    1.74
  -7   4   6   19.97    1.70
   7   4  -6   20.42    1.69
   6  -4  -6    6.58    0.99
   6  -4  -6    5.08    1.20
  -6  -4   6    5.55    1.47
  -6  -4   6    5.63    1.20
  -6  -4   6    5.67    1.50
   6   4  -6    5.31    0.96
   6   4  -6    7.78    1.20
   6   4  -6    7.00    1.06
  -6   4   6    6.30    1.07
  -6   4   6    5.53    1.22
  -5  -4   6   47.45    2.91
   5  -4  -6   51.61    2.50
  -5  -4   6   46.04    2.45
   5  -4  -6   47.53    2.51
  -5   4   6   52.77    2.37
   5   4  -6   50.72    2.46
   5   4  -6   53.11    2.42
   5   4  -6   47.33    2.28
   4  -4  -6    2.05    0.75
   4  -4  -6    2.13    0.74
  -4  -4   6    2.00    0.69
   4   4  -6    2.22    0.92
   4   4  -6    2.51    1.13
  -4   4   6    1.91    1.04
   4   4  -6    2.25    0.98
   3  -4  -6   62.40    2.62
   3  -4  -6   60.36    2.50
  -3  -4   6   61.15    2.50
   3  -4  -6   59.50    2.43
   3   4  -6   58.75    2.66
  -3   4   6   60.25    2.73
   3   4  -6   62.10    2.79
   3   4  -6   63.67    2.55
   2  -4  -6   13.53    1.26
  -2  -4   6   13.37    1.00
   1  -4  -6  108.44    3.66
  -1  -4   6  105.21    3.68
  -1  -4   6  111.03    3.50
   1  -4  -6  109.35    3.99
   1  -4  -6  109.54    3.62
   1  -4  -6  107.80    3.65
   1  -4  -6  116.01    3.90
   1   4  -6  106.90    3.75
  -1   4   6  104.41    3.64
   1   4  -6  113.05    3.52
   1   4  -6  108.36    3.83
   0  -4  -6   59.27    2.57
   0  -4  -6   67.36    2.91
   0  -4  -6   66.36    2.72
   0  -4  -6   64.01    2.45
   0  -4   6   69.56    2.52
   0  -4  -6   64.75    2.59
   0   4   6   67.13    2.51
   0   4  -6   68.74    2.70
   0   4  -6   72.20    2.85
   1  -4   6    6.68    0.73
  -1  -4  -6    5.65    0.97
  -1  -4  -6    7.32    0.92
  -1  -4  -6    7.69    1.24
  -1   4  -6    5.83    0.96
   1   4   6    7.87    0.98
  -1   4  -6    7.66    1.12
  -2  -4  -6    5.23    1.00
  -2  -4  -6    5.96    0.98
  -2  -4  -6    5.66    0.86
  -2   4  -6    5.56    0.75
   2   4   6    5.61    0.71
  -3  -4  -6  151.40    5.17
  -3  -4  -6  157.46    5.50
  -3  -4  -6  153.59    4.81
  -3   4  -6  151.97    4.80
  -3   4  -6  156.65    5.00
   3   4   6  150.76    4.80
  -4  -4  -6   97.11    3.85
  -4  -4  -6   93.93    4.08
  -4  -4  -6  101.48    3.31
  -4   4  -6   96.25    3.61
  -4   4  -6   93.95    3.25
   4   4   6   85.67    3.24
  -5  -4  -6    2.17    0.71
  -5  -4  -6    1.84    1.00
   5  -4   6    0.00    0.68
  -5  -4  -6    1.90    0.84
  -5   4  -6   -0.07    0.65
  -5   4  -6    3.20    1.04
   5   4   6   -0.85    0.61
  -6  -4  -6    5.31    1.06
   6  -4   6    4.84    0.87
  -6  -4  -6    6.74    1.69
  -6  -4  -6    4.15    0.81
   6   4   6    3.43    0.94
  -6   4  -6    4.19    0.83
  -8  -5   6   77.36    4.38
  -8  -5   6   73.28    3.61
  -8  -5   6   70.03    4.11
   8  -5  -6   80.73    3.71
   8   5  -6   76.54    3.69
   8   5  -6   75.43    3.29
  -8   5   6   79.13    3.75
  -7  -5   6    0.92    1.15
  -7  -5   6    0.41    1.31
  -7  -5   6   -0.38    1.47
   7  -5  -6    0.81    1.20
  -7   5   6   -0.83    1.04
   7   5  -6    0.13    0.85
   7   5  -6   -1.09    0.96
  -7   5   6    0.03    0.90
   6  -5  -6   31.33    1.94
  -6  -5   6   30.57    2.31
   6  -5  -6   33.87    2.40
  -6  -5   6   31.78    2.61
  -6  -5   6   33.35    2.02
   6   5  -6   32.63    2.11
   6   5  -6   29.42    2.35
   6   5  -6   34.05    2.19
  -6   5   6   35.45    2.42
  -5  -5   6    3.12    1.68
  -5  -5   6    0.88    0.70
  -5  -5   6    0.83    0.98
   5  -5  -6    1.51    1.04
   5  -5  -6    1.12    1.08
  -5   5   6    0.32    0.78
   5   5  -6    0.47    1.14
   5   5  -6    0.63    0.75
   5   5  -6    1.38    1.01
  -4  -5   6  126.07    4.65
  -4  -5   6  133.56    4.57
  -4  -5   6  137.43    5.24
   4  -5  -6  126.02    4.44
   4  -5  -6  132.67    4.53
   4   5  -6  133.08    4.50
  -4   5   6  132.69    4.69
   4   5  -6  125.63    4.42
   4   5  -6  132.40    4.60
   3  -5  -6   19.92    1.56
  -3  -5   6   23.49    2.19
  -3  -5   6   25.72    1.81
  -3  -5   6   28.84    1.78
   3  -5  -6   30.14    2.00
   3  -5  -6   29.14    2.05
  -3   5   6   24.52    1.72
   3   5  -6   23.52    1.98
   3   5  -6   30.37    1.83
   3   5  -6   30.21    1.86
   2  -5  -6   14.68    1.20
   2  -5  -6   11.72    1.34
   2  -5  -6   11.01    1.27
  -2  -5   6   13.42    1.18
  -2  -5   6   14.31    1.26
   2   5  -6   10.03    1.42
   2   5  -6   12.04    1.14
  -2   5   6   12.37    1.39
   2   5  -6   13.97    1.45
   1  -5  -6    5.13    1.23
   1  -5  -6    5.01    0.85
  -1  -5   6    5.57    1.02
   1  -5  -6    3.47    1.02
   1  -5  -6    6.48    0.98
   1   5  -6    5.03    1.15
   1   5  -6    4.46    1.15
   1   5  -6    4.33    0.96
  -1   5   6    4.45    1.08
   0  -5  -6   47.86    2.57
   0  -5  -6   43.86    2.08
   0  -5  -6   44.36    2.07
   0  -5  -6   44.09    2.38
   0  -5   6   42.14    1.99
   0   5   6   40.33    2.05
   0   5  -6   47.44    2.24
   0   5  -6   48.06    2.40
  -1  -5  -6   29.45    1.95
  -1  -5  -6   31.93    1.70
   1  -5   6   31.50    1.50
  -1  -5  -6   26.42    1.85
  -1   5  -6   33.08    2.00
   1   5   6   32.15    1.71
  -1   5  -6   32.63    2.14
  -2  -5  -6   11.11    1.18
  -2  -5  -6   11.05    1.52
  -2   5  -6   10.71    1.27
   2   5   6   10.03    1.19
  -2   5  -6   11.25    1.22
  -3  -5  -6    8.48    1.50
  -3  -5  -6    8.01    0.93
  -3  -5  -6    8.79    1.57
   3   5   6    8.24    1.12
  -3   5  -6    8.67    1.15
  -3   5  -6   10.18    1.20
   4  -5   6   70.76    2.93
  -4  -5  -6   71.44    3.24
  -4  -5  -6   72.77    2.91
  -4  -5  -6   68.94    3.34
  -4   5  -6   70.23    3.01
  -4   5  -6   71.05    2.92
   4   5   6   75.56    2.97
   5  -5   6   14.78    1.37
  -5  -5  -6   13.60    1.91
  -5  -5  -6   13.75    1.22
  -5  -5  -6   16.70    1.90
  -5   5  -6   15.63    1.39
   5   5   6   13.59    1.34
   7  -6  -6   28.26    2.31
  -7  -6   6   29.65    2.35
  -7  -6   6   31.48    2.55
  -7  -6   6   27.56    2.85
   7   6  -6   28.35    1.95
  -7   6   6   26.09    2.36
   7   6  -6   27.62    2.15
   6  -6  -6   14.95    1.75
  -6  -6   6   15.80    1.57
   6  -6  -6   12.68    1.75
  -6  -6   6   18.80    2.32
  -6  -6   6   17.31    2.17
  -6   6   6   13.40    1.70
   6   6  -6   15.51    1.63
   6   6  -6   14.53    1.77
   6   6  -6   16.12    1.72
  -5  -6   6   74.72    3.72
  -5  -6   6   80.09    3.97
  -5  -6   6   81.69    3.40
   5  -6  -6   85.16    3.66
   5  -6  -6   84.18    3.61
  -5   6   6   81.75    3.44
   5   6  -6   85.87    3.60
   5   6  -6   88.60    3.85
   5   6  -6   82.21    3.64
  -4  -6   6    6.00    1.21
   4  -6  -6    5.64    1.35
   4  -6  -6    6.08    1.31
   4  -6  -6    2.85    0.92
  -4  -6   6    3.37    1.60
  -4  -6   6    4.72    1.17
  -4   6   6    2.16    1.23
   4   6  -6    3.02    0.88
   4   6  -6    4.31    1.02
   4   6  -6    4.79    1.11
   3  -6  -6    7.36    1.30
   3  -6  -6    7.63    1.46
  -3  -6   6    7.64    1.55
  -3  -6   6   10.61    1.52
   3  -6  -6    7.20    1.10
   3   6  -6    8.90    1.05
   3   6  -6    8.10    1.49
  -3   6   6    9.32    1.46
   3   6  -6    8.20    1.40
   2  -6  -6    1.02    0.78
  -2  -6   6    1.34    1.06
  -2  -6   6    2.52    1.21
   2  -6  -6   -0.32    0.81
   2  -6  -6    0.18    0.93
   2   6  -6   -0.23    1.16
   2   6  -6   -1.06    0.79
   2   6  -6    0.79    0.81
  -2   6   6   -0.28    1.05
   1  -6  -6   50.07    2.56
   1  -6  -6   48.48    2.44
  -1  -6   6   47.51    2.54
  -1  -6   6   50.84    2.42
   1  -6  -6   44.58    2.54
   1   6  -6   47.72    2.72
   1   6  -6   50.50    2.74
  -1   6   6   50.27    2.66
   0  -6  -6    0.57    0.97
   0  -6  -6    1.07    1.21
   0  -6  -6    0.67    0.97
   0  -6   6    0.64    0.56
   0   6   6    1.48    1.04
   0   6  -6   -0.20    1.07
   0   6  -6    0.30    1.07
  -1  -6  -6    7.25    1.22
  -1  -6  -6    6.57    1.00
  -1  -6  -6    7.49    1.35
  -1   6  -6    3.41    1.29
  -1   6  -6    5.92    1.29
   1   6   6    6.70    1.02
  -2  -6  -6    0.31    1.26
   2  -6   6    0.48    0.77
  -2  -6  -6   -0.39    0.90
  -2  -6  -6   -0.09    1.13
  -2   6  -6    0.75    0.85
  -2   6  -6   -0.11    0.98
   2   6   6    0.12    0.96
  -3  -6  -6   36.29    2.68
  -3  -6  -6   36.59    2.42
   3  -6   6   38.09    2.37
  -3  -6  -6   38.42    2.22
   3   6   6   30.91    2.23
  -3   6  -6   38.16    2.58
  -3   6  -6   34.13    2.29
  -4  -6  -6    1.13    1.39
   4  -6   6    2.19    1.15
  -4  -6  -6    2.61    1.04
  -4  -6  -6    2.14    1.48
  -4   6  -6    0.15    0.85
  -4   6  -6    3.17    1.16
   4   6   6    2.68    1.09
   5  -7  -6    4.59    1.16
   5  -7  -6    5.41    1.13
  -5  -7   6    2.06    1.20
  -5  -7   6    2.01    1.27
  -5  -7   6    2.55    1.59
   5   7  -6    1.49    1.12
   5   7  -6    2.81    1.04
  -5   7   6    3.51    1.44
   5   7  -6    2.34    1.01
   4  -7  -6   59.88    2.97
   4  -7  -6   57.56    3.15
  -4  -7   6   62.23    3.35
   4  -7  -6   59.27    2.93
  -4  -7   6   58.29    3.38
   4   7  -6   63.23    3.16
   4   7  -6   55.16    3.40
   4   7  -6   58.99    2.90
  -4   7   6   65.71    3.35
  -3  -7   6   -1.53    1.16
  -3  -7   6   -0.28    1.16
   3  -7  -6    0.66    0.89
   3  -7  -6    1.14    0.86
   3  -7  -6    1.55    1.27
  -3   7   6    1.09    1.25
   3   7  -6    0.47    0.88
   3   7  -6   -0.70    0.94
   2  -7  -6    1.43    0.98
  -2  -7   6    4.36    1.23
   2  -7  -6    3.76    1.26
   2   7  -6    2.86    1.00
  -2   7   6    3.34    1.34
   2   7  -6    1.70    1.39
  -1  -7   6    0.76    1.00
   1  -7  -6    0.47    1.12
   1  -7  -6   -0.67    0.87
  -1   7   6    0.56    0.83
   1   7  -6   -0.73    1.20
   1   7  -6   -1.43    0.85
   0  -7  -6   60.35    3.11
   0  -7  -6   63.31    3.47
   0  -7   6   65.90    3.29
   0  -7  -6   61.22    2.82
   0   7   6   63.41    3.19
   0   7  -6   55.40    3.18
   0   7  -6   66.79    3.34
   1  -7   6    1.97    1.34
  -1  -7  -6    2.53    1.23
  -1  -7  -6    2.53    0.96
  -1  -7  -6    2.52    1.10
  -1   7  -6    1.85    1.01
  -1   7  -6    0.41    1.29
   1   7   6    2.39    1.24
  -2  -7  -6   23.20    2.15
  -2  -7  -6   24.25    1.82
   2  -7   6   21.07    1.98
  -2  -7  -6   22.65    2.11
  -2   7  -6   24.95    2.12
  -2   7  -6   24.87    2.05
   2   7   6   20.55    1.80
 -10   0   7    0.31    1.33
 -10   0   7   -1.19    0.83
  10   0  -7   -1.22    1.11
 -10   0   7    0.63    0.85
  10   0  -7    0.56    0.89
  10   0  -7   -0.57    1.05
   9   0  -7   36.13    2.51
  -9   0   7   38.57    2.61
   9   0  -7   38.92    2.16
   9   0  -7   41.29    2.75
  -9   0   7   38.15    2.45
  -9   0   7   36.47    2.45
  -9   0   7   42.80    2.94
  -8   0   7    1.21    1.12
   8   0  -7    0.51    0.70
  -8   0   7    0.57    1.06
  -8   0   7    1.78    0.77
   8   0  -7    0.47    1.02
   8   0  -7    0.12    1.03
   8   0  -7   -1.15    1.03
   7   0  -7  179.41    5.66
   7   0  -7  174.17    5.65
   7   0  -7  174.84    5.62
  -7   0   7  165.65    5.50
  -7   0   7  170.18    5.53
   7   0  -7  170.45    5.62
  -7   0   7  167.08    5.49
  -6   0   7    0.04    0.83
   6   0  -7   -0.30    0.63
   6   0  -7    0.33    0.93
  -6   0   7    1.00    1.02
   6   0  -7   -0.15    0.61
   6   0  -7   -0.01    0.68
  -6   0   7    0.01    0.86
   5   0  -7   -0.14    0.68
   5   0  -7    1.05    0.59
  -5   0   7   -0.09    1.00
   5   0  -7   -0.24    0.89
  -5   0   7    0.58    0.78
  -5   0   7    0.54    0.57
   5   0  -7   -0.08    0.61
   4   0  -7    0.00    0.68
  -4   0   7    0.11    0.47
  -4   0   7   -0.12    0.62
   4   0  -7   -0.78    0.57
   4   0  -7    0.14    0.55
  -4   0   7   -0.40    0.44
   3   0  -7  364.19    9.99
  -3   0   7  364.11    9.90
   3   0  -7  351.66   10.13
  -3   0   7  341.76    9.95
   3   0  -7  354.99   10.11
  -3   0   7  362.94   10.12
  -2   0   7    0.15    0.42
  -2   0   7    0.53    0.70
   2   0  -7   -0.56    0.40
  -2   0   7    0.41    0.43
   2   0  -7   -0.43    0.44
   2   0  -7   -0.95    0.63
  -1   0   7  107.73    3.20
  -1   0   7  109.85    3.46
   1   0  -7  110.06    3.14
   1   0  -7  112.20    3.47
   1   0  -7  108.77    3.54
   0   0   7   -0.13    0.46
   0   0  -7    0.31    0.39
   0   0   7    0.00    0.22
   0   0  -7    0.51    0.54
   0   0  -7   -0.18    0.44
   1   0   7  125.38    3.66
  -1   0  -7  130.19    3.70
  -1   0  -7  127.22    3.83
  -1   0  -7  123.89    3.68
   1   0   7  126.46    3.69
  -2   0  -7    0.22    0.30
  -2   0  -7    0.58    0.89
   2   0   7   -0.42    0.34
   2   0   7    0.15    0.26
  -2   0  -7   -0.55    0.25
  -2   0  -7   -0.18    0.39
  -3   0  -7  100.18    2.79
   3   0   7   95.43    2.77
  -3   0  -7   95.64    2.78
  -3   0  -7  113.94    3.88
  -3   0  -7   91.93    2.98
   3   0   7  103.42    2.85
  -4   0  -7    0.08    0.13
  -4   0  -7    0.05    0.13
  -4   0  -7    0.37    0.71
  -5   0  -7   -0.70    0.68
  -6   0  -7    0.45    1.11
  -7   0  -7   17.47    1.70
  10  -1  -7   11.93    1.74
  10  -1  -7   12.44    1.65
 -10  -1   7   12.02    1.90
 -10  -1   7   12.45    1.43
  10   1  -7   13.16    1.65
 -10   1   7   16.10    2.28
 -10   1   7   10.29    1.70
 -10   1   7    7.34    1.45
  -9  -1   7    1.46    1.23
  -9  -1   7    2.25    1.17
   9  -1  -7    1.23    1.18
  -9  -1   7    2.46    1.26
  -9  -1   7    3.15    2.05
   9  -1  -7    3.92    1.34
  -9   1   7    3.46    1.21
   9   1  -7    3.30    1.25
   9   1  -7    2.31    1.14
   9   1  -7    3.78    0.97
  -9   1   7    0.76    1.34
  -9   1   7    3.29    1.02
  -8  -1   7   69.11    3.09
  -8  -1   7   68.61    3.12
  -8  -1   7   64.85    3.05
   8  -1  -7   64.31    2.77
   8  -1  -7   61.56    2.84
   8  -1  -7   63.24    2.99
  -8   1   7   66.90    3.05
   8   1  -7   67.85    2.88
   8   1  -7   66.07    3.01
  -8   1   7   67.25    2.91
   8   1  -7   65.69    2.78
  -8   1   7   65.93    3.04
  -7  -1   7  114.52    4.05
   7  -1  -7  110.74    3.97
  -7  -1   7  113.46    4.03
   7  -1  -7  114.76    4.16
  -7  -1   7  111.78    3.97
   7  -1  -7  111.69    4.16
   7   1  -7  113.10    3.98
   7   1  -7  119.67    4.20
  -7   1   7  113.06    4.00
  -7   1   7  114.11    4.14
  -7   1   7  109.53    4.12
   7   1  -7  117.93    4.18
   6  -1  -7   68.96    3.26
   6  -1  -7   76.73    2.96
  -6  -1   7   80.50    2.98
  -6  -1   7   80.11    3.28
  -6  -1   7   76.71    2.89
   6  -1  -7   73.70    2.93
   6   1  -7   74.75    3.08
   6   1  -7   73.84    3.10
  -6   1   7   79.59    3.22
  -6   1   7   73.65    3.05
  -6   1   7   76.94    3.07
   6   1  -7   73.01    2.96
  -5  -1   7    9.12    1.28
   5  -1  -7    9.63    1.05
   5  -1  -7    7.66    1.11
  -5  -1   7    8.54    1.08
  -5  -1   7   10.12    1.07
   5  -1  -7    9.58    1.26
   5   1  -7    9.60    1.19
   5   1  -7   11.09    1.11
  -5   1   7   11.81    1.06
  -5   1   7    9.96    0.99
  -5   1   7    8.02    1.23
   5   1  -7    8.53    0.95
  -4  -1   7   87.27    2.93
   4  -1  -7   83.82    3.02
  -4  -1   7   87.40    3.25
  -4  -1   7   85.75    3.03
   4  -1  -7   84.15    3.07
   4  -1  -7   81.75    3.26
   4   1  -7   84.34    3.15
  -4   1   7   81.02    2.87
  -4   1   7   83.12    2.94
   4   1  -7   85.57    3.04
   4   1  -7   83.89    3.19
  -4   1   7   84.71    3.04
   3  -1  -7   17.05    1.46
   3  -1  -7   16.40    1.42
   3  -1  -7   13.32    1.19
  -3  -1   7   15.98    1.00
  -3  -1   7   16.36    1.08
   3  -1  -7   15.92    1.30
  -3  -1   7   17.02    1.30
  -3   1   7   15.38    1.20
  -3   1   7   16.45    1.28
   3   1  -7   16.38    1.46
   3   1  -7   17.33    1.30
   3   1  -7   14.14    1.20
  -3   1   7   14.99    1.03
  -2  -1   7    3.54    0.54
  -2  -1   7    3.73    0.49
  -2  -1   7    1.39    0.80
   2  -1  -7    4.29    0.82
   2  -1  -7    2.78    0.72
   2  -1  -7    3.13    0.59
  -2   1   7    3.29    0.59
  -2   1   7    3.07    0.78
   2   1  -7    3.86    0.67
  -2   1   7    3.78    0.63
   2   1  -7    2.89    0.52
   2   1  -7    2.62    0.61
  -1  -1   7   14.47    1.07
   1  -1  -7   13.63    1.16
   1  -1  -7   14.74    0.79
   1  -1  -7   14.09    1.10
   1   1  -7   15.76    0.75
   1   1  -7   12.79    1.15
   1   1  -7   15.32    1.28
  -1   1   7   14.94    1.17
   0  -1  -7  206.94    5.95
   0  -1  -7  208.64    6.01
   0  -1   7  205.39    5.97
   0   1  -7  211.76    5.99
   0   1  -7  201.31    6.05
   0   1   7  214.20    5.96
   0   1  -7  208.94    6.11
  -1  -1  -7    0.59    0.92
  -1  -1  -7    0.33    0.46
   1  -1   7   -0.26    0.43
   1  -1   7    0.18    0.38
  -1  -1  -7    0.71    0.41
  -1   1  -7   -0.19    0.53
  -1   1  -7    0.36    0.32
   1   1   7   -0.11    0.38
  -1   1  -7    0.46    0.42
   1   1   7   -0.31    0.35
  -2  -1  -7    1.28    0.42
  -2  -1  -7    1.64    0.35
   2  -1   7    2.84    0.47
  -2  -1  -7    1.89    0.75
  -2  -1  -7    1.78    0.74
  -2   1  -7    2.32    0.49
  -2   1  -7    2.25    0.46
   2   1   7    2.19    0.43
  -2   1  -7    2.36    0.33
  -3  -1  -7   11.79    0.65
  -3  -1  -7   13.10    1.31
   3  -1   7   14.32    0.70
  -3  -1  -7   16.68    1.23
  -3   1  -7   11.16    0.59
   3   1   7   10.51    0.66
  -3   1  -7   16.62    1.04
  -4  -1  -7   48.85    1.55
  -4  -1  -7   53.01    2.14
  -4  -1  -7   53.76    2.75
   4  -1   7   48.81    1.51
  -4   1  -7   47.44    1.52
  -4   1  -7   48.06    1.87
   4   1   7   48.87    1.54
  -4   1  -7   53.90    2.51
  -5  -1  -7    3.43    0.98
   5  -1   7    3.64    0.38
  -5  -1  -7    4.14    0.81
  -5  -1  -7    3.62    0.34
  -5   1  -7    4.39    0.89
  -5   1  -7    2.99    0.31
   5   1   7    3.18    0.35
  -6  -1  -7    3.29    0.38
  -6  -1  -7    5.51    1.38
  -6   1  -7    3.80    0.34
  -6   1  -7    3.35    1.15
  -7  -1  -7   24.53    2.28
  -7  -1  -7   24.21    0.98
  -7   1  -7   26.30    2.19
  10  -2  -7   61.65    3.24
 -10  -2   7   63.10    4.34
  10  -2  -7   56.06    2.95
 -10  -2   7   62.36    3.02
 -10   2   7   72.30    3.86
 -10   2   7   64.96    3.46
  10   2  -7   60.50    2.99
 -10   2   7   59.80    2.98
  10   2  -7   63.14    3.32
  -9  -2   7   57.44    4.07
   9  -2  -7   55.28    3.34
  -9  -2   7   54.72    2.74
   9  -2  -7   58.89    2.80
   9   2  -7   59.86    3.09
   9   2  -7   55.38    2.79
  -9   2   7   58.63    3.12
   8  -2  -7    6.76    1.31
  -8  -2   7    5.16    1.31
  -8  -2   7    2.43    1.49
  -8  -2   7    2.66    1.20
   8  -2  -7    2.60    1.01
  -8  -2   7    4.74    1.22
   8  -2  -7    4.58    0.94
  -8   2   7    4.29    1.27
   8   2  -7    4.07    1.23
   8   2  -7    3.01    0.90
  -8   2   7    3.25    1.15
   8   2  -7    3.21    0.85
   7  -2  -7   27.14    2.03
  -7  -2   7   28.97    1.83
  -7  -2   7   28.73    1.78
   7  -2  -7   32.72    2.11
   7  -2  -7   29.44    2.15
  -7  -2   7   28.55    2.29
   7   2  -7   30.57    2.14
  -7   2   7   28.86    1.85
   7   2  -7   29.26    1.85
  -7   2   7   30.54    2.22
   7   2  -7   30.81    2.03
  -6  -2   7   37.29    2.13
   6  -2  -7   38.06    2.31
  -6  -2   7   38.54    2.22
  -6  -2   7   39.73    1.94
   6  -2  -7   37.32    2.20
   6  -2  -7   40.87    2.29
   6   2  -7   41.09    2.02
  -6   2   7   42.38    2.03
   6   2  -7   36.24    2.30
  -6   2   7   40.23    2.11
   6   2  -7   40.64    2.29
  -5  -2   7   64.36    2.53
   5  -2  -7   59.37    2.94
  -5  -2   7   64.27    2.56
   5  -2  -7   61.12    2.72
  -5  -2   7   61.87    2.91
   5  -2  -7   61.21    2.70
   5   2  -7   61.33    2.68
  -5   2   7   63.15    2.83
   5   2  -7   66.53    2.66
  -5   2   7   62.22    2.67
   5   2  -7   62.61    2.56
  -4  -2   7   51.63    2.24
   4  -2  -7   58.99    2.24
   4  -2  -7   55.90    2.38
  -4  -2   7   55.37    2.37
   4  -2  -7   47.30    2.19
   4   2  -7   50.98    2.47
   4   2  -7   53.56    2.30
  -4   2   7   48.04    2.29
  -4   2   7   52.58    2.49
   4   2  -7   52.93    2.41
   3  -2  -7    3.09    0.71
  -3  -2   7    3.73    0.70
   3  -2  -7    4.86    0.83
  -3  -2   7    4.47    1.03
   3   2  -7    1.80    0.86
   3   2  -7    2.75    0.93
  -3   2   7    4.94    0.95
   3   2  -7    3.73    0.71
   2  -2  -7   81.59    2.85
   2  -2  -7   83.03    2.99
  -2  -2   7   84.50    2.71
   2  -2  -7   80.82    2.79
  -2  -2   7   83.82    2.93
  -2   2   7   81.69    2.97
  -2   2   7   79.55    2.78
   2   2  -7   84.03    2.70
   2   2  -7   81.58    2.90
   2   2  -7   81.02    3.02
   1  -2  -7   46.00    1.86
  -1  -2   7   49.22    2.13
   1  -2  -7   46.34    1.76
  -1   2   7   46.22    1.73
  -1   2   7   50.09    2.03
   1   2  -7   49.11    2.07
   1   2  -7   48.78    1.63
   1   2  -7   47.14    2.13
   0  -2  -7    6.40    1.02
   0  -2  -7    6.49    0.74
   0  -2  -7    5.92    0.63
   0  -2   7    5.72    0.84
   0   2  -7    6.05    0.89
   0   2  -7    6.58    0.69
   0   2   7    5.58    0.75
   1  -2   7   60.33    2.19
  -1  -2  -7   62.57    2.80
  -1  -2  -7   57.04    2.09
  -1  -2  -7   62.23    2.57
  -1  -2  -7   59.52    2.04
  -1   2  -7   59.17    2.16
   1   2   7   61.39    2.13
  -1   2  -7   57.04    2.35
  -2  -2  -7   34.56    1.98
  -2  -2  -7   34.38    1.29
  -2  -2  -7   36.14    1.93
  -2  -2  -7   35.27    1.42
   2  -2   7   36.08    1.49
  -2   2  -7   33.40    1.43
   2   2   7   36.01    1.50
  -2   2  -7   35.72    1.61
   3  -2   7    2.01    0.55
  -3  -2  -7    4.48    0.92
  -3  -2  -7    1.50    0.42
  -3  -2  -7    3.96    1.20
   3   2   7    4.77    0.58
  -3   2  -7    1.94    0.43
  -3   2  -7    2.13    0.55
  -4  -2  -7    8.72    1.45
  -4  -2  -7    9.73    1.12
  -4  -2  -7    6.84    0.62
  -4   2  -7    7.20    0.62
   4   2   7    7.73    0.65
  -4   2  -7    7.21    0.89
  -5  -2  -7   30.09    2.43
  -5  -2  -7   30.81    1.85
  -5  -2  -7   28.94    1.24
   5   2   7   29.57    1.27
  -5   2  -7   28.54    1.24
   6  -2   7   30.50    1.30
  -6  -2  -7   29.89    1.29
  -6  -2  -7   29.29    2.22
  -6   2  -7   30.98    1.25
   6   2   7   31.46    1.33
 -10  -3   7    4.19    2.29
 -10  -3   7    3.33    1.37
  10  -3  -7    5.36    1.85
  10  -3  -7    2.35    1.39
  10   3  -7    3.74    1.42
 -10   3   7    3.07    1.13
  10   3  -7    2.57    1.12
   9  -3  -7   21.24    1.90
  -9  -3   7   23.55    2.83
   9  -3  -7   21.61    1.98
  -9  -3   7   23.09    2.11
   9   3  -7   22.08    1.81
  -9   3   7   25.23    2.15
   9   3  -7   21.59    2.00
  -8  -3   7  106.64    4.67
  -8  -3   7  101.32    3.88
   8  -3  -7   97.40    4.35
   8  -3  -7   95.13    3.85
  -8   3   7  103.22    3.99
   8   3  -7   98.91    4.07
   8   3  -7   92.88    3.93
   8   3  -7  100.37    3.73
  -8   3   7  101.37    4.09
   7  -3  -7    2.15    1.08
   7  -3  -7    3.30    1.06
   7  -3  -7    2.61    1.16
  -7  -3   7    4.91    0.97
  -7  -3   7    4.76    2.03
  -7   3   7    1.60    0.84
   7   3  -7    4.69    1.25
  -7   3   7    3.50    0.94
   7   3  -7    4.70    1.13
   7   3  -7    1.13    1.12
   6  -3  -7    4.86    1.18
  -6  -3   7    4.66    1.07
  -6  -3   7    3.95    1.08
   6  -3  -7    5.36    0.95
   6  -3  -7    6.77    1.10
   6   3  -7    7.16    1.01
   6   3  -7    4.22    0.92
   6   3  -7    5.15    1.26
  -6   3   7    5.67    1.22
  -6   3   7    4.98    0.94
  -5  -3   7  123.04    4.41
   5  -3  -7  117.60    4.42
   5  -3  -7  118.28    4.23
   5  -3  -7  113.70    4.21
  -5  -3   7  119.29    4.16
   5   3  -7  119.78    4.09
   5   3  -7  123.30    4.35
  -5   3   7  120.21    4.24
   5   3  -7  121.60    4.08
  -5   3   7  116.19    4.12
   4  -3  -7  114.47    3.92
  -4  -3   7  109.60    4.04
  -4  -3   7  105.22    3.66
   4  -3  -7  112.35    3.88
   4  -3  -7  114.04    4.06
   4   3  -7  108.93    3.89
  -4   3   7  104.34    3.92
   4   3  -7  106.75    3.76
   4   3  -7  101.92    3.94
   3  -3  -7   56.90    2.45
  -3  -3   7   56.12    2.74
  -3  -3   7   61.29    2.36
   3  -3  -7   63.13    2.52
   3  -3  -7   57.75    2.55
   3   3  -7   58.27    2.47
   3   3  -7   58.08    2.35
  -3   3   7   62.85    2.46
   3   3  -7   55.64    2.58
   2  -3  -7    9.38    0.99
  -2  -3   7    8.47    1.01
   2  -3  -7    7.35    1.04
  -2  -3   7    7.48    0.80
   2  -3  -7    9.38    1.06
  -2   3   7    9.34    1.08
   2   3  -7    7.89    0.95
   2   3  -7    7.44    1.09
   2   3  -7    8.91    0.84
   1  -3  -7   69.08    2.54
   1  -3  -7   78.11    2.80
  -1  -3   7   72.98    2.92
   1  -3  -7   73.70    3.06
   1  -3  -7   73.21    2.70
   1   3  -7   73.90    2.44
  -1   3   7   80.00    2.83
   1   3  -7   79.90    2.89
   1   3  -7   74.75    2.94
   0  -3  -7  119.05    4.17
   0  -3  -7  116.81    4.21
   0  -3  -7  117.66    3.79
   0  -3   7  111.33    3.76
   0   3  -7  120.22    3.86
   0   3  -7  121.36    4.01
   0   3   7  112.36    3.78
  -1  -3  -7  175.62    5.73
  -1  -3  -7  179.37    5.70
  -1  -3  -7  171.01    5.15
   1  -3   7  173.77    5.30
  -1  -3  -7  178.11    5.27
  -1   3  -7  173.13    5.42
   1   3   7  178.29    5.28
  -1   3  -7  172.78    5.28
  -2  -3  -7    9.00    0.84
  -2  -3  -7    8.44    1.19
  -2  -3  -7    8.69    1.06
  -2   3  -7    8.31    0.87
   2   3   7    9.78    0.87
  -2   3  -7    9.28    1.08
  -3  -3  -7    4.31    0.66
  -3  -3  -7    4.70    0.89
  -3  -3  -7    4.24    1.28
  -3   3  -7    3.16    0.88
   3   3   7    3.32    0.64
  -3   3  -7    3.30    0.64
  -4  -3  -7   83.19    2.91
  -4  -3  -7   90.89    3.52
  -4  -3  -7   90.44    3.94
  -4   3  -7   82.41    3.13
  -4   3  -7   90.76    2.97
   4   3   7   93.22    3.02
  -5  -3  -7   69.42    2.94
  -5  -3  -7   70.33    2.53
  -5  -3  -7   68.15    3.57
   5   3   7   72.97    2.58
  -5   3  -7   72.38    2.46
  -5   3  -7   73.20    2.87
  -6  -3  -7    2.24    0.66
   6  -3   7    1.74    0.58
  -6  -3  -7    2.60    1.49
  -6  -3  -7    1.16    0.75
   6   3   7    2.57    0.70
  -6   3  -7    1.17    0.64
  -9  -4   7    0.89    2.21
   9  -4  -7    1.55    1.34
  -9  -4   7    1.58    1.31
   9  -4  -7    2.06    1.30
  -9  -4   7    2.47    1.33
   9   4  -7    1.56    0.99
   9   4  -7    1.90    0.85
  -9   4   7    4.10    1.54
  -8  -4   7   29.05    3.02
   8  -4  -7   35.62    2.62
  -8  -4   7   34.40    2.77
   8  -4  -7   33.02    2.66
  -8  -4   7   32.28    2.49
   8   4  -7   34.13    2.05
   8   4  -7   30.08    2.17
  -8   4   7   35.72    2.27
  -8   4   7   30.99    2.43
   7  -4  -7   60.26    3.09
   7  -4  -7   62.50    3.00
   7  -4  -7   66.12    3.17
  -7  -4   7   64.23    3.59
  -7  -4   7   64.58    3.09
   7   4  -7   63.00    3.00
   7   4  -7   61.64    2.89
   7   4  -7   62.58    2.89
  -7   4   7   61.37    2.89
  -7   4   7   60.29    3.07
   6  -4  -7   37.79    2.14
  -6  -4   7   34.61    2.81
  -6  -4   7   37.99    2.13
   6  -4  -7   41.40    2.42
   6  -4  -7   40.27    2.42
   6   4  -7   39.91    2.26
  -6   4   7   45.68    2.57
  -6   4   7   39.91    2.54
   6   4  -7   41.40    2.14
   6   4  -7   42.01    2.49
   5  -4  -7   16.61    1.44
  -5  -4   7   16.74    1.42
   5  -4  -7   19.34    1.60
   5  -4  -7   19.39    1.62
   5   4  -7   19.57    1.60
   5   4  -7   19.39    1.73
   5   4  -7   19.20    1.53
  -5   4   7   19.65    1.70
   4  -4  -7   25.88    1.94
   4  -4  -7   26.54    1.95
   4   4  -7   29.27    2.02
   4   4  -7   29.23    1.91
   3  -4  -7   94.31    3.48
  -3  -4   7   84.91    3.20
   3  -4  -7   99.59    3.57
   3  -4  -7   90.80    3.33
   3   4  -7   82.85    3.19
  -3   4   7   91.60    3.49
   3   4  -7   90.78    3.35
   3   4  -7   77.88    3.46
   2  -4  -7  148.23    5.06
   2  -4  -7  155.61    4.88
   2  -4  -7  144.52    4.80
   2  -4  -7  146.97    4.91
   2   4  -7  154.82    4.95
   2   4  -7  154.90    4.70
   2   4  -7  150.46    4.94
  -2   4   7  151.59    4.87
   1  -4  -7  177.88    5.53
   1  -4  -7  168.99    5.35
   1  -4  -7  172.01    5.80
   1   4  -7  175.93    5.67
   1   4  -7  178.20    5.60
  -1   4   7  177.77    5.54
   0  -4  -7    1.51    0.80
   0  -4   7    1.56    0.71
   0  -4  -7    1.43    1.08
   0  -4  -7    1.26    1.03
   0  -4  -7    1.56    0.61
   0   4  -7    1.42    0.73
   0   4  -7    1.19    0.62
   0   4   7    2.47    0.88
   1  -4   7   44.90    1.79
  -1  -4  -7   44.83    2.05
  -1  -4  -7   43.38    2.24
  -1  -4  -7   46.12    2.55
  -1   4  -7   43.44    2.10
  -1   4  -7   40.93    2.08
   1   4   7   40.84    1.90
  -2  -4  -7   64.81    2.56
  -2  -4  -7   66.72    3.21
  -2  -4  -7   67.86    3.08
  -2   4  -7   63.81    2.69
   2   4   7   67.14    2.50
  -2   4  -7   66.05    2.61
  -3  -4  -7   92.95    3.79
  -3  -4  -7   94.30    3.25
  -3  -4  -7   87.06    3.76
  -3   4  -7   94.88    3.59
   3   4   7   86.99    3.24
  -3   4  -7   95.93    3.26
  -4  -4  -7   16.52    1.27
  -4  -4  -7   12.29    1.39
  -4  -4  -7   14.71    1.63
  -4   4  -7   14.14    1.27
   4   4   7   14.91    1.21
  -4   4  -7   13.53    1.27
  -5  -4  -7   10.54    1.04
   5  -4   7   10.29    1.16
  -5  -4  -7   10.43    1.83
  -5  -4  -7   11.32    1.55
  -5   4  -7   10.53    1.32
   5   4   7   11.18    1.09
  -5   4  -7    9.59    1.02
  -8  -5   7   10.98    2.48
  -8  -5   7    8.31    1.63
   8  -5  -7    9.40    1.66
  -8  -5   7   11.58    1.75
   8   5  -7    8.22    1.44
  -8   5   7    9.66    1.44
   8   5  -7    8.80    1.34
   7  -5  -7    6.76    1.62
  -7  -5   7    6.57    1.65
  -7  -5   7    7.96    1.20
   7  -5  -7    5.56    1.43
  -7  -5   7    5.39    1.73
  -7   5   7    5.35    1.53
   7   5  -7    6.35    1.47
   7   5  -7    4.76    1.03
  -7   5   7    6.77    1.44
   7   5  -7    8.28    1.30
  -6  -5   7   17.48    2.07
   6  -5  -7   17.32    1.72
  -6  -5   7   19.50    1.79
  -6  -5   7   17.96    2.06
   6  -5  -7   18.33    1.63
  -6   5   7   18.78    1.83
   6   5  -7   14.17    1.80
   6   5  -7   16.66    1.54
   6   5  -7   19.22    1.74
   5  -5  -7   11.83    1.28
  -5  -5   7   11.53    1.43
  -5  -5   7   10.26    1.74
   5  -5  -7   12.40    1.47
  -5  -5   7    7.89    2.08
   5   5  -7   12.05    1.69
  -5   5   7   16.48    1.69
   5   5  -7    8.81    1.44
   5   5  -7   13.57    1.34
   4  -5  -7   52.42    2.67
   4  -5  -7   51.98    2.50
  -4  -5   7   50.60    2.92
  -4  -5   7   51.97    2.36
   4   5  -7   53.39    2.88
   4   5  -7   54.95    2.76
  -4   5   7   51.70    2.81
   4   5  -7   53.17    2.60
   3  -5  -7    1.69    0.86
  -3  -5   7    4.59    1.25
   3  -5  -7    3.20    1.07
   3  -5  -7    3.59    0.88
   3  -5  -7    2.47    0.98
   3   5  -7    4.80    0.93
  -3   5   7    1.77    0.82
   3   5  -7    2.04    1.24
   3   5  -7    2.61    0.88
   2  -5  -7    1.08    1.15
  -2  -5   7    2.56    1.07
   2  -5  -7    0.35    0.82
   2  -5  -7    0.44    0.87
   2  -5  -7    0.48    0.69
   2   5  -7    1.40    0.82
  -2   5   7    0.91    0.73
   2   5  -7    0.91    0.76
  -1  -5   7   13.07    1.34
   1  -5  -7   14.09    1.28
   1  -5  -7   14.80    1.30
   1  -5  -7   14.76    1.68
  -1   5   7   14.67    1.29
   1   5  -7   14.70    1.38
   1   5  -7   14.24    1.51
   0  -5  -7   60.47    3.06
   0  -5   7   55.75    2.41
   0  -5  -7   62.30    2.96
   0  -5  -7   56.82    2.51
   0   5  -7   58.78    2.67
   0   5   7   62.45    2.57
   0   5  -7   63.78    2.62
  -1  -5  -7    1.11    0.85
  -1  -5  -7    0.21    0.78
  -1  -5  -7    0.49    0.79
   1   5   7    1.25    0.90
  -1   5  -7    0.25    1.01
  -1   5  -7   -0.02    0.92
  -2  -5  -7   22.62    1.84
  -2  -5  -7   22.78    1.68
  -2  -5  -7   23.04    2.21
  -2   5  -7   25.70    2.08
  -2   5  -7   20.75    1.51
   2   5   7   19.93    1.69
  -3  -5  -7   40.67    2.38
  -3  -5  -7   41.04    2.11
  -3  -5  -7   39.44    2.46
   3   5   7   38.38    2.14
  -3   5  -7   42.55    2.51
  -3   5  -7   34.47    2.08
  -4  -5  -7   28.98    2.41
  -4  -5  -7   28.09    1.77
   4  -5   7   24.53    1.86
  -4  -5  -7   23.32    2.13
  -4   5  -7   21.99    1.74
   4   5   7   27.07    1.84
  -4   5  -7   25.82    2.18
   7  -6  -7   -0.79    1.31
  -7  -6   7    1.87    1.73
  -7  -6   7    2.07    1.27
   7   6  -7   -0.51    0.78
  -7   6   7    1.61    1.33
   7   6  -7   -0.86    1.25
   6  -6  -7   14.14    1.53
   6  -6  -7   13.30    1.74
  -6  -6   7   12.96    2.26
  -6  -6   7   16.43    2.12
  -6  -6   7   14.71    1.75
   6   6  -7   12.94    1.52
   6   6  -7   12.71    1.66
  -6   6   7   16.31    1.85
   6   6  -7   12.62    1.58
   5  -6  -7    0.27    0.81
  -5  -6   7   -0.26    1.75
  -5  -6   7    1.00    1.07
  -5  -6   7    0.77    1.43
   5  -6  -7    0.37    0.83
  -5   6   7    1.27    1.28
   5   6  -7    0.81    0.82
   5   6  -7    1.13    1.17
   5   6  -7    1.72    1.39
   4  -6  -7    1.36    1.12
   4  -6  -7    0.57    0.80
  -4  -6   7    1.54    1.33
  -4  -6   7   -0.39    1.52
   4   6  -7    3.01    1.08
   4   6  -7    0.49    1.15
  -4   6   7    0.66    1.23
   4   6  -7    3.49    1.34
  -3  -6   7   -0.05    1.37
   3  -6  -7    1.21    1.02
  -3  -6   7    2.24    1.25
   3  -6  -7   -0.49    0.73
   3  -6  -7   -0.60    0.80
  -3   6   7    1.27    1.17
   3   6  -7    0.69    1.27
   3   6  -7    0.28    1.13
  -2  -6   7    9.34    1.39
  -2  -6   7    7.51    1.62
   2  -6  -7    9.32    1.42
   2  -6  -7    9.84    1.28
   2  -6  -7    6.99    1.51
  -2   6   7    9.77    1.49
   2   6  -7   10.44    1.59
   2   6  -7    8.73    1.46
  -1  -6   7    1.28    1.27
  -1  -6   7    5.63    0.91
   1  -6  -7    4.45    1.22
   1  -6  -7    3.93    1.08
   1   6  -7    4.05    1.04
  -1   6   7    3.27    1.18
   1   6  -7    3.30    0.99
   0  -6  -7   18.53    1.66
   0  -6   7   19.13    1.70
   0  -6  -7   15.25    1.66
   0  -6  -7   17.37    1.77
   0   6  -7   17.61    1.74
   0   6   7   14.55    1.60
   0   6  -7   17.13    1.57
  -1  -6  -7    0.19    0.69
  -1  -6  -7    0.20    0.91
  -1  -6  -7    0.92    1.21
   1   6   7    0.55    1.04
  -1   6  -7    0.54    0.77
  -1   6  -7    0.39    0.83
  -2  -6  -7    7.23    1.57
  -2  -6  -7    6.71    1.30
  -2  -6  -7    5.58    1.17
  -2   6  -7    6.83    1.48
  -2   6  -7    7.38    1.09
   2   6   7    4.08    1.17
  -3  -6  -7    5.01    1.22
  -3  -6  -7    2.46    1.06
  -3  -6  -7    3.68    1.53
   3  -6   7    2.61    1.19
   3   6   7    5.62    1.19
  -3   6  -7    4.48    1.09
  -3   6  -7    5.93    1.28
   4  -7  -7   17.51    1.65
   4  -7  -7   17.56    1.97
  -4  -7   7   12.02    1.90
  -4  -7   7   20.85    2.21
  -4   7   7   15.95    1.69
   4   7  -7   16.33    1.70
   4   7  -7   18.29    2.13
   3  -7  -7    8.40    1.70
   3  -7  -7    9.12    1.35
  -3  -7   7   10.39    1.65
  -3  -7   7    7.73    1.57
   3   7  -7    8.49    1.35
   3   7  -7    7.82    1.77
  -3   7   7    9.60    1.66
   2  -7  -7    0.45    1.38
   2  -7  -7    0.48    1.21
  -2  -7   7    1.77    1.12
   2   7  -7   -0.23    0.98
   2   7  -7   -1.56    1.18
  -2   7   7   -0.31    1.27
   1  -7  -7   27.24    2.02
  -1  -7   7   28.50    2.06
   1  -7  -7   28.88    2.70
   1   7  -7   28.63    2.15
  -1   7   7   27.06    2.20
   1   7  -7   26.63    2.12
   0  -7  -7   18.41    1.87
   0  -7  -7   22.73    2.28
   0  -7  -7   18.98    1.88
   0   7  -7   19.66    2.05
   0   7   7   20.38    1.76
   0   7  -7   20.07    1.78
  10   0  -8    0.58    1.19
 -10   0   8   -1.04    1.33
  10   0  -8   -1.55    1.30
 -10   0   8    1.64    1.03
 -10   0   8   -0.32    0.85
  10   0  -8   -1.66    1.14
  -9   0   8    0.08    1.20
   9   0  -8    0.16    1.21
   9   0  -8    0.08    0.80
  -9   0   8    0.51    1.12
  -9   0   8    0.99    1.17
   9   0  -8    0.89    0.86
   8   0  -8   62.11    3.26
   8   0  -8   63.59    2.81
   8   0  -8   63.92    3.04
   8   0  -8   64.73    2.83
  -8   0   8   59.50    3.03
  -8   0   8   68.07    3.04
  -8   0   8   59.96    3.08
   7   0  -8    0.17    1.02
  -7   0   8    0.08    0.77
  -7   0   8    0.83    0.95
   7   0  -8   -0.84    0.75
  -7   0   8    0.79    0.76
   7   0  -8    0.55    0.99
   7   0  -8   -1.83    0.99
  -6   0   8   74.42    3.04
  -6   0   8   72.70    3.21
   6   0  -8   77.93    3.02
   6   0  -8   75.82    2.95
   6   0  -8   70.16    3.13
   6   0  -8   68.88    3.06
  -6   0   8   78.81    3.04
  -5   0   8   -0.07    0.76
   5   0  -8   -1.12    0.77
  -5   0   8    0.36    1.06
  -5   0   8    0.30    0.81
   5   0  -8   -0.99    0.89
   5   0  -8   -0.05    0.71
  -4   0   8   72.74    2.82
  -4   0   8   75.57    2.91
   4   0  -8   83.01    2.90
   4   0  -8   69.71    3.00
   4   0  -8   76.59    3.04
  -4   0   8   79.15    2.77
  -3   0   8    0.54    0.89
   3   0  -8    0.13    0.57
   3   0  -8   -1.02    0.75
  -3   0   8   -0.05    0.53
   3   0  -8    0.12    0.81
  -3   0   8    0.07    0.55
  -2   0   8  115.40    3.44
   2   0  -8  115.20    3.84
   2   0  -8  116.57    3.46
   2   0  -8  111.12    3.76
  -2   0   8  114.21    3.69
  -2   0   8  109.51    3.45
  -1   0   8   -0.13    0.64
   1   0  -8   -0.72    0.42
   1   0  -8   -0.12    0.45
  -1   0   8    0.15    0.30
   0   0   8   17.69    1.20
   0   0  -8   20.63    1.13
   0   0  -8   18.04    1.15
   0   0   8   18.22    0.71
  -1   0  -8   -0.17    0.40
  -1   0  -8    0.11    0.52
   1   0   8    0.04    0.44
   2   0   8  119.14    3.43
  -2   0  -8  123.41    3.60
  -2   0  -8  105.23    3.37
   3   0   8   -0.07    0.34
  -3   0  -8   -0.18    0.28
  -3   0  -8    0.55    1.01
  -4   0  -8   13.86    0.65
  -4   0  -8   11.86    1.54
   4   0   8   15.12    0.67
  -5   0  -8    0.90    1.15
  -5   0  -8    0.07    0.19
  -6   0  -8   15.02    1.79
  10  -1  -8    0.88    0.91
 -10  -1   8    1.62    1.54
  10  -1  -8    3.70    1.38
  10  -1  -8    1.88    1.48
 -10  -1   8    1.82    0.97
 -10  -1   8    0.47    1.35
 -10   1   8   -0.41    1.87
  10   1  -8    1.89    1.18
 -10   1   8    1.64    1.27
 -10   1   8    1.43    1.40
  10   1  -8    1.56    1.29
  -9  -1   8   16.55    1.76
  -9  -1   8   17.40    1.82
   9  -1  -8   17.20    1.69
   9  -1  -8   17.18    1.78
   9  -1  -8   17.54    1.78
  -9  -1   8   18.46    1.82
  -9   1   8   17.48    1.61
   9   1  -8   16.08    1.56
  -9   1   8   20.67    1.85
  -9   1   8   19.11    1.68
   9   1  -8   15.59    1.67
  -8  -1   8   12.01    1.35
   8  -1  -8   13.38    1.32
  -8  -1   8    9.93    1.23
   8  -1  -8    8.35    1.42
   8  -1  -8   10.18    1.35
  -8  -1   8   11.45    1.44
   8  -1  -8    9.42    1.23
   8   1  -8   13.12    1.54
  -8   1   8    8.32    1.20
   8   1  -8   11.10    1.25
   8   1  -8   10.44    1.45
  -8   1   8   11.01    1.48
  -8   1   8   10.06    1.42
  -7  -1   8    2.81    1.24
   7  -1  -8    0.23    1.16
   7  -1  -8    2.03    0.83
  -7  -1   8    1.53    0.78
   7  -1  -8    1.43    1.08
  -7  -1   8    3.34    1.11
   7  -1  -8    1.32    1.11
  -7   1   8    3.68    1.15
   7   1  -8    2.64    0.85
  -7   1   8    3.18    1.18
   7   1  -8    2.11    0.82
  -7   1   8    1.76    1.02
   7   1  -8    1.95    1.14
   6  -1  -8    2.66    1.12
  -6  -1   8    2.96    0.98
   6  -1  -8    2.97    0.91
  -6  -1   8    2.10    0.92
   6  -1  -8    3.22    1.06
  -6  -1   8    2.44    1.21
   6  -1  -8    3.16    1.12
   6   1  -8    3.09    0.81
   6   1  -8    3.60    1.16
  -6   1   8    0.65    0.93
   6   1  -8    2.71    1.04
  -6   1   8    2.81    0.91
  -6   1   8    4.11    1.06
  -5  -1   8   91.72    3.21
  -5  -1   8   97.19    3.71
   5  -1  -8   97.52    3.37
   5  -1  -8   92.74    3.68
  -5  -1   8   94.88    3.35
   5  -1  -8   95.28    3.46
   5  -1  -8   92.68    3.44
   5   1  -8   92.84    3.58
  -5   1   8   94.59    3.46
  -5   1   8   92.86    3.64
   5   1  -8   93.39    3.62
  -5   1   8   92.47    3.28
   5   1  -8   91.30    3.44
   4  -1  -8    6.57    1.11
  -4  -1   8    5.93    0.83
   4  -1  -8    6.18    1.09
  -4  -1   8    5.01    0.87
  -4  -1   8    6.21    0.94
  -4   1   8    6.22    1.12
   4   1  -8    6.15    0.88
   4   1  -8    5.35    1.11
  -3  -1   8    5.58    0.86
   3  -1  -8    8.49    1.07
   3  -1  -8    6.79    0.87
  -3  -1   8    5.50    0.70
   3  -1  -8    5.85    0.83
  -3  -1   8    6.17    0.77
  -3   1   8    6.21    0.81
   3   1  -8    4.55    0.97
  -3   1   8    4.89    1.01
   3   1  -8    6.72    0.80
   3   1  -8    5.35    0.83
  -3   1   8    5.80    0.80
  -2  -1   8   30.29    1.33
   2  -1  -8   33.32    1.78
  -2  -1   8   30.68    1.26
   2  -1  -8   30.67    1.40
   2  -1  -8   34.72    1.74
  -2  -1   8   29.64    1.82
  -2   1   8   31.44    1.45
  -2   1   8   31.33    1.77
   2   1  -8   28.45    1.73
   2   1  -8   33.84    1.34
   2   1  -8   33.21    1.64
  -2   1   8   29.42    1.38
  -1  -1   8   66.26    2.57
   1  -1  -8   67.47    2.56
   1  -1  -8   67.81    2.50
  -1   1   8   68.89    2.54
  -1   1   8   69.92    2.32
   1   1  -8   69.75    2.57
   1   1  -8   70.57    2.65
   0  -1  -8   -0.06    0.54
   0  -1  -8    1.12    0.56
   0  -1   8   -0.12    0.62
   0   1  -8    0.39    0.61
   0   1   8   -0.13    0.55
   0   1  -8    0.05    0.46
   1  -1   8   17.62    1.13
  -1  -1  -8   18.55    1.05
  -1  -1  -8   17.57    1.07
   1   1   8   18.84    1.10
  -1   1  -8   16.64    1.10
  -1   1  -8   19.35    1.30
  -2  -1  -8  118.15    3.63
   2  -1   8  122.76    3.69
  -2  -1  -8  123.96    3.67
  -2  -1  -8  122.79    4.41
  -2   1  -8  124.26    3.70
  -2   1  -8  126.06    3.91
   2   1   8  124.03    3.67
  -3  -1  -8   25.39    1.09
   3   1   8   28.23    1.18
  -4  -1  -8   21.42    0.89
   4  -1   8   20.82    0.91
  -4  -1  -8   18.74    1.71
  -4   1  -8   21.83    0.92
   4   1   8   20.86    0.94
  -5  -1  -8    4.62    1.41
  -5  -1  -8    5.71    0.45
  -5   1  -8    5.67    0.48
  -6  -1  -8   30.19    2.52
  -6  -1  -8   24.54    0.96
  -6   1  -8   26.43    2.22
 -10  -2   8   32.35    3.17
  10  -2  -8   31.06    2.59
 -10  -2   8   27.94    2.13
  10  -2  -8   29.44    2.37
  10   2  -8   24.79    2.21
 -10   2   8   28.15    2.43
 -10   2   8   29.36    2.33
 -10   2   8   27.28    2.47
  10   2  -8   21.87    1.87
  -9  -2   8    6.62    1.50
  -9  -2   8    7.31    1.24
  -9  -2   8    7.97    1.47
   9  -2  -8    8.25    1.52
   9  -2  -8   10.41    1.50
  -9  -2   8    4.03    2.17
  -9   2   8    8.71    1.21
  -9   2   8    8.37    1.50
   9   2  -8    7.31    1.37
   9   2  -8    7.46    1.46
  -9   2   8    9.81    1.68
  -8  -2   8    5.52    1.13
   8  -2  -8    6.61    1.29
   8  -2  -8    4.46    1.27
  -8  -2   8    5.14    1.30
  -8  -2   8    4.86    1.02
   8  -2  -8    3.36    1.12
   8   2  -8    6.47    1.35
   8   2  -8    6.09    1.26
   8   2  -8    6.24    1.32
  -8   2   8    5.51    1.34
  -8   2   8    4.62    1.02
  -8   2   8    4.60    1.00
   7  -2  -8   40.26    2.19
  -7  -2   8   41.53    2.10
  -7  -2   8   41.16    2.37
   7  -2  -8   35.49    2.30
   7  -2  -8   40.80    2.46
  -7  -2   8   42.99    2.67
   7   2  -8   41.69    2.24
   7   2  -8   39.51    2.45
  -7   2   8   37.92    2.35
  -7   2   8   40.17    2.45
   7   2  -8   42.77    2.19
  -7   2   8   38.71    2.21
  -6  -2   8   33.89    1.80
   6  -2  -8   34.26    2.50
  -6  -2   8   33.55    2.07
  -6  -2   8   38.14    2.46
   6  -2  -8   32.20    1.92
   6  -2  -8   33.18    2.21
   6   2  -8   34.50    2.21
   6   2  -8   32.77    1.89
  -6   2   8   31.88    2.12
  -6   2   8   32.27    2.00
   6   2  -8   32.26    2.27
  -6   2   8   33.24    2.10
   5  -2  -8   11.32    1.29
   5  -2  -8   10.59    1.37
  -5  -2   8   10.08    1.19
  -5  -2   8   10.65    1.22
  -5  -2   8   10.81    1.11
   5  -2  -8   10.36    1.31
   5   2  -8    9.69    1.03
   5   2  -8    9.18    1.27
  -5   2   8   12.04    1.21
  -5   2   8    7.72    1.14
   5   2  -8   10.25    1.18
  -5   2   8   10.24    1.04
   4  -2  -8   60.72    2.54
  -4  -2   8   52.85    2.36
  -4  -2   8   56.77    2.54
   4  -2  -8   56.56    2.64
   4  -2  -8   57.74    2.54
  -4   2   8   62.55    2.52
  -4   2   8   56.61    2.48
   4   2  -8   61.31    2.52
   4   2  -8   55.89    2.71
   4   2  -8   57.08    2.30
  -4   2   8   62.44    2.52
  -3  -2   8  120.05    4.20
   3  -2  -8  112.23    3.90
   3  -2  -8  122.65    4.10
  -3  -2   8  115.38    3.83
   3  -2  -8  117.52    4.14
   3   2  -8  116.87    4.03
   3   2  -8  136.38    4.24
  -3   2   8  118.84    3.84
   3   2  -8  120.35    3.83
  -3   2   8  120.47    4.10
  -3   2   8  118.44    3.91
   2  -2  -8    1.35    0.78
  -2  -2   8    0.95    0.67
   2  -2  -8    1.25    0.80
   2  -2  -8    0.02    0.53
   2   2  -8    0.57    0.56
  -2   2   8   -0.54    0.79
   2   2  -8    0.96    0.64
   2   2  -8   -0.15    0.58
   1  -2  -8   22.64    1.47
   1  -2  -8   24.58    1.48
  -1  -2   8   19.67    1.64
   1   2  -8   23.34    1.44
  -1   2   8   22.45    1.32
   1   2  -8   22.46    1.34
   0  -2   8   54.75    2.32
   0  -2  -8   59.10    2.20
   0  -2  -8   55.78    2.16
   0   2   8   58.80    2.25
   0   2  -8   55.60    2.27
   0   2  -8   58.08    2.43
  -1  -2  -8   93.85    3.11
  -1  -2  -8   93.46    3.66
   1  -2   8   97.95    3.20
  -1  -2  -8   93.89    3.46
  -1  -2  -8   95.49    3.05
  -1   2  -8  101.51    3.41
  -1   2  -8   96.08    3.18
   1   2   8   97.98    3.15
  -2  -2  -8   59.69    2.67
   2  -2   8   62.08    2.22
  -2  -2  -8   59.80    2.15
  -2  -2  -8   62.61    2.85
  -2   2  -8   61.90    2.49
   2   2   8   62.34    2.18
  -2   2  -8   63.93    2.21
  -3  -2  -8    0.76    0.49
  -3  -2  -8    1.74    0.89
   3  -2   8    0.56    0.57
  -3  -2  -8    0.68    1.16
   3   2   8    0.97    0.54
  -3   2  -8    0.63    0.43
  -3   2  -8    0.22    0.67
  -4  -2  -8   83.78    2.69
  -4  -2  -8   83.85    3.20
  -4  -2  -8   88.80    3.90
   4   2   8   85.29    2.74
  -4   2  -8   84.62    3.05
  -4   2  -8   85.56    2.69
  -5  -2  -8  107.75    4.44
  -5  -2  -8  106.91    3.32
  -5  -2  -8  108.07    3.98
   5   2   8  114.13    3.38
  -5   2  -8  111.58    3.32
  -6  -2  -8   73.67    3.86
  -6  -2  -8   73.10    2.39
  -6   2  -8   72.78    2.33
  -9  -3   8   43.53    3.86
   9  -3  -8   45.14    2.80
  -9  -3   8   46.83    2.55
   9  -3  -8   43.02    2.52
   9   3  -8   39.88    2.33
   9   3  -8   41.08    2.84
  -9   3   8   39.81    2.94
   8  -3  -8    4.60    1.31
  -8  -3   8    1.84    1.49
   8  -3  -8    2.42    1.19
  -8  -3   8    3.40    0.96
   8  -3  -8    4.95    1.54
  -8   3   8    2.32    0.97
   8   3  -8    5.01    1.32
   8   3  -8    1.77    1.15
   8   3  -8    1.95    1.23
  -8   3   8    2.39    1.31
   7  -3  -8    4.08    1.46
   7  -3  -8    6.45    1.32
  -7  -3   8    4.62    1.48
  -7  -3   8    5.19    1.03
   7  -3  -8    6.70    1.37
   7   3  -8    5.72    1.40
   7   3  -8    7.06    1.27
   7   3  -8    6.31    1.31
  -7   3   8    4.92    1.04
  -7   3   8    7.51    1.44
   6  -3  -8  143.04    5.09
  -6  -3   8  148.53    5.23
  -6  -3   8  147.94    5.04
   6  -3  -8  146.24    5.09
   6  -3  -8  144.61    5.07
  -6   3   8  146.48    4.92
   6   3  -8  145.04    5.04
  -6   3   8  146.59    5.13
   6   3  -8  143.34    5.02
   6   3  -8  147.66    4.93
  -5  -3   8  102.16    4.01
   5  -3  -8   99.20    3.78
  -5  -3   8   98.64    3.68
   5  -3  -8  102.63    4.02
   5  -3  -8  102.05    3.71
   5   3  -8   94.86    3.78
   5   3  -8   97.74    3.73
  -5   3   8  104.59    3.81
   5   3  -8  100.40    3.59
  -5   3   8   98.05    3.87
  -4  -3   8   81.53    3.03
   4  -3  -8   78.43    3.35
   4  -3  -8   78.65    3.06
   4  -3  -8   75.54    2.96
  -4  -3   8   78.61    3.39
   4   3  -8   77.29    3.30
   4   3  -8   81.65    3.27
   4   3  -8   77.64    3.03
  -4   3   8   81.76    3.28
  -3  -3   8    8.62    0.93
   3  -3  -8   10.92    1.08
   3  -3  -8    8.46    1.18
   3  -3  -8    9.20    1.09
  -3  -3   8    6.94    1.08
   3   3  -8    9.86    1.28
   3   3  -8    9.31    1.09
  -3   3   8    7.98    1.01
   3   3  -8    8.43    0.95
   2  -3  -8   73.79    2.71
  -2  -3   8   70.65    2.99
   2  -3  -8   68.03    2.80
   2  -3  -8   64.27    2.57
   2   3  -8   77.66    3.00
  -2   3   8   67.63    2.68
   2   3  -8   66.37    2.71
   1  -3  -8  172.83    5.84
  -1  -3   8  177.96    5.52
   1  -3  -8  179.55    5.43
   1  -3  -8  178.24    5.51
   1   3  -8  180.08    5.59
  -1   3   8  179.15    5.53
   1   3  -8  178.09    5.68
   0  -3   8  134.26    4.30
   0  -3  -8  137.12    4.32
   0  -3  -8  133.56    4.70
   0  -3  -8  132.74    4.24
   0   3  -8  131.73    4.50
   0   3  -8  131.52    4.36
   0   3   8  136.98    4.34
  -1  -3  -8    3.21    0.95
  -1  -3  -8    3.94    0.75
  -1  -3  -8    3.50    0.86
  -1  -3  -8    4.52    0.62
   1  -3   8    5.21    0.91
   1   3   8    3.51    0.77
  -1   3  -8    3.10    0.63
  -1   3  -8    3.17    0.94
  -2  -3  -8    8.23    1.22
  -2  -3  -8    8.93    0.88
  -2  -3  -8    9.76    1.35
  -2   3  -8   11.37    1.19
   2   3   8   10.12    0.95
  -3  -3  -8  155.63    5.27
  -3  -3  -8  156.17    5.72
  -3  -3  -8  161.20    4.80
  -3   3  -8  153.18    5.10
   3   3   8  156.72    4.79
  -3   3  -8  159.99    4.79
  -4  -3  -8   23.39    1.96
  -4  -3  -8   27.11    2.45
  -4  -3  -8   23.67    1.32
   4   3   8   25.90    1.39
  -4   3  -8   25.26    1.78
  -4   3  -8   25.53    1.34
  -5  -3  -8    0.93    1.01
  -5  -3  -8    2.14    0.57
  -5  -3  -8    1.10    1.01
   5   3   8    1.56    0.60
  -5   3  -8    1.27    0.65
   9  -4  -8    5.17    1.53
   9  -4  -8    7.43    1.59
  -9  -4   8    4.69    1.96
  -9  -4   8    4.47    1.50
  -9  -4   8    4.77    2.40
   9   4  -8    3.26    1.32
   9   4  -8    8.74    1.68
  -9   4   8    6.15    1.65
   8  -4  -8  118.80    4.84
   8  -4  -8  120.14    5.11
  -8  -4   8  127.43    4.69
  -8  -4   8  123.60    5.77
   8   4  -8  126.21    4.87
  -8   4   8  129.35    4.82
  -8   4   8  119.21    4.62
   8   4  -8  120.79    4.78
   8   4  -8  124.91    4.70
  -7  -4   8   56.42    3.02
   7  -4  -8   60.64    2.87
   7  -4  -8   60.70    3.48
  -7  -4   8   57.25    4.07
   7  -4  -8   59.50    3.03
   7   4  -8   63.49    3.15
   7   4  -8   57.90    2.76
   7   4  -8   58.12    3.16
  -7   4   8   59.96    3.11
  -7   4   8   56.79    2.81
   6  -4  -8   29.35    2.28
   6  -4  -8   35.58    2.36
  -6  -4   8   30.02    1.92
   6  -4  -8   31.36    2.38
  -6   4   8   36.61    2.15
   6   4  -8   32.49    2.43
   6   4  -8   30.21    1.95
  -6   4   8   31.50    2.04
   6   4  -8   31.42    2.30
   5  -4  -8    7.21    1.22
   5  -4  -8    5.08    1.21
   5  -4  -8    3.57    0.98
  -5   4   8    3.04    0.94
   5   4  -8    3.44    1.05
   4  -4  -8  211.39    6.49
  -4  -4   8  191.88    6.17
   4  -4  -8  203.89    6.37
   4  -4  -8  192.99    6.36
   4   4  -8  193.44    6.36
   4   4  -8  198.96    6.53
  -4   4   8  202.71    6.49
   4   4  -8  208.73    6.30
   3  -4  -8   62.36    2.86
   3  -4  -8   65.45    2.98
   3  -4  -8   64.30    2.75
   3   4  -8   65.94    2.76
   3   4  -8   61.70    2.97
  -3   4   8   63.86    2.93
   3   4  -8   61.82    2.56
   2  -4  -8   87.33    3.59
   2  -4  -8   78.75    3.04
   2  -4  -8   85.24    3.29
   2   4  -8   85.39    3.40
  -2   4   8   83.83    3.32
   2   4  -8   81.63    3.39
   1  -4  -8   13.67    1.32
   1  -4  -8   15.16    1.17
   1  -4  -8   15.87    1.64
   1   4  -8   14.41    1.42
  -1   4   8   14.00    1.34
   1   4  -8   15.94    1.37
   0  -4  -8   24.17    1.68
   0  -4  -8   28.22    2.15
   0  -4  -8   25.09    2.12
   0   4  -8   24.52    1.98
   0   4   8   23.79    1.73
   0   4  -8   23.10    1.76
  -1  -4  -8   24.43    1.86
  -1  -4  -8   24.98    1.43
  -1  -4  -8   24.48    2.11
  -1   4  -8   25.89    1.97
   1   4   8   22.80    1.66
  -1   4  -8   23.67    1.67
  -2  -4  -8  113.93    4.50
  -2  -4  -8  107.94    4.13
  -2  -4  -8  108.11    3.75
  -2   4  -8  106.51    3.76
   2   4   8  106.12    3.68
  -2   4  -8  113.64    4.08
  -3  -4  -8   16.25    1.74
  -3  -4  -8   17.19    1.17
  -3  -4  -8   16.43    1.75
  -3   4  -8   15.51    1.27
   3   4   8   15.66    1.40
  -3   4  -8   16.24    1.38
  -4  -4  -8    4.92    1.08
  -4  -4  -8    4.67    0.81
  -4  -4  -8    5.43    1.57
  -4   4  -8    4.41    0.85
  -4   4  -8    3.90    1.13
   4   4   8    4.38    0.85
  -8  -5   8    6.01    1.25
   8  -5  -8    6.93    1.35
  -8  -5   8    7.32    2.03
   8  -5  -8   13.89    2.20
   8   5  -8    8.71    1.68
  -8   5   8    9.55    1.64
   8   5  -8    7.93    1.23
  -8   5   8    9.44    1.45
   7  -5  -8   17.11    1.88
  -7  -5   8   20.33    2.32
   7  -5  -8   22.25    1.90
  -7  -5   8   23.04    2.17
  -7  -5   8   23.61    2.05
   7  -5  -8   21.11    2.04
   7   5  -8   19.74    1.75
   7   5  -8   24.21    2.18
  -7   5   8   22.19    2.04
  -7   5   8   22.88    2.13
   7   5  -8   21.44    1.98
   6  -5  -8    9.82    1.50
  -6  -5   8    9.54    2.26
   6  -5  -8   10.28    1.53
  -6  -5   8    8.84    1.82
  -6  -5   8    9.14    1.22
   6  -5  -8   10.18    1.57
   6   5  -8    9.45    1.30
   6   5  -8    9.18    1.46
   6   5  -8   10.13    1.45
  -6   5   8    9.32    1.61
   5  -5  -8   52.55    2.85
   5  -5  -8   52.46    3.14
  -5  -5   8   54.62    2.83
   5  -5  -8   54.05    2.82
   5   5  -8   54.15    2.55
  -5   5   8   44.95    2.60
   5   5  -8   55.31    2.64
   5   5  -8   58.19    3.07
   4  -5  -8    5.74    1.08
  -4  -5   8    5.35    1.16
   4  -5  -8    6.93    1.20
   4  -5  -8    6.50    1.10
   4   5  -8    5.25    1.13
   4   5  -8    8.02    1.17
  -4   5   8    6.26    1.14
   4   5  -8    5.52    1.11
   3  -5  -8    0.13    0.74
  -3  -5   8    0.02    1.14
   3  -5  -8   -1.27    0.99
   3   5  -8   -0.48    1.08
   3   5  -8   -1.90    1.06
  -3   5   8   -0.79    1.06
   2  -5  -8    2.54    1.06
  -2  -5   8    4.04    1.16
   2  -5  -8    3.30    1.00
   2  -5  -8    3.59    0.98
  -2   5   8    3.06    1.12
  -1  -5   8   56.88    2.67
   1  -5  -8   61.50    2.81
   1  -5  -8   57.65    2.87
   1   5  -8   60.61    2.92
  -1   5   8   62.02    2.85
   1   5  -8   61.19    3.02
   0  -5  -8    3.58    1.33
   0  -5  -8   -0.37    0.78
   0  -5   8    1.08    0.78
   0  -5  -8    0.86    0.66
   0   5  -8    0.15    1.10
   0   5  -8   -1.56    0.98
   0   5   8    0.19    0.65
  -1  -5  -8    5.78    1.42
  -1  -5  -8    4.82    1.06
  -1  -5  -8    6.95    1.21
  -1   5  -8    5.61    1.14
   1   5   8    6.26    1.16
  -1   5  -8    4.03    1.24
  -2  -5  -8    5.61    1.49
  -2  -5  -8    5.39    1.48
  -2  -5  -8    3.81    1.00
  -2   5  -8    4.56    1.01
  -2   5  -8    5.10    0.88
   2   5   8    5.42    1.12
  -3  -5  -8    6.76    1.36
  -3  -5  -8   10.85    1.21
  -3  -5  -8   11.39    1.72
  -3   5  -8    8.84    1.21
  -3   5  -8    6.32    1.16
   3   5   8    9.62    1.23
  -6  -6   8    2.10    1.68
   6  -6  -8    0.83    1.14
  -6  -6   8    3.99    2.01
   6  -6  -8    0.06    1.24
   6  -6  -8    1.61    1.32
   6   6  -8    3.78    1.54
   6   6  -8    1.49    0.98
  -6   6   8    2.50    1.07
   6   6  -8    1.39    1.24
  -5  -6   8    3.53    1.19
  -5  -6   8    1.25    1.32
   5  -6  -8    4.66    1.45
   5  -6  -8    6.08    1.36
  -5   6   8    4.61    1.14
   5   6  -8   -1.35    1.39
   5   6  -8    5.80    1.15
   4  -6  -8    1.70    1.27
   4  -6  -8    2.20    0.97
  -4  -6   8    4.49    1.45
  -4  -6   8    4.65    1.83
  -4   6   8    1.07    1.31
   4   6  -8    3.18    1.04
   4   6  -8    1.24    1.39
   3  -6  -8    2.29    1.22
   3  -6  -8    0.77    1.09
  -3  -6   8   -0.86    0.77
   3  -6  -8    2.09    1.36
  -3  -6   8   -0.03    1.58
   3   6  -8   -0.55    1.25
   3   6  -8    1.30    0.93
  -3   6   8    1.52    1.25
   2  -6  -8   13.02    1.42
   2  -6  -8    8.93    1.48
  -2  -6   8   13.98    1.53
   2  -6  -8   12.24    1.81
   2   6  -8   11.01    1.62
  -2   6   8   10.52    1.31
   2   6  -8    9.63    1.35
   1  -6  -8   19.44    1.80
  -1  -6   8   20.97    1.76
   1  -6  -8   22.23    2.20
   1   6  -8   17.30    1.88
  -1   6   8   20.59    1.85
   1   6  -8   22.72    1.86
   0  -6  -8    0.12    1.16
   0  -6  -8    0.48    0.97
   0  -6  -8   -0.26    0.71
   0   6   8   -0.21    0.74
   0   6  -8    0.69    1.24
   0   6  -8   -1.40    1.13
  -1  -6  -8   10.67    1.71
  -1  -6  -8    7.70    1.12
  -1  -6  -8    9.13    1.47
  -1   6  -8    8.33    1.55
  -1   6  -8    8.35    1.22
   1   6   8    7.56    1.37
  -2  -6  -8    1.16    1.05
  -2  -6  -8    1.46    1.45
  -2  -6  -8    0.94    0.74
   2   6   8    1.51    1.12
  -2   6  -8    1.04    0.92
  -2   6  -8    0.57    0.83
  10   0  -9    0.23    1.30
 -10   0   9   -0.46    0.90
 -10   0   9   -1.22    1.21
  10   0  -9   -0.43    1.20
  10   0  -9   -0.77    0.97
  -9   0   9  101.00    4.03
  -9   0   9   99.13    4.22
   9   0  -9  108.02    4.08
   9   0  -9   95.94    4.14
   9   0  -9  104.64    4.26
   9   0  -9  108.60    4.36
  -9   0   9  101.57    4.23
   8   0  -9   -0.35    1.13
   8   0  -9    0.62    1.16
   8   0  -9    1.39    1.30
   8   0  -9   -0.60    0.75
  -8   0   9   -0.32    1.10
  -8   0   9    0.35    0.90
  -8   0   9    0.10    0.74
   7   0  -9  104.61    3.99
  -7   0   9  108.41    4.07
   7   0  -9  108.43    3.95
  -7   0   9  110.96    4.04
   7   0  -9  102.47    3.98
  -7   0   9  106.15    4.21
   6   0  -9   -0.09    0.66
  -6   0   9   -0.30    0.86
   6   0  -9    0.66    0.76
  -6   0   9    0.64    0.92
   6   0  -9   -0.82    0.99
  -6   0   9   -0.18    1.11
  -5   0   9    1.38    0.58
   5   0  -9    1.87    0.78
   5   0  -9    2.09    0.74
   5   0  -9    2.01    0.86
   4   0  -9   -0.03    0.69
  -4   0   9   -0.88    0.64
   4   0  -9    0.40    0.93
  -4   0   9    0.46    0.68
   4   0  -9    0.11    0.52
  -4   0   9   -0.25    0.73
  -3   0   9  370.51   10.64
   3   0  -9  374.38   10.70
  -3   0   9  377.08   10.35
   3   0  -9  366.60   10.40
   3   0  -9  370.21   10.65
  -2   0   9   -0.12    0.39
  -2   0   9   -0.55    0.56
   2   0  -9   -0.44    0.78
   2   0  -9    0.35    0.56
  -1   0   9    1.24    0.38
  -1   0   9   -0.24    0.49
   1   0  -9    0.18    0.72
   1   0  -9   -0.20    0.67
   0   0  -9   -0.66    0.60
   0   0   9    0.77    0.64
   0   0  -9    0.04    0.57
  -1   0  -9   65.98    2.44
  -1   0  -9   65.61    2.32
   1   0   9   67.86    2.34
  -2   0  -9   -0.17    0.49
  -2   0  -9    0.05    0.39
   2   0   9    0.39    0.51
   3   0   9   20.05    1.02
  -3   0  -9   20.79    1.02
   4   0   9   -0.25    0.35
  -4   0  -9    0.03    0.34
  -5   0  -9   32.74    2.50
  -5   0  -9   30.47    1.08
 -10  -1   9   45.01    2.59
 -10  -1   9   48.52    3.02
  10  -1  -9   39.38    2.50
 -10  -1   9   46.73    4.06
  10  -1  -9   41.03    2.91
  10  -1  -9   40.23    2.75
 -10   1   9   47.00    2.62
  10   1  -9   46.51    3.02
 -10   1   9   47.54    3.10
  10   1  -9   43.70    2.86
   9  -1  -9   12.56    1.67
  -9  -1   9    8.85    1.52
  -9  -1   9   10.26    1.35
   9  -1  -9   10.50    1.77
  -9  -1   9   12.40    1.44
   9  -1  -9    9.57    1.30
   9   1  -9   11.75    1.63
  -9   1   9   11.81    1.64
   9   1  -9    9.27    1.31
  -9   1   9   11.51    1.60
  -9   1   9    8.83    1.36
  -8  -1   9    3.91    0.96
   8  -1  -9    3.27    1.27
   8  -1  -9    4.29    1.28
  -8  -1   9    2.83    1.09
  -8  -1   9    3.39    1.20
   8  -1  -9    4.34    1.15
   8  -1  -9    5.16    1.07
   8   1  -9    4.08    1.03
   8   1  -9    7.48    1.37
  -8   1   9    5.02    1.24
  -8   1   9    6.95    1.39
   8   1  -9    3.61    1.31
  -8   1   9    4.34    1.08
   7  -1  -9    3.13    0.91
  -7  -1   9    2.72    0.86
   7  -1  -9    2.69    0.84
  -7  -1   9    3.36    0.98
   7  -1  -9    2.11    1.25
   7  -1  -9    2.07    0.90
  -7  -1   9    2.59    1.06
   7   1  -9    1.87    1.11
   7   1  -9    2.04    1.19
   7   1  -9    2.38    0.89
  -7   1   9    2.65    1.24
  -7   1   9    3.92    1.13
  -7   1   9    2.24    0.87
   6  -1  -9  117.15    4.29
  -6  -1   9  119.69    4.30
   6  -1  -9  122.88    4.44
   6  -1  -9  115.01    4.39
  -6  -1   9  121.07    4.16
  -6  -1   9  117.70    4.16
   6  -1  -9  118.53    4.52
   6   1  -9  119.33    4.39
  -6   1   9  121.88    4.25
  -6   1   9  115.12    4.25
   6   1  -9  125.72    4.48
  -6   1   9  116.56    4.14
   6   1  -9  121.32    4.30
  -5  -1   9   34.60    1.87
   5  -1  -9   26.48    1.83
   5  -1  -9   35.45    1.97
  -5  -1   9   31.63    1.75
   5  -1  -9   36.95    2.06
  -5  -1   9   32.65    2.01
   5  -1  -9   36.28    2.43
  -5   1   9   38.70    2.39
  -5   1   9   34.58    1.79
  -5   1   9   35.62    2.01
   5   1  -9   31.38    1.96
   5   1  -9   35.39    2.02
   5   1  -9   39.11    2.25
   4  -1  -9   13.79    1.39
   4  -1  -9   14.98    1.25
  -4  -1   9   13.19    1.14
  -4  -1   9   14.75    1.11
   4  -1  -9   11.62    1.20
  -4  -1   9   11.11    1.42
  -4   1   9   12.49    1.05
  -4   1   9   14.06    1.22
   4   1  -9   14.61    1.20
   4   1  -9   12.15    1.40
  -4   1   9   14.10    1.26
   4   1  -9   10.83    1.15
  -3  -1   9   66.51    2.72
  -3  -1   9   72.78    2.42
   3  -1  -9   65.53    2.88
   3  -1  -9   69.43    2.57
   3  -1  -9   68.82    2.85
   3   1  -9   68.44    2.77
  -3   1   9   71.38    2.90
  -3   1   9   70.73    2.57
   3   1  -9   68.82    2.50
   3   1  -9   72.24    2.77
   2  -1  -9  134.92    4.36
   2  -1  -9  141.86    4.52
  -2  -1   9  136.46    3.96
  -2  -1   9  130.87    4.46
  -2   1   9  135.26    4.45
   2   1  -9  138.06    4.41
   2   1  -9  137.73    4.54
  -2   1   9  132.15    4.12
   1  -1  -9    1.57    0.74
  -1  -1   9    0.02    0.77
   1  -1  -9    0.74    0.70
   1   1  -9    1.85    0.80
  -1   1   9    0.74    0.74
  -1   1   9    0.76    0.54
   1   1  -9    1.00    0.57
   0  -1  -9   31.83    1.60
   0  -1  -9   33.96    1.65
   0  -1   9   35.56    1.89
   0   1  -9   34.97    1.66
   0   1   9   33.01    1.33
   0   1   9   34.17    1.68
   0   1  -9   36.09    1.71
  -1  -1  -9   83.87    2.71
   1  -1   9   79.56    2.73
  -1  -1  -9   78.21    2.70
   1   1   9   77.38    2.76
  -1   1  -9   81.47    2.91
  -1   1  -9   79.61    2.74
  -2  -1  -9   52.17    1.96
   2  -1   9   61.06    2.05
  -2   1  -9   54.16    2.00
  -2   1  -9   50.77    2.20
   2   1   9   58.62    2.08
  -3  -1  -9   17.87    0.98
   3  -1   9   15.80    1.00
  -3  -1  -9   15.69    1.80
  -3   1  -9   18.64    1.51
  -3   1  -9   15.53    0.98
   3   1   9   15.31    1.02
   4  -1   9   33.18    1.35
  -4  -1  -9   35.10    2.60
  -4  -1  -9   32.71    1.30
   4   1   9   35.59    1.38
  -4   1  -9   33.99    1.34
  -5  -1  -9    7.88    0.65
  -5  -1  -9    9.16    1.69
  -5   1  -9    8.11    0.60
   9  -2  -9   18.53    1.95
  -9  -2   9   17.01    1.67
  -9  -2   9   14.70    1.72
   9  -2  -9   15.34    1.73
  -9  -2   9   15.97    1.64
   9   2  -9   15.68    1.56
  -9   2   9   14.08    1.81
  -9   2   9   14.13    1.88
   9   2  -9   17.55    1.88
  -9   2   9   17.64    1.85
  -8  -2   9   10.69    1.55
   8  -2  -9   10.45    1.49
  -8  -2   9   12.63    1.49
   8  -2  -9   10.23    1.33
   8  -2  -9   10.90    1.63
  -8  -2   9    9.47    1.40
   8   2  -9    9.19    1.25
  -8   2   9    8.70    1.24
  -8   2   9   10.18    1.31
  -8   2   9   11.16    1.62
   8   2  -9    9.53    1.56
   8   2  -9   10.18    1.31
   7  -2  -9    1.97    1.20
  -7  -2   9    2.66    1.04
  -7  -2   9    2.36    1.09
   7  -2  -9    1.69    1.13
   7  -2  -9    0.10    1.24
  -7  -2   9    1.22    1.31
  -7   2   9    0.50    1.23
  -7   2   9    1.48    0.83
  -7   2   9    1.80    1.06
   7   2  -9   -0.07    1.10
   7   2  -9   -0.25    0.74
   7   2  -9   -0.22    0.84
  -6  -2   9   30.25    1.78
   6  -2  -9   32.40    2.18
   6  -2  -9   27.96    2.21
  -6  -2   9   26.60    2.41
   6  -2  -9   29.40    2.06
  -6  -2   9   29.09    1.91
  -6   2   9   30.27    2.02
   6   2  -9   36.34    2.36
  -6   2   9   28.39    1.78
  -6   2   9   29.01    1.80
   6   2  -9   31.76    2.13
   6   2  -9   26.91    1.87
  -5  -2   9   40.95    2.65
   5  -2  -9   55.19    2.76
   5  -2  -9   51.70    2.45
  -5  -2   9   44.71    2.08
   5  -2  -9   35.85    2.14
  -5   2   9   45.51    2.31
   5   2  -9   48.48    2.35
  -5   2   9   44.33    2.57
  -5   2   9   45.81    2.11
   5   2  -9   44.42    2.26
   5   2  -9   40.35    2.28
   4  -2  -9   16.80    1.41
   4  -2  -9   16.39    1.36
  -4  -2   9   14.87    1.19
   4  -2  -9   18.41    1.59
  -4  -2   9   17.54    1.66
   4   2  -9   16.81    1.47
  -4   2   9   15.38    1.24
   4   2  -9   15.42    1.38
  -4   2   9   17.96    1.61
   4   2  -9   16.62    1.55
  -4   2   9   17.23    1.36
   3  -2  -9   21.53    1.54
  -3  -2   9   23.83    2.00
   3  -2  -9   21.64    1.88
   3  -2  -9   19.15    1.37
   3  -2  -9   19.33    1.43
  -3   2   9   20.14    1.50
   3   2  -9   22.15    1.69
   3   2  -9   20.44    1.82
  -3   2   9   23.51    1.56
   2  -2  -9   14.74    1.23
   2  -2  -9   13.74    1.17
  -2  -2   9   12.69    1.34
  -2   2   9   13.26    1.14
   2   2  -9   13.70    1.31
   2   2  -9   14.41    1.21
   1  -2  -9  135.24    4.52
  -1  -2   9  143.20    4.64
   1  -2  -9  139.42    4.52
  -1   2   9  143.23    4.56
   1   2  -9  139.86    4.60
   1   2  -9  145.65    4.73
   0  -2   9   53.26    2.28
   0  -2  -9   53.24    2.15
   0  -2  -9   48.16    2.09
   0   2   9   52.67    2.20
   0   2  -9   51.23    2.20
   0   2  -9   50.22    2.22
   1  -2   9   77.23    2.83
  -1  -2  -9   78.89    2.66
  -1  -2  -9   77.94    2.75
  -1   2  -9   80.41    2.82
  -1   2  -9   83.42    3.07
   1   2   9   78.10    2.79
  -2  -2  -9    8.39    0.79
   2  -2   9    8.73    0.88
  -2  -2  -9    7.25    1.21
   2   2   9    8.88    0.84
  -2   2  -9    8.82    0.85
  -2   2  -9    9.26    1.08
  -3  -2  -9   30.76    1.42
   3  -2   9   33.74    1.60
  -3  -2  -9   32.87    2.55
  -3  -2  -9   32.35    2.06
  -3   2  -9   34.75    1.85
  -3   2  -9   33.18    1.52
   3   2   9   33.63    1.49
  -4  -2  -9   35.03    2.63
  -4  -2  -9   20.79    1.18
  -4  -2  -9   18.99    1.50
  -4   2  -9   21.17    1.16
   4   2   9   23.53    1.27
  -5  -2  -9  100.02    3.14
  -5  -2  -9  103.30    4.37
  -5   2  -9  103.09    3.10
   5   2   9   95.90    3.15
  -9  -3   9    9.02    1.39
  -9  -3   9   13.32    2.16
   9  -3  -9    9.33    1.64
   9  -3  -9   11.83    1.69
  -9   3   9    9.37    1.62
  -9   3   9    6.96    1.56
   9   3  -9    9.83    1.55
   9   3  -9   10.76    1.72
  -9   3   9   10.47    1.46
   8  -3  -9   20.03    1.95
  -8  -3   9   22.55    1.91
   8  -3  -9   22.16    1.85
  -8  -3   9   17.80    1.86
   8  -3  -9   20.52    2.22
  -8   3   9   18.26    1.72
   8   3  -9   20.62    2.01
  -8   3   9   19.70    1.96
   8   3  -9   20.41    1.95
   8   3  -9   21.94    1.95
  -7  -3   9   51.82    3.10
   7  -3  -9   49.55    2.56
   7  -3  -9   51.53    2.90
  -7  -3   9   54.13    2.57
   7  -3  -9   49.47    2.77
  -7   3   9   48.40    2.82
   7   3  -9   56.17    2.62
  -7   3   9   48.15    2.96
   7   3  -9   48.03    2.91
   7   3  -9   53.43    2.87
  -6  -3   9   33.45    2.18
   6  -3  -9   36.53    2.66
   6  -3  -9   34.39    2.40
  -6  -3   9   31.62    2.63
   6  -3  -9   34.65    2.02
   6   3  -9   36.20    2.29
  -6   3   9   28.12    2.07
  -6   3   9   32.16    2.31
   6   3  -9   33.60    2.34
   6   3  -9   38.19    2.21
   5  -3  -9   50.67    2.94
  -5  -3   9   55.30    3.01
   5  -3  -9   55.13    2.69
  -5  -3   9   56.28    2.58
   5  -3  -9   50.40    2.52
  -5   3   9   55.02    2.69
  -5   3   9   57.14    2.64
   5   3  -9   52.99    2.80
   5   3  -9   56.96    2.62
   5   3  -9   54.71    2.63
   4  -3  -9   19.69    1.55
   4  -3  -9   16.93    1.48
  -4  -3   9   16.39    1.73
   4  -3  -9   18.01    1.49
   4   3  -9   16.74    1.46
  -4   3   9   16.81    1.35
  -4   3   9   16.25    1.60
   4   3  -9   16.96    1.70
   4   3  -9   18.45    1.40
   3  -3  -9    4.34    0.86
   3  -3  -9    4.84    1.14
  -3  -3   9    6.71    1.31
   3   3  -9    6.33    1.01
  -3   3   9    6.03    1.17
   3   3  -9    4.99    0.97
   2  -3  -9  109.27    3.86
  -2  -3   9  106.22    3.81
   2  -3  -9  101.52    3.69
   2   3  -9  107.06    3.87
  -2   3   9  114.18    3.92
   2   3  -9  108.15    3.92
  -1  -3   9   23.78    1.93
   1  -3  -9   26.85    1.53
   1  -3  -9   26.20    1.72
  -1   3   9   23.21    1.77
   1   3  -9   28.45    1.83
   1   3  -9   25.52    1.96
   0  -3  -9   16.44    1.24
   0  -3  -9   15.34    1.61
   0  -3   9   17.42    1.41
   0  -3  -9   19.46    1.43
   0   3  -9   14.80    1.31
   0   3   9   16.42    1.33
   0   3  -9   16.32    1.49
  -2  -3  -9   49.48    2.69
  -2  -3  -9   51.34    2.12
   2  -3   9   49.96    2.21
  -2  -3  -9   51.23    2.76
  -2   3  -9   52.39    2.49
  -2   3  -9   50.23    2.13
   2   3   9   51.58    2.18
  -3  -3  -9    0.83    1.31
  -3  -3  -9    1.41    1.02
  -3  -3  -9    0.30    0.56
  -3   3  -9   -0.14    0.84
   3   3   9    0.42    0.63
  -3   3  -9   -0.43    0.56
  -4  -3  -9    7.14    1.29
  -4  -3  -9    5.14    0.75
  -4  -3  -9    5.46    1.64
  -4   3  -9    6.42    0.80
   4   3   9    7.51    0.86
  -4   3  -9    6.62    1.11
   8  -4  -9   44.54    2.91
   8  -4  -9   42.20    2.59
  -8  -4   9   46.20    2.60
   8  -4  -9   43.76    2.88
  -8  -4   9   42.59    3.36
   8   4  -9   49.88    3.07
   8   4  -9   54.27    3.06
  -8   4   9   45.20    3.00
   8   4  -9   40.82    2.78
  -8   4   9   51.38    3.09
   7  -4  -9   12.56    1.68
   7  -4  -9   14.29    1.71
   7  -4  -9   12.57    1.47
  -7  -4   9   13.03    1.46
  -7   4   9   16.31    1.79
   7   4  -9   13.07    1.80
   7   4  -9   14.17    1.52
  -7   4   9   13.56    1.79
   7   4  -9   12.30    1.67
   6  -4  -9    5.89    1.52
   6  -4  -9    7.43    1.37
   6  -4  -9    6.01    1.12
  -6  -4   9    6.64    1.01
  -6   4   9    2.20    0.97
   6   4  -9    4.28    1.20
   6   4  -9    5.61    1.05
  -6   4   9    6.45    1.46
   6   4  -9    3.84    1.38
   5  -4  -9   38.82    2.39
   5  -4  -9   46.88    2.51
   5  -4  -9   43.01    2.56
   5   4  -9   41.29    2.35
  -5   4   9   37.31    2.49
   5   4  -9   40.90    2.30
   5   4  -9   38.24    2.08
  -5   4   9   36.74    2.61
   4  -4  -9   39.35    2.60
   4  -4  -9   35.81    2.53
   4  -4  -9   37.81    2.41
   4   4  -9   40.41    2.24
  -4   4   9   39.79    2.22
   4   4  -9   40.52    2.57
  -3  -4   9   26.07    2.34
   3  -4  -9   27.43    1.80
   3  -4  -9   28.76    2.13
   3   4  -9   28.08    2.18
   3   4  -9   27.06    1.89
  -3   4   9   27.82    1.83
   2  -4  -9   32.43    2.10
   2  -4  -9   32.06    1.77
  -2   4   9   35.18    2.22
   2   4  -9   33.82    2.21
   2   4  -9   33.55    2.29
   1  -4  -9    2.26    1.24
   1  -4  -9    1.33    0.93
  -1   4   9    3.31    1.02
   1   4  -9    3.06    0.83
   1   4  -9    1.34    1.01
   0  -4  -9   25.59    2.12
   0  -4  -9   26.67    1.77
   0   4   9   23.23    1.56
   0   4  -9   26.86    2.10
   0   4  -9   26.18    1.88
  -1  -4  -9    6.04    1.21
  -1  -4  -9    3.01    0.92
  -1  -4  -9    7.45    1.46
  -1   4  -9    5.74    1.04
  -1   4  -9    7.65    1.29
   1   4   9    6.10    1.04
  -2  -4  -9    2.18    1.28
  -2  -4  -9    3.43    0.84
  -2  -4  -9    1.54    1.43
  -2   4  -9    3.14    0.90
   2   4   9    4.25    0.93
  -2   4  -9    4.68    1.15
  -3  -4  -9    3.98    1.56
  -3  -4  -9    7.26    1.24
  -3  -4  -9    8.24    1.04
  -3   4  -9    7.29    1.02
   3   4   9    5.16    1.11
  -3   4  -9    6.78    1.06
   7  -5  -9   -0.78    1.21
  -7  -5   9   -0.28    2.19
  -7  -5   9   -0.20    1.11
   7  -5  -9    0.35    0.95
   7  -5  -9    0.38    1.62
  -7   5   9    1.88    1.46
   7   5  -9    0.66    1.25
   7   5  -9    1.22    0.98
  -7   5   9    2.97    1.47
   7   5  -9    2.04    1.50
  -6  -5   9   23.33    2.37
  -6  -5   9   25.72    2.86
   6  -5  -9   29.70    2.40
   6  -5  -9   22.86    2.10
   6  -5  -9   27.86    2.16
   6   5  -9   25.65    2.29
  -6   5   9   22.28    1.91
   6   5  -9   25.69    2.28
  -6   5   9   22.67    2.15
   6   5  -9   23.58    1.94
   5  -5  -9    5.57    1.29
   5  -5  -9    6.00    1.51
   5  -5  -9    7.16    1.42
   5   5  -9    5.42    1.49
  -5   5   9    5.37    1.17
   5   5  -9    5.49    1.12
   4  -5  -9    2.78    1.24
   4  -5  -9    0.94    0.86
  -4   5   9    1.13    0.91
   4   5  -9    1.91    0.98
   4   5  -9    1.90    0.93
   3  -5  -9   12.12    1.29
   3  -5  -9   14.17    1.58
  -3  -5   9   12.59    1.64
  -3   5   9   12.73    1.63
   3   5  -9   11.67    1.62
   3   5  -9   10.67    1.62
   2  -5  -9    9.07    1.17
   2  -5  -9    6.33    1.55
   2  -5  -9    9.24    1.18
  -2  -5   9    8.71    1.34
  -2   5   9    7.75    1.13
   2   5  -9    9.42    1.51
   2   5  -9   10.10    1.54
  -1  -5   9   29.29    2.05
   1  -5  -9   34.36    2.28
   1  -5  -9   36.24    2.20
   1   5  -9   35.58    2.33
   1   5  -9   30.33    2.42
  -1   5   9   32.55    2.28
   0  -5  -9    1.30    1.32
   0  -5  -9    0.58    0.94
   0   5  -9    0.26    0.77
   0   5  -9   -0.29    1.15
   0   5   9    1.62    0.77
  -1  -5  -9   12.99    1.84
  -1  -5  -9   11.77    1.19
  -1  -5  -9   11.37    1.76
   1   5   9   13.31    1.45
  -1   5  -9   11.65    1.36
  -1   5  -9   10.67    1.42
  -2  -5  -9    3.48    1.52
  -2  -5  -9   -0.07    1.31
  -2  -5  -9    0.19    0.63
  -2   5  -9    1.19    1.20
   2   5   9    1.48    0.96
  -2   5  -9   -0.38    0.95
   5  -6  -9    3.33    1.41
  -5  -6   9    0.73    1.47
  -5  -6   9   -1.51    1.92
   5  -6  -9   -1.36    0.91
  -5   6   9    1.00    1.40
   5   6  -9   -0.11    1.34
   5   6  -9    0.89    1.48
   4  -6  -9   17.68    1.70
  -4  -6   9   11.37    1.87
   4  -6  -9   20.15    1.79
  -4  -6   9   18.79    2.08
   4   6  -9   16.80    2.05
  -4   6   9   16.31    1.67
   4   6  -9   15.26    1.87
   3  -6  -9    0.96    1.23
  -3  -6   9    2.34    1.26
   3  -6  -9    1.70    1.17
   3   6  -9    2.57    1.45
   3   6  -9    0.33    0.94
  -3   6   9    0.79    1.28
   2  -6  -9   10.03    1.53
   2  -6  -9    6.37    1.15
  -2  -6   9    9.41    1.45
  -2   6   9    6.82    1.50
   2   6  -9    4.90    1.50
   2   6  -9    8.04    1.34
   1  -6  -9    8.97    1.77
   1  -6  -9    8.34    1.22
   1   6  -9    6.37    1.19
  -1   6   9    5.40    1.13
   1   6  -9    6.94    1.57
   0  -6  -9   71.77    3.18
   0  -6  -9   74.10    3.67
   0   6  -9   72.96    3.65
   0   6   9   76.60    3.25
   0   6  -9   73.89    3.52
  -9   0  10   -0.03    0.91
   9   0 -10   -0.30    0.87
   9   0 -10   -2.46    1.14
  -9   0  10   -1.12    1.09
   9   0 -10   -0.42    0.84
  -9   0  10   -2.97    1.24
  -8   0  10  221.61    7.02
  -8   0  10  219.78    7.11
   8   0 -10  215.55    7.18
   8   0 -10  216.29    7.13
  -8   0  10  228.83    7.34
   8   0 -10  217.74    7.16
  -7   0  10    0.40    0.98
  -7   0  10    2.92    1.33
   7   0 -10    0.95    0.76
   7   0 -10   -1.03    1.11
  -7   0  10   -1.10    0.67
   7   0 -10   -0.70    0.84
  -6   0  10   44.24    2.08
   6   0 -10   41.99    2.30
   6   0 -10   40.76    2.29
  -6   0  10   37.80    2.31
  -6   0  10   41.27    2.32
   6   0 -10   46.37    2.45
   5   0 -10   -0.57    0.75
   5   0 -10   -0.29    1.04
  -5   0  10    0.32    0.83
   5   0 -10   -0.23    0.56
  -5   0  10    0.43    0.79
   4   0 -10  187.62    6.08
  -4   0  10  192.69    6.16
   4   0 -10  192.50    6.17
  -4   0  10  187.54    5.69
   3   0 -10    0.47    0.92
   3   0 -10   -0.31    0.62
  -3   0  10   -0.70    0.51
  -3   0  10   -1.04    0.97
   2   0 -10    1.76    0.71
  -2   0  10    2.59    0.58
   2   0 -10    2.88    0.69
  -2   0  10    3.67    0.78
   1   0 -10    0.19    0.73
   1   0 -10    0.05    0.76
  -1   0  10   -0.74    0.75
   0   0  10   94.85    3.32
   0   0 -10   97.84    3.33
   0   0 -10   98.14    3.40
  -1   0 -10   -1.22    0.52
  -1   0 -10   -0.49    0.59
   1   0  10    0.72    0.72
   2   0  10    6.51    0.72
  -2   0 -10    6.31    0.72
  -3   0 -10    0.11    0.48
   3   0  10   -0.45    0.49
  -4   0 -10   77.30    2.48
  -9  -1  10   -0.31    0.84
   9  -1 -10   -1.66    0.84
  -9  -1  10    0.68    1.21
  -9  -1  10   -1.92    1.33
   9  -1 -10   -0.25    1.45
   9  -1 -10   -0.56    1.22
   9  -1 -10    1.58    1.27
  -9   1  10    0.21    1.34
   9   1 -10    2.17    1.35
  -9   1  10   -0.54    1.28
  -9   1  10   -0.15    0.84
   9   1 -10    0.39    0.91
   9   1 -10   -0.08    1.25
   8  -1 -10   -0.80    0.93
  -8  -1  10    0.57    1.06
  -8  -1  10    0.58    1.32
  -8  -1  10    0.93    1.11
   8  -1 -10    1.72    1.25
   8  -1 -10    1.30    1.23
   8  -1 -10    0.19    1.12
  -8   1  10   -1.37    0.78
   8   1 -10    1.25    1.26
   8   1 -10    0.51    0.85
  -8   1  10    1.15    1.31
  -8   1  10    0.47    0.79
   8   1 -10   -0.05    1.12
   7  -1 -10  137.70    5.09
  -7  -1  10  140.34    5.16
  -7  -1  10  141.18    4.83
   7  -1 -10  137.63    4.81
   7  -1 -10  142.39    5.29
  -7  -1  10  137.52    4.94
   7  -1 -10  140.72    4.95
   7   1 -10  132.57    5.03
  -7   1  10  136.95    4.91
   7   1 -10  128.66    4.89
   7   1 -10  145.66    5.01
  -7   1  10  136.59    4.88
  -7   1  10  135.34    5.08
  -6  -1  10   18.37    1.51
   6  -1 -10   19.10    1.89
  -6  -1  10   20.27    1.93
   6  -1 -10   16.48    1.52
  -6  -1  10   19.23    1.49
   6  -1 -10   16.07    1.77
   6  -1 -10   18.77    1.54
   6   1 -10   17.79    1.58
  -6   1  10   20.56    1.66
  -6   1  10   21.00    1.53
  -6   1  10   17.90    1.63
   6   1 -10   18.54    1.81
   6   1 -10   21.90    1.71
   5  -1 -10    6.09    1.07
   5  -1 -10    6.10    1.28
  -5  -1  10    7.12    1.13
  -5  -1  10    5.10    0.94
   5  -1 -10    4.43    0.99
   5   1 -10    5.87    1.06
  -5   1  10    6.25    1.07
   5   1 -10    6.27    1.05
  -5   1  10    4.82    1.31
   5   1 -10    5.86    0.91
   4  -1 -10   33.21    1.94
   4  -1 -10   32.46    2.19
  -4  -1  10   30.60    1.64
  -4  -1  10   36.56    2.31
  -4   1  10   34.60    2.28
  -4   1  10   35.37    1.85
   4   1 -10   33.73    2.23
   4   1 -10   32.52    2.19
   3  -1 -10  162.81    5.30
  -3  -1  10  158.60    4.77
  -3  -1  10  156.18    5.29
   3  -1 -10  156.96    5.32
  -3   1  10  156.90    4.92
  -3   1  10  161.98    5.30
   3   1 -10  169.70    5.36
   3   1 -10  164.27    5.28
   2  -1 -10    1.97    0.89
  -2  -1  10    0.50    0.91
   2  -1 -10    1.44    0.68
   2   1 -10   -0.03    0.87
   2   1 -10    0.94    0.93
  -2   1  10    1.70    0.91
  -2   1  10    1.56    0.57
   1  -1 -10   44.95    2.12
  -1  -1  10   42.03    2.15
   1  -1 -10   43.21    2.06
   1   1 -10   42.59    2.18
   1   1 -10   40.32    2.07
  -1   1  10   41.82    2.10
   0  -1 -10    4.15    0.79
   0  -1 -10    2.50    0.74
   0  -1  10    3.31    0.97
   0   1 -10    4.46    0.90
   0   1  10    3.99    0.82
   0   1 -10    3.47    0.81
   1  -1  10  143.47    4.48
  -1  -1 -10  143.08    4.44
  -1  -1 -10  139.20    4.39
  -1   1 -10  136.81    4.47
   1   1  10  148.15    4.43
  -1   1 -10  137.33    4.50
  -2  -1 -10   10.08    0.86
   2  -1  10   10.12    0.94
  -2   1 -10   10.22    1.05
   2   1  10   10.23    0.88
  -2   1 -10    9.26    0.92
  -3  -1 -10   15.71    0.97
   3  -1  10   16.09    1.13
  -3   1 -10   15.64    1.09
   3   1  10   14.33    1.12
  -4   1 -10    4.36    0.62
   4   1  10    4.97    0.62
  -9  -2  10    0.82    0.94
   9  -2 -10    1.05    1.03
  -9  -2  10    0.67    1.07
   9  -2 -10    2.48    1.20
   9  -2 -10   -0.58    1.28
   9   2 -10    3.30    1.46
   9   2 -10    1.23    1.32
   9   2 -10   -0.88    1.26
  -9   2  10    2.95    1.01
  -9   2  10    1.72    1.05
  -9   2  10    1.31    1.03
   8  -2 -10   -0.45    1.28
   8  -2 -10    0.34    1.39
  -8  -2  10    1.49    0.88
   8  -2 -10    0.57    1.22
  -8  -2  10   -0.17    1.03
  -8  -2  10    1.27    1.09
   8  -2 -10    0.37    0.92
   8   2 -10    0.63    1.29
  -8   2  10    0.77    0.83
   8   2 -10    0.59    1.17
   8   2 -10   -0.23    0.81
  -8   2  10    3.69    1.32
  -8   2  10    3.06    1.42
  -7  -2  10    4.50    1.11
   7  -2 -10    7.09    1.51
   7  -2 -10    5.12    1.37
   7  -2 -10    7.04    1.47
  -7  -2  10    7.86    1.61
  -7  -2  10    4.45    0.97
   7  -2 -10    5.29    1.30
  -7   2  10    4.77    1.14
   7   2 -10    6.32    1.43
   7   2 -10    3.08    1.27
  -7   2  10    5.93    1.28
   7   2 -10    7.09    1.36
  -7   2  10    5.54    1.01
  -6  -2  10   98.37    3.89
   6  -2 -10  103.19    4.22
   6  -2 -10  110.46    3.78
   6  -2 -10   95.61    4.03
   6  -2 -10   87.93    3.76
  -6   2  10   95.78    3.65
  -6   2  10  103.47    4.13
   6   2 -10  101.19    3.85
   6   2 -10   95.78    3.80
  -6   2  10   91.43    3.86
   6   2 -10   97.67    3.87
   5  -2 -10   -0.08    1.07
   5  -2 -10    1.26    0.85
   5  -2 -10   -1.09    1.10
   5  -2 -10   -0.09    0.90
  -5  -2  10   -1.01    0.84
   5   2 -10    1.47    0.81
  -5   2  10    0.68    0.80
   5   2 -10    0.71    0.87
  -5   2  10    0.89    0.69
   5   2 -10    0.13    1.17
  -4  -2  10   29.43    1.94
   4  -2 -10   28.25    2.08
   4  -2 -10   26.22    1.80
  -4   2  10   23.72    1.91
  -4   2  10   29.93    1.83
   4   2 -10   28.34    1.86
   4   2 -10   30.03    2.16
   3  -2 -10   10.61    1.14
   3  -2 -10   12.17    1.36
  -3  -2  10   10.80    1.18
  -3   2  10   10.70    1.16
   3   2 -10   10.64    1.17
   3   2 -10    9.45    1.32
  -3   2  10   10.27    1.08
   2  -2 -10   77.36    2.91
   2  -2 -10   73.06    3.05
  -2  -2  10   76.88    3.18
  -2   2  10   76.86    2.75
  -2   2  10   72.76    3.05
   2   2 -10   72.88    3.10
   2   2 -10   77.45    3.21
   1  -2 -10    0.59    0.79
   1  -2 -10    0.77    0.76
  -1  -2  10   -0.10    0.92
   1   2 -10    0.08    0.85
  -1   2  10    0.75    0.85
   1   2 -10    1.00    0.94
   0  -2 -10  130.65    4.20
   0  -2 -10  128.25    4.16
   0  -2  10  122.77    4.25
   0   2  10  127.21    4.21
   0   2 -10  129.43    4.41
   0   2 -10  128.06    4.26
   1  -2  10    3.97    0.99
  -1  -2 -10    3.57    0.75
  -1   2 -10    1.53    0.75
   1   2  10    4.73    0.83
  -1   2 -10    1.37    0.67
  -2  -2 -10    4.15    0.71
   2  -2  10    3.86    0.92
  -2   2 -10    3.49    0.70
  -2   2 -10    2.44    0.88
   2   2  10    3.10    0.73
  -3  -2 -10    0.90    0.53
   3  -2  10   -0.21    0.68
  -3   2 -10    0.30    0.53
   3   2  10   -0.23    0.53
  -4  -2 -10   77.11    4.01
  -4  -2 -10   75.11    2.65
   4   2  10   77.35    2.70
  -4   2 -10   77.97    2.62
  -8  -3  10    1.01    0.87
   8  -3 -10    0.15    1.05
  -8  -3  10   -0.33    1.00
   8  -3 -10   -1.03    1.18
   8  -3 -10    0.82    1.32
  -8   3  10   -1.27    1.34
  -8   3  10    0.94    1.34
   8   3 -10   -0.42    1.32
   8   3 -10    0.24    0.86
   8   3 -10   -0.35    1.19
  -8   3  10    0.47    0.84
   7  -3 -10    6.42    1.57
   7  -3 -10    3.43    1.37
  -7  -3  10    4.02    1.55
  -7  -3  10    4.06    1.16
   7  -3 -10    4.87    1.35
  -7   3  10    5.22    1.18
  -7   3  10    3.74    0.96
   7   3 -10    6.35    1.53
   7   3 -10    4.70    1.27
  -7   3  10    6.42    1.41
   7   3 -10    5.05    1.38
  -6  -3  10   30.73    2.60
   6  -3 -10   31.34    2.30
   6  -3 -10   31.81    2.25
   6  -3 -10   31.29    2.09
   6   3 -10   32.85    2.11
  -6   3  10   31.52    2.54
   6   3 -10   29.19    2.44
  -6   3  10   28.78    2.23
   6   3 -10   29.47    2.20
   5  -3 -10   11.57    1.52
   5  -3 -10   10.63    1.54
   5  -3 -10    8.35    1.68
  -5  -3  10    8.88    1.64
  -5   3  10    9.25    1.34
   5   3 -10   12.41    1.63
  -5   3  10    9.34    1.26
   5   3 -10    9.97    1.26
  -4  -3  10    5.56    1.14
   4  -3 -10    6.64    1.08
   4  -3 -10    4.28    1.24
  -4   3  10    6.63    1.17
   4   3 -10    5.95    1.34
  -4   3  10    7.05    1.37
   4   3 -10    7.81    1.18
   3  -3 -10   15.97    1.56
   3  -3 -10   13.82    1.47
  -3  -3  10   14.40    1.62
   3   3 -10   15.54    1.62
  -3   3  10   13.60    1.50
   3   3 -10   15.60    1.58
  -2  -3  10   -0.32    1.08
   2  -3 -10    1.98    0.71
   2  -3 -10    2.12    0.94
   2   3 -10    2.52    1.05
  -2   3  10    0.50    0.96
   2   3 -10    2.59    1.10
   1  -3 -10    0.55    0.75
   1  -3 -10    0.57    0.61
  -1  -3  10   -1.38    0.95
   1   3 -10   -0.25    0.89
  -1   3  10   -0.23    0.85
   1   3 -10    1.29    0.76
   0   3 -10    8.85    1.28
   0   3  10   10.41    1.18
   1  -3  10   24.76    1.80
  -1  -3 -10   23.30    1.58
  -1   3 -10   24.01    1.65
  -1   3 -10   26.01    1.69
   1   3  10   25.02    1.70
  -2  -3 -10    0.93    0.68
   2  -3  10    1.37    0.99
   2   3  10    1.67    0.77
  -2   3 -10    3.06    1.01
  -2   3 -10    1.87    0.76
  -3  -3 -10   -0.03    1.42
  -3  -3 -10    1.36    1.14
  -3  -3 -10    0.63    0.62
  -3   3 -10    0.38    0.63
  -3   3 -10    1.03    0.95
   3   3  10    0.17    0.82
   7  -4 -10   21.58    2.06
   7  -4 -10   21.00    2.22
   7  -4 -10   25.33    1.94
  -7   4  10   19.07    1.77
   7   4 -10   21.30    1.98
  -7   4  10   25.03    2.18
   7   4 -10   21.57    2.15
   7   4 -10   19.14    1.97
   6  -4 -10    5.03    1.03
   6  -4 -10    4.55    1.42
   6  -4 -10    3.90    1.13
  -6   4  10    5.05    1.08
   6   4 -10    1.99    1.01
  -6   4  10    4.77    1.14
   6   4 -10    2.67    1.40
   5  -4 -10   52.74    2.76
  -5  -4  10   54.31    3.20
   5  -4 -10   53.06    2.94
  -5   4  10   53.57    3.04
   5   4 -10   52.99    2.73
   5   4 -10   53.18    2.77
  -5   4  10   49.38    2.82
   4  -4 -10    0.15    1.12
   4  -4 -10   -0.01    1.00
  -4  -4  10   -1.59    0.89
   4   4 -10   -0.10    1.15
   4   4 -10    0.43    0.90
  -4   4  10   -0.18    0.83
  -3  -4  10    8.08    1.26
   3  -4 -10    6.72    1.26
   3  -4 -10    8.29    1.21
  -3   4  10    5.86    1.31
   3   4 -10    7.43    1.19
   3   4 -10    9.30    1.23
   2  -4 -10    6.43    1.01
  -2  -4  10    5.19    1.39
   2   4 -10    5.53    1.06
  -2   4  10    5.50    1.01
   2   4 -10    5.88    1.29
   1  -4 -10    7.92    1.17
   1  -4 -10    7.17    1.20
  -1   4  10    6.93    1.24
   1   4 -10    6.42    1.12
   1   4 -10    7.58    1.07
   0  -4 -10   17.36    1.50
   0   4 -10   15.60    1.65
   0   4  10   15.08    1.49
   0   4 -10   15.68    1.50
  -1  -4 -10   11.31    1.26
  -1  -4 -10   13.84    1.77
  -1   4 -10    8.10    1.21
   1   4  10   11.25    1.27
  -1   4 -10   10.72    1.49
  -2  -4 -10    0.43    0.78
  -2  -4 -10    1.60    0.95
  -2  -4 -10    0.73    1.48
  -2   4 -10    1.99    0.90
  -2   4 -10    1.96    1.09
   2   4  10    0.22    0.85
   6  -5 -10   29.90    2.51
   6  -5 -10   27.07    2.17
  -6   5  10   26.94    2.34
  -6   5  10   26.35    2.11
   6   5 -10   25.62    2.20
   6   5 -10   23.30    2.04
   5  -5 -10    6.14    1.51
   5  -5 -10    4.81    1.47
  -5   5  10    9.20    1.65
   5   5 -10    8.55    1.70
   5   5 -10    7.48    1.30
   4  -5 -10   49.77    2.63
   4  -5 -10   50.55    2.96
   4   5 -10   50.05    3.11
   4   5 -10   52.99    2.77
  -4   5  10   49.24    3.02
   3  -5 -10    6.86    1.40
   3  -5 -10    7.65    1.27
  -3   5  10    5.83    1.15
   3   5 -10    4.60    1.54
   3   5 -10    7.89    1.58
   2  -5 -10  125.66    4.73
  -2  -5  10  118.94    4.58
   2   5 -10  126.69    4.66
  -2   5  10  130.99    4.79
   2   5 -10  132.86    4.96
   1  -5 -10   -0.66    0.97
   1   5 -10    1.37    1.27
  -1   5  10    0.60    1.11
   1   5 -10    2.26    0.90
   0  -5 -10   22.46    1.95
   0  -5 -10   22.79    2.29
   0   5 -10   21.77    1.87
   0   5  10   23.47    2.06
   0   5 -10   22.44    2.08
   9   0 -11   64.58    3.52
  -9   0  11   65.87    3.20
   9   0 -11   66.50    3.58
   9   0 -11   68.91    3.60
  -9   0  11   72.37    3.72
  -9   0  11   71.26    3.47
   8   0 -11    3.36    1.26
  -8   0  11    1.19    1.05
   8   0 -11   -0.87    1.21
  -8   0  11    1.00    1.17
   8   0 -11    1.35    1.35
  -7   0  11   26.54    2.11
   7   0 -11   27.43    2.07
  -7   0  11   27.95    2.13
   7   0 -11   22.31    2.05
   7   0 -11   29.65    1.95
  -6   0  11    0.69    1.28
   6   0 -11    1.33    1.17
  -6   0  11   -0.57    0.59
   6   0 -11   -0.30    0.79
   5   0 -11   21.47    1.87
   5   0 -11   20.91    1.88
  -5   0  11   19.01    1.87
  -5   0  11   20.24    1.60
   4   0 -11    0.27    0.75
  -4   0  11    1.30    0.70
   4   0 -11    0.34    1.03
  -4   0  11   -1.16    0.72
   3   0 -11   13.74    1.48
  -3   0  11   13.01    1.10
   3   0 -11   12.37    1.44
  -3   0  11   11.06    1.45
  -2   0  11    0.06    0.66
   2   0 -11   -0.32    0.58
   2   0 -11    0.92    0.87
  -1   0  11   45.47    2.31
   1   0 -11   45.11    2.22
   1   0 -11   46.25    2.29
   0   0 -11    0.35    0.71
   0   0 -11   -0.76    0.69
   0   0  11   -0.08    0.92
   1   0  11   87.84    3.10
  -1   0 -11   87.90    3.10
  -1   0 -11   85.78    3.16
   2   0  11    0.59    0.58
  -2   0 -11    0.52    0.55
   3   0  11   39.26    1.80
  -3   0 -11   40.34    1.77
   9  -1 -11    3.54    1.42
   9  -1 -11    4.40    1.53
  -9  -1  11    4.19    1.35
   9  -1 -11    6.37    1.84
  -9  -1  11    3.54    1.62
  -9  -1  11    4.45    1.42
   9  -1 -11    4.86    1.53
   9   1 -11    6.12    1.28
   9   1 -11    3.57    1.40
  -9   1  11    4.39    1.14
  -9   1  11    3.98    1.07
   9   1 -11    4.97    1.20
  -9   1  11    5.81    1.36
  -8  -1  11   58.86    2.95
   8  -1 -11   54.70    3.17
   8  -1 -11   55.05    2.89
   8  -1 -11   55.31    3.04
  -8  -1  11   52.31    3.31
  -8   1  11   56.11    3.26
   8   1 -11   51.03    3.16
   8   1 -11   53.11    2.83
  -8   1  11   59.87    3.07
   8   1 -11   54.63    2.78
   7  -1 -11    1.96    1.12
   7  -1 -11    0.52    0.86
  -7  -1  11    0.36    0.96
  -7  -1  11   -0.86    0.91
   7  -1 -11    1.64    1.28
  -7   1  11    2.86    1.41
   7   1 -11    1.42    1.31
   7   1 -11    1.34    0.80
  -7   1  11    1.16    1.03
   7   1 -11   -1.29    1.13
   6  -1 -11    5.88    1.13
  -6  -1  11    5.61    1.06
   6  -1 -11    6.27    1.15
  -6  -1  11    8.15    1.60
  -6   1  11    6.04    1.48
   6   1 -11    5.25    1.12
   6   1 -11    5.00    1.42
  -6   1  11    5.16    1.15
   5  -1 -11    1.89    1.20
   5  -1 -11    4.35    1.25
  -5  -1  11    5.54    0.96
  -5  -1  11    4.26    1.07
  -5   1  11    5.58    1.41
   5   1 -11    3.01    0.97
  -5   1  11    4.43    0.81
   5   1 -11    5.37    1.04
  -4  -1  11  141.10    4.49
   4  -1 -11  145.39    4.98
  -4  -1  11  139.60    5.06
   4  -1 -11  141.04    5.05
  -4   1  11  145.30    5.09
   4   1 -11  147.62    5.10
   4   1 -11  149.12    5.13
  -4   1  11  144.89    4.66
  -3  -1  11   24.69    2.13
   3  -1 -11   28.78    2.10
   3  -1 -11   30.24    2.07
  -3   1  11   28.78    1.61
   3   1 -11   31.52    2.11
   3   1 -11   29.67    2.15
  -3   1  11   31.23    2.17
   2  -1 -11   -0.40    0.59
  -2  -1  11   -1.10    0.95
   2  -1 -11    0.60    0.65
   2   1 -11   -0.05    0.62
   2   1 -11    0.43    0.89
  -2   1  11   -0.30    0.92
   1  -1 -11    8.87    1.12
   1  -1 -11    8.42    0.96
  -1  -1  11    9.66    1.17
   1   1 -11    7.06    1.10
   1   1 -11   10.07    1.24
  -1   1  11    8.03    1.14
   0  -1 -11   53.85    2.36
   0  -1 -11   55.81    2.38
   0  -1  11   53.15    2.42
   0   1  11   55.92    2.40
   0   1 -11   54.38    2.40
   0   1 -11   55.13    2.37
  -1  -1 -11   15.62    1.27
   1  -1  11   14.02    1.17
   1   1  11   14.93    1.20
  -1   1 -11   13.22    1.14
  -1   1 -11   12.85    1.27
   2  -1  11   12.61    1.07
  -2  -1 -11   13.24    1.06
  -2   1 -11   12.82    1.11
   2   1  11   14.81    1.11
  -3  -1 -11   31.52    1.60
   3  -1  11   31.58    1.65
   3   1  11   32.85    1.65
  -3   1 -11   32.75    1.51
   8  -2 -11    1.71    0.98
   8  -2 -11    3.46    1.28
   8  -2 -11    3.42    1.41
   8  -2 -11    2.31    1.58
  -8  -2  11    1.82    1.49
   8   2 -11   -0.35    1.25
  -8   2  11    3.05    1.53
  -8   2  11    2.74    0.99
   8   2 -11    2.64    1.07
   8   2 -11    2.22    1.27
   7  -2 -11   71.98    3.16
   7  -2 -11   77.66    3.65
   7  -2 -11   66.43    3.24
   7  -2 -11   82.08    3.57
  -7  -2  11   67.53    3.33
  -7   2  11   77.20    3.70
   7   2 -11   73.59    3.31
   7   2 -11   66.01    3.27
   7   2 -11   65.05    3.38
  -7   2  11   77.95    3.41
   6  -2 -11    0.25    1.18
   6  -2 -11   -0.18    1.21
   6  -2 -11   -0.74    0.88
  -6  -2  11   -0.74    0.94
  -6   2  11   -0.04    0.72
  -6   2  11   -1.14    0.87
   6   2 -11    0.91    1.29
   6   2 -11    0.94    0.87
   5  -2 -11   64.01    3.18
  -5  -2  11   64.35    3.30
   5  -2 -11   62.44    3.16
  -5   2  11   61.66    3.20
   5   2 -11   61.46    3.21
   5   2 -11   65.40    2.95
  -5   2  11   64.18    2.85
   4  -2 -11   21.02    1.82
   4  -2 -11   22.18    1.86
  -4  -2  11   20.88    1.79
  -4   2  11   20.75    1.83
   4   2 -11   19.47    1.82
  -4   2  11   19.40    1.40
   4   2 -11   20.68    1.82
  -3  -2  11   16.40    1.67
   3  -2 -11   14.96    1.55
   3  -2 -11   17.32    1.46
   3   2 -11   14.30    1.60
  -3   2  11   17.25    1.29
  -3   2  11   17.12    1.65
   3   2 -11   14.66    1.62
   2  -2 -11    4.46    1.06
  -2  -2  11    4.99    1.24
   2  -2 -11    2.64    0.97
   2   2 -11    4.99    1.20
  -2   2  11    3.37    1.08
   2   2 -11    5.72    0.97
  -2   2  11    4.88    0.81
   1  -2 -11  139.70    4.65
   1  -2 -11  136.52    4.55
  -1  -2  11  136.30    4.74
  -1   2  11  137.37    4.66
   1   2 -11  136.14    4.71
   1   2 -11  141.28    4.74
   0  -2  11   12.09    1.31
   0  -2 -11    9.22    1.10
   0  -2 -11   10.73    1.06
   0   2 -11    8.98    1.26
   0   2  11   10.36    1.16
   0   2 -11   11.21    1.19
  -1  -2 -11    1.99    0.75
   1  -2  11    1.49    0.87
   1   2  11    2.83    0.84
  -1   2 -11    1.27    0.94
  -1   2 -11    3.24    0.86
   2  -2  11    3.99    0.84
  -2  -2 -11    0.77    0.64
  -2   2 -11    2.06    0.90
  -2   2 -11    2.02    0.71
   2   2  11    2.35    0.77
  -7  -3  11    8.02    1.79
   7  -3 -11    6.92    1.29
   7  -3 -11    8.30    1.77
  -7   3  11   11.88    1.80
  -7   3  11   10.30    1.58
   7   3 -11    6.81    1.25
   7   3 -11    5.73    1.27
   6  -3 -11   -1.42    1.25
  -6  -3  11    0.54    1.41
   6  -3 -11    0.85    0.93
  -6   3  11    1.59    1.13
  -6   3  11    1.27    1.01
   6   3 -11   -0.93    0.90
   6   3 -11    0.42    1.27
  -5  -3  11   10.80    1.75
   5  -3 -11   11.26    1.62
   5  -3 -11    9.59    1.56
   5  -3 -11   10.41    1.36
   5   3 -11   12.22    1.69
  -5   3  11   16.85    1.58
  -5   3  11   12.30    1.71
   5   3 -11    9.24    1.34
   4  -3 -11   30.28    2.35
   4  -3 -11   27.17    2.25
  -4  -3  11   31.12    2.51
   4   3 -11   30.44    2.04
  -4   3  11   24.99    1.70
  -4   3  11   28.00    2.35
   4   3 -11   29.25    2.34
   3  -3 -11    2.41    1.08
  -3  -3  11    2.07    1.28
   3  -3 -11    0.49    1.00
  -3   3  11    1.23    1.14
  -3   3  11    1.45    0.65
   3   3 -11    0.67    1.14
   3   3 -11    1.74    0.88
   2  -3 -11   17.92    1.60
  -2  -3  11   18.26    1.76
   2  -3 -11   18.30    1.60
   2   3 -11   19.20    1.70
   2   3 -11   18.39    1.60
  -2   3  11   18.08    1.64
   1  -3 -11    2.51    0.83
   1  -3 -11    2.77    0.95
  -1  -3  11    2.36    0.87
  -1   3  11    3.83    0.84
   1   3 -11    2.94    1.12
   1   3 -11    3.15    1.09
   0  -3  11   12.57    1.23
   0  -3 -11   12.47    1.30
   0   3  11   13.30    1.33
   0   3 -11   11.99    1.34
   0   3 -11   13.59    1.49
   1  -3  11    0.09    0.90
  -1  -3 -11    0.43    0.77
  -1   3 -11    0.77    0.83
  -1   3 -11    0.87    0.99
   1   3  11    0.77    0.86
  -2  -3 -11   21.60    1.58
   2  -3  11   20.98    1.68
   2   3  11   21.23    1.65
  -2   3 -11   25.95    2.04
  -2   3 -11   26.58    1.66
   6  -4 -11    8.42    1.67
   6  -4 -11    9.90    1.74
  -6  -4  11    8.60    1.89
   6   4 -11    8.90    1.68
   6   4 -11    9.27    1.45
  -6   4  11   10.98    1.48
  -6   4  11    8.02    1.29
   5  -4 -11   -0.12    1.23
  -5  -4  11    2.50    1.17
   5  -4 -11    1.29    1.22
   5   4 -11    2.33    1.38
  -5   4  11   -0.61    1.33
   5   4 -11    2.82    1.48
  -5   4  11    1.39    0.86
   4  -4 -11    9.93    1.50
  -4  -4  11    9.10    1.73
   4  -4 -11    8.86    1.26
  -4   4  11    9.65    1.61
   4   4 -11   11.73    1.46
  -4   4  11   10.48    1.23
   4   4 -11    9.73    1.65
   3  -4 -11    3.23    0.93
  -3  -4  11    2.97    1.45
   3   4 -11    5.47    1.38
   3   4 -11    2.63    1.31
  -3   4  11    3.08    0.99
   2  -4 -11   23.22    1.72
  -2  -4  11   20.79    1.98
   2  -4 -11   22.14    1.79
   2   4 -11   21.56    1.97
  -2   4  11   24.26    2.15
   2   4 -11   22.56    1.80
   1  -4 -11    0.63    0.96
   1  -4 -11    0.73    0.72
   1   4 -11    0.74    1.07
   1   4 -11    0.15    1.20
  -1   4  11    1.40    1.07
   0  -4 -11    0.68    0.66
   0   4 -11   -0.75    0.95
   0   4  11   -0.12    1.00
   0   4 -11   -1.28    0.71
   3  -5 -11  108.50    4.31
  -3   5  11  105.05    4.34
   3   5 -11  101.36    4.17
   3   5 -11   97.51    4.42
   8   0 -12    0.53    1.40
  -8   0  12    2.11    1.12
  -8   0  12   -0.23    1.11
   8   0 -12   -0.59    1.40
   7   0 -12   -0.05    0.92
  -7   0  12   -0.17    0.99
   7   0 -12    1.75    1.03
  -7   0  12    3.05    1.49
  -6   0  12    1.07    0.94
  -6   0  12    0.04    1.34
   6   0 -12    1.20    1.32
   6   0 -12    1.61    0.96
  -5   0  12    0.25    0.77
  -5   0  12   -0.38    0.87
   5   0 -12    0.55    0.90
   5   0 -12    0.16    0.80
  -4   0  12   55.74    2.91
   4   0 -12   48.10    2.77
   4   0 -12   47.58    2.81
   3   0 -12   -0.80    0.94
  -3   0  12    0.87    1.12
   3   0 -12   -2.88    0.90
  -2   0  12    2.21    1.06
   2   0 -12    3.20    1.02
   2   0 -12    2.03    1.01
   1   0 -12    0.59    0.87
   1   0 -12   -0.26    0.84
  -1   0  12    0.50    0.96
   0   0 -12   91.54    3.31
   0   0  12   85.38    3.37
   0   0 -12   91.06    3.37
  -1   0 -12   -0.45    0.69
   1   0  12   -0.59    0.74
  -8  -1  12   41.28    2.62
   8  -1 -12   43.44    3.08
   8  -1 -12   39.30    3.00
  -8  -1  12   44.40    3.23
  -8   1  12   44.88    2.78
   8   1 -12   40.85    2.54
  -8   1  12   41.33    3.13
   8   1 -12   41.03    3.00
   7  -1 -12    3.09    1.45
   7  -1 -12    3.78    1.10
  -7  -1  12    2.23    1.17
  -7  -1  12    2.01    1.06
   7   1 -12    0.80    1.34
   7   1 -12    1.38    1.44
  -7   1  12    2.52    1.15
  -7   1  12    3.53    1.53
   6  -1 -12    0.21    1.23
  -6  -1  12   -0.18    0.81
   6  -1 -12    0.75    1.29
  -6  -1  12   -0.02    1.37
  -6   1  12   -0.03    0.95
  -6   1  12    1.29    0.98
   6   1 -12    2.72    1.28
   6   1 -12    0.82    1.29
   5  -1 -12   28.74    2.02
   5  -1 -12   27.64    2.16
  -5  -1  12   27.84    2.20
  -5  -1  12   27.28    1.69
  -5   1  12   28.79    2.07
  -5   1  12   26.92    1.86
   5   1 -12   22.09    2.06
   5   1 -12   26.57    2.30
  -4  -1  12   82.30    3.66
   4  -1 -12   86.40    3.63
   4  -1 -12   81.11    3.45
   4   1 -12   79.20    3.44
   4   1 -12   83.27    3.63
  -4   1  12   81.66    3.08
  -4   1  12   87.09    3.70
   3  -1 -12    1.00    0.77
  -3  -1  12   -0.03    1.11
   3  -1 -12   -0.87    0.92
   3   1 -12    0.63    1.09
   3   1 -12    0.72    1.08
  -3   1  12    0.10    1.06
   2  -1 -12   29.21    2.04
   2  -1 -12   31.10    1.85
  -2  -1  12   26.25    2.11
   2   1 -12   29.17    1.82
  -2   1  12   32.77    2.16
   2   1 -12   30.41    1.88
  -1  -1  12   32.77    2.13
   1  -1 -12   29.00    1.75
   1  -1 -12   30.77    1.97
   1   1 -12   32.28    2.03
   1   1 -12   34.14    2.16
  -1   1  12   32.46    2.07
   0  -1 -12   17.11    1.53
   0  -1 -12   16.90    1.56
   0  -1  12   16.26    1.44
   0   1  12   16.88    1.43
   0   1 -12   17.56    1.42
   0   1 -12   17.84    1.54
  -1  -1 -12    3.98    0.96
   1  -1  12    1.61    0.83
  -1   1 -12    1.03    0.77
   1   1  12    2.44    0.84
  -1   1 -12    1.92    0.71
   7  -2 -12   54.89    2.88
   7  -2 -12   50.90    3.14
  -7  -2  12   46.61    2.85
   7   2 -12   48.64    2.76
   7   2 -12   49.39    3.15
  -7   2  12   49.52    2.82
  -7   2  12   44.41    3.20
   6  -2 -12  111.01    4.60
   6  -2 -12  113.22    4.62
  -6  -2  12  111.99    4.72
  -6   2  12  109.03    4.23
   6   2 -12  109.44    4.62
  -6   2  12  116.56    4.71
   6   2 -12  112.12    4.42
   5  -2 -12   30.81    2.42
   5  -2 -12   27.64    2.24
  -5  -2  12   29.50    2.60
  -5   2  12   24.12    2.14
  -5   2  12   25.86    1.71
   5   2 -12   25.22    2.04
   5   2 -12   32.08    2.48
   4  -2 -12   -0.16    1.13
  -4  -2  12   -0.31    0.88
   4  -2 -12    0.57    1.16
  -4   2  12    0.42    0.83
   4   2 -12    1.20    0.93
   4   2 -12    0.75    1.17
  -4   2  12    2.21    1.25
   3  -2 -12    8.95    1.38
  -3  -2  12    9.27    1.51
   3  -2 -12    9.31    1.16
  -3   2  12    8.90    1.18
   3   2 -12    7.64    1.40
   3   2 -12    8.51    1.43
   2  -2 -12   83.32    3.41
   2  -2 -12   82.52    3.39
  -2  -2  12   78.66    3.51
  -2   2  12   82.49    3.44
   2   2 -12   81.83    3.45
   2   2 -12   78.78    3.53
   1  -2 -12   74.50    3.08
  -1  -2  12   81.90    3.36
   1  -2 -12   73.89    3.02
  -1   2  12   77.67    3.23
   1   2 -12   74.12    3.16
   1   2 -12   79.11    3.25
   0  -2 -12   13.31    1.31
   0  -2  12   14.08    1.46
   0   2 -12   12.66    1.35
   0   2 -12   14.34    1.33
   0   2  12   12.40    1.32
  -1  -2 -12    3.33    0.88
   1  -2  12    4.17    1.04
  -1   2 -12    3.93    1.09
  -1   2 -12    3.64    0.97
   1   2  12    3.35    1.10
   6  -3 -12    0.61    0.95
   6  -3 -12   -1.41    1.29
   6  -3 -12    0.10    1.05
  -6  -3  12   -1.89    1.06
   6   3 -12    2.83    1.44
  -6   3  12    0.70    0.81
   6   3 -12   -0.36    1.44
  -6   3  12    1.84    1.09
   5  -3 -12   47.26    2.93
   5  -3 -12   47.28    2.96
  -5  -3  12   48.46    3.13
   5   3 -12   47.72    2.70
  -5   3  12   51.14    3.09
  -5   3  12   49.33    2.64
   5   3 -12   49.02    3.09
   4  -3 -12    6.24    1.12
  -4  -3  12    4.92    1.57
   4  -3 -12    4.08    1.36
  -4   3  12    5.60    1.13
  -4   3  12    4.52    1.41
   4   3 -12    6.51    1.21
   4   3 -12    5.17    1.42
   3  -3 -12   65.96    3.21
  -3  -3  12   66.36    3.38
   3  -3 -12   70.52    3.06
  -3   3  12   67.56    2.88
  -3   3  12   68.98    3.29
   3   3 -12   69.45    3.43
   3   3 -12   67.80    3.30
   2  -3 -12    5.77    1.19
  -2  -3  12    3.78    1.36
   2  -3 -12    5.39    1.21
  -2   3  12    7.02    1.09
   2   3 -12    6.18    1.38
   2   3 -12    5.63    1.06
   1  -3 -12   24.48    1.89
  -1  -3  12   17.19    1.75
   1   3 -12   18.36    1.74
  -1   3  12   17.38    1.64
   1   3 -12   21.10    1.75
   0  -3 -12   40.51    2.04
   0  -3  12   37.94    2.48
   0   3 -12   40.23    2.29
   0   3  12   38.13    2.34
   0   3 -12   41.24    2.31
  -4  -4  12    2.32    1.57
  -4   4  12    1.96    1.46
   3  -4 -12   19.80    1.88
  -3  -4  12   15.20    2.03
   3  -4 -12   19.54    1.90
  -3   4  12   19.01    1.92
   3   4 -12   17.47    1.79
   3   4 -12   17.80    1.99
  -3   4  12   19.66    1.60
  -6   0  13   -0.92    0.82
   6   0 -13   -1.90    1.21
  -6   0  13   -0.13    0.96
   6   0 -13    0.75    0.97
   5   0 -13   26.46    2.26
  -5   0  13   32.58    2.67
   5   0 -13   30.65    2.56
  -4   0  13    1.37    1.27
   4   0 -13    0.34    1.22
   4   0 -13    1.24    0.85
   3   0 -13   13.71    1.40
   3   0 -13   18.73    1.74
  -3   0  13   16.21    1.72
   2   0 -13   -0.66    0.69
   2   0 -13   -1.08    0.93
  -2   0  13    2.30    1.14
  -1   0  13    6.49    1.29
   1   0 -13    5.63    1.16
   1   0 -13    4.62    0.93
   6  -1 -13   10.60    1.77
   6  -1 -13   10.44    1.76
  -6  -1  13   11.33    1.55
  -6   1  13   11.81    1.86
  -6   1  13   12.83    1.27
   6   1 -13   11.87    1.87
   6   1 -13   12.68    1.79
   5  -1 -13   35.97    2.74
   5  -1 -13   35.14    2.33
  -5  -1  13   40.53    2.88
   5   1 -13   40.84    2.75
  -5   1  13   38.31    2.43
   5   1 -13   37.89    2.76
   4  -1 -13   10.65    1.34
   4  -1 -13   11.33    1.66
  -4  -1  13   10.61    1.62
  -4   1  13   13.30    1.76
   4   1 -13   11.55    1.62
   4   1 -13    9.81    1.36
   3  -1 -13    9.19    1.41
   3  -1 -13    7.23    1.39
  -3  -1  13    8.60    1.44
   3   1 -13    7.24    1.17
  -3   1  13    8.20    1.45
   3   1 -13    5.02    1.35
   2  -1 -13   32.52    2.00
  -2  -1  13   37.13    2.44
   2  -1 -13   37.58    2.36
  -2   1  13   37.02    2.14
   2   1 -13   34.99    2.42
   2   1 -13   34.55    2.09
  -1  -1  13   -0.85    0.98
   1  -1 -13   -0.02    0.87
   1  -1 -13    0.12    0.60
   1   1 -13    0.68    1.02
  -1   1  13   -0.05    1.01
   1   1 -13    0.62    0.72
  -5  -2  13    4.90    1.27
   5  -2 -13    3.35    1.49
   5  -2 -13    6.07    1.52
   5   2 -13    5.25    1.24
   5   2 -13    4.98    1.15
  -5   2  13    5.82    1.64
  -5   2  13    6.80    1.18
   4  -2 -13   17.63    1.68
   4  -2 -13   16.94    1.65
  -4  -2  13   14.53    1.86
   4   2 -13   15.95    1.86
  -4   2  13   15.16    1.59
   4   2 -13   15.32    1.87
  -3  -2  13   26.72    2.09
   3  -2 -13   30.34    2.32
   3  -2 -13   33.38    2.38
  -3   2  13   28.59    2.41
   3   2 -13   33.93    2.56
   3   2 -13   32.68    2.10
   2  -2 -13   14.89    1.63
   2  -2 -13   13.28    1.36
  -2  -2  13   16.07    1.53
  -2   2  13   14.86    1.46
   2   2 -13   15.63    1.70
   2   2 -13   17.04    1.79
   0   0   0    0.00    0.00
;
loop_
_symmetry_equiv_pos_as_xyz
'x, y, z'
'-x+1/2, y+1/2, -z+1/2'
'-x, -y, -z'
'x-1/2, -y-1/2, z-1/2'
loop_
_atom_site_label
_atom_site_type_symbol
_atom_site_fract_x
_atom_site_fract_y
_atom_site_fract_z
_atom_site_U_iso_or_equiv
_atom_site_adp_type
_atom_site_occupancy
_atom_site_site_symmetry_order
_atom_site_calc_flag
_atom_site_refinement_flags_posn
_atom_site_refinement_flags_adp
C1 C 0.8455(5) 0.8601(6) 0.0554(4) 0.0119(9) Uani 1 1 d . .
H1A H 0.82847 0.746564 -0.004726 0.014 Uiso 1 1 calc R U
H1B H 0.759955 0.956544 0.016796 0.014 Uiso 1 1 calc R U
C2 C 1.0035(5) 0.9561(6) 0.0652(4) 0.0136(9) Uani 1 1 d . .
H2A H 1.027768 1.061313 0.131715 0.016 Uiso 1 1 calc R U
H2B H 1.088814 0.856307 0.091995 0.016 Uiso 1 1 calc R U
C3 C 1.0104(5) 0.6341(6) 0.2781(4) 0.0139(9) Uani 1 1 d . .
H3A H 1.100955 0.726601 0.299326 0.017 Uiso 1 1 calc R U
H3B H 1.008886 0.573337 0.360188 0.017 Uiso 1 1 calc R U
C4 C 1.0364(5) 0.4737(6) 0.1908(5) 0.0181(10) Uani 1 1 d . .
H4A H 0.943566 0.38725 0.163426 0.027 Uiso 1 1 calc R U
H4B H 1.129969 0.396253 0.23814 0.027 Uiso 1 1 calc R U
H4C H 1.052617 0.533671 0.114405 0.027 Uiso 1 1 calc R U
S1 S 0.82808(12) 0.77383(14) 0.20829(10) 0.0097(2) Uani 1 1 d . .
Cl1 Cl 0.86862(12) 0.86494(16) 0.55199(11) 0.0169(3) Uani 1 1 d . .
Cu1 Cu 0.86716(6) 1.03604(8) 0.35650(5) 0.01457(17) Uani 1 1 d . .
loop_
_atom_site_aniso_label
_atom_site_aniso_U_11
_atom_site_aniso_U_22
_atom_site_aniso_U_33
_atom_site_aniso_U_23
_atom_site_aniso_U_13
_atom_site_aniso_U_12
C1 0.014(2) 0.0094(19) 0.011(2) 0.0027(17) 0.0016(17) 0.0005(17)
C2 0.014(2) 0.012(2) 0.015(2) -0.0010(18) 0.0043(17) -0.0018(18)
C3 0.011(2) 0.015(2) 0.012(2) 0.0050(18) -0.0009(17) 0.0027(17)
C4 0.019(2) 0.015(2) 0.021(3) 0.004(2) 0.007(2) 0.0048(19)
S1 0.0101(5) 0.0099(5) 0.0091(5) 0.0003(4) 0.0032(4) 0.0001(4)
Cl1 0.0139(5) 0.0209(5) 0.0150(6) 0.0051(4) 0.0034(4) -0.0043(4)
Cu1 0.0130(3) 0.0171(3) 0.0135(3) -0.0003(2) 0.0042(2) 0.0030(2)
loop_
_atom_type_symbol
_atom_type_description
_atom_type_scat_dispersion_real
_atom_type_scat_dispersion_imag
_atom_type_scat_source
C C 0.0033 0.0016 'International Tables Vol C Tables 4.2.6.8 and 6.1.1.4'
H H 0 0 'International Tables Vol C Tables 4.2.6.8 and 6.1.1.4'
S S 0.1246 0.1234 'International Tables Vol C Tables 4.2.6.8 and 6.1.1.4'
Cl Cl 0.1484 0.1585 'International Tables Vol C Tables 4.2.6.8 and 6.1.1.4'
Cu Cu 0.3201 1.2651 'International Tables Vol C Tables 4.2.6.8 and 6.1.1.4'
loop_
_geom_angle_atom_site_label_1
_geom_angle_atom_site_label_2
_geom_angle_atom_site_label_3
_geom_angle
_geom_angle_site_symmetry_1
_geom_angle_site_symmetry_3
C2 C1 S1 115.2(3) . .
C2 C2 C1 110.2(4) 3_775 .
C4 C3 S1 114.2(3) . .
C3 S1 C1 102.6(2) . .
C3 S1 Cu1 104.42(14) . 2_645
C1 S1 Cu1 102.99(14) . 2_645
C3 S1 Cu1 101.11(14) . .
C1 S1 Cu1 110.47(14) . .
Cu1 S1 Cu1 131.75(4) 2_645 .
Cu1 Cl1 Cu1 87.36(4) 3_776 .
S1 Cu1 Cl1 119.13(4) 2_655 3_776
S1 Cu1 S1 112.85(3) 2_655 .
Cl1 Cu1 S1 114.40(4) 3_776 .
S1 Cu1 Cl1 112.95(4) 2_655 .
Cl1 Cu1 Cl1 92.64(4) 3_776 .
S1 Cu1 Cl1 101.58(4) . .
loop_
_geom_bond_atom_site_label_1
_geom_bond_atom_site_label_2
_geom_bond_distance
_geom_bond_site_symmetry_2
C1 C2 1.527(6) .
C1 S1 1.822(4) .
C2 C2 1.525(8) 3_775
C3 C4 1.512(6) .
C3 S1 1.824(4) .
S1 Cu1 2.3110(11) 2_645
S1 Cu1 2.3513(11) .
Cl1 Cu1 2.3434(12) 3_776
Cl1 Cu1 2.4244(12) .
loop_
_geom_hbond_atom_site_label_D
_geom_hbond_atom_site_label_H
_geom_hbond_atom_site_label_A
_geom_hbond_distance_DH
_geom_hbond_distance_HA
_geom_hbond_distance_DA
_geom_hbond_angle_DHA
_geom_hbond_site_symmetry_A
C1 H1B Cl1 0.99 3 3.910(4) 153.7 2_655
C4 H4B Cl1 0.98 2.89 3.509(5) 121.9 3_766
C1 H1B Cl1 0.99 3 3.910(4) 153.7 2_655
C4 H4B Cl1 0.98 2.89 3.509(5) 121.9 3_766
loop_
_geom_torsion_atom_site_label_1
_geom_torsion_atom_site_label_2
_geom_torsion_atom_site_label_3
_geom_torsion_atom_site_label_4
_geom_torsion
_geom_torsion_site_symmetry_4
S1 C1 C2 C2 -173.2(4) 3_775
C4 C3 S1 C1 -54.9(3) .
C4 C3 S1 Cu1 52.3(3) 2_645
C4 C3 S1 Cu1 -169.0(3) .
C2 C1 S1 C3 -48.9(3) .
C2 C1 S1 Cu1 -157.1(3) 2_645
C2 C1 S1 Cu1 58.2(3) .
