#------------------------------------------------------------------------------
#$Date: 2019-07-10 06:30:08 +0300 (Wed, 10 Jul 2019) $
#$Revision: 216916 $
#$URL: file:///home/coder/svn-repositories/cod/cif/7/23/30/7233048.cif $
#------------------------------------------------------------------------------
#
# This file is available in the Crystallography Open Database (COD),
# http://www.crystallography.net/
#
# All data on this site have been placed in the public domain by the
# contributors.
#
data_7233048
loop_
_publ_author_name
'Schlachter, Adrien Camille'
'Bonnot, Antoine'
'Fortin, Daniel'
'Karsenti, Paul-Ludovic'
'Knorr, Michael'
'Harvey, Pierre D.'
_publ_section_title
;
 Unusual Triplet-Triplet Annihilation in a 3D Copper Chloride Coordination
 Polymer
;
_journal_name_full               'Physical Chemistry Chemical Physics'
_journal_paper_doi               10.1039/C9CP02891A
_journal_year                    2019
_chemical_formula_moiety         'C4 H9 Cl Cu S'
_chemical_formula_sum            'C4 H9 Cl Cu S'
_chemical_formula_weight         188.16
_space_group_IT_number           14
_space_group_name_Hall           '-P 2yn'
_space_group_name_H-M_alt        'P 1 21/n 1'
_symmetry_cell_setting           monoclinic
_symmetry_Int_Tables_number      14
_symmetry_space_group_name_Hall  '-P 2yn'
_symmetry_space_group_name_H-M   'P 1 21/n 1'
_atom_sites_solution_hydrogens   geom
_atom_sites_solution_primary     'direct - structure invariant direct methods'
_atom_sites_solution_secondary   'direct - structure invariant direct methods'
_audit_conform_dict_location     ftp://ftp.iucr.org/pub/cif_core.dic
_audit_conform_dict_name         cif_core.dic
_audit_conform_dict_version      2.4.3
_audit_creation_date             2018-11-08T14:55:44-00:00
_audit_creation_method           'WinGX routine CIF_UPDATE'
_audit_update_record
;
2019-05-21 deposited with the CCDC.    2019-07-09 downloaded from the CCDC.
;
_cell_angle_alpha                90
_cell_angle_beta                 108.913(2)
_cell_angle_gamma                90
_cell_formula_units_Z            4
_cell_length_a                   8.9566(10)
_cell_length_b                   6.8133(8)
_cell_length_c                   10.9391(12)
_cell_measurement_reflns_used    8616
_cell_measurement_temperature    298(2)
_cell_measurement_theta_max      26.45
_cell_measurement_theta_min      2.57
_cell_measurement_wavelength     0.71073
_cell_volume                     631.51(12)
_computing_cell_refinement       'SAINT V8.34A integration software'
_computing_data_collection       'Bruker APEX2 software'
_computing_data_reduction        'SORTAV (Blessing, 1995)'
_computing_molecular_graphics    'Ortep for Windows (Farrugia, 2012)'
_computing_publication_material  'WinGX publication routines (Farrugia, 2012)'
_computing_structure_refinement  'SHELXL-2016/6 (Sheldrick, 2016)'
_computing_structure_solution    'SHELXS-2013/1 (Sheldrick, 2008)'
_diffrn_ambient_temperature      298(2)
_diffrn_detector                 'APEX-II CCD'
_diffrn_measured_fraction_theta_full 0.997
_diffrn_measured_fraction_theta_max 0.998
_diffrn_measurement_device       '\k-geometry diffractometer'
_diffrn_measurement_device_type  'Bruker APEX-II'
_diffrn_measurement_method       '\f or \w oscillation scans'
_diffrn_orient_matrix_UB_11      0.028977
_diffrn_orient_matrix_UB_12      0.134021
_diffrn_orient_matrix_UB_13      -0.022063
_diffrn_orient_matrix_UB_21      0.042666
_diffrn_orient_matrix_UB_22      -0.058382
_diffrn_orient_matrix_UB_23      -0.065763
_diffrn_orient_matrix_UB_31      -0.106156
_diffrn_orient_matrix_UB_32      0.013118
_diffrn_orient_matrix_UB_33      -0.067278
_diffrn_radiation_monochromator  graphite
_diffrn_radiation_probe          x-ray
_diffrn_radiation_type           MoK\a
_diffrn_radiation_wavelength     0.71073
_diffrn_reflns_av_unetI/netI     0.0446
_diffrn_reflns_Laue_measured_fraction_full 0.997
_diffrn_reflns_Laue_measured_fraction_max 0.998
_diffrn_reflns_limit_h_max       11
_diffrn_reflns_limit_h_min       -11
_diffrn_reflns_limit_k_max       8
_diffrn_reflns_limit_k_min       -8
_diffrn_reflns_limit_l_max       13
_diffrn_reflns_limit_l_min       -13
_diffrn_reflns_number            10449
_diffrn_reflns_point_group_measured_fraction_full 0.997
_diffrn_reflns_point_group_measured_fraction_max 0.998
_diffrn_reflns_theta_full        25
_diffrn_reflns_theta_max         26.473
_diffrn_reflns_theta_min         2.566
_diffrn_source                   'sealed x-ray tube'
_diffrn_standards_number         0
_exptl_absorpt_coefficient_mu    4.08
_exptl_absorpt_correction_T_max  0.745
_exptl_absorpt_correction_T_min  0.662
_exptl_absorpt_correction_type   multi-scan
_exptl_absorpt_process_details
;
SADABS-2014/5 - Bruker AXS area detector scaling and absorption correction
;
_exptl_crystal_density_diffrn    1.979
_exptl_crystal_density_method    'not measured'
_exptl_crystal_description       Needle
_exptl_crystal_F_000             380
_exptl_crystal_size_max          0.33
_exptl_crystal_size_mid          0.1
_exptl_crystal_size_min          0.04
_refine_diff_density_max         0.574
_refine_diff_density_min         -0.83
_refine_diff_density_rms         0.099
_refine_ls_extinction_method     none
_refine_ls_goodness_of_fit_ref   1.037
_refine_ls_hydrogen_treatment    constr
_refine_ls_matrix_type           full
_refine_ls_number_constraints    0
_refine_ls_number_parameters     66
_refine_ls_number_reflns         10449
_refine_ls_number_restraints     0
_refine_ls_restrained_S_all      1.037
_refine_ls_R_factor_all          0.0421
_refine_ls_R_factor_gt           0.0334
_refine_ls_shift/su_max          0
_refine_ls_shift/su_mean         0
_refine_ls_structure_factor_coef Fsqd
_refine_ls_weighting_details
'w=1/[\s^2^(Fo^2^)+(0.0031P)^2^+2.0125P] where P=(Fo^2^+2Fc^2^)/3'
_refine_ls_weighting_scheme      calc
_refine_ls_wR_factor_gt          0.076
_refine_ls_wR_factor_ref         0.0794
_reflns_Friedel_coverage         0
_reflns_number_gt                9024
_reflns_number_total             10449
_reflns_threshold_expression     'I > 2\s(I)'
_iucr_refine_instructions_details
;
TITL mo_Harvey_AS_CP2_298K_0m in P2(1)/n
    shelx.res
    created by SHELXL-2016/6 at 14:54:03 on 08-Nov-2018
CELL  0.71073   8.9566   6.8133  10.9391   90.000  108.913   90.000
ZERR     4.00   0.0010   0.0008   0.0012    0.000    0.002    0.000
LATT   1
SYMM  1/2 - X, 1/2 + Y, 1/2 - Z
SFAC  C    H    S    CL   CU
UNIT  16 36 4 4 4
MERG   0
EQIV $2 -x+3/2, y+1/2, -z+1/2
HTAB C1 Cl1_$2
EQIV $5 -x+2, -y+1, -z+1
HTAB C4 Cl1_$5
HTAB C1 Cl1_$2
HTAB C4 Cl1_$5
FMAP   2
PLAN    2
SIZE     0.040   0.100   0.330
ACTA    50.00
BOND
L.S.  20
 
TEMP    25.28
WGHT    0.003100    2.012500
BASF   0.13273
FVAR       0.24027
MOLE    1
C1    1    0.845912    0.861260    0.055441    11.00000    0.01993    0.01814 =
         0.01529    0.00364    0.00345    0.00047
AFIX  23
H1A   2    0.830372    0.750462   -0.003050    11.00000   -1.20000
H1B   2    0.761772    0.954420    0.017340    11.00000   -1.20000
AFIX   0
C2    1    1.002557    0.958184    0.065360    11.00000    0.02175    0.02147 =
         0.02089    0.00162    0.00682   -0.00331
AFIX  23
H2A   2    1.086906    0.862414    0.093772    11.00000   -1.20000
H2B   2    1.024163    1.062798    0.128864    11.00000   -1.20000
AFIX   0
C3    1    1.009596    0.636491    0.277616    11.00000    0.01800    0.02339 =
         0.02050    0.00597    0.00028    0.00353
AFIX  23
H3A   2    1.098022    0.726781    0.298058    11.00000   -1.20000
H3B   2    1.008020    0.578056    0.358048    11.00000   -1.20000
AFIX   0
C4    1    1.036459    0.476098    0.191712    11.00000    0.02986    0.02543 =
         0.03364    0.00604    0.01050    0.01044
AFIX 137
H4A   2    0.946527    0.390438    0.166137    11.00000   -1.50000
H4B   2    1.128768    0.402349    0.238106    11.00000   -1.50000
H4C   2    1.051153    0.533573    0.116299    11.00000   -1.50000
AFIX   0
S1    3    0.827839    0.775204    0.207785    11.00000    0.01668    0.01611 =
         0.01514   -0.00014    0.00542   -0.00078
CL1   4    0.868798    0.864337    0.551721    11.00000    0.02321    0.03454 =
         0.02415    0.00824    0.00533   -0.00678
CU1   5    0.867528    1.037437    0.357390    11.00000    0.02242    0.02978 =
         0.02341    0.00005    0.00740    0.00479
HKLF    5
 
 
 
 
REM  mo_Harvey_AS_CP2_298K_0m in P2(1)/n
REM R1 =  0.0334 for    9024 Fo > 4sig(Fo)  and  0.0421 for all   10449 data
REM     66 parameters refined using      0 restraints
 
END
 
WGHT      0.0099      1.6909
 
REM Highest difference peak  0.574,  deepest hole -0.830,  1-sigma level  0.099
Q1    1   0.9416  0.5274  0.4370  11.00000  0.05    0.57
Q2    1   0.8242  1.1255  0.1350  11.00000  0.05    0.48
;
_cod_data_source_file            c9cp02891a2.cif
_cod_data_source_block           shelx_CCDC7
_cod_original_sg_symbol_H-M      'P 21/n'
_cod_database_code               7233048
_shelx_estimated_absorpt_t_min   0.346
_shelx_estimated_absorpt_t_max   0.854
_iucr_refine_reflections_details
;
  -1   0   0   -0.01    0.14
  -1   0   0   -0.19    0.18
  -2   0   0    6.42    0.44
  -2   0   0    5.85    0.30
  -2   0   0    6.94    0.32
   2   0   0    6.80    0.30
   2   0   0    7.15    0.31
   3   0   0   -0.25    0.13
  -3   0   0    0.48    0.35
  -3   0   0   -0.40    0.13
  -3   0   0   -0.12    0.16
   3   0   0   -0.07    0.17
  -4   0   0  609.14   17.90
   4   0   0  611.43   17.91
  -4   0   0  630.31   17.90
  -4   0   0  667.57   18.10
   4   0   0  622.30   17.90
   5   0   0    0.07    0.23
  -5   0   0   -0.34    0.28
   5   0   0   -0.11    0.25
  -5   0   0    0.13    0.22
  -5   0   0   -0.16    0.24
  -6   0   0  241.63    7.10
  -6   0   0  249.68    7.34
   6   0   0  236.61    7.10
   6   0   0  235.89    7.09
  -7   0   0   -0.06    0.41
   7   0   0   -0.29    0.42
  -7   0   0   -0.33    0.52
  -8   0   0  125.41    4.21
  -8   0   0  118.48    3.90
   8   0   0  119.23    3.93
  -9   0   0    0.34    0.66
   9   0   0   -0.33    0.57
  -9   0   0    0.33    0.56
 -10   0   0   16.79    1.32
  10   0   0   18.49    1.36
 -10   0   0   19.58    1.58
   0  -1   0   -0.25    0.16
   0  -1   0   -0.10    0.14
   0   1   0   -0.05    0.15
   0   1   0   -0.19    0.21
   0   1   0   -0.08    0.14
   0   1   0    0.03    0.23
  -1  -1   0  436.29   12.41
  -1  -1   0  422.98   12.41
   1  -1   0  433.44   12.40
   1  -1   0  445.17   12.40
  -1  -1   0  441.20   12.45
  -1   1   0  427.75   12.41
  -1   1   0  439.42   12.39
   1   1   0  426.42   12.40
  -1   1   0  442.68   12.50
  -1   1   0  435.40   12.46
   1   1   0  427.24   12.38
  -1   1   0  434.90   12.39
   2  -1   0  248.05    7.12
   2  -1   0  250.18    7.11
  -2  -1   0  239.11    7.21
  -2  -1   0  246.90    7.14
  -2  -1   0  250.28    7.15
  -2  -1   0  245.70    7.12
   2   1   0  245.39    7.11
  -2   1   0  247.41    7.07
  -2   1   0  247.50    7.10
  -2   1   0  245.79    7.32
   2   1   0  252.45    7.15
  -2   1   0  246.44    7.23
   3  -1   0  699.47   19.90
  -3  -1   0  720.46   19.94
  -3  -1   0  694.05   19.93
  -3  -1   0  663.50   20.04
  -3  -1   0  671.87   19.84
   3  -1   0  677.83   19.89
  -3   1   0  714.71   19.99
  -3   1   0  699.25   20.07
   3   1   0  720.15   19.96
  -3   1   0  734.00   19.90
   3   1   0  693.52   19.94
  -3   1   0  719.62   20.24
  -3   1   0  678.90   19.88
   4  -1   0  107.86    3.36
  -4  -1   0  110.77    3.41
  -4  -1   0  115.37    3.61
  -4  -1   0  114.25    3.43
   4  -1   0  111.41    3.38
  -4   1   0  113.99    3.39
  -4   1   0  117.58    3.86
  -4   1   0  106.67    3.36
  -4   1   0  113.37    3.52
   4   1   0  112.10    3.45
   4   1   0  114.80    3.43
  -5  -1   0   87.91    2.79
   5  -1   0   87.41    2.75
   5  -1   0   86.15    2.77
   5  -1   0   86.07    2.62
  -5  -1   0   93.28    2.56
  -5  -1   0   87.71    3.03
  -5  -1   0   88.75    2.82
  -5   1   0   87.71    2.74
  -5   1   0   93.97    2.78
   5   1   0   91.27    2.83
   5   1   0   87.40    2.84
  -5   1   0   88.16    2.94
   6  -1   0    0.75    0.31
  -6  -1   0    1.06    0.58
  -6  -1   0    1.50    0.45
  -6  -1   0    1.16    0.35
   6  -1   0    1.23    0.32
  -6   1   0    0.47    0.47
  -6   1   0    1.47    0.38
  -6   1   0    1.19    0.36
   6   1   0    1.33    0.41
   6   1   0    1.03    0.35
  -7  -1   0  193.67    6.16
   7  -1   0  197.06    5.88
  -7  -1   0  195.83    5.93
   7   1   0  193.42    5.97
  -7   1   0  193.84    5.85
  -7   1   0  190.72    6.09
   8  -1   0   18.44    1.15
  -8  -1   0   18.78    1.10
  -8  -1   0   19.46    1.48
  -8   1   0   17.78    1.33
   8   1   0   17.46    1.15
  -8   1   0   18.66    1.12
  -9  -1   0   10.42    1.16
   9  -1   0    9.20    0.88
  -9  -1   0    8.38    0.92
  -9   1   0    8.90    0.86
   9   1   0   10.36    0.94
  -9   1   0    9.25    1.00
 -10  -1   0   11.96    1.09
  10  -1   0    9.95    1.00
 -10  -1   0   10.10    1.10
 -10   1   0    9.70    0.95
  10   1   0    9.80    1.01
   0  -2   0  233.99    6.71
   0  -2   0  223.50    6.73
   0   2   0  226.60    6.74
   0   2   0  229.34    6.73
   0   2   0  230.07    6.74
   0   2   0  229.85    6.67
  -1  -2   0   49.96    1.76
  -1  -2   0   48.83    1.73
   1  -2   0   51.00    1.75
  -1  -2   0   51.36    1.71
   1  -2   0   52.59    1.71
   1   2   0   50.45    1.73
   1   2   0   49.06    1.71
   1   2   0   52.44    1.75
  -1   2   0   54.32    1.74
   1   2   0   51.13    1.56
  -1   2   0   50.53    1.81
  -1   2   0   49.56    1.73
  -1   2   0   51.48    1.79
  -2  -2   0   89.27    2.81
  -2  -2   0   90.35    2.92
   2  -2   0   89.46    2.79
  -2  -2   0   87.48    2.80
  -2   2   0   91.35    3.02
  -2   2   0   89.18    2.80
  -2   2   0   89.95    2.92
  -2   2   0   90.51    2.83
   2   2   0   87.93    2.76
   2   2   0   91.21    2.80
  -2   2   0   89.77    2.76
   3  -2   0    0.08    0.29
  -3   2   0   -0.06    0.39
  -3   2   0    0.32    0.29
  -3   2   0    0.04    0.33
   3   2   0   -0.03    0.21
   4  -2   0   41.33    1.48
  -4   2   0   42.53    1.86
  -4   2   0   44.29    1.51
   4   2   0   38.10    1.38
  -4   2   0   38.78    1.45
  -4   2   0   41.02    1.74
   5  -2   0   11.24    0.69
   5  -2   0    9.03    0.73
  -5  -2   0   10.20    0.67
  -5  -2   0    9.34    0.87
  -5   2   0   10.77    0.80
  -5   2   0    9.42    0.66
   5   2   0    8.61    0.55
   6  -2   0    1.57    0.41
  -6  -2   0    2.07    0.69
  -6  -2   0    1.99    0.51
  -6   2   0    2.66    0.42
  -6   2   0    2.28    0.53
   6   2   0    2.29    0.38
   7  -2   0    8.98    0.72
  -7  -2   0   10.44    0.96
  -7  -2   0    9.69    0.83
  -7   2   0    7.39    0.67
   7   2   0   10.12    0.76
  -7   2   0    9.03    0.85
   8  -2   0   96.56    3.24
  -8  -2   0   94.65    3.32
  -8  -2   0  101.83    3.71
  -8   2   0   88.13    3.31
  -8   2   0   96.68    3.21
  -9  -2   0   -0.36    0.80
   9  -2   0    0.53    0.63
  -9  -2   0    0.36    0.59
  -9   2   0    0.57    0.50
 -10  -2   0    4.57    1.08
  10  -2   0    3.84    0.72
 -10  -2   0    3.08    0.77
 -10   2   0    4.10    0.78
   0  -3   0    0.34    0.45
   0  -3   0    0.30    0.40
   0   3   0   -0.30    0.31
   0   3   0   -0.11    0.28
   0   3   0   -0.04    0.30
   0   3   0    0.04    0.43
   1  -3   0    6.30    0.57
   1  -3   0    6.17    0.57
  -1  -3   0    6.33    0.59
  -1  -3   0    5.64    0.61
  -1  -3   0    7.11    0.67
   1   3   0    6.26    0.46
   1   3   0    7.51    0.68
  -1   3   0    6.86    0.62
  -1   3   0    5.87    0.60
  -1   3   0    6.30    0.64
  -1   3   0    7.45    0.66
   1   3   0    6.58    0.61
   1   3   0    7.27    0.65
  -2  -3   0  130.94    4.15
  -2  -3   0  131.42    4.12
   2  -3   0  133.85    4.10
  -2  -3   0  126.86    4.09
   2   3   0  130.36    4.09
   2   3   0  131.46    4.16
   2   3   0  132.41    3.82
   2   3   0  131.83    4.05
  -2   3   0  130.52    4.26
  -2   3   0  123.81    4.05
  -2   3   0  132.91    4.23
  -2   3   0  131.19    4.03
  -3  -3   0    6.50    0.65
   3  -3   0    6.34    0.63
   3   3   0    5.72    0.52
   3   3   0    6.56    0.41
   3   3   0    6.87    0.69
  -3   3   0    8.11    0.92
  -3   3   0    5.96    0.68
  -3   3   0    7.29    0.69
  -3   3   0    7.59    0.59
  -4  -3   0   34.29    1.49
   4  -3   0   35.10    1.46
  -4  -3   0   34.62    1.67
  -4  -3   0   32.16    1.36
  -4   3   0   34.28    1.19
  -4   3   0   31.74    1.85
   4   3   0   32.16    1.33
   4   3   0   33.40    1.31
  -4   3   0   33.94    1.41
  -4   3   0   31.55    1.57
  -5  -3   0    2.75    0.60
  -5  -3   0    3.58    0.52
  -5  -3   0    2.93    0.39
   5  -3   0    4.59    0.59
  -5   3   0    3.12    0.52
  -5   3   0    3.80    0.79
  -5   3   0    4.21    0.67
  -5   3   0    3.71    0.55
   5   3   0    3.97    0.45
  -6  -3   0    6.84    0.79
   6  -3   0    7.36    0.65
  -6  -3   0    6.88    0.98
   6   3   0    7.36    0.61
  -6   3   0    7.58    0.72
  -6   3   0    8.57    0.70
  -7  -3   0   23.99    1.73
  -7  -3   0   24.60    1.42
   7  -3   0   23.01    1.30
  -7   3   0   23.48    1.34
  -7   3   0   24.91    1.28
  -8  -3   0    7.52    0.91
  -8  -3   0    8.19    1.03
   8  -3   0    6.43    0.80
  -8   3   0    6.76    0.83
  -8   3   0    6.73    0.76
  -9  -3   0   13.43    1.20
  -9  -3   0   14.62    1.50
   9  -3   0   12.98    1.16
  -9   3   0   14.66    1.11
   0  -4   0   51.90    2.06
   0  -4   0   54.09    2.07
   0   4   0   57.80    2.19
   0   4   0   52.27    2.12
   0   4   0   53.07    1.94
   0   4   0   52.69    2.03
   1  -4   0  205.30    6.43
   1  -4   0  214.99    6.36
  -1  -4   0  216.12    6.41
  -1  -4   0  207.95    6.44
   1   4   0  204.01    6.15
   1   4   0  202.16    6.36
  -1   4   0  215.64    6.40
  -1   4   0  204.01    6.39
  -1   4   0  206.43    6.40
  -1   4   0  202.93    6.47
   1   4   0  208.36    6.42
   1   4   0  202.34    6.40
  -2  -4   0    9.01    0.90
  -2  -4   0    8.78    0.82
   2  -4   0   10.00    0.81
  -2  -4   0    7.53    0.80
   2  -4   0    7.80    0.82
   2   4   0    9.37    0.81
  -2   4   0    7.95    0.89
   2   4   0    7.49    0.73
   2   4   0    7.78    0.86
  -2   4   0    6.72    0.72
  -2   4   0    7.51    0.80
   2   4   0    8.52    0.45
  -2   4   0    7.77    0.78
  -3  -4   0   65.74    2.52
   3  -4   0   68.77    2.51
  -3  -4   0   68.61    2.53
  -3  -4   0   66.66    2.48
   3   4   0   62.30    2.36
   3   4   0   68.76    2.58
   3   4   0   66.33    1.97
  -3   4   0   63.85    2.36
  -3   4   0   68.62    2.78
  -3   4   0   60.29    2.43
   3   4   0   69.98    2.37
  -3   4   0   68.38    2.71
  -3   4   0   66.17    2.30
   4  -4   0    8.17    0.81
  -4  -4   0    5.87    0.88
  -4  -4   0    7.67    0.83
  -4   4   0    6.02    0.81
   4   4   0    6.03    0.83
  -4   4   0    4.65    0.67
  -4   4   0    9.41    0.83
  -4   4   0    5.47    0.53
   4   4   0    4.30    0.31
  -4   4   0    4.82    0.84
  -5  -4   0  101.41    3.84
  -5  -4   0  104.34    3.68
   5  -4   0  106.23    3.57
   5   4   0  100.50    3.37
  -5   4   0  107.03    3.95
   5   4   0  104.25    3.74
  -5   4   0  109.89    3.60
  -5   4   0  109.41    4.19
   6  -4   0   12.05    0.99
  -6  -4   0   10.80    1.04
  -6  -4   0   12.92    1.29
  -6   4   0   12.67    1.20
  -6   4   0   12.83    0.97
  -6   4   0   11.12    0.98
   7  -4   0    4.81    0.79
  -7  -4   0    3.23    0.99
  -7  -4   0    5.51    0.88
  -7   4   0    5.26    0.77
  -7   4   0    4.42    0.71
  -8  -4   0    9.21    1.07
  -8  -4   0    8.69    1.29
   8  -4   0    6.56    0.91
  -8   4   0    6.97    0.88
  -9  -4   0   21.50    1.75
  -9  -4   0   20.55    1.67
   9  -4   0   19.90    1.67
  -9   4   0   21.70    1.47
   0  -5   0   -0.49    0.46
   0  -5   0    0.21    0.44
   0   5   0    0.04    0.47
   0   5   0   -0.27    0.62
   0   5   0    1.14    0.66
   0   5   0    0.52    0.43
  -1  -5   0    9.96    0.93
   1  -5   0   10.01    0.92
   1  -5   0    9.68    0.90
  -1  -5   0    9.94    0.86
   1   5   0    8.85    1.02
   1   5   0    7.18    0.92
  -1   5   0    9.56    0.87
  -1   5   0    9.59    0.91
   1   5   0   11.63    1.03
  -1   5   0    8.38    0.84
  -1   5   0   10.34    0.97
   1   5   0    9.41    0.75
   2  -5   0  139.95    4.76
  -2  -5   0  141.73    4.77
  -2  -5   0  144.97    4.70
   2  -5   0  140.30    4.60
  -2   5   0  145.11    4.75
   2   5   0  143.08    4.73
   2   5   0  139.65    4.74
  -2   5   0  141.04    4.82
  -2   5   0  142.98    4.86
  -2   5   0  144.40    4.68
   2   5   0  139.73    4.24
   2   5   0  137.67    4.67
  -3  -5   0   24.24    1.40
   3  -5   0   23.97    1.38
  -3  -5   0   23.08    1.45
  -3  -5   0   21.86    1.34
  -3   5   0   24.97    1.37
   3   5   0   26.29    1.50
  -3   5   0   23.56    1.74
  -3   5   0   23.98    1.22
  -3   5   0   23.65    1.40
   3   5   0   22.00    1.61
   3   5   0   24.93    1.37
  -3   5   0   24.56    1.55
  -5  -5   0    4.75    1.04
  -5  -5   0    6.62    0.82
   5  -5   0    6.70    0.94
  -5   5   0    5.38    0.86
  -5   5   0    5.21    0.92
   5   5   0    6.09    0.67
   5   5   0    5.79    1.01
  -6  -5   0  137.57    4.81
   6  -5   0  138.67    4.73
  -6  -5   0  140.17    5.02
  -6   5   0  139.10    4.58
   6   5   0  133.94    4.88
  -6   5   0  134.40    4.68
  -6   5   0  138.07    5.13
  -7  -5   0    4.69    1.12
  -7  -5   0    6.03    0.89
   7  -5   0    4.87    0.95
   7   5   0    4.69    0.87
  -7   5   0    4.48    0.91
  -8  -5   0    0.03    0.86
   8  -5   0    1.24    0.79
  -8  -5   0   -0.71    0.98
   8   5   0    1.78    0.98
  -8   5   0    1.36    0.78
   0  -6   0    2.75    0.94
   0  -6   0    1.57    0.79
   0   6   0    2.09    0.84
   0   6   0    3.41    0.89
   0   6   0    2.65    0.73
   0   6   0    1.91    0.58
  -1  -6   0   39.54    1.99
  -1  -6   0   40.03    2.06
   1  -6   0   41.68    2.02
   1  -6   0   40.73    1.99
   1   6   0   42.27    2.15
   1   6   0   38.09    1.65
  -1   6   0   41.33    2.13
   1   6   0   38.19    1.99
  -1   6   0   39.91    1.92
  -1   6   0   43.19    2.29
   1   6   0   37.02    2.06
  -1   6   0   39.88    1.95
   2  -6   0    3.82    0.81
  -2  -6   0    2.90    0.89
   2  -6   0    3.95    0.95
  -2  -6   0    3.86    0.94
  -2   6   0    3.42    0.91
   2   6   0    4.76    0.76
  -2   6   0    4.98    0.89
   2   6   0    4.10    0.88
   2   6   0    4.57    0.85
  -2   6   0    4.58    0.80
  -2   6   0    3.49    0.84
  -3  -6   0   62.10    2.72
   3  -6   0   61.67    2.75
  -3  -6   0   58.23    2.71
   3   6   0   63.36    2.69
  -3   6   0   61.65    2.59
   3   6   0   61.16    2.48
  -3   6   0   64.45    3.00
  -3   6   0   61.48    2.75
   3   6   0   62.74    2.87
  -3   6   0   61.06    2.71
  -4  -6   0    0.23    0.81
   4  -6   0    2.13    0.87
  -4  -6   0    1.04    0.74
   4   6   0    1.14    0.66
  -4   6   0    3.37    1.12
   4   6   0    1.19    0.95
  -4   6   0    1.55    0.65
  -4   6   0    1.27    0.84
  -5  -6   0   29.71    1.98
  -5  -6   0   27.55    1.87
   5  -6   0   32.27    1.93
  -5   6   0   27.83    2.24
  -5   6   0   30.75    1.87
   5   6   0   28.45    1.84
  -6  -6   0    2.29    1.02
   6  -6   0    1.47    0.89
  -6  -6   0    0.70    1.01
  -6   6   0    1.55    1.20
  -6   6   0    2.18    0.88
   6   6   0    0.97    1.00
   7  -6   0   23.47    1.86
  -7  -6   0   25.69    1.89
  -7  -6   0   22.99    1.84
  -7   6   0   25.70    1.81
   7   6   0   21.60    1.87
   0  -7   0   -0.19    0.89
   0  -7   0   -0.08    0.81
   0   7   0    0.05    0.62
   0   7   0   -0.14    0.63
   0   7   0   -0.19    0.92
   1  -7   0    1.54    1.00
  -1  -7   0    3.42    1.06
  -1  -7   0    0.88    0.89
   1  -7   0    4.23    0.95
  -1   7   0    1.20    0.89
   1   7   0    2.20    0.74
   1   7   0    0.80    0.93
  -1   7   0    1.51    1.07
  -1   7   0    1.75    0.96
   1   7   0    1.35    0.74
  -2  -7   0   75.37    3.16
  -2  -7   0   75.09    3.25
   2  -7   0   77.63    3.20
   2   7   0   71.97    3.07
  -2   7   0   75.94    3.28
   2   7   0   82.29    3.45
   2   7   0   71.45    3.22
  -2   7   0   73.24    3.22
  -2   7   0   74.02    3.31
  -3  -7   0    3.08    0.83
   3  -7   0    5.51    1.16
  -3   7   0    4.91    1.09
   3   7   0    5.09    1.24
  -3   7   0    1.12    0.79
   3   7   0    3.45    0.97
  -3   7   0    3.09    1.21
   4  -7   0   14.16    1.35
  -4  -7   0   13.92    1.50
   4   7   0   13.82    1.30
  -4   7   0   14.06    1.44
   4   7   0   15.05    1.61
  -4   7   0   12.83    1.48
  -5  -7   0   12.96    1.32
   5  -7   0   10.12    1.37
  -5   7   0    9.63    1.41
   5   7   0   12.92    1.40
  -5   7   0   13.03    1.46
   6  -7   0   22.75    1.78
  -6  -7   0   25.60    1.82
  -6   7   0   23.08    1.71
   6   7   0   25.79    1.95
  -6   7   0   22.84    2.25
   0  -8   0   10.04    1.67
   0  -8   0    9.79    1.43
   0   8   0    8.87    1.47
   0   8   0    9.09    1.20
   0   8   0    7.07    1.35
  -1  -8   0   26.00    1.85
  -1  -8   0   30.43    2.31
   1  -8   0   35.89    2.40
  -1   8   0   25.85    1.90
   1   8   0   25.55    2.20
   1   8   0   27.44    1.89
  -1   8   0   30.97    2.44
  -1   8   0   25.29    1.91
   1   8   0   37.34    2.42
   2  -8   0    1.18    1.12
  -2  -8   0    0.57    0.76
  -2  -8   0    1.16    1.07
  -2   8   0    1.24    1.09
   2   8   0    0.75    0.83
   2   8   0   -0.61    0.93
  -2   8   0    0.97    1.17
   3  -8   0    3.94    1.21
  -3  -8   0    2.44    1.20
   3   8   0    3.11    0.81
  -3   8   0    4.51    1.19
   3   8   0    3.37    1.01
  -3   8   0    3.31    1.36
  10   0  -1    0.02    0.60
 -10   0   1   -0.23    0.75
 -10   0   1    0.01    0.69
  -9   0   1   42.61    1.87
  -9   0   1   44.09    2.08
   9   0  -1   41.17    1.91
  -8   0   1   -0.71    0.53
  -8   0   1   -0.34    0.47
   8   0  -1   -0.19    0.48
  -7   0   1   85.71    3.08
   7   0  -1   84.36    2.91
  -7   0   1   86.34    2.88
  -6   0   1    0.28    0.40
   6   0  -1   -0.16    0.37
  -6   0   1   -0.25    0.33
  -6   0   1    0.24    0.32
  -5   0   1  914.58   25.81
  -5   0   1  887.01   25.62
  -5   0   1  878.48   25.62
   5   0  -1  906.97   25.65
  -4   0   1   -0.32    0.40
   4   0  -1    0.06    0.28
   4   0  -1   -0.12    0.25
  -4   0   1   -0.26    0.25
  -4   0   1    0.06    0.15
  -4   0   1    0.17    0.26
   3   0  -1  174.68    5.12
  -3   0   1  172.38    5.06
   3   0  -1  173.44    5.12
  -3   0   1  172.19    5.21
   3   0  -1  177.57    5.06
  -3   0   1  169.04    5.10
  -3   0   1  177.17    5.12
   3   0  -1  172.33    5.02
  -2   0   1   -0.37    0.22
   2   0  -1   -0.20    0.25
  -2   0   1    0.00    0.23
  -2   0   1    0.04    0.33
   2   0  -1    0.00    0.17
   2   0  -1   -0.26    0.21
   2   0  -1    0.05    0.24
   1   0  -1 1000.00   27.89
  -1   0   1  936.89   27.78
   1   0  -1  928.12   27.78
   1   0  -1  990.47   27.71
  -1   0   1  955.75   27.53
  -1   0   1  995.68   27.60
   1   0  -1  983.81   27.78
   0   0  -1    0.06    0.10
   0   0  -1   -0.06    0.07
   0   0  -1   -0.04    0.09
   0   0   1   -0.06    0.06
   0   0   1    0.24    0.10
   0   0   1    0.07    0.08
   0   0  -1    0.11    0.12
   0   0  -1    0.14    0.17
  -1   0  -1  149.17    4.51
  -1   0  -1  149.49    4.43
  -1   0  -1  152.87    4.40
   1   0   1  162.04    4.44
  -1   0  -1  152.34    4.40
  -2   0  -1    0.18    0.21
  -2   0  -1   -0.07    0.16
  -2   0  -1   -0.03    0.36
  -3   0  -1  322.52    9.46
  -3   0  -1  318.93    9.27
  -4   0  -1   -0.11    0.29
   4   0   1   -0.02    0.08
  -4   0  -1   -0.66    0.47
   4   0   1   -0.02    0.07
  -4   0  -1   -0.02    0.10
  -4   0  -1   -0.13    0.09
  -5   0  -1   15.21    0.90
   5   0   1   15.68    0.60
  -5   0  -1   15.29    0.63
   5   0   1   15.13    0.60
  -5   0  -1   16.08    0.61
   6   0   1   -0.31    0.22
  -6   0  -1    1.11    0.45
   6   0   1    0.16    0.25
  -6   0  -1    0.28    0.24
  -6   0  -1   -0.14    0.24
  -7   0  -1   44.55    1.82
   7   0   1   43.58    1.61
  -7   0  -1   45.92    1.61
  -8   0  -1    0.03    0.51
  -8   0  -1   -0.16    0.32
   8   0   1    0.16    0.35
   9   0   1    5.66    0.70
  -9   0  -1    6.18    0.70
  -9   0  -1    6.27    0.87
  10   0   1   -0.22    0.45
 -10   0  -1   -0.62    0.54
  10  -1  -1    0.60    0.62
 -10  -1   1    0.63    0.65
 -10  -1   1   -0.19    0.84
 -10   1   1    1.43    0.75
 -10   1   1   -0.19    0.52
  10   1  -1   -0.05    0.66
  -9  -1   1   34.71    1.69
  -9  -1   1   33.89    2.05
   9  -1  -1   31.23    1.73
  -9   1   1   31.73    1.59
   9   1  -1   32.11    1.71
  -9   1   1   36.00    1.93
  -8  -1   1  124.60    4.48
  -8  -1   1  131.52    4.29
   8  -1  -1  135.59    4.29
   8   1  -1  134.13    4.35
  -8   1   1  128.48    4.22
  -8   1   1  129.39    4.50
  -7  -1   1    6.15    0.77
  -7  -1   1    8.54    0.76
   7  -1  -1    8.47    0.74
   7   1  -1    8.24    0.80
  -7   1   1    8.59    0.77
  -7   1   1    8.64    0.80
  -6  -1   1   37.77    1.77
   6  -1  -1   37.14    1.48
   6  -1  -1   35.99    1.17
  -6  -1   1   38.35    1.52
   6   1  -1   34.31    1.53
  -6   1   1   36.70    1.46
  -6   1   1   40.91    1.72
  -6   1   1   38.10    1.49
  -5  -1   1   69.52    2.24
   5  -1  -1   60.87    2.19
  -5  -1   1   68.75    2.48
   5  -1  -1   65.33    2.05
  -5   1   1   60.79    2.18
  -5   1   1   71.02    2.22
   5   1  -1   67.95    2.29
  -5   1   1   67.62    2.39
   4  -1  -1  375.01   11.39
  -4  -1   1  406.82   11.44
   4  -1  -1  381.11   11.32
  -4  -1   1  380.49   11.33
  -4  -1   1  397.95   11.56
  -4   1   1  405.13   11.41
  -4   1   1  404.08   11.40
   4   1  -1  409.77   11.47
  -4   1   1  385.18   11.27
  -4   1   1  399.71   11.51
  -3  -1   1   38.09    1.38
  -3  -1   1   38.76    1.44
   3  -1  -1   38.74    1.35
   3  -1  -1   38.55    1.29
  -3  -1   1   38.79    1.30
   3   1  -1   37.26    1.36
   3   1  -1   39.68    1.32
  -3   1   1   39.08    1.31
  -3   1   1   36.81    1.29
  -3   1   1   37.06    1.43
   2  -1  -1  245.50    7.15
  -2  -1   1  239.14    7.21
  -2  -1   1  249.00    7.16
  -2  -1   1  246.34    7.15
   2  -1  -1  246.08    7.12
  -2   1   1  252.28    7.14
   2   1  -1  243.38    7.14
  -2   1   1  245.47    7.14
  -2   1   1  248.45    7.27
  -1  -1   1   48.42    1.62
  -1  -1   1   48.35    1.61
  -1  -1   1   51.32    1.60
   1  -1  -1   47.71    1.58
  -1   1   1   49.78    1.65
  -1   1   1   47.45    1.57
   1   1  -1   48.99    1.58
   1   1  -1   50.33    1.62
  -1   1   1   48.23    1.58
   0  -1  -1  260.81    7.75
   0  -1   1  278.86    7.71
   0  -1  -1  271.82    7.74
   0  -1   1  259.70    7.75
   0  -1   1  275.00    7.73
   0   1   1  269.33    7.75
   0   1  -1  274.63    7.79
   0   1  -1  273.86    7.74
   0   1  -1  259.95    7.73
   0   1   1  258.96    7.74
   0   1   1  270.64    7.74
   0   1  -1  276.84    7.79
  -1  -1  -1    7.33    0.34
  -1  -1  -1    6.92    0.43
  -1  -1  -1    7.38    0.44
   1  -1   1    7.30    0.38
  -1  -1  -1    7.87    0.33
   1  -1   1    7.07    0.39
  -1  -1  -1    6.52    0.47
  -1  -1  -1    6.87    0.43
  -1   1  -1    6.66    0.37
   1   1   1    7.14    0.32
   1   1   1    6.41    0.43
   1   1   1    7.28    0.40
  -1   1  -1    7.40    0.39
  -1   1  -1    6.46    0.59
  -1   1  -1    6.96    0.71
  -1   1  -1    6.79    0.33
   1   1   1    6.76    0.45
   2  -1   1  429.41   12.59
  -2  -1  -1  440.39   12.64
  -2  -1  -1  438.98   12.69
  -2  -1  -1  443.34   12.59
  -2  -1  -1  443.99   12.59
   2  -1   1  447.34   12.52
  -2   1  -1  434.71   12.83
  -2   1  -1  437.29   12.53
  -2   1  -1  444.52   12.71
   2   1   1  444.98   12.59
  -2   1  -1  444.54   12.57
   3  -1   1   -0.15    0.10
   3  -1   1    0.04    0.11
  -3  -1  -1   -0.47    0.20
  -3  -1  -1   -0.44    0.15
  -3  -1  -1   -0.39    0.29
  -3  -1  -1   -0.11    0.25
  -3   1  -1   -0.25    0.12
  -3   1  -1   -0.07    0.36
   3   1   1   -0.06    0.17
  -3   1  -1    0.05    0.21
  -3   1  -1   -0.28    0.11
   3   1   1   -0.09    0.18
  -3   1  -1   -0.50    0.32
  -4  -1  -1  200.46    5.80
  -4  -1  -1  204.69    5.84
   4  -1   1  197.80    5.75
  -4  -1  -1  199.26    6.05
  -4  -1  -1  199.31    5.85
   4  -1   1  200.79    5.76
  -4   1  -1  197.01    5.92
  -4   1  -1  204.30    5.78
  -4   1  -1  197.16    6.28
   4   1   1  199.67    5.86
  -4   1  -1  195.37    5.76
   4   1   1  206.59    5.85
  -4   1  -1  198.47    6.04
  -5  -1  -1   66.80    2.37
   5  -1   1   64.95    2.07
  -5  -1  -1   69.89    2.16
   5  -1   1   68.02    2.10
  -5  -1  -1   68.32    2.19
  -5  -1  -1   69.78    1.97
  -5   1  -1   68.07    2.11
  -5   1  -1   66.51    2.08
   5   1   1   70.70    2.17
  -5   1  -1   65.47    2.28
  -5   1  -1   68.02    2.77
   5   1   1   68.88    2.19
  -6  -1  -1   55.84    2.18
   6  -1   1   56.48    1.83
   6  -1   1   52.62    1.79
  -6  -1  -1   55.61    1.86
  -6  -1  -1   55.62    1.91
   6   1   1   57.27    1.92
  -6   1  -1   56.19    1.82
  -6   1  -1   54.48    2.03
  -6   1  -1   56.14    1.80
   6   1   1   54.00    1.87
  -7  -1  -1   10.67    0.96
   7  -1   1    9.27    0.68
  -7  -1  -1   10.39    0.80
  -7   1  -1    9.09    0.79
  -7   1  -1    8.21    0.66
   7   1   1    7.91    0.72
  -8  -1  -1    7.94    0.67
   8  -1   1    5.98    0.62
  -8  -1  -1    6.41    0.89
  -8   1  -1    5.71    0.73
   8   1   1    6.08    0.67
  -8   1  -1    6.30    0.55
  -9  -1  -1   10.51    1.01
  -9  -1  -1   11.45    0.93
   9  -1   1   12.19    0.87
  -9   1  -1    9.57    0.79
   9   1   1    9.33    0.85
 -10  -1  -1   28.89    2.01
 -10  -1  -1   36.12    1.65
  10  -1   1   31.54    1.54
 -10   1  -1   33.19    1.51
 -10  -2   1    3.00    0.85
 -10  -2   1    2.33    1.04
  10  -2  -1    2.44    0.74
 -10   2   1    2.94    0.74
   9  -2  -1   17.31    1.30
  -9  -2   1   16.79    1.42
  -9  -2   1   19.40    1.41
  -9   2   1   18.50    1.51
  -9   2   1   18.56    1.25
  -8  -2   1   32.70    1.68
   8  -2  -1   35.04    1.64
  -8  -2   1   32.38    1.82
  -8   2   1   35.13    1.81
  -8   2   1   34.70    1.59
   7  -2  -1   22.26    1.20
  -7  -2   1   22.30    1.36
  -7  -2   1   17.75    1.24
   7  -2  -1   20.65    1.20
  -7   2   1   19.74    1.36
  -7   2   1   21.10    1.17
   6  -2  -1    1.34    0.33
  -6  -2   1    2.42    0.71
   6  -2  -1    1.40    0.47
  -6  -2   1    1.08    0.39
  -6   2   1    1.15    0.44
  -6   2   1    1.26    0.56
   5  -2  -1   76.48    2.57
  -5  -2   1   77.87    2.46
  -5  -2   1   77.26    2.82
  -5  -2   1   75.80    2.59
  -5   2   1   76.89    2.63
  -5   2   1   74.85    2.52
  -4  -2   1   11.29    0.63
   4  -2  -1   11.96    0.76
  -4  -2   1   10.80    0.70
  -4  -2   1   11.59    0.89
  -4   2   1   11.43    0.60
  -4   2   1   10.99    0.83
   4   2  -1    9.26    0.61
   4   2  -1   10.86    0.67
  -4   2   1   10.41    0.73
  -3  -2   1   39.05    1.50
  -3  -2   1   40.64    1.66
   3  -2  -1   41.26    1.53
  -3  -2   1   40.64    1.54
  -3   2   1   40.52    1.71
   3   2  -1   42.16    1.52
  -3   2   1   39.39    1.46
  -3   2   1   42.05    1.46
  -3   2   1   42.43    1.68
   3   2  -1   41.88    1.51
  -2  -2   1   17.16    0.91
  -2  -2   1   16.95    0.93
  -2  -2   1   17.20    0.88
   2  -2  -1   16.70    0.82
  -2   2   1   17.29    1.03
  -2   2   1   19.24    0.99
  -2   2   1   18.16    0.87
   2   2  -1   17.38    0.79
   2   2  -1   17.99    0.82
  -2   2   1   17.57    0.80
   2   2  -1   17.54    0.88
  -1  -2   1   38.00    1.41
   1  -2  -1   37.03    1.40
  -1  -2   1   38.95    1.43
   1  -2  -1   40.38    1.38
  -1  -2   1   37.96    1.39
  -1   2   1   36.82    1.43
   1   2  -1   38.76    1.41
   1   2  -1   38.84    1.44
  -1   2   1   37.81    1.45
   1   2  -1   38.97    1.41
  -1   2   1   38.10    1.43
   1   2  -1   39.71    1.36
   0  -2   1   72.47    2.23
   0  -2  -1   67.77    2.24
   0  -2  -1   66.71    2.26
   0  -2   1   70.13    2.19
   0  -2   1   69.52    2.27
   0   2   1   67.37    2.24
   0   2  -1   68.41    2.21
   0   2   1   67.87    2.23
   0   2  -1   70.29    2.32
   0   2   1   67.12    2.24
   0   2  -1   69.02    2.21
   0   2  -1   69.37    2.27
  -1  -2  -1    4.09    0.40
  -1  -2  -1    4.74    0.48
   1  -2   1    4.78    0.45
   1  -2   1    5.52    0.41
   1   2   1    5.14    0.38
  -1   2  -1    4.64    0.39
   1   2   1    4.43    0.46
  -1   2  -1    4.96    0.42
  -1   2  -1    3.65    0.46
   1   2   1    4.27    0.42
  -1   2  -1    5.04    0.59
   2  -2   1    5.61    0.45
  -2  -2  -1    5.89    0.51
  -2  -2  -1    4.97    0.42
   2   2   1    6.53    0.53
  -2   2  -1    5.48    0.43
   2   2   1    4.60    0.40
  -2   2  -1    5.75    0.55
  -2   2  -1    5.62    0.36
  -2   2  -1    5.96    0.61
  -3  -2  -1  408.00   11.33
  -3  -2  -1  391.79   11.42
   3  -2   1  398.77   11.37
  -3  -2  -1  385.76   11.53
   3  -2   1  397.46   11.36
  -3   2  -1  383.40   11.74
  -3   2  -1  397.61   11.59
  -3   2  -1  395.49   11.35
  -3   2  -1  390.69   11.35
   3   2   1  389.70   11.25
   4  -2   1   39.26    1.38
   4  -2   1   38.56    1.36
  -4  -2  -1   37.20    1.44
  -4  -2  -1   38.64    1.67
  -4   2  -1   38.06    1.39
   4   2   1   39.52    1.22
  -4   2  -1   37.59    1.67
  -4   2  -1   40.09    1.82
  -4   2  -1   38.21    1.34
  -5  -2  -1    3.04    0.44
  -5  -2  -1    1.36    0.58
   5  -2   1    1.27    0.30
  -5  -2  -1    1.58    0.36
   5  -2   1    1.16    0.30
  -5   2  -1    1.17    0.58
  -5   2  -1    1.22    0.36
  -5   2  -1    0.93    0.78
  -5   2  -1    0.99    0.34
   5   2   1    1.03    0.19
  -6  -2  -1    7.13    0.75
  -6  -2  -1    6.15    0.62
  -6  -2  -1    5.56    0.43
   6  -2   1    5.19    0.52
   6   2   1    8.26    0.54
  -6   2  -1    5.36    0.52
  -6   2  -1    5.88    0.59
  -6   2  -1    6.47    0.97
  -7  -2  -1  142.07    4.65
   7  -2   1  148.51    4.56
  -7  -2  -1  155.04    5.01
  -7   2  -1  147.82    4.54
  -7   2  -1  144.90    4.68
   8  -2   1   30.91    1.41
  -8  -2  -1   32.87    1.94
  -8  -2  -1   33.45    1.56
  -8   2  -1   35.85    1.49
  -9  -2  -1   37.00    2.12
  -9  -2  -1   35.24    1.70
   9  -2   1   35.78    1.58
  -9   2  -1   35.97    1.56
 -10  -2  -1    3.99    0.74
 -10  -2  -1    3.17    0.98
 -10   2  -1    3.07    0.61
 -10  -3   1   11.25    1.25
  10  -3  -1   11.49    1.17
 -10  -3   1   11.05    1.35
 -10   3   1   11.29    1.20
  -9  -3   1   12.19    1.26
  -9  -3   1   11.33    1.16
   9  -3  -1   11.74    1.10
  -9   3   1   11.82    1.16
  -9   3   1   10.41    1.04
   8  -3  -1    2.75    0.70
  -8  -3   1    2.13    0.96
  -8  -3   1    1.25    0.72
  -8   3   1    2.00    0.64
  -8   3   1    1.81    0.69
  -7  -3   1   46.58    2.12
   7  -3  -1   50.65    2.08
  -7  -3   1   48.61    2.28
  -7   3   1   51.12    2.06
   7   3  -1   50.28    1.87
  -7   3   1   49.42    2.03
  -6  -3   1   27.71    1.50
   6  -3  -1   28.62    1.33
  -6  -3   1   27.57    1.56
   6   3  -1   27.49    1.25
  -6   3   1   28.72    1.48
  -6   3   1   28.00    1.38
  -5  -3   1    1.50    0.56
   5  -3  -1    1.44    0.40
  -5  -3   1    1.31    0.54
  -5   3   1    1.34    0.41
  -5   3   1    1.35    0.51
   5   3  -1    1.27    0.42
  -4  -3   1    1.35    0.41
  -4  -3   1    1.84    0.52
   4  -3  -1    3.11    0.56
  -4   3   1    2.25    0.52
  -4   3   1    2.73    0.58
   4   3  -1    2.93    0.47
  -3  -3   1  284.13    8.49
  -3  -3   1  283.74    8.50
   3  -3  -1  290.63    8.50
  -3  -3   1  281.83    8.56
   3   3  -1  286.56    8.44
  -3   3   1  282.52    8.55
   3   3  -1  276.51    8.46
   3   3  -1  278.47    8.31
  -3   3   1  288.59    8.47
  -3   3   1  298.20    8.68
  -3   3   1  282.63    8.41
  -2  -3   1   55.07    1.94
   2  -3  -1   52.49    1.94
  -2  -3   1   50.42    2.00
  -2  -3   1   49.01    2.01
  -2   3   1   55.09    1.93
   2   3  -1   53.23    1.79
   2   3  -1   54.54    1.98
   2   3  -1   55.85    1.93
   2   3  -1   53.79    1.98
  -2   3   1   55.95    2.12
  -2   3   1   54.71    1.95
   1  -3  -1  100.94    3.21
   1  -3  -1   97.53    3.12
  -1  -3   1   98.07    3.20
  -1  -3   1   97.92    3.14
  -1  -3   1  100.02    3.12
  -1   3   1   96.03    3.12
  -1   3   1   95.20    3.12
   1   3  -1   94.37    3.12
   1   3  -1   92.38    3.17
  -1   3   1   95.93    3.12
  -1   3   1   93.83    3.18
   1   3  -1   97.50    3.19
   1   3  -1   95.17    3.03
   0  -3   1   19.97    0.98
   0  -3  -1   19.15    0.97
   0  -3  -1   17.21    0.90
   0  -3   1   18.62    0.98
   0   3   1   19.21    1.03
   0   3   1   18.13    1.06
   0   3  -1   17.74    0.97
   0   3  -1   19.58    0.94
   0   3   1   17.35    1.02
   0   3  -1   18.63    0.99
   0   3  -1   17.31    0.91
  -1  -3  -1  113.47    3.65
   1  -3   1  116.03    3.68
   1  -3   1  117.96    3.57
  -1  -3  -1  111.67    3.67
  -1   3  -1  113.07    3.59
  -1   3  -1  113.52    3.64
   1   3   1  117.54    3.71
   1   3   1  113.90    3.59
  -1   3  -1  113.99    3.74
   1   3   1  116.62    3.64
  -1   3  -1  117.19    3.77
   2  -3   1  116.39    3.68
  -2  -3  -1  115.63    3.69
  -2  -3  -1  113.42    3.73
  -2  -3  -1  123.47    3.69
  -2   3  -1  113.87    3.62
  -2   3  -1  112.50    3.84
   2   3   1  114.22    3.72
  -2   3  -1  113.34    3.56
  -3  -3  -1  170.33    4.88
  -3  -3  -1  166.93    5.00
  -3  -3  -1  159.05    4.78
   3  -3   1  163.57    4.83
   3   3   1  149.56    4.85
  -3   3  -1  155.97    4.79
   3   3   1  155.26    4.75
  -3   3  -1  150.69    4.62
  -3   3  -1  152.94    5.00
  -3   3  -1  147.61    4.72
  -3   3  -1  153.63    5.12
   3   3   1  149.97    4.66
  -4  -3  -1   28.88    1.41
   4  -3   1   28.69    1.26
  -4  -3  -1   26.86    1.12
  -4  -3  -1   27.07    1.24
   4   3   1   26.51    1.27
  -4   3  -1   27.16    1.22
  -4   3  -1   28.27    1.43
   4   3   1   29.70    1.03
  -4   3  -1   30.82    1.64
   5  -3   1    5.77    0.59
  -5  -3  -1    5.39    0.73
  -5  -3  -1    4.99    0.67
  -5   3  -1    5.51    1.09
  -5   3  -1    5.50    0.89
  -5   3  -1    5.67    0.59
  -5   3  -1    5.84    0.57
   5   3   1    5.93    0.40
  -6  -3  -1   92.93    3.17
  -6  -3  -1   95.14    3.46
   6  -3   1   90.92    3.05
  -6   3  -1   88.02    3.01
  -6   3  -1   89.51    3.04
  -6   3  -1   91.49    3.85
  -6   3  -1   93.20    3.47
   7  -3   1    9.77    0.80
  -7  -3  -1    9.49    1.12
  -7  -3  -1    8.31    0.87
  -7   3  -1    9.42    0.83
  -8  -3  -1    2.09    0.65
   8  -3   1    2.19    0.63
  -8  -3  -1    0.05    0.83
  -8   3  -1    1.88    0.62
  -9  -3  -1    1.85    0.74
  -9  -3  -1    2.25    0.71
   9  -3   1    1.96    0.71
  -9   3  -1    1.43    0.66
  -9  -4   1    3.65    0.99
  -9  -4   1    3.83    0.94
   9  -4  -1    1.61    0.79
  -9   4   1    4.47    0.88
  -8  -4   1    5.05    1.15
  -8  -4   1    4.67    0.77
   8  -4  -1    3.77    0.86
  -8   4   1    4.35    0.84
  -8   4   1    3.40    0.78
  -7  -4   1    1.57    0.91
  -7  -4   1    0.70    0.76
   7  -4  -1   -0.25    0.63
  -7   4   1   -0.10    0.59
  -7   4   1   -0.02    0.61
   6  -4  -1   95.47    3.37
  -6  -4   1   94.59    3.65
  -6  -4   1   93.19    3.44
   6   4  -1   92.84    3.15
  -6   4   1   91.42    3.26
  -6   4   1   91.72    3.32
  -5  -4   1  104.31    3.72
   5  -4  -1  105.45    3.67
  -5  -4   1  105.94    3.80
  -5  -4   1  105.58    3.58
  -5   4   1  109.97    3.80
   5   4  -1  101.44    3.33
   5   4  -1  101.78    3.49
  -5   4   1  107.57    3.60
  -5   4   1  106.66    3.88
   5   4  -1  109.96    3.64
  -4  -4   1  102.27    3.48
   4  -4  -1  103.65    3.51
  -4  -4   1   96.24    3.56
  -4  -4   1  102.81    3.54
  -4   4   1  100.53    3.73
   4   4  -1  102.91    3.45
   4   4  -1   96.87    3.51
   4   4  -1  100.82    3.39
  -4   4   1  103.79    3.58
  -4   4   1  100.52    3.47
  -4   4   1  100.52    3.30
  -3  -4   1    5.43    0.75
  -3  -4   1    6.94    0.86
   3  -4  -1    5.21    0.63
  -3  -4   1    4.52    0.72
   3   4  -1    6.72    0.76
  -3   4   1    5.08    0.61
   3   4  -1    5.56    0.81
  -3   4   1    5.38    0.66
  -3   4   1    7.03    0.92
  -3   4   1    5.80    0.75
   3   4  -1    5.28    0.46
   3   4  -1    4.82    0.59
  -2  -4   1  153.11    4.75
   2  -4  -1  142.46    4.67
  -2  -4   1  139.37    4.66
  -2  -4   1  146.10    4.69
  -2   4   1  149.21    4.84
   2   4  -1  147.02    4.71
   2   4  -1  144.23    4.43
   2   4  -1  138.85    4.67
  -2   4   1  148.97    4.67
  -2   4   1  147.56    4.66
   2   4  -1  144.35    4.65
   1  -4  -1   86.68    2.92
  -1  -4   1   86.63    3.00
  -1  -4   1   88.46    3.07
  -1  -4   1   85.91    2.95
   1  -4  -1   85.87    3.06
   1   4  -1   81.25    2.97
   1   4  -1   83.31    2.83
  -1   4   1   87.45    3.11
   1   4  -1   89.39    3.07
   1   4  -1   87.13    2.97
  -1   4   1   86.68    2.97
  -1   4   1   85.21    3.02
   0  -4   1  125.80    4.08
   0  -4  -1  128.39    4.18
   0  -4  -1  128.16    4.08
   0  -4   1  126.78    4.17
   0   4  -1  122.66    4.08
   0   4  -1  123.47    4.11
   0   4   1  123.48    4.15
   0   4  -1  128.99    4.08
   0   4  -1  125.14    4.17
   0   4   1  126.46    4.10
   0   4   1  131.12    4.18
  -1  -4  -1  158.46    5.07
   1  -4   1  157.63    5.06
   1  -4   1  159.58    4.95
  -1  -4  -1  161.53    5.05
   1   4   1  153.64    5.04
   1   4   1  159.69    5.01
  -1   4  -1  157.55    4.99
  -1   4  -1  162.71    5.04
  -1   4  -1  157.38    5.08
   1   4   1  160.03    4.99
  -1   4  -1  159.46    5.18
  -2  -4  -1    6.79    0.76
   2  -4   1    8.07    0.67
   2  -4   1    6.41    0.76
  -2  -4  -1    7.50    0.79
   2   4   1    7.15    0.67
   2   4   1    8.63    0.72
  -2   4  -1    7.18    0.90
  -2   4  -1    7.34    0.68
  -2   4  -1    6.39    0.74
   2   4   1    8.16    0.75
  -2   4  -1    6.36    0.89
  -3  -4  -1   18.98    1.20
  -3  -4  -1   17.66    1.34
   3  -4   1   13.90    1.09
  -3  -4  -1   18.99    1.10
  -3   4  -1   16.55    1.11
  -3   4  -1   13.07    1.13
  -3   4  -1   12.78    0.85
  -3   4  -1   23.40    1.57
   3   4   1   15.95    1.23
   3   4   1   19.54    1.06
  -3   4  -1   15.62    0.87
   3   4   1   12.97    0.87
   4  -4   1   78.12    2.75
  -4  -4  -1   75.36    2.72
  -4  -4  -1   72.97    2.58
  -4  -4  -1   74.67    2.85
   4   4   1   76.24    2.50
  -4   4  -1   77.47    3.05
  -4   4  -1   75.76    2.70
  -4   4  -1   78.42    3.11
   4   4   1   73.67    2.77
   4   4   1   71.71    2.60
   5  -4   1   58.51    2.27
  -5  -4  -1   56.99    2.24
  -5  -4  -1   54.58    2.39
  -5   4  -1   54.78    2.87
   5   4   1   56.99    1.93
  -5   4  -1   57.40    2.62
  -5   4  -1   60.32    2.25
  -5   4  -1   55.77    2.10
   5   4   1   57.44    2.30
  -6  -4  -1    5.65    0.86
   6  -4   1    5.59    0.75
  -6  -4  -1    5.16    0.81
   6   4   1    6.56    0.90
  -6   4  -1    5.73    0.65
  -6   4  -1    6.02    0.73
  -6   4  -1    7.85    1.14
  -6   4  -1    6.25    1.31
   7  -4   1    4.52    0.73
  -7  -4  -1    3.26    0.78
  -7  -4  -1    2.71    0.75
  -7   4  -1    4.80    0.72
   7   4   1    4.45    0.87
   8  -4   1    2.02    0.66
  -8  -4  -1   -0.18    0.63
  -8  -4  -1    1.80    0.77
   8   4   1    2.03    0.82
  -8   4  -1    1.99    0.64
   9  -4   1    6.99    1.04
  -9  -4  -1    9.28    1.39
  -9  -4  -1    7.63    1.07
  -9   4  -1    9.98    0.97
   9   4   1    7.30    1.15
   8  -5  -1   11.26    1.25
  -8  -5   1   11.34    1.35
  -8  -5   1   12.00    1.53
  -8   5   1   14.55    1.30
   8   5  -1   14.82    1.53
  -7  -5   1   42.30    2.24
  -7  -5   1   39.94    2.45
   7  -5  -1   41.40    2.14
   7   5  -1   40.06    2.34
  -7   5   1   38.45    1.99
  -7   5   1   37.25    1.89
   6  -5  -1    3.13    0.86
  -6  -5   1    1.07    0.63
  -6  -5   1    2.80    1.02
  -6   5   1    2.01    0.82
   6   5  -1    2.13    0.71
   6   5  -1    2.94    0.63
  -5  -5   1    8.75    1.17
  -5  -5   1    8.57    1.08
  -5  -5   1    7.54    1.11
   5  -5  -1    7.04    0.98
  -5   5   1    7.00    0.97
   5   5  -1    7.29    1.10
   5   5  -1    8.92    0.88
  -5   5   1    8.19    1.05
  -5   5   1    9.21    1.04
  -4  -5   1   15.95    1.21
  -4  -5   1   19.07    1.56
  -4  -5   1   17.65    1.18
   4  -5  -1   17.36    1.40
   4   5  -1   19.77    1.33
   4   5  -1   15.60    1.19
  -4   5   1   15.12    1.12
   4   5  -1   17.35    1.49
  -4   5   1   16.32    1.47
  -4   5   1   14.49    1.13
  -4   5   1   17.62    1.37
  -3  -5   1   39.60    1.99
   3  -5  -1   35.17    1.93
  -3  -5   1   41.53    1.92
  -3  -5   1   38.54    1.98
   3   5  -1   37.32    2.04
   3   5  -1   42.49    1.84
   3   5  -1   39.56    1.45
  -3   5   1   40.47    2.19
  -3   5   1   39.99    1.84
   3   5  -1   38.81    1.86
  -3   5   1   42.49    1.99
  -3   5   1   41.55    1.97
   2  -5  -1   69.08    2.73
  -2  -5   1   67.93    2.63
  -2  -5   1   69.57    2.70
  -2  -5   1   67.39    2.73
   2  -5  -1   68.02    2.52
   2   5  -1   67.34    2.33
  -2   5   1   66.29    2.68
  -2   5   1   68.42    2.58
   2   5  -1   68.13    2.60
  -2   5   1   64.30    2.83
   2   5  -1   68.29    2.68
   2   5  -1   67.62    2.76
  -1  -5   1   18.59    1.25
   1  -5  -1   16.24    1.22
   1  -5  -1   22.34    1.35
  -1  -5   1   20.03    1.35
   1   5  -1   20.74    1.10
   1   5  -1   19.69    1.26
  -1   5   1   21.73    1.34
   1   5  -1   19.07    1.43
  -1   5   1   20.30    1.42
   1   5  -1   18.52    1.40
  -1   5   1   19.21    1.22
   0  -5  -1   -0.19    0.47
   0  -5   1    0.52    0.48
   0  -5  -1    0.51    0.63
   0  -5   1    0.33    0.58
   0   5  -1    0.15    0.64
   0   5  -1    0.18    0.49
   0   5   1    0.16    0.48
   0   5  -1    0.61    0.51
   0   5   1    0.37    0.64
   0   5   1   -0.47    0.63
   0   5  -1   -0.20    0.61
  -1  -5  -1  157.00    5.19
   1  -5   1  160.09    5.05
   1  -5   1  157.93    5.19
  -1  -5  -1  152.18    5.14
  -1   5  -1  158.95    5.19
   1   5   1  157.67    5.14
  -1   5  -1  155.41    5.31
   1   5   1  159.46    5.18
  -1   5  -1  156.37    5.05
  -1   5  -1  158.42    5.16
   1   5   1  154.72    5.14
   2  -5   1   46.60    2.04
  -2  -5  -1   52.19    2.20
   2  -5   1   45.58    1.94
  -2  -5  -1   49.34    2.16
  -2   5  -1   46.65    2.36
  -2   5  -1   48.74    2.02
  -2   5  -1   49.40    2.31
  -2   5  -1   48.62    2.04
   2   5   1   51.26    2.13
   2   5   1   48.68    2.05
   2   5   1   47.48    2.12
  -3  -5  -1   50.49    2.04
   3  -5   1   51.50    2.11
  -3   5  -1   45.00    1.81
  -3   5  -1   50.17    2.06
   3   5   1   33.32    1.68
   3   5   1   47.68    1.97
  -3   5  -1   39.64    2.26
  -3   5  -1   36.01    1.72
  -3   5  -1   50.22    2.38
   4  -5   1   11.18    1.07
  -4  -5  -1   13.42    1.23
  -4  -5  -1   11.03    1.25
  -4  -5  -1   12.05    1.14
  -4   5  -1   10.63    1.23
  -4   5  -1   10.50    1.14
   4   5   1   13.70    1.02
  -4   5  -1   12.26    0.91
  -4   5  -1   11.69    1.07
   4   5   1   10.20    1.00
  -5  -5  -1   98.22    3.85
   5  -5   1   98.42    3.60
  -5  -5  -1   92.84    3.55
  -5   5  -1   99.99    4.20
   5   5   1   97.29    3.74
  -5   5  -1  104.79    4.01
  -5   5  -1  100.72    3.57
  -6  -5  -1    8.61    0.94
  -6  -5  -1    9.12    1.26
   6  -5   1    7.37    0.99
  -6   5  -1    5.00    1.15
  -6   5  -1    7.12    0.91
  -6   5  -1    5.79    1.03
   6   5   1    3.84    0.97
   7  -5   1    0.16    0.68
  -7  -5  -1    0.96    0.62
  -7  -5  -1    1.03    0.99
   7   5   1    0.14    0.59
  -7   5  -1    0.39    0.68
  -7   5  -1   -0.46    1.00
  -8  -5  -1    6.73    1.31
   8  -5   1    7.74    1.01
  -8  -5  -1    8.26    1.21
  -8   5  -1    8.86    1.04
   8   5   1    6.61    1.20
  -7  -6   1    0.30    1.06
   7  -6  -1    0.13    0.90
  -7  -6   1    0.76    0.68
   7   6  -1    1.67    1.12
  -7   6   1    1.13    0.89
  -6  -6   1    6.35    0.99
   6  -6  -1    7.05    1.14
  -6  -6   1    6.09    1.25
  -6   6   1    6.22    1.07
   6   6  -1    6.14    1.02
  -5  -6   1    0.74    0.97
  -5  -6   1    0.17    0.89
   5  -6  -1   -0.17    0.83
   5   6  -1    0.46    0.96
  -5   6   1   -1.69    0.75
   5   6  -1   -0.95    0.56
  -5   6   1    0.24    0.73
  -5   6   1    0.20    0.70
  -4  -6   1    7.71    1.23
   4  -6  -1    9.05    1.15
  -4  -6   1   10.08    1.08
  -4  -6   1    9.30    1.03
  -4   6   1   10.29    1.41
   4   6  -1    8.98    1.08
  -4   6   1    8.89    1.06
   4   6  -1    9.20    0.93
  -4   6   1   11.71    1.22
   3  -6  -1    5.46    1.01
  -3  -6   1    5.95    1.01
  -3  -6   1    4.89    0.82
  -3   6   1    5.02    0.83
   3   6  -1    5.11    0.93
  -3   6   1    5.87    0.88
  -3   6   1    5.81    0.96
   3   6  -1    5.96    0.98
   3   6  -1    5.25    1.07
   2  -6  -1   79.51    3.03
  -2  -6   1   73.59    3.09
  -2  -6   1   75.45    3.06
   2  -6  -1   78.49    3.19
   2   6  -1   74.65    2.71
  -2   6   1   77.86    3.33
   2   6  -1   79.77    3.25
  -2   6   1   83.70    3.17
   2   6  -1   82.21    3.15
  -2   6   1   75.19    2.98
   2   6  -1   75.97    3.13
  -1  -6   1    0.02    0.78
   1  -6  -1    0.13    0.56
  -1  -6   1    0.37    0.74
   1  -6  -1    0.71    0.71
  -1   6   1    0.55    0.77
   1   6  -1    1.36    0.63
   1   6  -1    0.82    0.57
   1   6  -1   -0.11    0.52
  -1   6   1   -0.20    0.54
  -1   6   1    0.01    0.57
   1   6  -1    0.37    0.57
   0  -6   1    1.64    0.82
   0  -6  -1    1.13    0.56
   0  -6   1    0.58    0.70
   0  -6  -1   -0.37    0.53
   0   6  -1   -0.17    0.54
   0   6  -1   -0.10    0.80
   0   6   1   -0.20    0.78
   0   6  -1    0.38    0.56
   0   6   1   -0.03    0.55
   0   6   1    0.85    0.78
   0   6  -1    1.04    0.77
   1  -6   1   13.19    1.28
  -1  -6  -1   12.14    1.23
  -1  -6  -1   12.06    1.11
   1  -6   1   13.19    1.14
  -1   6  -1   13.53    1.22
   1   6   1   10.96    1.04
  -1   6  -1   12.75    1.17
   1   6   1   14.11    1.36
  -1   6  -1   12.01    1.21
  -1   6  -1   14.33    1.27
   1   6   1   12.91    1.22
   2  -6   1   70.14    2.95
  -2  -6  -1   70.89    2.83
  -2  -6  -1   65.98    2.77
   2   6   1   72.75    3.06
  -2   6  -1   71.74    2.92
  -2   6  -1   66.32    3.12
  -2   6  -1   71.50    2.79
   2   6   1   70.48    2.83
  -2   6  -1   71.80    3.02
   2   6   1   67.23    2.85
   3  -6   1    2.19    0.91
  -3  -6  -1    4.18    0.78
  -3  -6  -1    2.22    0.82
   3   6   1    2.99    0.75
  -3   6  -1    2.80    1.06
  -3   6  -1    3.56    0.65
   3   6   1    2.32    0.77
  -3   6  -1    3.86    0.92
  -3   6  -1    3.21    0.83
   4  -6   1   51.23    2.28
  -4  -6  -1   48.60    2.25
   4   6   1   47.17    2.06
   4   6   1   45.20    2.30
  -4   6  -1   45.79    2.73
  -4   6  -1   43.77    2.14
  -4   6  -1   52.56    2.75
  -5  -6  -1    0.76    0.88
   5  -6   1    1.20    0.87
   5   6   1    1.76    0.98
  -5   6  -1    1.71    1.18
  -5   6  -1    0.62    1.07
  -5   6  -1    2.34    0.88
   6  -6   1   67.65    2.95
  -6  -6  -1   64.96    3.01
  -6   6  -1   65.75    2.77
   6   6   1   70.58    3.19
  -6   6  -1   69.96    3.25
  -7  -6  -1    8.70    1.28
   7  -6   1    9.43    1.21
   7   6   1   10.93    1.44
  -7   6  -1   10.44    1.24
  -7   6  -1    5.69    1.19
  -6  -7   1    3.20    1.18
  -6  -7   1    5.53    1.37
   6  -7  -1    2.71    0.88
  -6   7   1    3.46    0.90
   6   7  -1    1.68    1.18
  -5  -7   1    5.38    1.23
   5  -7  -1    4.45    1.19
  -5   7   1    7.13    1.50
  -5   7   1    5.44    1.19
   5   7  -1    4.54    0.96
   5   7  -1    5.89    1.10
  -4  -7   1    5.08    0.97
   4  -7  -1    4.23    1.14
  -4  -7   1    5.77    1.15
   4   7  -1    6.39    1.06
  -4   7   1    5.87    1.01
   4   7  -1    6.45    1.31
  -4   7   1    5.74    1.12
  -4   7   1    1.85    0.76
   3  -7  -1   56.10    2.83
  -3  -7   1   53.32    2.59
  -3  -7   1   58.78    2.68
   3   7  -1   59.73    2.96
   3   7  -1   55.20    2.69
  -3   7   1   57.71    3.04
  -3   7   1   54.90    2.60
   3   7  -1   58.63    2.80
  -2  -7   1   19.08    1.49
  -2  -7   1   18.96    1.56
   2  -7  -1   16.43    1.59
  -2   7   1   21.19    1.63
   2   7  -1   21.78    1.82
  -2   7   1   20.06    1.65
  -2   7   1   16.94    1.72
   2   7  -1   18.96    1.60
   2   7  -1   20.47    1.73
   1  -7  -1    1.42    0.97
  -1  -7   1    2.34    0.94
  -1  -7   1    2.13    1.06
   1  -7  -1    3.68    0.95
  -1   7   1    2.09    0.80
  -1   7   1    1.44    0.72
   1   7  -1    3.49    1.06
   1   7  -1    1.94    0.99
  -1   7   1    2.25    0.76
   1   7  -1    1.22    0.99
   0  -7   1    6.62    1.11
   0  -7   1    8.37    1.28
   0  -7  -1   10.06    1.31
   0  -7  -1    8.23    1.20
   0   7  -1    9.57    1.37
   0   7   1    8.65    1.08
   0   7   1    9.21    1.07
   0   7   1    9.14    1.29
   0   7  -1    8.64    1.00
   0   7  -1    9.45    1.24
   0   7  -1    7.79    1.18
  -1  -7  -1   57.91    2.61
   1  -7   1   54.83    2.66
  -1  -7  -1   60.76    2.86
  -1   7  -1   54.95    2.78
   1   7   1   60.42    2.63
  -1   7  -1   55.51    2.65
  -1   7  -1   64.12    3.07
  -1   7  -1   57.93    2.56
   1   7   1   59.37    2.79
   1   7   1   62.94    2.96
  -2  -7  -1   11.48    1.35
  -2  -7  -1   12.16    1.41
   2  -7   1   11.64    1.42
   2   7   1   11.30    1.46
  -2   7  -1   11.54    1.33
   2   7   1   11.00    1.26
  -2   7  -1   11.91    1.25
  -2   7  -1   10.71    1.35
   2   7   1   11.92    1.31
   3  -7   1    5.42    1.17
  -3  -7  -1    4.91    1.17
   3   7   1    5.11    0.94
  -3   7  -1    5.21    1.00
   3   7   1    6.50    1.29
  -3   7  -1    5.39    1.09
  -3   7  -1    5.95    1.18
   4  -7   1   27.25    2.01
  -4  -7  -1   22.87    1.85
  -4   7  -1   24.18    1.92
  -4   7  -1   26.53    2.28
   4   7   1   24.50    1.84
  -4   7  -1   22.91    1.93
  -5  -7  -1   13.97    1.55
   5  -7   1   12.98    1.32
  -5   7  -1   12.24    1.72
   5   7   1   15.20    1.67
  -5   7  -1   12.60    1.43
  -3  -8   1    1.10    1.11
   3  -8  -1    0.13    1.11
  -3  -8   1    2.87    0.93
   3   8  -1    2.64    1.07
  -3   8   1    1.60    1.13
   3   8  -1    2.64    0.96
  -3   8   1    1.45    1.28
   2  -8  -1   12.17    1.42
  -2  -8   1   13.08    1.57
  -2  -8   1   17.56    1.78
   2   8  -1   14.73    1.50
  -2   8   1   22.63    2.01
  -2   8   1   17.68    1.69
   2   8  -1   13.44    1.59
   2   8  -1   14.98    1.65
  -1  -8   1   -0.34    0.75
   1  -8  -1   -0.07    1.03
  -1  -8   1    0.32    0.72
  -1   8   1   -2.36    1.00
   1   8  -1   -1.01    1.04
  -1   8   1   -0.45    1.02
   1   8  -1    0.83    1.07
   1   8  -1   -0.62    1.00
  -1   8   1    1.38    1.10
   0  -8  -1   47.99    2.70
   0  -8   1   41.16    2.72
   0  -8  -1   47.73    2.59
   0   8  -1   48.00    2.72
   0   8  -1   41.38    2.56
   0   8  -1   48.22    2.85
   0   8   1   41.41    2.62
   0   8   1   42.08    2.64
   0   8   1   41.75    2.65
   1  -8   1    0.48    0.77
  -1  -8  -1    1.79    0.81
  -1  -8  -1    1.46    1.10
  -1   8  -1    2.08    1.14
   1   8   1   -0.26    0.97
   1   8   1    0.42    1.04
  -1   8  -1    1.11    1.19
   1   8   1    1.81    1.15
  -2  -8  -1    1.96    1.08
  -2  -8  -1    2.27    1.15
   2  -8   1    0.55    1.15
   2   8   1    1.47    0.73
  -2   8  -1    1.88    1.29
   2   8   1    3.50    0.97
  -2   8  -1    2.25    1.16
   3  -8   1    3.06    1.19
  -3  -8  -1    3.08    0.97
   3   8   1    3.59    1.31
  -3   8  -1    5.11    1.02
  -3   8  -1    2.33    1.02
   3   8   1    3.47    1.00
 -11   0   2    0.10    0.86
  11   0  -2   -0.56    0.74
 -11   0   2   -0.85    0.69
 -10   0   2   32.67    2.10
 -10   0   2   35.30    1.82
  10   0  -2   29.67    1.79
   9   0  -2    0.03    0.60
  -9   0   2   -1.11    0.74
  -9   0   2    0.27    0.59
  -8   0   2   28.96    1.80
   8   0  -2   28.69    1.54
  -8   0   2   28.21    1.48
  -7   0   2   -0.64    0.45
  -7   0   2    0.63    0.49
   7   0  -2    0.65    0.38
  -6   0   2  182.23    5.64
  -6   0   2  181.72    5.81
   6   0  -2  188.02    5.69
  -5   0   2    0.55    0.52
  -5   0   2    0.21    0.29
   5   0  -2    0.68    0.42
  -5   0   2    0.17    0.37
  -4   0   2    1.99    0.41
   4   0  -2    2.41    0.36
   4   0  -2    1.94    0.45
   4   0  -2    1.83    0.29
  -4   0   2    1.44    0.41
  -4   0   2    2.59    0.37
   3   0  -2   -0.32    0.27
  -3   0   2   -0.50    0.34
   3   0  -2   -0.20    0.26
  -3   0   2   -0.48    0.30
  -3   0   2   -0.63    0.32
   3   0  -2   -0.10    0.32
   2   0  -2   75.21    2.42
   2   0  -2   79.08    2.40
  -2   0   2   76.39    2.40
  -2   0   2   75.91    2.45
  -2   0   2   75.21    2.44
   2   0  -2   79.40    2.44
   1   0  -2   -0.31    0.24
  -1   0   2    0.17    0.28
  -1   0   2   -0.94    0.27
   1   0  -2    0.31    0.31
   1   0  -2   -0.42    0.27
  -1   0   2   -0.03    0.21
  -1   0   2   -0.45    0.36
   0   0   2   40.26    1.27
   0   0  -2   39.12    1.25
   0   0  -2   39.06    1.41
   0   0   2   40.14    1.25
   0   0  -2   39.61    1.26
   0   0   2   39.79    1.27
   0   0  -2   41.91    1.42
  -1   0  -2   -0.05    0.06
  -1   0  -2   -0.04    0.25
  -1   0  -2   -0.36    0.30
  -1   0  -2   -0.04    0.07
  -1   0  -2    0.01    0.20
  -2   0  -2   80.67    2.49
  -2   0  -2   80.43    2.42
  -2   0  -2   79.92    2.66
  -2   0  -2   80.98    2.43
  -3   0  -2    0.04    0.18
  -3   0  -2    0.12    0.43
  -3   0  -2   -0.38    0.19
  -4   0  -2   36.77    1.34
  -4   0  -2   36.35    1.59
  -5   0  -2   -1.22    0.54
  -5   0  -2    0.08    0.08
  -5   0  -2    0.04    0.08
  -5   0  -2    0.05    0.32
  -6   0  -2    8.41    0.44
   6   0   2    8.24    0.43
  -6   0  -2    8.07    0.92
  -6   0  -2    8.38    0.69
   6   0   2    7.96    0.43
  -6   0  -2    7.73    0.42
   7   0   2    0.06    0.25
  -7   0  -2   -0.02    0.28
  -7   0  -2   -0.25    0.41
   8   0   2   20.85    1.00
  -8   0  -2   21.95    1.30
  -8   0  -2   20.46    0.97
  -9   0  -2    0.91    0.41
   9   0   2   -0.52    0.39
 -10  -1   2   15.00    1.51
  10  -1  -2   14.34    1.24
 -10  -1   2   13.23    1.22
 -10   1   2   11.58    1.12
 -10   1   2   12.69    1.34
  10   1  -2   13.42    1.28
   9  -1  -2   54.47    2.34
  -9  -1   2   55.26    2.52
  -9  -1   2   54.92    2.34
  -9   1   2   52.54    2.27
   9   1  -2   57.05    2.42
  -9   1   2   56.33    2.61
   8  -1  -2    2.39    0.66
  -8  -1   2    1.82    0.83
  -8  -1   2    1.23    0.63
  -8   1   2    1.32    0.59
   8   1  -2    2.01    0.69
  -8   1   2    1.06    0.57
   7  -1  -2    6.34    0.75
  -7  -1   2    7.46    0.78
  -7  -1   2    7.47    0.85
  -7   1   2    6.60    0.72
  -7   1   2    8.08    0.83
   7   1  -2    7.04    0.83
  -6  -1   2    0.23    0.65
  -6  -1   2    1.06    0.49
   6  -1  -2    0.30    0.45
   6  -1  -2    0.96    0.23
  -6   1   2    1.19    0.44
   6   1  -2    1.77    0.55
  -6   1   2    1.14    0.44
   4  -1  -2   41.93    1.59
   4  -1  -2   41.58    1.48
  -4  -1   2   41.21    1.53
  -4  -1   2   40.60    1.53
   4  -1  -2   39.86    1.48
  -4  -1   2   39.84    1.72
   4   1  -2   44.59    1.52
  -4   1   2   43.28    1.56
   4   1  -2   40.49    1.63
  -4   1   2   39.20    1.59
  -4   1   2   44.20    1.51
   3  -1  -2  159.69    4.93
  -3  -1   2  165.92    4.96
  -3  -1   2  163.85    5.03
   3  -1  -2  169.63    4.93
   3  -1  -2  165.51    4.91
  -3  -1   2  159.07    4.93
   3   1  -2  165.01    4.94
   3   1  -2  168.50    4.98
  -3   1   2  160.49    4.97
  -3   1   2  164.84    4.93
  -3   1   2  164.30    4.92
   2  -1  -2    8.36    0.73
  -2  -1   2    7.88    0.57
  -2  -1   2    8.96    0.73
  -2  -1   2    7.13    0.62
   2  -1  -2    9.23    0.72
   2   1  -2    8.19    0.57
  -2   1   2    6.77    0.55
   2   1  -2    8.73    0.74
  -2   1   2    8.77    0.66
  -2   1   2    8.13    0.70
   1  -1  -2  406.71   12.00
  -1  -1   2  409.11   12.02
  -1  -1   2  427.42   11.98
  -1  -1   2  424.49   11.98
   1  -1  -2  421.21   12.05
  -1   1   2  416.16   11.99
  -1   1   2  415.00   12.00
   1   1  -2  419.75   12.04
   1   1  -2  411.16   12.01
   1   1  -2  419.76   12.06
   0  -1  -2  316.29    9.12
   0  -1   2  304.62    9.13
   0  -1  -2  318.19    9.22
   0  -1   2  324.71    9.10
   0  -1   2  323.37    9.06
   0  -1  -2  309.99    9.14
   0   1  -2  328.00    9.26
   0   1   2  311.59    9.14
   0   1   2  306.15    9.12
   0   1  -2  325.45    9.11
   0   1  -2  314.16    9.13
   0   1  -2  313.51    9.19
  -1  -1  -2    0.67    0.19
   1  -1   2    0.77    0.20
  -1  -1  -2    0.97    0.21
   1  -1   2    0.80    0.18
  -1  -1  -2    0.95    0.25
  -1  -1  -2    1.02    0.39
  -1  -1  -2    0.31    0.22
  -1   1  -2    0.29    0.37
   1   1   2    0.77    0.19
   1   1   2    0.55    0.24
  -1   1  -2    0.63    0.20
  -1   1  -2    0.41    0.35
   1   1   2    0.82    0.24
  -1   1  -2    0.62    0.19
  -2  -1  -2   59.50    2.01
  -2  -1  -2   61.56    1.87
  -2  -1  -2   61.93    2.02
  -2  -1  -2   63.14    1.87
  -2  -1  -2   62.76    2.00
  -2   1  -2   60.43    2.01
   2   1   2   61.51    1.88
  -2   1  -2   62.77    2.20
  -2   1  -2   59.36    1.78
  -2   1  -2   60.23    1.77
  -3  -1  -2   13.41    0.78
  -3  -1  -2   12.00    0.76
  -3  -1  -2   12.12    0.53
  -3  -1  -2   12.50    0.51
  -3  -1  -2   12.07    0.65
   3   1   2   12.65    0.52
  -3   1  -2   12.55    0.51
  -3   1  -2   13.34    1.07
  -3   1  -2   13.04    0.77
  -4  -1  -2  192.61    5.84
  -4  -1  -2  192.05    5.63
  -4  -1  -2  195.83    5.63
  -4  -1  -2  194.90    5.96
  -4  -1  -2  191.02    5.69
  -4   1  -2  193.72    5.67
  -4   1  -2  193.09    5.86
  -4   1  -2  192.73    6.19
   4   1   2  197.56    5.63
  -5  -1  -2  124.26    3.68
  -5  -1  -2  124.83    3.94
  -5  -1  -2  124.42    3.70
  -5  -1  -2  121.33    4.11
   5  -1   2  111.40    3.52
  -5  -1  -2  123.96    3.64
   5   1   2  124.54    3.69
  -5   1  -2  125.88    4.37
  -5   1  -2  122.70    3.76
  -5   1  -2  125.81    3.95
  -5   1  -2  130.49    3.57
  -5   1  -2  121.83    3.56
   5   1   2  124.89    3.71
   6  -1   2   81.34    2.47
   6  -1   2   80.63    2.48
  -6  -1  -2   81.73    2.60
  -6  -1  -2   82.41    2.59
  -6  -1  -2   84.77    2.91
  -6   1  -2   84.49    3.40
  -6   1  -2   83.33    2.50
   6   1   2   81.29    2.62
  -6   1  -2   84.06    2.71
  -6   1  -2   81.65    2.48
   7  -1   2   35.58    1.30
  -7  -1  -2   37.00    1.64
  -7  -1  -2   37.92    1.40
  -7   1  -2   37.07    1.29
   7   1   2   37.34    1.45
  -7   1  -2   36.66    1.52
  -8  -1  -2    8.69    0.71
  -8  -1  -2    9.32    0.96
   8  -1   2    8.26    0.64
  -8   1  -2    9.56    0.66
  -9  -1  -2    7.44    0.96
  -9  -1  -2    8.15    0.76
   9  -1   2    6.77    0.65
  -9   1  -2    7.21    0.64
 -10  -2   2   16.90    1.40
  10  -2  -2   18.62    1.44
 -10  -2   2   17.27    1.56
 -10   2   2   18.32    1.42
 -10   2   2   19.40    1.47
  -9  -2   2   34.17    1.86
   9  -2  -2   35.62    1.86
  -9  -2   2   33.48    2.19
  -9   2   2   37.33    1.88
  -9   2   2   33.42    1.76
  -8  -2   2    1.29    0.88
  -8  -2   2    2.39    0.74
   8  -2  -2    2.75    0.71
  -8   2   2    1.56    0.62
  -8   2   2    1.68    0.76
   7  -2  -2   23.01    1.07
  -7  -2   2   21.37    1.60
   7  -2  -2   21.58    1.31
  -7  -2   2   20.91    1.35
  -7   2   2   21.89    1.30
  -7   2   2   21.77    1.27
  -6  -2   2   21.87    1.31
  -6  -2   2   19.16    1.23
  -6  -2   2   19.65    0.97
   6  -2  -2   21.65    1.22
   6  -2  -2   21.43    1.02
  -6   2   2   20.59    1.08
  -6   2   2   22.15    1.21
   5  -2  -2  103.37    3.27
   5  -2  -2   99.38    3.34
  -5  -2   2  104.51    3.54
  -5  -2   2   99.40    3.27
  -5  -2   2  100.86    3.38
   5  -2  -2   99.74    3.19
  -5   2   2  100.07    3.42
  -5   2   2  101.85    3.32
   5   2  -2   99.71    3.25
  -5   2   2  103.66    3.19
   4  -2  -2    4.11    0.47
  -4  -2   2    3.41    0.57
  -4  -2   2    3.44    0.51
   4  -2  -2    3.28    0.43
  -4  -2   2    2.92    0.62
   4   2  -2    3.52    0.43
  -4   2   2    3.08    0.57
  -4   2   2    3.37    0.45
  -4   2   2    4.03    0.53
  -4   2   2    3.21    0.68
  -3  -2   2   31.27    1.31
   3  -2  -2   30.74    1.31
  -3  -2   2   29.83    1.32
  -3  -2   2   31.59    1.27
  -3   2   2   28.24    1.24
  -3   2   2   28.68    1.26
   3   2  -2   29.78    1.28
  -3   2   2   30.39    1.47
   3   2  -2   29.86    1.31
   2  -2  -2  470.43   13.54
  -2  -2   2  467.08   13.56
  -2  -2   2  474.72   13.52
  -2  -2   2  458.50   13.53
  -2   2   2  464.83   13.51
   2   2  -2  465.81   13.52
  -2   2   2  463.24   13.66
   2   2  -2  470.96   13.55
  -2   2   2  470.79   13.52
   2   2  -2  462.76   13.53
   1  -2  -2  587.38   16.83
  -1  -2   2  599.59   16.83
  -1  -2   2  579.91   16.87
  -1  -2   2  601.94   16.82
   1  -2  -2  577.33   16.86
   1   2  -2  581.66   16.87
   1   2  -2  589.08   16.89
  -1   2   2  570.87   16.84
  -1   2   2  583.45   16.85
   1   2  -2  599.48   16.86
   1   2  -2  570.02   16.84
   0  -2  -2    8.43    0.66
   0  -2   2    8.00    0.57
   0  -2  -2    7.99    0.62
   0  -2   2    8.25    0.59
   0  -2   2    7.06    0.51
   0   2   2    7.53    0.54
   0   2  -2    8.25    0.65
   0   2   2    6.76    0.60
   0   2  -2    7.27    0.62
   0   2   2    7.37    0.51
   0   2  -2    7.27    0.54
   0   2  -2    8.02    0.65
  -1  -2  -2   67.45    2.31
  -1  -2  -2   78.89    2.35
   1  -2   2   67.51    2.30
  -1  -2  -2   70.23    2.11
   1  -2   2   69.43    2.21
   1   2   2   67.64    2.34
  -1   2  -2   77.93    2.31
  -1   2  -2   70.78    2.47
   1   2   2   69.92    2.23
   1   2   2   78.29    2.32
  -1   2  -2   72.11    2.23
  -1   2  -2   69.78    2.48
   2  -2   2  603.74   17.46
  -2  -2  -2  612.55   17.61
  -2  -2  -2  605.97   17.50
  -2  -2  -2  595.19   17.35
  -2  -2  -2  649.05   17.47
   2   2   2  583.09   17.43
  -2   2  -2  608.39   17.65
   2   2   2  613.81   17.53
  -2   2  -2  596.34   17.45
  -2   2  -2  621.83   17.80
  -2   2  -2  620.53   17.44
  -3  -2  -2  231.26    6.81
  -3  -2  -2  238.91    6.82
  -3  -2  -2  232.60    6.96
   3  -2   2  233.01    6.74
   3  -2   2  232.90    6.74
  -3   2  -2  221.82    6.67
  -3   2  -2  226.35    7.18
  -3   2  -2  224.18    6.98
  -3   2  -2  229.76    6.73
   3   2   2  234.24    6.84
  -3   2  -2  235.62    6.73
  -4  -2  -2   44.41    1.81
   4  -2   2   44.46    1.49
   4  -2   2   44.49    1.47
  -4  -2  -2   43.00    1.64
  -4  -2  -2   43.49    1.58
  -4  -2  -2   45.36    1.57
  -4   2  -2   44.29    1.84
  -4   2  -2   47.26    2.06
  -4   2  -2   42.09    1.47
  -4   2  -2   45.44    1.49
  -5  -2  -2    3.90    0.45
   5  -2   2    3.87    0.35
  -5  -2  -2    3.79    0.42
  -5  -2  -2    3.59    0.65
  -5  -2  -2    4.39    0.45
   5  -2   2    3.78    0.38
   5   2   2    3.54    0.49
  -5   2  -2    3.82    0.56
  -5   2  -2    3.73    0.77
  -5   2  -2    3.39    0.36
  -5   2  -2    3.97    0.42
  -6  -2  -2  135.33    4.28
   6  -2   2  140.77    4.17
  -6  -2  -2  134.18    4.56
  -6   2  -2  134.97    4.21
  -6   2  -2  143.36    5.09
  -6   2  -2  137.51    4.54
  -6   2  -2  137.77    4.16
  -7  -2  -2  112.42    3.95
  -7  -2  -2  112.84    3.63
   7  -2   2  109.65    3.46
  -7   2  -2  107.67    4.34
  -7   2  -2  112.27    3.47
   8  -2   2   71.39    2.45
  -8  -2  -2   73.75    2.87
  -8  -2  -2   71.29    2.57
  -8   2  -2   72.51    2.44
   9  -2   2    4.02    0.60
 -10  -3   2    4.50    1.07
  10  -3  -2    3.61    0.95
 -10  -3   2    6.97    1.16
 -10   3   2    7.06    1.02
 -10   3   2    5.12    0.87
  -9  -3   2    9.15    1.20
  -9  -3   2   10.16    1.19
   9  -3  -2   12.73    1.17
  -9   3   2   10.69    1.08
  -9   3   2    9.51    1.15
  -8  -3   2  134.89    4.60
  -8  -3   2  134.53    4.83
   8  -3  -2  134.16    4.60
  -8   3   2  135.18    4.68
  -8   3   2  136.94    4.56
   8   3  -2  133.49    4.50
   7  -3  -2   55.59    2.18
   7  -3  -2   54.57    2.30
  -7  -3   2   51.42    2.55
  -7  -3   2   55.56    2.36
   7   3  -2   55.08    2.17
  -7   3   2   56.67    2.39
  -7   3   2   54.88    2.25
   6  -3  -2   18.00    1.21
  -6  -3   2   15.77    1.06
  -6  -3   2   10.86    1.15
  -6  -3   2   14.19    0.95
  -6   3   2   11.42    1.03
  -5  -3   2   88.48    3.15
   5  -3  -2   70.51    2.68
   5  -3  -2   85.32    2.95
  -5  -3   2   86.03    2.98
  -5  -3   2   80.92    2.87
  -5   3   2   88.45    2.92
  -5   3   2   85.27    2.75
  -5   3   2   84.08    2.96
   5   3  -2   75.66    2.80
   5   3  -2   83.54    2.85
  -4  -3   2  302.60    9.10
  -4  -3   2  293.27    9.18
   4  -3  -2  317.43    9.14
  -4  -3   2  301.43    9.13
  -4   3   2  302.42    9.08
  -4   3   2  305.23    9.28
   4   3  -2  302.01    9.08
  -4   3   2  306.45    9.02
   4   3  -2  304.98    9.07
  -3  -3   2  166.12    5.11
  -3  -3   2  162.70    5.08
   3  -3  -2  163.83    5.09
  -3  -3   2  161.69    5.16
  -3   3   2  162.26    5.25
  -3   3   2  165.16    5.10
   3   3  -2  158.44    4.99
  -3   3   2  166.39    5.25
   3   3  -2  162.05    5.09
  -3   3   2  162.97    5.05
   3   3  -2  162.76    5.10
  -2  -3   2  148.52    4.63
   2  -3  -2  143.37    4.65
  -2  -3   2  145.86    4.69
  -2  -3   2  149.74    4.68
   2   3  -2  152.02    4.66
   2   3  -2  148.28    4.59
   2   3  -2  150.68    4.70
  -2   3   2  149.25    4.74
  -2   3   2  149.65    4.67
   2   3  -2  148.99    4.70
  -2   3   2  149.79    4.66
  -1  -3   2  103.62    3.24
  -1  -3   2   99.02    3.31
   1  -3  -2   97.03    3.30
   1  -3  -2   97.52    3.24
  -1  -3   2  105.07    3.23
  -1   3   2   97.70    3.27
   1   3  -2  100.68    3.28
  -1   3   2   99.12    3.24
   1   3  -2   96.54    3.29
  -1   3   2  101.69    3.27
   1   3  -2   98.22    3.25
   1   3  -2  101.66    3.29
   0  -3   2  116.61    3.66
   0  -3  -2  115.14    3.76
   0  -3   2  117.44    3.71
   0  -3  -2  115.53    3.80
   0  -3   2  120.03    3.81
   0   3   2  122.44    3.79
   0   3   2  119.54    3.74
   0   3   2  120.54    3.79
   0   3  -2  119.18    3.75
   0   3  -2  119.02    3.90
   0   3  -2  117.17    3.85
   0   3  -2  119.03    3.75
  -1  -3  -2  355.39   10.69
  -1  -3  -2  398.72   10.74
   1  -3   2  391.84   10.73
   1  -3   2  357.27   10.59
  -1   3  -2  353.80   10.67
   1   3   2  355.14   10.73
   1   3   2  353.51   10.67
  -1   3  -2  352.53   10.61
   1   3   2  343.89   10.60
  -1   3  -2  399.52   10.88
  -1   3  -2  348.84   10.86
   2  -3   2  101.79    3.17
  -2  -3  -2   96.38    3.14
  -2  -3  -2   97.62    3.18
  -2   3  -2   96.20    2.93
  -2   3  -2   95.53    3.13
  -2   3  -2   93.21    3.35
  -2   3  -2   96.77    3.01
   2   3   2   96.46    3.11
   2   3   2  103.03    3.25
   2   3   2   97.55    3.02
  -2   3  -2   95.08    3.46
  -3  -3  -2    8.47    0.72
  -3  -3  -2    9.37    0.79
  -3  -3  -2    8.71    0.73
   3  -3   2    9.56    0.76
   3   3   2   10.96    0.87
  -3   3  -2    9.10    0.83
   3   3   2    9.42    0.51
  -3   3  -2    9.55    0.72
  -3   3  -2    9.44    1.05
   3   3   2    9.13    0.62
  -4  -3  -2   13.81    1.00
   4  -3   2   14.13    0.85
  -4  -3  -2   13.26    0.91
  -4   3  -2   13.08    0.77
  -4   3  -2   12.53    0.81
  -4   3  -2   11.42    1.06
   4   3   2   12.65    0.97
  -4   3  -2   13.14    0.72
  -4   3  -2   14.08    1.33
   5  -3   2  277.19    7.90
  -5  -3  -2  266.40    8.17
  -5  -3  -2  259.64    7.97
  -5   3  -2  266.74    7.88
   5   3   2  265.40    8.03
  -5   3  -2  258.66    8.53
  -5   3  -2  268.49    8.27
  -5   3  -2  257.59    7.78
  -6  -3  -2    7.86    0.70
  -6  -3  -2    6.12    0.93
   6  -3   2    7.38    0.69
  -6  -3  -2    5.59    0.71
  -6   3  -2    6.08    1.26
  -6   3  -2    7.17    0.67
  -6   3  -2    8.45    1.03
  -7  -3  -2    0.34    0.54
   7  -3   2    1.88    0.47
  -7  -3  -2    2.47    0.82
  -7   3  -2    0.47    1.11
  -7   3  -2    1.87    0.46
  -8  -3  -2   11.31    1.00
   8  -3   2   11.77    1.00
  -8  -3  -2   10.27    1.24
  -8   3  -2   11.55    0.89
  -9  -3  -2   51.39    2.22
  -9  -3  -2   48.84    2.42
   9  -3   2   48.38    2.07
  -9   3  -2   52.07    2.06
  -9  -4   2   13.16    1.39
   9  -4  -2   10.76    1.25
  -9  -4   2   10.05    1.30
  -9   4   2   10.37    1.20
  -9   4   2   10.60    1.18
  -8  -4   2    7.66    1.33
  -8  -4   2    5.68    1.01
   8  -4  -2    7.09    1.02
  -8   4   2    5.57    0.93
  -8   4   2    8.07    1.04
   7  -4  -2   64.64    2.68
  -7  -4   2   62.29    2.60
  -7  -4   2   57.78    2.92
  -7   4   2   61.81    2.59
  -7   4   2   68.36    2.60
   7   4  -2   63.69    2.49
  -6  -4   2  139.55    4.75
   6  -4  -2  141.69    4.70
  -6  -4   2  133.13    4.90
  -6   4   2  139.92    4.68
   6   4  -2  137.19    4.54
  -6   4   2  140.58    4.65
   5  -4  -2   50.63    2.14
  -5  -4   2   47.80    2.05
  -5  -4   2   47.86    2.17
  -5  -4   2   39.89    2.07
  -5   4   2   50.64    2.10
   5   4  -2   46.56    1.83
   5   4  -2   48.93    2.02
   5   4  -2   49.72    2.01
  -5   4   2   50.61    2.29
  -5   4   2   42.23    1.78
  -4  -4   2   94.22    3.37
  -4  -4   2   92.87    3.47
  -4  -4   2   94.16    3.31
   4  -4  -2   94.80    3.37
  -4   4   2   96.78    3.25
   4   4  -2   90.97    3.29
  -4   4   2   92.88    3.48
  -4   4   2   99.47    3.61
   4   4  -2   91.93    3.42
  -4   4   2   98.37    3.36
   4   4  -2   91.50    3.12
   4   4  -2   97.48    3.34
   3  -4  -2   13.22    1.06
  -3  -4   2   13.24    1.04
  -3  -4   2   14.39    1.20
  -3  -4   2   13.35    1.09
  -3   4   2   11.72    1.09
  -3   4   2   13.12    0.93
   3   4  -2   12.65    0.95
  -3   4   2   13.70    1.10
   3   4  -2   13.04    0.91
   3   4  -2   12.48    1.00
  -3   4   2   13.14    1.04
   3   4  -2   12.92    1.04
  -2  -4   2  278.92    8.53
  -2  -4   2  286.89    8.51
   2  -4  -2  275.88    8.56
  -2  -4   2  285.20    8.60
   2   4  -2  282.39    8.58
  -2   4   2  283.98    8.53
   2   4  -2  280.24    8.39
   2   4  -2  279.24    8.52
  -2   4   2  279.61    8.54
   2   4  -2  286.90    8.58
  -2   4   2  276.09    8.61
  -1  -4   2  128.62    4.19
   1  -4  -2  125.85    4.19
  -1  -4   2  126.22    4.13
   1  -4  -2  129.32    4.22
  -1  -4   2  129.72    4.25
   1   4  -2  130.30    4.25
   1   4  -2  130.36    4.24
   1   4  -2  124.71    4.30
  -1   4   2  124.99    4.27
  -1   4   2  134.34    4.27
  -1   4   2  131.97    4.24
   1   4  -2  130.31    4.17
   0  -4  -2  140.13    4.36
   0  -4   2  136.19    4.31
   0  -4  -2  131.68    4.41
   0  -4   2  133.36    4.39
   0   4  -2  135.26    4.32
   0   4   2  137.90    4.45
   0   4   2  132.41    4.38
   0   4  -2  137.35    4.44
   0   4   2  136.86    4.39
   0   4  -2  130.26    4.45
   0   4  -2  134.62    4.39
  -1  -4  -2    9.90    0.82
   1  -4   2    9.00    0.73
   1  -4   2    9.67    0.88
  -1  -4  -2    9.98    0.84
   1   4   2    8.15    0.89
  -1   4  -2   12.42    1.05
  -1   4  -2    9.86    0.89
   1   4   2   11.55    0.87
   1   4   2    9.52    0.78
  -1   4  -2   10.50    0.89
  -1   4  -2   10.38    0.79
  -2  -4  -2   32.37    1.53
   2  -4   2   29.10    1.24
  -2  -4  -2   28.05    1.44
   2  -4   2   30.47    1.50
  -2   4  -2   27.47    1.26
   2   4   2   30.96    1.42
  -2   4  -2   31.31    1.46
  -2   4  -2   28.68    1.75
  -2   4  -2   31.48    1.72
   2   4   2   31.51    1.59
   2   4   2   28.92    1.29
   3  -4   2   13.30    0.92
  -3  -4  -2   12.84    0.95
  -3  -4  -2   12.48    1.00
   3   4   2   13.05    0.76
  -3   4  -2   14.32    1.24
  -3   4  -2   13.59    0.69
   3   4   2   14.28    0.91
  -3   4  -2   12.79    0.70
   3   4   2   12.07    1.02
  -3   4  -2   13.81    1.04
  -3   4  -2   12.81    1.22
  -4  -4  -2   68.39    2.79
  -4  -4  -2   65.83    2.57
   4  -4   2   68.24    2.52
   4   4   2   69.72    2.67
  -4   4  -2   65.32    2.47
  -4   4  -2   71.54    2.90
  -4   4  -2   71.26    3.13
   4   4   2   65.79    2.19
   5  -4   2    3.90    0.65
  -5  -4  -2    3.19    0.89
  -5  -4  -2    3.32    0.72
  -5   4  -2    3.34    0.61
  -5   4  -2    3.33    0.44
   5   4   2    2.77    0.72
  -5   4  -2    3.66    0.93
  -5   4  -2    2.72    1.10
   6  -4   2    7.68    0.80
  -6  -4  -2    7.11    0.88
  -6  -4  -2    6.69    1.06
   6   4   2    6.92    0.93
  -6   4  -2    7.19    0.77
  -6   4  -2    6.75    1.39
  -6   4  -2    6.71    1.11
   7  -4   2    4.45    0.69
  -7  -4  -2    3.03    0.95
  -7  -4  -2    4.06    0.81
  -7   4  -2    4.03    0.65
  -7   4  -2    5.51    1.42
  -7   4  -2    4.34    1.08
   7   4   2    4.81    0.89
  -8  -4  -2    4.49    0.85
   8  -4   2    5.33    0.78
  -8  -4  -2    2.62    1.03
   8   4   2    4.16    0.93
  -8   4  -2    4.33    0.72
  -9  -5   2   20.70    1.63
  -9   5   2   18.20    1.58
  -8  -5   2    0.20    1.07
   8  -5  -2    0.56    0.87
  -8  -5   2   -0.78    0.87
  -8   5   2   -0.87    0.71
  -8   5   2   -0.45    0.77
  -7  -5   2   28.67    1.97
   7  -5  -2   31.59    1.94
  -7  -5   2   29.20    2.18
  -7   5   2   29.67    1.83
   7   5  -2   29.94    2.12
  -7   5   2   33.70    1.89
  -6  -5   2   12.77    1.25
   6  -5  -2   14.33    1.31
  -6  -5   2   10.41    1.22
  -6   5   2   10.94    1.17
   6   5  -2   13.16    1.10
   6   5  -2   12.09    1.33
   5  -5  -2   26.77    1.73
  -5  -5   2   27.60    1.67
  -5  -5   2   28.80    1.91
  -5  -5   2   26.25    1.54
   5   5  -2   21.45    1.60
  -5   5   2   28.37    1.70
  -5   5   2   27.37    1.77
   5   5  -2   26.15    1.63
   5   5  -2   24.37    1.52
  -4  -5   2    7.12    0.86
  -4  -5   2    7.68    1.06
  -4  -5   2    6.06    0.94
   4  -5  -2    4.72    0.78
   4   5  -2    5.65    0.89
  -4   5   2    7.55    0.85
   4   5  -2    7.22    0.95
   4   5  -2    7.34    0.67
   4   5  -2    5.99    0.87
  -4   5   2    8.57    1.04
  -4   5   2    6.64    0.84
  -4   5   2    6.85    1.15
  -3  -5   2   72.58    2.84
   3  -5  -2   76.19    2.86
  -3  -5   2   69.53    2.78
  -3  -5   2   73.57    2.94
  -3   5   2   73.20    2.97
  -3   5   2   72.04    2.90
   3   5  -2   70.76    2.78
  -3   5   2   77.09    2.85
   3   5  -2   77.53    2.99
   3   5  -2   73.95    2.54
   3   5  -2   72.93    2.80
  -2  -5   2   47.37    2.12
  -2  -5   2   48.36    2.04
   2  -5  -2   47.90    2.22
  -2  -5   2   44.78    2.14
  -2   5   2   45.10    2.28
  -2   5   2   45.09    2.15
   2   5  -2   48.09    2.23
   2   5  -2   52.97    2.28
   2   5  -2   48.23    2.20
   2   5  -2   51.10    1.92
  -2   5   2   51.05    2.10
  -1  -5   2   -0.11    0.72
   1  -5  -2    0.73    0.48
  -1  -5   2    1.27    0.66
   1  -5  -2    1.97    0.57
   1   5  -2    0.72    0.53
   1   5  -2    0.64    0.51
   1   5  -2    0.48    0.71
  -1   5   2    0.77    0.68
  -1   5   2    1.73    0.75
   1   5  -2    0.69    0.50
  -1   5   2    1.04    0.72
   0  -5   2   84.82    3.03
   0  -5  -2   86.53    3.06
   0  -5  -2   82.54    3.08
   0  -5   2   84.62    3.19
   0   5  -2   83.88    3.15
   0   5   2   83.97    3.20
   0   5  -2   81.34    3.26
   0   5   2   84.48    3.14
   0   5  -2   84.57    3.10
   0   5  -2   84.27    3.11
   0   5   2   82.61    3.12
  -1  -5  -2   35.01    1.81
  -1  -5  -2   33.47    1.79
   1  -5   2   35.37    1.68
   1  -5   2   29.35    1.56
  -1   5  -2   35.32    1.66
  -1   5  -2   33.69    1.77
  -1   5  -2   32.79    1.78
   1   5   2   34.17    1.61
   1   5   2   33.99    1.68
  -1   5  -2   34.22    1.86
   1   5   2   31.61    1.68
  -2  -5  -2   27.63    1.63
  -2  -5  -2   30.69    1.62
   2  -5   2   29.79    1.64
   2  -5   2   32.90    1.43
   2   5   2   21.15    1.31
  -2   5  -2   29.15    1.41
  -2   5  -2   29.09    1.88
   2   5   2   22.24    1.34
  -2   5  -2   29.74    1.85
   2   5   2   20.21    1.42
  -2   5  -2   32.06    1.62
   3  -5   2   11.89    0.99
  -3  -5  -2   13.77    1.07
  -3  -5  -2   10.56    0.97
   3   5   2   12.65    0.93
  -3   5  -2   11.67    0.85
   3   5   2   11.21    1.16
  -3   5  -2   11.76    1.05
  -3   5  -2   12.14    1.36
  -3   5  -2   12.62    1.34
   4  -5   2   56.11    2.27
  -4  -5  -2   54.26    2.29
  -4   5  -2   54.03    2.31
  -4   5  -2   56.10    2.88
   4   5   2   53.15    2.03
  -4   5  -2   52.32    2.51
   4   5   2   59.47    2.42
  -5  -5  -2   10.42    1.12
   5  -5   2   10.31    1.06
  -5   5  -2    9.05    1.34
  -5   5  -2   10.42    1.54
   5   5   2   10.43    1.18
  -5   5  -2   14.67    1.16
   6  -5   2    6.36    0.93
  -6  -5  -2    7.81    1.05
  -6   5  -2    7.50    1.32
  -6   5  -2    7.25    0.92
   6   5   2    6.80    1.10
  -6   5  -2    7.70    1.54
  -7  -5  -2    2.06    1.03
   7  -5   2   -0.05    0.64
  -7  -5  -2   -0.48    0.77
  -7   5  -2    0.33    0.74
   7   5   2    0.50    0.86
  -7   5  -2    1.03    0.94
  -7   5  -2    0.59    0.64
  -7  -6   2    2.62    1.17
   7  -6  -2    3.50    1.08
  -7  -6   2    3.18    1.11
  -7   6   2    2.25    0.92
   7   6  -2    1.86    0.84
  -7   6   2    1.65    0.97
  -6  -6   2    4.21    0.94
  -6  -6   2    5.70    1.16
   6  -6  -2    4.60    0.89
  -6   6   2    5.17    0.89
  -6   6   2    7.51    1.13
   6   6  -2    3.92    0.95
   6   6  -2    5.81    0.93
  -5  -6   2   15.95    1.40
   5  -6  -2   12.39    1.39
  -5  -6   2   12.90    1.25
  -5   6   2   15.87    1.45
  -5   6   2   14.49    1.46
   5   6  -2   15.29    1.30
   5   6  -2   13.54    1.49
   4  -6  -2   20.29    1.73
  -4  -6   2   20.02    1.58
  -4  -6   2   18.02    1.49
  -4  -6   2   19.97    1.57
  -4   6   2   19.01    1.73
   4   6  -2   17.43    1.29
  -4   6   2   17.61    1.61
   4   6  -2   18.83    1.37
   4   6  -2   17.98    1.50
  -4   6   2   18.61    1.41
  -3  -6   2   26.99    1.84
  -3  -6   2   25.88    1.76
   3  -6  -2   24.87    1.82
  -3  -6   2   22.69    1.81
  -3   6   2   24.36    1.55
   3   6  -2   23.00    1.60
   3   6  -2   23.89    1.50
  -3   6   2   23.61    1.70
  -3   6   2   22.52    1.45
   3   6  -2   22.90    1.51
   2  -6  -2    0.87    0.86
  -2  -6   2    0.31    0.81
  -2  -6   2    0.71    0.78
  -2   6   2    1.12    0.60
   2   6  -2   -0.87    0.79
   2   6  -2    0.76    0.62
  -2   6   2    0.97    0.67
  -2   6   2   -0.19    0.77
   2   6  -2    1.23    0.50
   2   6  -2    0.59    0.79
   1  -6  -2    1.13    0.78
  -1  -6   2    1.84    0.86
  -1  -6   2    0.69    0.76
   1   6  -2    1.93    0.63
   1   6  -2    1.91    0.62
  -1   6   2    1.05    0.65
  -1   6   2    2.17    0.64
  -1   6   2    2.49    0.71
   1   6  -2    1.54    0.61
   1   6  -2    1.56    0.89
   0  -6   2   10.53    1.22
   0  -6  -2    7.96    1.09
   0  -6  -2   10.58    1.19
   0  -6   2   10.97    0.97
   0   6   2   11.10    1.06
   0   6   2   10.44    1.04
   0   6  -2    9.95    1.11
   0   6   2   10.58    1.22
   0   6  -2    8.84    1.08
   0   6  -2    9.20    1.03
   0   6  -2   11.79    1.07
  -1  -6  -2  116.40    3.97
   1  -6   2  105.47    3.77
  -1  -6  -2  106.46    3.85
   1  -6   2  108.82    3.97
  -1   6  -2   94.09    3.65
   1   6   2  112.12    3.88
   1   6   2  109.13    4.04
  -1   6  -2   91.51    3.80
   1   6   2  109.39    3.91
  -1   6  -2  105.97    4.02
  -1   6  -2  107.67    3.92
   2  -6   2   13.27    1.30
  -2  -6  -2   12.58    1.13
  -2  -6  -2   12.80    1.14
   2   6   2   14.43    1.25
   2   6   2   12.11    1.20
  -2   6  -2   11.28    1.26
  -2   6  -2   14.14    1.30
   2   6   2   14.44    1.28
  -2   6  -2   14.26    1.43
  -3  -6  -2   21.09    1.70
   3  -6   2   20.97    1.65
  -3   6  -2   20.45    1.81
   3   6   2   22.22    1.58
  -3   6  -2   20.43    1.59
   3   6   2   21.70    1.34
  -3   6  -2   21.24    1.68
  -4  -6  -2    2.70    0.72
   4  -6   2    1.29    0.85
  -4   6  -2    1.45    0.82
   4   6   2    1.32    0.71
  -4   6  -2    1.05    0.79
  -4   6  -2    1.36    0.80
   5  -6   2   19.60    1.66
  -5  -6  -2   21.77    1.73
  -5   6  -2   22.41    2.13
   5   6   2   21.25    1.75
  -5   6  -2   19.84    1.61
  -5   6  -2   22.22    1.97
  -6  -6  -2    0.51    0.90
   6  -6   2    0.66    0.86
   6   6   2    2.97    1.09
  -6   6  -2    0.48    1.13
  -6   6  -2    0.84    1.37
  -6   6  -2    0.71    0.82
   6  -7  -2    1.37    1.09
  -6  -7   2   -0.22    1.04
  -6  -7   2    0.04    0.79
   6   7  -2   -1.59    1.11
  -6   7   2    1.04    0.74
  -5  -7   2    3.49    0.96
   5  -7  -2    2.38    0.83
  -5  -7   2    4.05    1.17
  -5   7   2    2.67    0.99
   5   7  -2    2.77    1.21
  -5   7   2    2.84    1.07
   5   7  -2    1.58    0.89
  -4  -7   2   29.26    1.91
   4  -7  -2   27.27    2.19
  -4  -7   2   30.40    1.91
   4   7  -2   29.47    2.04
  -4   7   2   32.58    2.17
  -4   7   2   32.96    2.18
  -4   7   2   34.74    2.21
   4   7  -2   30.94    2.35
   3  -7  -2   46.57    2.43
  -3  -7   2   46.41    2.41
  -3  -7   2   46.81    2.34
  -3   7   2   49.20    2.31
  -3   7   2   47.77    2.81
   3   7  -2   47.24    2.55
  -3   7   2   48.64    2.61
   3   7  -2   47.96    2.73
   3   7  -2   50.85    2.42
  -2  -7   2    5.41    1.13
   2  -7  -2    6.48    1.24
  -2  -7   2    7.42    1.18
  -2   7   2    6.21    0.99
   2   7  -2    6.16    0.99
   2   7  -2    6.73    1.00
   2   7  -2    4.62    1.18
  -2   7   2    5.02    1.10
  -2   7   2    5.01    1.21
  -1  -7   2   14.92    1.39
  -1  -7   2   15.64    1.32
   1  -7  -2   16.51    1.56
   1  -7  -2   20.81    1.69
  -1   7   2   15.50    1.58
   1   7  -2   16.09    1.45
  -1   7   2   17.39    1.61
   1   7  -2   19.39    1.60
  -1   7   2   17.50    1.46
   1   7  -2   16.43    1.53
   1   7  -2   16.69    1.33
   0  -7  -2   20.33    1.64
   0  -7   2   21.81    1.63
   0  -7  -2   21.57    1.73
   0   7  -2   20.71    1.59
   0   7  -2   19.54    1.81
   0   7   2   21.57    1.72
   0   7   2   24.08    1.62
   0   7  -2   23.10    1.86
   0   7   2   23.15    1.69
   0   7  -2   21.57    1.75
  -1  -7  -2   26.54    1.73
  -1  -7  -2   28.47    2.00
   1  -7   2   27.87    2.05
  -1   7  -2   26.34    1.96
   1   7   2   28.11    2.12
  -1   7  -2   24.68    1.67
  -1   7  -2   27.54    1.92
   1   7   2   23.36    1.90
   1   7   2   27.87    1.93
  -2  -7  -2    3.59    0.86
   2  -7   2    2.77    0.82
  -2  -7  -2    4.13    0.98
   2   7   2    2.19    0.83
  -2   7  -2    1.86    0.78
  -2   7  -2    2.36    1.21
  -2   7  -2    3.32    1.06
   2   7   2    2.10    0.82
  -3  -7  -2    6.59    1.03
   3  -7   2    8.26    1.08
  -3   7  -2    7.05    1.38
   3   7   2    6.21    1.29
  -3   7  -2    7.26    1.40
   3   7   2    5.91    0.94
  -3   7  -2    6.63    1.01
   4  -7   2    9.52    1.34
  -4  -7  -2    7.75    1.28
  -4   7  -2    4.48    1.12
   4   7   2    7.94    1.38
  -4   7  -2    4.38    1.11
  -4   7  -2    6.95    1.17
   5  -7   2    3.53    0.90
  -5  -7  -2    5.30    1.22
  -5   7  -2    3.79    1.09
  -5   7  -2    4.51    1.15
  -5   7  -2    0.15    1.33
   5   7   2    3.13    1.19
  -3  -8   2    0.91    0.78
  -3  -8   2   -1.23    0.99
   3  -8  -2    0.87    0.81
   3   8  -2    0.87    1.15
  -3   8   2    1.56    1.24
   3   8  -2    0.83    0.74
  -3   8   2    1.47    1.10
  -2  -8   2   16.93    1.84
  -2  -8   2   20.47    1.67
   2  -8  -2   22.08    1.98
   2   8  -2   18.75    1.87
  -2   8   2   20.82    1.74
  -2   8   2   20.84    2.04
   2   8  -2   22.18    1.97
  -2   8   2   25.08    1.97
   2   8  -2   19.99    1.85
  -1  -8   2   67.65    3.34
   1  -8  -2   64.29    3.29
   1  -8  -2   66.74    3.18
  -1   8   2   70.39    3.33
   1   8  -2   71.89    3.46
  -1   8   2   65.77    3.08
   1   8  -2   68.96    3.11
   1   8  -2   65.07    3.04
  -1   8   2   67.07    3.17
   0  -8   2   -0.70    1.04
   0  -8  -2   -1.00    1.00
   0  -8  -2    0.54    1.05
   0   8  -2    0.67    1.05
   0   8  -2    0.27    1.16
   0   8   2    1.16    0.81
   0   8   2    0.86    1.11
   0   8   2    0.01    1.00
   1  -8   2    1.98    1.18
  -1  -8  -2    0.33    0.74
  -1  -8  -2    1.18    0.79
  -1   8  -2   -0.46    0.85
   1   8   2    0.19    0.66
   1   8   2    0.00    1.08
  -1   8  -2   -0.52    1.04
  -1   8  -2    0.20    0.85
   2  -8   2    8.51    1.43
  -2  -8  -2    8.48    1.18
  -2   8  -2    7.38    1.37
  -2   8  -2    7.38    1.32
   2   8   2    7.07    1.19
  -2   8  -2    8.14    1.60
   2   8   2    8.25    1.49
 -11   0   3   25.62    2.02
 -11   0   3   26.87    1.83
  11   0  -3   28.24    1.92
 -10   0   3    0.29    0.68
  10   0  -3    0.91    0.58
 -10   0   3   -0.25    0.63
   9   0  -3    9.89    1.09
  -9   0   3   10.03    1.11
  -9   0   3   10.23    1.08
  -8   0   3    0.50    0.60
  -8   0   3    0.06    0.57
   8   0  -3    1.04    0.66
  -7   0   3   99.98    3.46
   7   0  -3  100.19    3.52
  -7   0   3  102.88    3.71
  -6   0   3    0.10    0.48
  -6   0   3    1.04    0.67
   6   0  -3    0.19    0.53
   6   0  -3    0.33    0.38
  -6   0   3   -0.04    0.33
  -5   0   3   92.30    3.02
   5   0  -3   88.90    2.93
   5   0  -3   94.06    3.01
  -5   0   3   93.53    3.10
  -5   0   3   91.77    3.18
   5   0  -3   94.99    3.14
   4   0  -3    0.61    0.38
  -4   0   3    0.39    0.40
  -4   0   3   -0.61    0.39
   4   0  -3   -0.25    0.32
  -4   0   3    0.30    0.37
   4   0  -3   -0.12    0.45
   3   0  -3   57.28    2.01
   3   0  -3   56.55    1.92
  -3   0   3   56.01    1.97
  -3   0   3   55.11    1.99
  -3   0   3   52.17    1.95
   3   0  -3   55.50    1.91
   2   0  -3    0.32    0.44
   2   0  -3   -0.21    0.29
  -2   0   3   -0.10    0.29
  -2   0   3    0.39    0.32
  -2   0   3   -0.41    0.39
   2   0  -3    0.31    0.39
  -1   0   3   88.76    2.78
   1   0  -3   89.82    2.81
  -1   0   3   86.03    2.90
   1   0  -3   85.11    2.85
   1   0  -3   87.44    2.76
  -1   0   3   88.87    2.76
  -1   0   3   89.71    2.78
   0   0   3   -0.23    0.25
   0   0   3    0.14    0.21
   0   0  -3   -0.21    0.41
   0   0   3    0.04    0.32
   0   0  -3    0.91    0.46
  -1   0  -3    6.69    0.50
   1   0   3    6.11    0.40
  -1   0  -3    5.91    0.59
   1   0   3    6.28    0.36
  -1   0  -3    6.29    0.35
  -1   0  -3    6.05    0.60
  -2   0  -3   -0.48    0.42
  -2   0  -3   -0.30    0.32
  -2   0  -3   -0.18    0.20
  -3   0  -3    3.13    0.31
  -3   0  -3    3.84    0.33
  -3   0  -3    3.32    0.51
  -4   0  -3    0.01    0.20
  -4   0  -3    0.53    0.55
  -4   0  -3    0.20    0.28
  -5   0  -3   13.05    1.15
  -5   0  -3   13.83    0.76
  -6   0  -3   -0.33    0.32
  -6   0  -3   -0.05    0.12
  -6   0  -3    0.59    0.73
  -6   0  -3   -0.01    0.11
  -7   0  -3   18.36    1.68
   8   0   3    0.30    0.31
  -8   0  -3    0.00    0.28
  -9   0  -3   32.46    1.29
   9   0   3   32.12    1.35
  11  -1  -3   -0.47    0.82
 -11  -1   3   -0.70    0.99
 -11  -1   3   -1.43    0.79
  11   1  -3   -0.94    0.84
 -11   1   3    0.15    0.77
 -11   1   3    0.21    0.90
 -10  -1   3   10.01    1.42
  10  -1  -3   13.42    1.29
 -10  -1   3   14.22    1.28
 -10   1   3   12.61    1.17
 -10   1   3   12.01    1.38
  10   1  -3   11.33    1.25
  -9  -1   3    1.62    0.56
   9  -1  -3    1.59    0.58
  -9  -1   3    2.29    0.75
  -9   1   3    1.90    0.74
   9   1  -3    2.51    0.84
  -9   1   3    2.03    0.94
   8  -1  -3   40.94    1.96
  -8  -1   3   39.21    2.03
  -8  -1   3   41.04    1.83
  -8   1   3   44.63    2.19
   8   1  -3   41.21    2.02
  -8   1   3   41.12    1.91
  -7  -1   3   35.35    1.71
  -7  -1   3   36.52    1.98
   7  -1  -3   36.51    1.64
   7  -1  -3   35.10    1.39
   7   1  -3   37.29    1.69
  -7   1   3   37.77    1.92
  -7   1   3   35.38    1.68
  -6  -1   3   40.47    1.90
   6  -1  -3   40.25    1.59
   6  -1  -3   44.79    1.61
   6  -1  -3   44.13    1.86
  -6  -1   3   42.63    1.75
  -6   1   3   44.51    1.80
   6   1  -3   43.32    1.90
   6   1  -3   42.72    1.64
  -6   1   3   44.21    1.62
  -6   1   3   44.76    2.00
   5  -1  -3   59.47    2.14
  -5  -1   3   59.18    2.34
  -5  -1   3   60.38    2.19
   5  -1  -3   57.23    2.05
  -5  -1   3   58.07    2.07
   5  -1  -3   58.46    2.05
  -5   1   3   58.39    2.10
  -5   1   3   59.17    2.08
   5   1  -3   57.05    2.16
  -5   1   3   56.79    2.20
   5   1  -3   57.74    2.04
   4  -1  -3   83.38    2.75
  -4  -1   3   81.35    2.86
   4  -1  -3   79.44    2.68
   4  -1  -3   83.44    2.71
  -4  -1   3   81.74    2.76
  -4  -1   3   83.13    2.72
  -4   1   3   81.02    2.72
  -4   1   3   82.95    2.70
   4   1  -3   79.81    2.80
  -4   1   3   78.50    2.76
   4   1  -3   82.86    2.70
   3  -1  -3   27.56    1.26
   3  -1  -3   26.51    1.21
  -3  -1   3   25.55    1.17
   3  -1  -3   25.91    1.15
  -3  -1   3   25.85    1.14
  -3  -1   3   25.92    1.20
  -3   1   3   26.14    1.11
  -3   1   3   25.72    1.19
   3   1  -3   25.67    1.20
  -3   1   3   24.32    1.30
  -3   1   3   26.30    1.25
   3   1  -3   26.18    1.26
  -2  -1   3    1.92    0.52
  -2  -1   3    2.21    0.38
   2  -1  -3    1.81    0.38
  -2  -1   3    1.96    0.46
   2  -1  -3    1.64    0.39
  -2   1   3    2.22    0.37
  -2   1   3    2.25    0.38
  -2   1   3    1.35    0.45
   2   1  -3    1.31    0.46
   2   1  -3    2.11    0.40
   1  -1  -3  465.20   13.60
  -1  -1   3  464.83   13.61
   1  -1  -3  463.67   13.65
  -1  -1   3  486.86   13.55
  -1  -1   3  472.96   13.53
   1   1  -3  469.22   13.59
  -1   1   3  465.53   13.58
  -1   1   3  478.30   13.58
   1   1  -3  473.30   13.69
   0  -1   3  355.81    9.89
   0  -1  -3  327.40    9.91
   0  -1  -3  374.76   10.03
   0  -1   3  329.98    9.80
   0  -1  -3  367.04    9.89
   0  -1   3  322.77    9.77
   0   1  -3  324.91    9.94
   0   1   3  317.16    9.87
   0   1   3  355.94    9.86
   0   1  -3  352.04    9.88
   0   1  -3  327.90   10.02
  -1  -1  -3    7.22    0.48
   1  -1   3    8.37    0.51
  -1  -1  -3    8.39    0.50
   1  -1   3    8.16    0.27
   1  -1   3    7.42    0.40
  -1  -1  -3    8.36    0.64
  -1  -1  -3    8.48    0.39
  -1  -1  -3    8.23    0.60
  -1   1  -3    7.26    0.64
  -1   1  -3    6.76    0.40
   1   1   3    9.63    0.53
  -1   1  -3    7.86    0.50
  -1   1  -3    7.74    0.68
   1   1   3    7.78    0.45
  -2  -1  -3    7.08    0.58
   2  -1   3    7.48    0.31
  -2  -1  -3    7.21    0.44
  -2  -1  -3    7.12    0.62
   2  -1   3    6.87    0.33
  -2  -1  -3    6.53    0.30
  -2  -1  -3    6.06    0.42
  -2   1  -3    6.10    0.74
   2   1   3    6.96    0.41
  -2   1  -3    7.07    0.57
   2   1   3    6.00    0.44
  -2   1  -3    7.52    0.32
  -2   1  -3    6.87    0.34
  -3  -1  -3  151.41    4.41
  -3  -1  -3  150.04    4.41
  -3  -1  -3  153.80    4.70
  -3  -1  -3  147.54    4.60
   3   1   3  150.32    4.42
  -3   1  -3  152.62    4.94
  -3   1  -3  150.96    4.61
  -4  -1  -3  151.41    4.43
  -4  -1  -3  146.60    4.57
  -4  -1  -3  150.65    4.80
  -4  -1  -3  149.12    4.43
  -4  -1  -3  153.24    4.67
  -4   1  -3  153.71    4.42
   4   1   3  153.95    4.43
  -4   1  -3  152.42    4.68
  -4   1  -3  151.51    5.07
  -5  -1  -3   45.43    1.95
  -5  -1  -3   47.05    1.61
  -5  -1  -3   47.36    1.54
  -5  -1  -3   49.19    1.83
  -5  -1  -3   47.25    1.53
  -5   1  -3   47.35    1.58
  -5   1  -3   48.98    1.82
   5   1   3   47.05    1.53
  -5   1  -3   46.85    2.18
  -6  -1  -3    1.13    0.29
  -6  -1  -3    0.68    0.48
  -6  -1  -3    1.19    0.29
  -6  -1  -3    1.59    0.70
  -6   1  -3    0.86    0.86
  -6   1  -3    1.15    0.16
  -6   1  -3    1.21    0.34
  -6   1  -3    1.11    0.14
  -7  -1  -3    7.25    0.80
   7  -1   3    6.67    0.42
  -7  -1  -3    6.63    0.52
  -7   1  -3    5.77    0.41
  -7   1  -3    6.24    0.99
   8  -1   3   18.32    0.84
  -8  -1  -3   21.67    1.01
  -8  -1  -3   21.59    1.35
  -8   1  -3   19.10    0.85
  -9  -1  -3    5.34    0.60
  -9   1  -3    4.32    0.50
  10  -2  -3    3.65    0.94
 -10  -2   3    3.44    1.17
 -10  -2   3    5.22    1.03
 -10   2   3    4.81    0.90
 -10   2   3    4.08    1.02
  -9  -2   3    2.95    1.08
  -9  -2   3    3.69    0.90
   9  -2  -3    5.18    0.93
  -9   2   3    2.44    0.81
  -9   2   3    1.56    0.93
  -8  -2   3   23.74    1.82
  -8  -2   3   21.04    1.53
   8  -2  -3   25.33    1.58
   8   2  -3   21.14    1.59
  -8   2   3   23.20    1.65
  -8   2   3   20.64    1.41
   7  -2  -3   60.90    2.44
  -7  -2   3   59.54    2.51
   7  -2  -3   67.55    2.33
  -7  -2   3   63.71    2.77
  -7   2   3   63.02    2.47
  -7   2   3   62.25    2.53
   7   2  -3   67.16    2.64
  -6  -2   3   58.48    2.27
  -6  -2   3   59.85    2.54
  -6  -2   3   57.37    2.18
   6  -2  -3   61.52    2.18
   6  -2  -3   58.56    2.12
   6  -2  -3   55.94    2.24
   6   2  -3   56.93    2.16
  -6   2   3   63.46    2.46
  -6   2   3   58.53    2.28
  -6   2   3   62.44    2.12
   5  -2  -3   20.95    1.15
  -5  -2   3   21.52    1.19
   5  -2  -3   19.80    1.24
   5  -2  -3   22.48    1.08
  -5  -2   3   21.18    1.13
  -5  -2   3   18.89    1.21
  -5   2   3   22.19    1.12
  -5   2   3   20.03    1.16
   5   2  -3   20.22    1.13
  -5   2   3   21.55    1.22
   4  -2  -3  196.84    5.87
  -4  -2   3  195.40    5.97
   4  -2  -3  194.89    5.94
  -4  -2   3  192.16    6.03
  -4  -2   3  193.55    5.96
   4  -2  -3  192.35    5.94
   4   2  -3  193.51    5.91
  -4   2   3  192.38    5.90
  -4   2   3  193.56    6.18
  -4   2   3  189.57    5.91
  -3  -2   3  594.02   17.08
   3  -2  -3  594.28   17.12
  -3  -2   3  590.88   17.10
  -3  -2   3  580.86   17.10
   3  -2  -3  587.71   17.09
  -3   2   3  584.42   17.28
   3   2  -3  604.23   17.14
  -3   2   3  594.98   17.07
  -3   2   3  580.07   17.05
   3   2  -3  584.84   17.08
   2  -2  -3   78.82    2.66
  -2  -2   3   78.90    2.56
  -2  -2   3   76.29    2.59
  -2  -2   3   77.45    2.62
  -2   2   3   76.56    2.75
   2   2  -3   77.83    2.64
   2   2  -3   77.68    2.63
  -2   2   3   80.10    2.62
   2   2  -3   76.06    2.67
  -2   2   3   77.72    2.59
  -1  -2   3    0.45    0.37
  -1  -2   3    0.55    0.33
  -1  -2   3    0.20    0.24
   1  -2  -3    0.58    0.33
   1   2  -3    0.61    0.35
   1   2  -3    0.33    0.49
  -1   2   3    0.70    0.43
  -1   2   3    0.72    0.45
   1   2  -3    0.64    0.32
   0  -2   3   63.47    2.04
   0  -2   3   66.55    2.11
   0  -2  -3   62.35    2.14
   0  -2   3   66.38    2.22
   0  -2  -3   65.83    2.21
   0   2  -3   65.92    2.13
   0   2  -3   65.52    2.20
   0   2   3   64.37    2.15
   0   2  -3   64.96    2.26
   0   2   3   63.67    2.22
   0   2  -3   64.05    2.32
  -1  -2  -3  482.86   14.08
  -1  -2  -3  538.08   14.20
  -1  -2  -3  473.94   14.18
   1  -2   3  509.84   14.20
  -1   2  -3  489.83   14.18
   1   2   3  510.64   14.17
   1   2   3  483.32   14.22
  -1   2  -3  482.43   14.34
  -1   2  -3  475.93   14.06
  -1   2  -3  472.10   14.43
  -2  -2  -3  234.86    7.16
  -2  -2  -3  238.79    6.92
   2  -2   3  227.06    6.95
   2  -2   3  239.79    6.94
  -2  -2  -3  231.68    6.89
  -2  -2  -3  234.71    7.00
   2   2   3  238.67    7.02
  -2   2  -3  252.74    6.76
  -2   2  -3  245.74    6.93
  -2   2  -3  232.44    6.95
  -2   2  -3  232.92    7.16
  -2   2  -3  236.43    7.35
  -3  -2  -3  138.13    4.37
  -3  -2  -3  136.07    4.20
   3  -2   3  136.70    4.13
  -3  -2  -3  138.57    4.20
  -3  -2  -3  138.39    4.21
   3   2   3  138.59    4.23
  -3   2  -3  143.20    4.11
  -3   2  -3  138.42    4.65
  -3   2  -3  138.07    4.11
  -3   2  -3  135.10    4.40
   4  -2   3   59.70    1.95
  -4  -2  -3   61.58    2.06
  -4  -2  -3   62.25    2.30
   4  -2   3   62.23    1.95
  -4  -2  -3   59.64    2.18
  -4  -2  -3   60.35    2.18
  -4  -2  -3   63.47    2.08
  -4   2  -3   62.65    1.95
  -4   2  -3   62.77    2.70
   4   2   3   63.27    2.08
  -4   2  -3   62.28    2.29
  -4   2  -3   60.39    1.95
   4   2   3   63.23    2.12
  -4   2  -3   60.32    1.79
  -5  -2  -3   79.23    2.88
  -5  -2  -3   81.63    2.61
   5  -2   3   80.74    2.47
   5  -2   3   81.27    2.47
  -5  -2  -3   78.30    2.66
  -5   2  -3   77.42    3.21
  -5   2  -3   79.53    2.89
  -5   2  -3   79.62    2.47
  -5   2  -3   81.75    2.47
  -5   2  -3   77.59    2.49
   6  -2   3   43.15    1.45
  -6  -2  -3   41.75    1.92
  -6  -2  -3   42.29    1.60
  -6   2  -3   42.78    1.46
  -6   2  -3   43.29    1.84
  -6   2  -3   38.14    2.42
   7  -2   3   67.79    2.40
  -7  -2  -3   80.68    2.64
  -7  -2  -3   84.79    3.00
  -7   2  -3   66.60    3.31
  -7   2  -3   80.03    2.44
  -8  -2  -3    1.88    0.54
  -8  -2  -3    1.17    0.72
   8  -2   3    0.94    0.36
  -8   2  -3    0.73    0.36
  -8   2  -3    3.23    1.28
   9  -2   3    0.94    0.44
  -9  -2  -3    2.39    0.55
  -9   2  -3    1.37    0.42
 -10  -3   3   25.42    1.91
  10  -3  -3   25.49    1.89
 -10  -3   3   26.58    1.96
 -10   3   3   23.04    1.75
 -10   3   3   24.06    1.92
  -9  -3   3   83.42    3.40
   9  -3  -3   83.30    3.38
  -9  -3   3   84.01    3.53
  -9   3   3   85.88    3.46
  -9   3   3   83.76    3.20
   8  -3  -3   16.04    1.33
  -8  -3   3   16.32    1.43
  -8  -3   3   14.84    1.24
   8   3  -3   15.03    1.21
  -8   3   3   16.71    1.39
  -8   3   3   20.42    1.58
   7  -3  -3    9.03    0.90
  -7   3   3   15.08    1.14
  -7   3   3    8.70    0.97
  -6  -3   3  124.68    4.31
  -6  -3   3  131.88    4.54
  -6  -3   3  136.45    4.43
   6  -3  -3  139.26    4.37
   6  -3  -3  131.80    4.38
  -6   3   3  127.16    4.33
   6   3  -3  130.82    4.27
  -6   3   3  128.18    4.40
  -6   3   3  126.64    4.26
   6   3  -3  138.64    4.43
  -5  -3   3   98.23    3.56
   5  -3  -3  101.54    3.48
  -5  -3   3  101.73    3.54
  -5  -3   3  100.76    3.49
   5  -3  -3  101.62    3.31
  -5   3   3   97.77    3.70
  -5   3   3  104.14    3.49
  -5   3   3   99.83    3.37
   5   3  -3  103.47    3.46
   5   3  -3  101.09    3.46
   4  -3  -3   63.24    2.47
  -4  -3   3   63.93    2.53
  -4  -3   3   63.86    2.40
  -4  -3   3   63.40    2.38
  -4   3   3   63.67    2.36
   4   3  -3   66.32    2.43
  -4   3   3   64.38    2.43
   4   3  -3   66.53    2.48
  -4   3   3   66.35    2.69
  -3  -3   3   43.95    1.77
  -3  -3   3   46.16    1.81
   3  -3  -3   47.46    1.91
  -3  -3   3   42.62    1.80
  -3   3   3   42.72    1.81
  -3   3   3   45.71    2.06
  -3   3   3   46.80    1.86
   3   3  -3   43.05    1.84
   3   3  -3   45.92    1.83
   3   3  -3   42.76    1.80
  -2  -3   3  118.39    3.85
  -2  -3   3  118.28    3.82
   2  -3  -3  118.26    3.87
  -2  -3   3  120.18    3.94
  -2   3   3  117.76    3.83
  -2   3   3  118.18    3.84
   2   3  -3  120.41    3.91
   2   3  -3  124.37    3.90
   2   3  -3  116.32    3.87
  -1  -3   3   26.04    1.36
   1  -3  -3   29.12    1.37
  -1  -3   3   26.08    1.21
  -1  -3   3   26.42    1.23
   1  -3  -3   27.88    1.31
  -1   3   3   27.42    1.31
  -1   3   3   25.41    1.25
   1   3  -3   27.51    1.40
   1   3  -3   27.92    1.30
   1   3  -3   28.66    1.34
   1   3  -3   26.75    1.44
   0  -3  -3  386.36   11.90
   0  -3   3  427.58   11.84
   0  -3   3  407.18   11.77
   0  -3   3  399.63   11.92
   0  -3  -3  409.10   11.91
   0   3  -3  400.44   11.84
   0   3  -3  413.60   11.91
   0   3  -3  396.39   12.03
   0   3   3  409.71   11.90
   0   3  -3  394.11   12.01
   0   3   3  423.35   11.97
   1  -3   3    5.30    0.45
  -1  -3  -3    5.12    0.31
  -1  -3  -3    5.17    0.61
  -1   3  -3    4.36    0.62
  -1   3  -3    4.83    0.46
   1   3   3    4.45    0.63
  -1   3  -3    4.68    0.67
  -2  -3  -3  101.86    3.35
   2  -3   3  104.53    3.33
  -2  -3  -3  101.40    3.27
  -2   3  -3  101.57    3.64
  -2   3  -3  103.74    3.51
   2   3   3  103.70    3.40
  -2   3  -3  100.18    3.07
  -2   3  -3  104.32    3.27
   2   3   3  100.80    3.25
  -3  -3  -3   51.66    1.95
   3  -3   3   53.62    1.90
  -3  -3  -3   51.57    1.76
  -3   3  -3   51.12    2.21
  -3   3  -3   46.19    2.39
  -3   3  -3   54.13    1.84
  -3   3  -3   52.70    1.87
   3   3   3   54.11    2.02
   4  -3   3  134.22    4.14
  -4  -3  -3  137.06    4.24
  -4  -3  -3  129.62    4.35
  -4   3  -3  134.01    4.52
  -4   3  -3  135.88    4.13
   4   3   3  135.57    4.29
  -4   3  -3  131.24    4.81
  -4   3  -3  125.41    3.88
  -5  -3  -3    4.77    0.81
  -5  -3  -3    5.91    0.70
  -5  -3  -3    4.60    0.62
   5  -3   3    4.72    0.59
   5   3   3    4.07    0.65
  -5   3  -3    5.32    0.97
  -5   3  -3    4.54    0.56
  -5   3  -3    3.63    0.86
  -6  -3  -3    0.90    0.71
  -6  -3  -3    1.48    0.51
   6  -3   3    1.31    0.47
  -6   3  -3    0.59    0.36
  -6   3  -3    1.19    1.06
  -6   3  -3    0.71    0.53
   6   3   3    0.49    0.52
  -7  -3  -3   45.24    1.95
  -7  -3  -3   50.08    2.35
   7  -3   3   46.71    1.80
  -7   3  -3   49.30    1.82
  -7   3  -3   46.68    2.34
   7   3   3   47.92    2.02
  -7   3  -3   46.70    2.71
  -8  -3  -3   36.58    1.71
   8  -3   3   35.12    1.54
  -8  -3  -3   38.34    2.14
  -8   3  -3   32.92    1.46
   8   3   3   36.07    1.74
  -8   3  -3   34.61    2.46
  -9  -4   3    0.82    0.94
   9  -4  -3    0.31    0.88
  -9  -4   3    0.10    1.09
  -9   4   3   -0.22    0.54
  -9   4   3    0.81    0.87
  -8  -4   3    6.87    1.11
   8  -4  -3    7.42    1.10
  -8  -4   3    5.00    1.22
   8  -4  -3    8.38    0.95
  -8   4   3    7.17    1.09
  -8   4   3    6.99    1.04
   8   4  -3    8.24    0.96
  -7  -4   3  109.04    4.02
  -7  -4   3  107.20    4.22
   7  -4  -3  114.95    3.90
   7  -4  -3   98.67    3.94
  -7   4   3  112.66    3.95
   7   4  -3  108.08    3.84
  -7   4   3  109.30    3.99
   6  -4  -3   71.45    2.84
  -6  -4   3   64.12    2.68
  -6  -4   3   63.91    2.95
  -6  -4   3   69.80    2.84
  -6   4   3   72.04    2.78
  -6   4   3   69.72    2.80
   6   4  -3   67.93    2.64
   6   4  -3   65.39    2.66
  -5  -4   3   20.73    1.32
   5  -4  -3   21.55    1.50
  -5  -4   3   22.47    1.43
  -5  -4   3   19.43    1.27
   5  -4  -3   20.97    1.22
   5   4  -3   21.55    1.40
  -5   4   3   20.27    1.43
  -5   4   3   20.91    1.66
  -5   4   3   20.94    1.29
   5   4  -3   20.26    1.23
   5   4  -3   21.76    1.26
  -4  -4   3    6.92    0.94
   4  -4  -3    5.58    0.88
  -4  -4   3    6.49    0.76
  -4  -4   3    6.72    0.78
   4   4  -3    5.65    0.81
   4   4  -3    5.84    0.69
  -4   4   3    5.65    0.83
  -4   4   3    5.16    0.94
   4   4  -3    5.73    0.85
  -4   4   3    5.82    0.68
   3  -4  -3  116.27    4.01
  -3  -4   3  117.67    3.95
  -3  -4   3  117.34    4.03
  -3  -4   3  118.73    3.97
  -3   4   3  117.49    4.12
   3   4  -3  114.97    3.95
  -3   4   3  116.73    3.94
   3   4  -3  111.44    3.93
  -3   4   3  116.65    3.96
   3   4  -3  117.87    3.86
   3   4  -3  115.82    3.93
  -2  -4   3   49.68    2.02
   2  -4  -3   45.15    1.97
  -2  -4   3   45.80    2.10
  -2  -4   3   50.06    1.94
   2   4  -3   50.08    2.17
   2   4  -3   46.33    2.05
   2   4  -3   47.89    2.07
   2   4  -3   48.85    1.99
  -2   4   3   50.33    2.09
  -2   4   3   48.95    2.06
  -1  -4   3    1.79    0.44
   1  -4  -3    1.18    0.61
  -1  -4   3    2.37    0.43
   1  -4  -3    1.25    0.47
  -1  -4   3    1.39    0.50
   1   4  -3    2.27    0.58
   1   4  -3    2.35    0.65
  -1   4   3    1.48    0.61
  -1   4   3    1.15    0.59
   1   4  -3    2.52    0.61
  -1   4   3    1.62    0.49
   1   4  -3    1.54    0.46
   0  -4   3    1.54    0.48
   0  -4  -3    2.18    0.64
   0  -4   3    1.64    0.47
   0  -4  -3    1.14    0.58
   0   4   3    1.69    0.56
   0   4  -3    0.47    0.44
   0   4  -3    1.52    0.51
   0   4   3    1.67    0.66
   0   4  -3    1.81    0.71
   0   4   3    1.99    0.58
   0   4  -3    1.20    0.45
  -1  -4  -3   27.04    1.41
   1  -4   3   28.44    1.22
  -1  -4  -3   25.17    1.40
   1  -4   3   26.06    1.42
   1   4   3   27.11    1.34
  -1   4  -3   28.55    1.68
   1   4   3   22.91    1.16
   1   4   3   21.86    1.45
  -1   4  -3   27.10    1.25
  -1   4  -3   26.05    1.39
  -1   4  -3   27.62    1.61
  -2  -4  -3   27.15    1.35
  -2  -4  -3   24.44    1.30
   2  -4   3   28.94    1.44
   2  -4   3   27.03    1.11
  -2   4  -3   26.84    1.59
  -2   4  -3   27.50    1.13
   2   4   3   25.46    1.36
  -2   4  -3   25.81    1.65
   2   4   3   27.69    1.30
  -2   4  -3   24.35    0.93
  -2   4  -3   28.56    1.39
  -3  -4  -3   -0.09    0.39
  -3  -4  -3    0.10    0.54
   3  -4   3   -0.20    0.35
   3   4   3   -0.42    0.58
  -3   4  -3   -0.21    0.47
  -3   4  -3   -0.29    0.71
  -3   4  -3    1.30    0.87
   4  -4   3   11.91    0.94
  -4  -4  -3   10.33    0.94
  -4   4  -3   12.46    1.42
   4   4   3    9.55    0.99
  -4   4  -3   10.89    1.08
  -4   4  -3   12.52    0.97
   5  -4   3   52.33    2.10
  -5  -4  -3   49.85    2.09
   5   4   3   55.17    2.29
  -5   4  -3   49.80    2.37
  -5   4  -3   52.26    2.88
  -5   4  -3   54.67    2.07
  -6  -4  -3   18.57    1.84
  -6  -4  -3   15.77    1.25
   6  -4   3   14.27    1.10
  -6   4  -3   14.44    1.56
  -6   4  -3   17.70    1.52
   6   4   3   15.80    1.35
  -6   4  -3   14.07    1.05
   7  -4   3    2.65    0.71
  -7  -4  -3    1.77    0.70
   7   4   3    2.96    0.79
  -7   4  -3    1.58    0.54
  -7   4  -3    0.50    0.91
  -7   4  -3    3.84    1.03
   8  -4   3    2.77    0.72
  -8  -4  -3    2.80    0.80
   8   4   3    2.25    0.82
  -8   4  -3    2.77    0.72
  -8   4  -3    1.34    1.42
  -9  -5   3    0.13    1.16
  -9  -5   3    0.53    1.05
   9  -5  -3    0.54    0.69
  -9   5   3    0.45    0.63
  -9   5   3    0.39    0.68
   8  -5  -3   12.74    1.40
  -8  -5   3   15.07    1.38
   8  -5  -3   13.62    1.32
  -8  -5   3   12.01    1.38
  -8   5   3   13.53    1.26
  -8   5   3   12.46    1.36
   7  -5  -3    1.60    0.92
  -7  -5   3    2.00    0.96
  -7  -5   3    3.03    0.85
  -7   5   3    1.57    0.67
  -7   5   3    1.33    0.88
   7   5  -3    1.58    0.73
  -6  -5   3    7.40    1.20
  -6  -5   3   10.23    1.22
   6  -5  -3    7.29    0.94
  -6   5   3   10.93    1.31
   6   5  -3    6.60    1.18
  -6   5   3    8.67    0.97
   6   5  -3   11.40    1.11
  -5  -5   3   43.30    2.07
   5  -5  -3   45.38    2.28
  -5  -5   3   45.14    2.11
  -5  -5   3   46.48    2.20
  -5   5   3   45.62    1.95
  -5   5   3   43.16    2.39
   5   5  -3   46.33    2.20
   5   5  -3   44.28    1.93
   5   5  -3   42.44    2.18
  -5   5   3   44.69    2.21
   5   5  -3   45.41    2.17
  -4  -5   3    9.58    1.12
   4  -5  -3   12.00    1.22
  -4  -5   3   12.03    1.21
  -4  -5   3   11.57    1.07
   4   5  -3   11.50    1.13
  -4   5   3   12.02    1.10
   4   5  -3    9.87    1.03
  -4   5   3   10.59    1.00
  -4   5   3   11.21    1.27
   4   5  -3   12.35    1.20
   4   5  -3   11.78    0.97
   3  -5  -3    8.72    1.10
  -3  -5   3    8.87    1.04
  -3  -5   3   10.11    0.93
  -3  -5   3    7.77    1.09
   3   5  -3    8.58    1.05
  -3   5   3    7.95    1.03
   3   5  -3    8.09    1.08
   3   5  -3    8.72    0.83
  -3   5   3    9.50    0.92
   3   5  -3    8.46    1.06
  -2  -5   3    1.93    0.83
  -2  -5   3    1.67    0.56
   2  -5  -3    1.15    0.57
  -2  -5   3    0.87    0.51
   2   5  -3    1.77    0.83
   2   5  -3    2.09    0.63
   2   5  -3    1.01    0.54
  -2   5   3    2.23    0.65
  -2   5   3    2.04    0.59
  -2   5   3    0.93    0.73
   2   5  -3    0.99    0.77
   1  -5  -3   60.16    2.43
  -1  -5   3   58.95    2.40
  -1  -5   3   57.72    2.44
  -1  -5   3   53.42    2.25
   1  -5  -3   62.50    2.49
   1   5  -3   61.70    2.46
  -1   5   3   57.56    2.53
   1   5  -3   59.93    2.40
  -1   5   3   57.60    2.43
   1   5  -3   61.13    2.65
   1   5  -3   59.00    2.47
  -1   5   3   63.22    2.52
   0  -5  -3    7.08    0.82
   0  -5   3    6.41    0.70
   0  -5  -3   11.39    1.04
   0  -5   3    6.38    0.81
   0   5  -3    6.02    0.84
   0   5   3   10.29    0.99
   0   5  -3    9.86    0.90
   0   5   3    9.19    0.94
   0   5  -3   11.27    1.10
   0   5  -3   12.03    1.18
  -1  -5  -3   57.82    2.42
   1  -5   3   54.48    2.15
   1  -5   3   57.68    2.45
  -1  -5  -3   55.07    2.28
  -1   5  -3   54.78    2.47
   1   5   3   56.78    2.38
  -1   5  -3   53.81    2.20
   1   5   3   54.68    2.26
   1   5   3   60.34    2.36
  -1   5  -3   56.95    2.39
  -1   5  -3   60.45    2.61
  -2  -5  -3    5.95    0.84
   2  -5   3    7.43    0.93
  -2  -5  -3    6.32    0.78
   2   5   3    6.59    0.75
  -2   5  -3    5.70    0.92
   2   5   3    6.99    0.80
  -2   5  -3    6.51    0.89
  -2   5  -3    4.55    1.06
   2   5   3    5.48    0.80
   3  -5   3   85.14    3.09
  -3  -5  -3   84.67    3.19
  -3   5  -3   83.85    3.61
   3   5   3   79.51    3.24
  -3   5  -3   81.60    3.34
  -3   5  -3   86.93    3.14
  -4  -5  -3    4.85    0.89
   4  -5   3    5.03    0.72
   4   5   3    3.58    0.91
  -4   5  -3    3.50    1.20
  -4   5  -3    6.15    1.15
  -4   5  -3    5.14    0.83
   5  -5   3   23.78    1.54
  -5  -5  -3   24.16    1.44
  -5   5  -3   20.95    1.44
  -5   5  -3   24.71    1.98
  -5   5  -3   24.63    2.15
   5   5   3   24.48    1.52
  -6  -5  -3    7.90    1.06
  -6  -5  -3    9.72    1.15
   6  -5   3   10.50    1.04
  -6   5  -3    8.98    0.98
  -6   5  -3    7.81    1.60
  -6   5  -3    9.27    1.21
   6   5   3    9.85    1.18
  -7  -5  -3    2.42    0.86
   7  -5   3    2.45    0.76
  -7   5  -3    2.64    0.88
  -7   5  -3    2.63    1.49
   7   5   3    2.71    0.75
  -7   5  -3    2.71    0.75
  -8   6   3    1.88    1.03
  -7  -6   3    0.98    1.07
  -7  -6   3    1.64    1.17
   7  -6  -3    2.45    0.86
  -7   6   3    2.92    1.02
  -7   6   3    3.30    0.84
   7   6  -3    3.09    0.92
  -6  -6   3    1.45    1.07
  -6  -6   3    1.57    1.01
   6  -6  -3    2.54    1.00
   6   6  -3    0.39    0.77
  -6   6   3    0.99    0.93
   6   6  -3    1.19    0.80
  -6   6   3    1.13    0.96
  -5  -6   3    8.75    1.22
  -5  -6   3   11.36    1.38
  -5  -6   3    8.19    1.07
   5  -6  -3    8.21    1.09
   5   6  -3    8.95    1.36
  -5   6   3    9.88    1.07
   5   6  -3    9.78    1.20
  -5   6   3   12.71    1.47
  -4  -6   3   38.33    2.24
  -4  -6   3   46.48    2.38
   4  -6  -3   33.78    2.00
  -4  -6   3   34.65    2.18
  -4   6   3   40.59    2.38
   4   6  -3   47.47    2.30
   4   6  -3   33.43    2.05
  -4   6   3   35.28    1.97
  -4   6   3   43.83    2.14
   4   6  -3   39.48    2.21
  -3  -6   3    4.47    1.06
  -3  -6   3    6.86    0.92
  -3  -6   3    6.14    0.90
   3  -6  -3    5.69    1.10
   3   6  -3    5.74    0.77
   3   6  -3    6.34    0.94
   3   6  -3    5.06    1.09
   3   6  -3    4.91    1.08
  -3   6   3    5.79    0.88
  -3   6   3    7.86    1.08
  -2  -6   3   39.74    2.10
   2  -6  -3   36.83    1.98
  -2  -6   3   40.28    2.05
  -2  -6   3   39.20    2.07
  -2   6   3   38.54    2.16
   2   6  -3   39.10    2.00
   2   6  -3   38.78    2.03
  -2   6   3   40.80    2.16
  -2   6   3   38.08    2.06
   2   6  -3   38.95    1.88
   2   6  -3   36.70    2.16
  -1  -6   3    2.34    0.95
   1  -6  -3    1.65    0.87
  -1  -6   3    4.22    0.85
   1  -6  -3    0.93    0.84
  -1   6   3    1.21    0.88
   1   6  -3    1.24    0.70
   1   6  -3    1.72    0.88
  -1   6   3    1.85    0.82
  -1   6   3    1.93    0.69
   1   6  -3    2.21    0.83
   1   6  -3    1.74    0.92
   0  -6  -3   29.51    1.83
   0  -6   3   31.70    1.67
   0  -6   3   27.24    1.88
   0  -6  -3   29.75    1.67
   0   6  -3   27.78    1.82
   0   6   3   27.08    1.78
   0   6   3   23.64    1.65
   0   6   3   31.26    1.84
   0   6  -3   25.99    1.83
   0   6  -3   26.48    1.68
   0   6  -3   27.17    2.01
  -1  -6  -3    5.33    0.86
  -1  -6  -3    6.96    1.03
   1  -6   3    6.97    0.92
  -1   6  -3    7.12    0.93
   1   6   3    8.18    0.92
  -1   6  -3    9.73    1.25
  -1   6  -3    9.23    1.02
   1   6   3    7.21    1.20
  -1   6  -3    7.78    1.10
   1   6   3    7.84    0.98
  -2  -6  -3   81.48    3.26
   2  -6   3   77.95    3.12
  -2  -6  -3   76.68    3.04
  -2   6  -3   77.03    3.08
  -2   6  -3   80.48    3.51
   2   6   3   82.00    3.25
  -2   6  -3   85.60    3.57
   2   6   3   78.31    3.01
   3  -6   3    7.89    1.10
  -3  -6  -3    8.10    1.16
  -3   6  -3    9.10    1.12
   3   6   3    8.43    1.16
  -3   6  -3    9.42    1.43
   3   6   3    8.45    1.25
  -3   6  -3    7.59    1.37
   4  -6   3    4.37    0.97
  -4  -6  -3    5.64    0.86
  -4   6  -3    6.30    1.31
  -4   6  -3    4.36    0.78
  -4   6  -3    4.69    1.35
   4   6   3    4.63    0.89
  -5  -6  -3   -0.28    0.81
   5  -6   3    1.14    0.83
   5   6   3    1.19    0.96
  -5   6  -3    1.26    0.94
  -5   6  -3    0.52    0.78
  -5   6  -3   -0.10    0.75
   6  -6   3   26.64    1.88
  -6  -6  -3   31.00    2.00
   6   6   3   29.61    2.13
  -6   6  -3   30.21    2.38
  -6   6  -3   24.36    1.79
  -6   6  -3   26.50    2.32
  -6  -7   3    2.29    0.92
  -6  -7   3    0.27    1.08
   6  -7  -3    1.43    1.14
   6   7  -3    1.18    0.89
  -6   7   3    1.14    1.08
   6   7  -3    1.75    1.23
  -6   7   3   -0.16    1.01
   5  -7  -3   22.71    1.92
  -5  -7   3   23.22    1.95
  -5  -7   3   26.39    2.01
  -5   7   3   24.94    1.84
  -5   7   3   20.15    1.69
   5   7  -3   22.34    1.78
   5   7  -3   21.76    1.85
  -4  -7   3   11.08    1.28
  -4  -7   3   11.92    1.47
   4  -7  -3   11.05    1.48
  -4  -7   3   11.06    1.26
  -4   7   3   12.63    1.53
   4   7  -3   11.04    1.37
   4   7  -3   14.95    1.64
   4   7  -3   10.51    1.39
  -4   7   3   11.81    1.27
  -3  -7   3    6.46    1.00
  -3  -7   3    4.62    1.14
   3  -7  -3    4.76    1.19
   3   7  -3    6.89    1.03
  -3   7   3    8.32    1.22
   3   7  -3    5.79    1.22
  -3   7   3    4.26    1.14
   3   7  -3    5.69    1.24
  -2  -7   3    5.60    1.20
  -2   7   3    5.57    1.13
   2   7  -3    3.60    0.90
  -2   7   3    5.35    0.98
  -2   7   3    2.42    0.80
   2   7  -3    3.56    1.09
   2   7  -3    4.40    0.91
   1  -7  -3    6.36    1.15
  -1  -7   3    6.91    1.24
  -1  -7   3    5.26    1.04
   1  -7  -3    4.73    1.15
  -1   7   3    5.81    0.99
  -1   7   3    6.41    1.18
   1   7  -3    6.71    1.20
   1   7  -3    5.70    1.25
   1   7  -3    5.16    0.90
  -1   7   3    6.51    1.23
   1   7  -3    6.46    1.00
   0  -7   3    3.43    1.07
   0  -7  -3    0.64    0.70
   0  -7  -3    1.64    0.93
   0   7  -3    3.09    1.18
   0   7   3    2.80    0.97
   0   7  -3    2.75    0.92
   0   7  -3    1.26    0.96
   0   7  -3    3.40    0.94
   0   7   3    1.41    1.05
   0   7   3    1.69    0.69
  -1  -7  -3   14.50    1.31
  -1  -7  -3    9.44    1.32
   1  -7   3   14.30    1.36
  -1   7  -3   13.24    1.45
  -1   7  -3   11.65    1.58
  -1   7  -3   11.97    1.24
   1   7   3   12.20    1.30
   1   7   3   11.55    1.29
   2  -7   3    2.08    1.03
  -2  -7  -3    3.29    1.10
  -2   7  -3    2.25    0.85
   2   7   3    3.68    0.87
  -2   7  -3    1.81    1.02
   2   7   3    1.19    1.05
  -2   7  -3    1.66    0.91
  -3  -7  -3   26.09    1.96
   3  -7   3   17.44    1.52
  -3   7  -3   17.76    1.73
  -3   7  -3   23.71    2.19
  -3   7  -3   18.67    1.52
   3   7   3   18.56    1.62
   4  -7   3    4.97    1.14
  -4  -7  -3    5.59    1.22
  -4   7  -3    6.39    1.24
  -4   7  -3    5.84    1.17
   4   7   3    5.04    1.32
  -4   7  -3    6.13    1.24
  -3  -8   3   10.62    1.48
  -3  -8   3   10.77    1.35
   3  -8  -3   10.08    1.56
  -3   8   3    8.72    1.23
   3   8  -3    9.91    1.50
   3   8  -3   12.14    1.65
   3   8  -3   11.61    1.38
   2  -8  -3    8.30    1.23
  -2  -8   3    8.18    1.48
  -2   8   3    7.44    1.35
   2   8  -3    9.15    1.23
  -2   8   3    9.20    1.22
   2   8  -3    7.61    1.17
   2   8  -3    8.35    1.26
  -1  -8   3   -1.22    1.03
   1  -8  -3    0.05    0.70
  -1   8   3   -0.19    1.01
  -1   8   3   -0.78    1.01
   1   8  -3    0.14    0.73
   1   8  -3   -0.77    0.75
  -1   8   3   -1.11    1.05
   0  -8   3    0.09    1.08
   0  -8  -3    0.94    1.08
   0  -8  -3    0.29    1.01
   0   8   3    1.01    1.03
   0   8   3    0.74    1.15
   0   8  -3    0.56    0.85
   0   8  -3    0.62    0.78
  -1  -8  -3   13.16    1.39
   1  -8   3   12.58    1.64
  -1   8  -3   12.30    1.56
   1   8   3   15.53    1.54
  -1   8  -3   12.05    1.79
  -1   8  -3   15.52    1.64
   1   8   3   12.49    1.64
  -2  -8  -3    3.49    1.20
   2   8   3    0.53    1.19
  -2   8  -3    1.82    1.14
 -11   0   4    0.48    0.85
 -11   0   4   -0.18    1.01
  11   0  -4    0.70    0.89
  10   0  -4   47.26    2.39
 -10   0   4   43.48    2.27
 -10   0   4   44.76    2.60
   9   0  -4    0.45    0.79
  -9   0   4    0.46    0.69
  -9   0   4   -0.76    0.46
  -8   0   4   84.16    3.24
  -8   0   4   89.54    3.39
   8   0  -4   88.72    3.33
  -7   0   4   -0.03    0.39
  -7   0   4    0.50    0.54
   7   0  -4   -0.26    0.61
  -7   0   4    0.56    0.61
   6   0  -4  189.03    5.88
  -6   0   4  197.44    5.92
   6   0  -4  193.93    6.06
  -6   0   4  186.58    5.96
  -6   0   4  188.08    6.14
   5   0  -4   -0.15    0.53
   5   0  -4   -0.31    0.28
   5   0  -4   -0.07    0.38
  -5   0   4   -0.22    0.32
  -5   0   4   -0.08    0.42
  -5   0   4   -0.20    0.51
   4   0  -4  101.10    3.32
  -4   0   4   98.22    3.34
  -4   0   4   98.27    3.29
  -4   0   4  102.72    3.42
   4   0  -4  100.73    3.34
   4   0  -4  103.01    3.32
   3   0  -4   -0.26    0.30
   3   0  -4    0.30    0.49
   3   0  -4    0.02    0.33
  -3   0   4   -0.12    0.47
  -3   0   4   -0.67    0.47
  -3   0   4    0.14    0.32
   2   0  -4  241.65    7.25
  -2   0   4  246.40    7.25
   2   0  -4  245.59    7.26
  -2   0   4  239.81    7.28
  -2   0   4  251.12    7.46
  -2   0   4  245.91    7.25
   2   0  -4  237.42    7.31
  -1   0   4    0.48    0.36
  -1   0   4   -0.30    0.39
   1   0  -4   -0.56    0.33
  -1   0   4   -0.12    0.34
   1   0  -4    0.00    0.37
   1   0  -4    0.55    0.38
  -1   0   4   -0.35    0.31
   1   0  -4   -1.02    0.47
   0   0   4   61.76    1.93
   0   0  -4   57.48    2.20
   0   0  -4   63.78    2.26
   0   0   4   61.53    2.02
   1   0   4   -0.33    0.20
  -1   0  -4   -0.21    0.30
  -1   0  -4   -0.24    0.20
   1   0   4   -0.08    0.20
  -1   0  -4   -0.08    0.31
  -1   0  -4   -0.18    0.19
  -2   0  -4  126.00    3.79
  -2   0  -4  124.77    4.09
  -2   0  -4  120.19    3.95
   2   0   4  126.49    3.66
   2   0   4  125.91    3.65
  -2   0  -4  126.50    3.66
  -2   0  -4  124.10    3.65
  -3   0  -4   -0.21    0.51
  -3   0  -4   -0.03    0.08
  -3   0  -4    0.01    0.26
  -4   0  -4  145.12    4.80
  -4   0  -4  143.88    4.34
  -5   0  -4    0.54    0.71
  -6   0  -4   64.82    2.88
  -7   0  -4    0.08    0.88
   7   0   4   -0.27    0.16
  -7   0  -4    0.05    0.18
  -8   0  -4   18.30    0.79
  -9   0  -4   -0.31    0.28
 -11  -1   4   12.46    1.38
  11  -1  -4   11.12    1.35
 -11  -1   4   11.40    1.55
 -11   1   4   12.93    1.37
 -11   1   4   10.76    1.47
  11   1  -4   11.60    1.42
  10  -1  -4    0.80    0.62
 -10  -1   4    0.65    1.03
 -10  -1   4    0.16    0.81
 -10   1   4   -0.09    0.66
 -10   1   4    1.07    0.82
  10   1  -4    0.35    0.88
   9  -1  -4   67.52    2.92
  -9  -1   4   71.83    3.04
  -9  -1   4   68.04    2.77
  -9   1   4   70.74    2.86
   9   1  -4   68.54    2.97
  -9   1   4   68.69    3.11
   8  -1  -4   83.84    2.97
  -8  -1   4   72.26    2.97
  -8  -1   4   84.57    3.30
   8  -1  -4   75.20    3.03
  -8   1   4   74.17    3.16
  -8   1   4   77.80    2.98
   8   1  -4   72.08    2.95
   6  -1  -4   41.45    1.92
  -6  -1   4   40.86    1.69
  -6  -1   4   42.47    1.91
   6  -1  -4   42.50    1.70
   6  -1  -4   40.34    1.64
  -6  -1   4   42.19    1.89
  -6   1   4   42.57    1.75
  -6   1   4   40.50    1.87
   6   1  -4   42.04    1.73
   6   1  -4   41.25    1.95
  -6   1   4   42.93    1.76
   5  -1  -4  273.85    8.07
   5  -1  -4  270.16    8.15
  -5  -1   4  272.25    8.12
  -5  -1   4  266.74    8.10
  -5  -1   4  268.33    8.25
   5  -1  -4  271.98    8.06
  -5   1   4  269.80    8.08
   5   1  -4  266.11    8.08
   5   1  -4  259.83    8.15
  -5   1   4  268.50    8.22
  -5   1   4  265.82    8.09
   4  -1  -4   43.52    1.83
  -4  -1   4   43.12    1.78
   4  -1  -4   42.66    1.70
  -4  -1   4   45.18    1.73
   4  -1  -4   43.95    1.73
  -4  -1   4   43.45    1.80
  -4   1   4   44.58    1.78
  -4   1   4   42.04    1.75
   4   1  -4   44.92    1.86
   4   1  -4   45.64    1.79
  -4   1   4   42.78    1.76
   3  -1  -4    6.16    0.63
  -3  -1   4    6.06    0.59
  -3  -1   4    6.48    0.59
  -3  -1   4    5.16    0.59
   3  -1  -4    4.64    0.56
   3  -1  -4    5.43    0.68
   3   1  -4    6.03    0.66
   3   1  -4    4.91    0.67
  -3   1   4    5.82    0.59
  -3   1   4    4.62    0.62
  -3   1   4    6.07    0.57
  -3   1   4    6.33    0.86
  -2  -1   4  311.40    9.13
   2  -1  -4  299.26    9.14
   2  -1  -4  317.06    9.24
  -2  -1   4  316.54    9.12
  -2  -1   4  309.33    9.19
  -2   1   4  316.73    9.36
  -2   1   4  305.49    9.13
   2   1  -4  305.49    9.15
  -2   1   4  310.05    9.14
  -1  -1   4  588.60   17.17
  -1  -1   4  594.49   17.09
  -1  -1   4  567.67   17.07
   1  -1  -4  623.23   17.28
   1  -1  -4  595.63   17.15
  -1   1   4  615.18   17.16
   1   1  -4  624.11   17.33
  -1   1   4  583.28   17.12
   1   1  -4  564.63   17.13
   0  -1   4    9.84    0.70
   0  -1  -4    9.24    0.66
   0  -1  -4   10.77    0.80
   0  -1   4    9.93    0.63
   0  -1   4   10.16    0.53
   0  -1   4    9.50    0.52
   0  -1  -4   10.08    0.66
   0   1  -4    8.48    0.78
   0   1  -4    9.78    0.68
   0   1  -4   10.06    0.69
   0   1   4   10.11    0.63
   0   1   4    9.83    0.61
   1  -1   4    1.65    0.17
  -1  -1  -4    1.26    0.20
  -1  -1  -4    1.56    0.39
  -1  -1  -4    1.73    0.41
  -1  -1  -4    1.73    0.31
   1  -1   4    1.36    0.29
   1  -1   4    0.98    0.28
  -1  -1  -4    1.41    0.30
  -1   1  -4    1.49    0.28
  -1   1  -4    1.49    0.59
  -1   1  -4    1.22    0.25
   1   1   4    1.47    0.32
  -1   1  -4    0.79    0.41
  -2  -1  -4   14.95    0.92
  -2  -1  -4   14.28    0.66
  -2  -1  -4   14.45    0.68
   2  -1   4   14.30    0.63
  -2  -1  -4   14.79    1.00
  -2  -1  -4   14.88    0.60
  -2   1  -4   14.28    0.59
  -2   1  -4   14.53    0.59
   2   1   4   14.39    0.67
   2   1   4   14.19    0.72
  -2   1  -4   15.05    0.89
  -2   1  -4   16.22    1.21
  -3  -1  -4  245.07    7.32
   3  -1   4  231.40    6.94
  -3  -1  -4  244.88    7.06
   3  -1   4  241.76    6.95
  -3  -1  -4  246.83    7.40
  -3  -1  -4  238.64    6.95
   3   1   4  247.17    7.07
  -3   1  -4  239.06    7.27
   3   1   4  242.96    7.08
  -3   1  -4  247.04    7.65
  -3   1  -4  253.40    6.97
  -4  -1  -4    7.59    0.46
  -4  -1  -4    8.66    0.83
  -4  -1  -4    7.46    0.45
  -4  -1  -4    8.88    0.72
  -4   1  -4    8.56    1.04
  -4   1  -4    8.70    0.75
   4   1   4    8.35    0.47
   4   1   4    7.90    0.47
  -5  -1  -4   12.71    0.76
  -5  -1  -4   14.05    0.62
  -5  -1  -4   12.90    1.17
  -5  -1  -4   13.42    0.61
  -5   1  -4   14.37    1.36
  -5   1  -4   13.51    0.90
   5   1   4   13.00    0.63
  -6  -1  -4    7.89    1.02
  -6   1  -4   10.10    1.30
  -6   1  -4   13.34    0.99
  -7  -1  -4   94.86    2.87
  -7   1  -4  102.94    4.04
  -7   1  -4   82.97    2.66
  -8  -1  -4   10.47    0.67
  -8   1  -4    8.64    1.29
  -8   1  -4    9.06    0.51
  -9  -1  -4    2.83    0.47
  -9   1  -4    3.73    0.46
 -10  -2   4   11.85    1.36
  10  -2  -4   12.56    1.38
 -10  -2   4   13.14    1.43
 -10   2   4   12.89    1.47
 -10   2   4   12.04    1.28
   9  -2  -4   21.81    1.78
  -9  -2   4   26.02    2.08
  -9  -2   4   26.14    1.76
  -9   2   4   23.87    1.67
  -9   2   4   25.15    1.68
   8  -2  -4  103.04    3.80
  -8  -2   4  102.17    3.76
  -8  -2   4   99.24    3.98
   8  -2  -4  100.86    3.41
  -8   2   4  102.10    3.88
  -8   2   4  107.39    3.73
   8   2  -4  100.47    3.84
  -7  -2   4    3.37    0.91
  -7  -2   4    1.09    0.52
   7  -2  -4    1.70    0.76
  -7  -2   4    1.27    0.70
   7  -2  -4    1.98    0.54
   7   2  -4    0.58    0.75
  -7   2   4    2.33    0.70
  -7   2   4    2.75    0.83
  -6  -2   4   19.22    1.16
   6  -2  -4   20.98    1.28
   6  -2  -4   21.44    1.17
   6  -2  -4   24.05    1.18
  -6  -2   4   22.92    1.62
  -6  -2   4   21.93    1.43
   6   2  -4   22.03    1.25
  -6   2   4   18.67    1.18
  -6   2   4   23.02    1.13
  -6   2   4   20.73    1.32
   5  -2  -4  105.06    3.52
  -5  -2   4  100.17    3.50
   5  -2  -4  103.93    3.45
  -5  -2   4  101.87    3.57
  -5  -2   4  104.08    3.68
   5  -2  -4  103.39    3.54
  -5   2   4  106.41    3.50
  -5   2   4  102.66    3.49
   5   2  -4  106.02    3.52
  -5   2   4  103.51    3.64
   4  -2  -4  413.50   12.37
   4  -2  -4  426.56   12.46
  -4  -2   4  430.35   12.45
  -4  -2   4  419.74   12.46
   4  -2  -4  421.44   12.46
  -4  -2   4  422.75   12.50
  -4   2   4  419.61   12.41
   4   2  -4  421.77   12.44
  -4   2   4  415.40   12.71
  -4   2   4  422.53   12.41
   3  -2  -4    1.79    0.60
  -3  -2   4    0.44    0.55
  -3  -2   4    0.95    0.54
  -3  -2   4    1.20    0.39
   3  -2  -4    0.52    0.55
  -3   2   4    1.06    0.52
   3   2  -4    0.86    0.60
   3   2  -4    0.37    0.51
  -3   2   4    1.08    0.41
  -3   2   4    0.25    0.48
   2  -2  -4   96.03    3.25
  -2  -2   4   98.74    3.21
   2  -2  -4   96.94    3.32
  -2  -2   4  101.29    3.32
  -2  -2   4   98.46    3.18
  -2   2   4   99.51    3.25
   2   2  -4  100.68    3.32
   2   2  -4  100.84    3.29
  -2   2   4   95.94    3.42
   2   2  -4   96.75    3.37
  -2   2   4   96.21    3.27
   1  -2  -4  122.65    3.96
   1  -2  -4  123.27    4.12
  -1  -2   4  126.97    3.85
  -1  -2   4  128.16    3.90
  -1  -2   4  122.24    4.00
   1   2  -4  126.73    4.10
   1   2  -4  129.86    4.00
   1   2  -4  122.60    4.03
  -1   2   4  123.61    3.95
  -1   2   4  124.97    3.99
   0  -2  -4  411.87   11.67
   0  -2   4  382.98   11.54
   0  -2   4  390.52   11.49
   0  -2   4  414.83   11.69
   0  -2  -4  388.69   11.64
   0  -2  -4  392.63   11.81
   0   2   4  390.62   11.68
   0   2  -4  397.07   11.88
   0   2   4  415.88   11.64
   0   2  -4  419.24   11.68
   0   2  -4  392.74   11.78
   0   2  -4  398.36   11.57
  -1  -2  -4   33.39    1.49
  -1  -2  -4   34.14    1.28
   1  -2   4   34.14    1.07
  -1  -2  -4   34.40    1.30
   1  -2   4   32.75    1.35
  -1  -2  -4   33.06    1.29
  -1   2  -4   35.30    1.35
  -1   2  -4   33.67    1.72
  -1   2  -4   34.67    1.55
   1   2   4   32.77    1.26
   1   2   4   32.87    1.32
   2  -2   4  172.21    5.21
  -2  -2  -4  168.70    5.46
  -2  -2  -4  177.62    5.25
   2  -2   4  174.44    5.18
  -2  -2  -4  175.25    5.25
   2   2   4  174.15    5.28
  -2   2  -4  174.57    5.46
  -2   2  -4  173.36    5.65
  -2   2  -4  172.89    5.17
  -2   2  -4  176.32    5.21
  -3  -2  -4   61.55    2.34
   3  -2   4   65.24    2.03
  -3  -2  -4   61.93    2.14
  -3  -2  -4   63.34    2.20
   3  -2   4   62.18    2.06
  -3  -2  -4   63.75    2.12
  -3   2  -4   62.05    2.03
  -3   2  -4   60.17    2.67
   3   2   4   64.76    2.16
  -3   2  -4   63.76    2.02
  -3   2  -4   61.69    2.36
  -4  -2  -4   39.38    1.47
  -4  -2  -4   41.75    1.70
  -4  -2  -4   39.77    1.51
   4  -2   4   40.46    1.35
  -4  -2  -4   38.12    1.61
   4  -2   4   39.80    1.37
  -4   2  -4   40.42    1.35
  -4   2  -4   40.33    1.37
  -4   2  -4   39.02    1.76
   4   2   4   38.93    1.51
  -4   2  -4   38.34    2.02
  -5  -2  -4    5.20    0.54
   5  -2   4    5.11    0.41
  -5  -2  -4    5.17    0.61
  -5  -2  -4    6.60    0.81
  -5   2  -4    3.61    0.88
   5   2   4    4.99    0.58
  -5   2  -4    5.38    0.40
  -5   2  -4    5.25    0.76
  -5   2  -4    6.02    0.48
   6  -2   4   27.82    1.12
  -6  -2  -4   35.64    1.38
  -6   2  -4   29.82    1.14
   6   2   4   34.86    1.41
  -6   2  -4   36.17    1.70
  -6   2  -4   33.25    2.05
   7  -2   4   11.71    0.66
  -7  -2  -4   13.14    0.89
  -7   2  -4   11.80    0.65
  -7   2  -4   11.72    1.62
   7   2   4   12.05    0.94
  -8  -2  -4   -0.05    0.46
   8   2   4   -0.42    0.37
  -8   2  -4    0.88    1.22
  -8   2  -4   -0.12    0.30
 -10  -3   4   20.22    1.88
  10  -3  -4   15.31    1.54
 -10  -3   4   17.47    1.62
 -10   3   4   16.52    1.38
 -10   3   4   17.65    1.53
   9  -3  -4    4.31    1.02
  -9  -3   4    3.32    0.96
  -9  -3   4    3.64    1.17
   9   3  -4    3.60    0.88
  -9   3   4    3.11    0.91
  -9   3   4    4.23    1.07
  -8  -3   4    2.92    1.02
  -8  -3   4    2.33    0.88
  -8   3   4    4.38    0.98
   7  -3  -4   69.76    2.66
   7  -3  -4   68.57    2.84
  -7  -3   4   64.90    2.84
  -7  -3   4   66.03    2.81
   7   3  -4   65.63    2.68
  -7   3   4   71.48    2.78
  -7   3   4   69.09    2.89
  -6  -3   4    0.06    0.77
  -6  -3   4   -0.02    0.61
   6  -3  -4    0.42    0.59
   6  -3  -4    1.38    0.54
   6  -3  -4    1.03    0.55
  -6  -3   4    1.80    0.78
  -6   3   4    0.45    0.48
   6   3  -4    0.50    0.68
  -6   3   4    0.96    0.57
  -6   3   4    0.33    0.53
   6   3  -4    1.39    0.60
   5  -3  -4   42.22    1.82
   5  -3  -4   42.69    1.98
  -5  -3   4   39.81    1.81
  -5  -3   4   40.55    2.04
  -5  -3   4   37.82    1.90
   5  -3  -4   40.25    1.68
   5   3  -4   41.06    1.84
  -5   3   4   44.44    1.95
  -5   3   4   38.61    1.70
  -5   3   4   40.69    2.21
   5   3  -4   39.61    1.86
   4  -3  -4    3.41    0.62
  -4  -3   4    3.40    0.72
  -4  -3   4    3.76    0.78
   4  -3  -4    2.34    0.72
  -4  -3   4    4.38    0.76
   4   3  -4    3.22    0.71
  -4   3   4    4.01    0.70
  -4   3   4    3.76    0.72
   4   3  -4    3.91    0.74
  -4   3   4    4.05    0.90
   4   3  -4    4.05    0.78
  -3  -3   4  218.84    6.77
  -3  -3   4  216.95    6.72
   3  -3  -4  218.78    6.79
  -3  -3   4  215.32    6.81
  -3   3   4  218.29    6.99
   3   3  -4  218.37    6.79
  -3   3   4  217.42    6.75
   3   3  -4  226.04    6.89
   3   3  -4  217.76    6.83
  -3   3   4  225.08    6.79
  -2  -3   4   41.54    1.69
   2  -3  -4   42.83    1.78
  -2  -3   4   43.61    1.74
  -2  -3   4   45.16    1.92
   2   3  -4   42.51    1.85
  -2   3   4   44.60    1.84
   2   3  -4   42.86    1.95
  -2   3   4   41.70    1.76
   2   3  -4   42.01    1.89
  -1  -3   4   69.48    2.39
  -1  -3   4   68.64    2.55
   1  -3  -4   69.63    2.53
  -1  -3   4   69.88    2.36
   1   3  -4   68.77    2.50
   1   3  -4   66.09    2.56
  -1   3   4   65.20    2.41
   1   3  -4   70.87    2.64
  -1   3   4   69.09    2.53
   1   3  -4   69.50    2.44
   0  -3   4   92.83    3.21
   0  -3  -4  114.16    3.44
   0  -3   4  111.18    3.41
   0  -3   4   93.86    3.15
   0  -3  -4  101.97    3.37
   0   3  -4  120.34    3.70
   0   3   4   94.12    3.29
   0   3   4   93.97    3.40
   0   3  -4   95.01    3.46
   0   3  -4  109.83    3.40
   0   3  -4   94.34    3.24
  -1  -3  -4   49.91    1.90
  -1  -3  -4   54.18    1.70
  -1  -3  -4   50.38    1.88
   1  -3   4   50.63    1.98
   1  -3   4   53.56    1.75
  -1   3  -4   50.62    1.75
  -1   3  -4   50.49    2.20
   1   3   4   50.57    1.85
  -1   3  -4   52.65    1.96
   1   3   4   52.89    1.97
  -1   3  -4   49.75    2.08
  -2  -3  -4   48.47    2.20
  -2  -3  -4   50.03    1.63
   2  -3   4   54.31    1.95
  -2  -3  -4   48.78    1.81
  -2  -3  -4   51.89    1.89
   2   3   4   51.05    1.80
  -2   3  -4   47.41    2.06
  -2   3  -4   51.40    1.89
  -2   3  -4   52.55    2.29
   2   3   4   52.05    1.94
  -3  -3  -4   66.66    2.62
  -3  -3  -4   67.71    2.14
   3  -3   4   68.36    2.35
  -3  -3  -4   68.47    2.41
  -3   3  -4   66.42    2.95
   3   3   4   69.71    2.48
  -3   3  -4   67.60    2.68
  -3   3  -4   66.51    2.32
  -3   3  -4   66.12    2.52
  -4  -3  -4    1.81    0.49
   4  -3   4    0.74    0.40
  -4  -3  -4    1.95    0.62
  -4   3  -4    0.66    0.44
   4   3   4    1.74    0.54
  -4   3  -4    1.79    0.74
  -4   3  -4    1.38    0.96
  -5  -3  -4    5.87    0.66
  -5  -3  -4    5.95    0.74
   5  -3   4    5.83    0.60
  -5   3  -4    5.57    0.53
  -5   3  -4    6.20    0.92
   5   3   4    5.96    0.70
  -5   3  -4    5.12    1.25
  -6  -3  -4  116.80    3.88
   6  -3   4  119.02    3.74
  -6   3  -4  121.51    4.27
   6   3   4  116.84    3.95
  -6   3  -4  117.77    3.74
  -6   3  -4  115.48    4.64
  -7  -3  -4   15.64    1.09
   7  -3   4   13.36    0.95
  -7   3  -4   16.31    1.39
  -7   3  -4   18.02    1.94
   7   3   4   14.71    1.16
  -7   3  -4   15.60    0.93
  -8  -3  -4    1.09    0.68
   8  -3   4    1.36    0.47
  -8   3  -4    1.89    1.05
   8   3   4    2.16    0.64
  -8   3  -4    0.90    0.38
  -9  -4   4    2.10    1.19
   9  -4  -4    1.87    0.98
  -9  -4   4   -0.32    0.93
  -9   4   4    1.69    0.93
  -9   4   4    1.13    0.72
  -8  -4   4   11.51    1.29
  -8  -4   4   11.47    1.33
   8  -4  -4    8.92    1.21
   8  -4  -4   11.13    1.00
  -8   4   4   11.67    1.31
   8   4  -4   11.84    1.17
  -8   4   4   11.08    1.23
   7  -4  -4   34.42    1.75
  -7  -4   4   34.86    1.87
  -7  -4   4   34.95    2.00
   7  -4  -4   34.75    1.87
  -7   4   4   31.60    1.76
  -7   4   4   35.59    2.06
   7   4  -4   34.61    1.91
   6  -4  -4   14.62    1.28
  -6  -4   4   16.12    1.30
  -6  -4   4   14.15    1.25
  -6  -4   4   14.68    1.30
   6  -4  -4   14.01    1.28
   6   4  -4   13.07    1.13
  -6   4   4   13.02    1.34
   6   4  -4   15.62    1.25
  -6   4   4   14.67    1.28
   6   4  -4   14.32    1.22
   5  -4  -4    1.93    0.62
  -5  -4   4    0.50    0.52
  -5  -4   4    1.10    0.57
  -5  -4   4    2.28    0.66
   5   4  -4    1.62    0.57
  -5   4   4    1.03    0.55
   5   4  -4    0.54    0.44
  -5   4   4    1.35    0.66
  -5   4   4    2.19    0.92
   5   4  -4    1.40    0.74
  -4  -4   4    0.71    0.52
  -4  -4   4    0.69    0.70
  -4  -4   4    1.37    0.54
   4  -4  -4    0.98    0.55
  -4   4   4    1.82    0.69
  -4   4   4    0.30    0.60
   4   4  -4    1.03    0.71
   4   4  -4    1.18    0.59
   4   4  -4    1.08    0.51
  -4   4   4    1.01    0.69
   3  -4  -4   50.85    2.24
  -3  -4   4   48.71    2.11
  -3  -4   4   51.02    2.15
  -3  -4   4   49.07    2.12
   3   4  -4   48.31    2.16
  -3   4   4   49.12    2.28
   3   4  -4   51.08    2.25
   3   4  -4   48.43    2.02
  -3   4   4   49.37    2.17
   3   4  -4   47.23    2.05
  -3   4   4   43.23    1.99
   2  -4  -4   28.20    1.49
  -2  -4   4   28.61    1.50
  -2  -4   4   27.86    1.51
  -2  -4   4   27.08    1.37
  -2   4   4   30.31    1.59
   2   4  -4   30.26    1.59
  -2   4   4   31.73    1.51
   2   4  -4   29.61    1.72
   2   4  -4   28.01    1.58
   2   4  -4   27.78    1.46
  -1  -4   4    5.69    0.59
  -1   4   4    5.94    0.67
   1   4  -4    6.94    0.69
   1   4  -4    6.77    0.81
  -1   4   4    5.48    0.71
   0  -4   4   45.47    1.74
   0  -4   4   41.81    1.94
   0  -4  -4   42.58    1.93
   0  -4  -4   39.00    1.88
   0  -4   4   44.00    1.66
   0   4  -4   40.55    1.95
   0   4   4   43.26    1.88
   0   4   4   44.86    1.88
   0   4  -4   43.84    1.78
   0   4  -4   45.80    1.92
   0   4  -4   40.07    2.08
   1  -4   4   34.88    1.70
  -1  -4  -4   32.39    1.55
  -1  -4  -4   35.64    1.67
   1  -4   4   35.05    1.41
  -1  -4  -4   35.27    1.12
  -1   4  -4   33.88    1.43
  -1   4  -4   34.69    1.83
  -1   4  -4   34.77    1.54
   1   4   4   36.93    1.79
   1   4   4   35.24    1.60
  -1   4  -4   36.38    1.77
   2  -4   4   58.89    2.27
  -2  -4  -4   55.44    2.15
  -2  -4  -4   54.56    2.18
   2   4   4   56.78    2.26
  -2   4  -4   58.96    2.23
   2   4   4   53.61    2.07
  -2   4  -4   56.96    2.56
  -2   4  -4   59.76    2.43
   3  -4   4    9.07    0.84
  -3  -4  -4   10.52    0.94
  -3   4  -4    7.02    1.05
   3   4   4    9.19    0.95
  -3   4  -4   10.83    0.86
  -3   4  -4    7.18    0.91
  -4  -4  -4   79.51    3.14
  -4  -4  -4   80.81    3.05
   4  -4   4   85.78    2.94
  -4   4  -4   79.03    2.93
  -4   4  -4   92.72    3.46
  -4   4  -4   92.13    3.78
   4   4   4   83.46    3.06
  -5  -4  -4   59.64    2.44
   5  -4   4   63.69    2.37
  -5  -4  -4   59.54    2.59
   5   4   4   61.86    2.54
  -5   4  -4   63.74    3.29
  -5   4  -4   58.09    2.80
  -5   4  -4   62.57    2.37
  -6  -4  -4    3.08    0.71
   6  -4   4    3.15    0.62
   6   4   4    4.29    0.81
  -6   4  -4    3.36    0.78
  -6   4  -4    2.11    1.26
  -6   4  -4    3.45    0.61
  -7  -4  -4    4.21    0.80
   7  -4   4    2.79    0.70
   7   4   4    2.39    0.77
  -7   4  -4    4.12    1.08
  -7   4  -4    4.22    0.71
  -7   4  -4    2.12    1.05
  -9  -5   4    0.75    1.06
  -9  -5   4   -0.03    0.83
   9  -5  -4   -0.05    1.05
  -9   5   4   -0.51    0.89
  -9   5   4    0.72    0.96
  -8  -5   4    0.47    1.11
  -8  -5   4    1.03    0.72
   8  -5  -4   -1.15    0.62
   8  -5  -4    1.77    0.85
   8   5  -4    0.89    0.55
  -8   5   4   -0.09    0.61
  -8   5   4   -0.54    0.63
  -7  -5   4    3.30    1.18
   7  -5  -4    1.76    0.74
  -7  -5   4    4.41    1.10
   7  -5  -4    6.01    1.06
  -7   5   4    2.04    0.75
  -7   5   4    5.47    1.09
  -6  -5   4   73.66    3.09
   6  -5  -4   75.01    3.20
  -6  -5   4   70.87    3.11
  -6  -5   4   74.68    3.17
  -6   5   4   71.76    3.39
   6   5  -4   74.90    2.88
  -6   5   4   72.85    3.09
   6   5  -4   70.63    3.02
   5  -5  -4    0.35    0.87
  -5  -5   4   -0.53    0.56
  -5  -5   4   -0.58    0.87
  -5  -5   4    0.64    0.80
   5   5  -4    0.69    0.80
   5   5  -4    0.47    0.58
  -5   5   4   -0.66    0.88
  -5   5   4    0.65    0.78
   5   5  -4   -0.53    0.52
  -5   5   4    1.06    0.75
   5   5  -4   -0.53    0.87
   4  -5  -4   72.05    3.02
  -4  -5   4   69.63    2.97
  -4  -5   4   68.63    3.00
  -4  -5   4   70.42    2.82
  -4   5   4   70.36    3.20
   4   5  -4   73.51    2.98
   4   5  -4   71.78    2.76
  -4   5   4   70.92    2.88
   4   5  -4   73.14    3.00
  -4   5   4   67.00    2.91
   4   5  -4   70.73    3.01
  -3  -5   4    3.37    0.83
   3  -5  -4    3.36    0.75
  -3  -5   4    2.56    0.64
  -3  -5   4    2.33    0.70
   3   5  -4    2.60    0.87
  -3   5   4    2.85    0.85
   3   5  -4    3.16    0.60
  -3   5   4    3.20    0.68
   3   5  -4    3.70    0.91
   3   5  -4    3.24    0.74
  -2  -5   4  160.81    5.26
   2  -5  -4  160.39    5.38
  -2  -5   4  152.15    5.37
  -2  -5   4  159.01    5.21
   2   5  -4  157.04    5.29
  -2   5   4  154.57    5.29
   2   5  -4  163.19    5.30
   2   5  -4  159.73    5.26
  -2   5   4  158.93    5.28
   2   5  -4  163.92    5.48
  -1  -5   4    8.43    0.83
   1  -5  -4    7.45    0.90
  -1  -5   4   11.85    0.96
   1  -5  -4    7.52    0.86
  -1  -5   4    9.66    0.98
   1   5  -4   10.38    1.23
  -1   5   4   13.62    1.24
  -1   5   4   10.63    1.07
   1   5  -4   14.39    1.32
   1   5  -4   11.82    1.01
   1   5  -4   11.02    1.03
   0  -5   4  132.36    4.30
   0  -5   4  127.44    4.52
   0  -5  -4  131.54    4.50
   0  -5  -4  123.71    4.44
   0   5   4  127.65    4.48
   0   5   4  131.92    4.44
   0   5  -4  134.01    4.67
   0   5  -4  135.06    4.36
   0   5  -4  125.85    4.58
   0   5  -4  131.11    4.42
  -1  -5  -4   24.14    1.59
   1  -5   4   23.98    1.61
  -1  -5  -4   24.82    1.56
  -1   5  -4   28.14    1.61
   1   5   4   25.76    1.51
   1   5   4   22.51    1.44
  -1   5  -4   24.22    1.82
  -1   5  -4   23.68    1.32
  -1   5  -4   25.37    1.85
  -2  -5  -4   15.78    1.26
   2  -5   4   15.94    1.37
  -2  -5  -4   17.22    1.31
  -2   5  -4   15.03    1.52
   2   5   4   18.96    1.56
  -2   5  -4   17.63    1.43
  -2   5  -4   14.96    1.12
   3  -5   4    3.81    0.82
  -3  -5  -4    3.65    0.68
  -3   5  -4    2.74    0.76
  -3   5  -4    4.19    1.19
   3   5   4    3.75    0.76
  -3   5  -4    4.27    1.09
   4  -5   4  118.17    4.11
  -4  -5  -4  114.22    4.14
  -4   5  -4  116.26    4.05
   4   5   4  115.67    4.25
  -4   5  -4  122.00    4.54
  -4   5  -4  115.41    4.64
  -5  -5  -4   14.48    1.29
   5  -5   4   15.64    1.25
  -5  -5  -4   15.38    1.34
  -5   5  -4   19.76    1.34
   5   5   4   16.68    1.42
  -5   5  -4   17.97    1.68
  -5   5  -4   18.27    1.97
  -6  -5  -4    1.80    0.78
   6  -5   4    1.14    0.70
  -6   5  -4    0.95    1.34
  -6   5  -4    1.76    0.69
  -6   5  -4    0.80    0.77
   6   5   4    2.32    0.88
   7  -6  -4   24.91    2.00
  -7  -6   4   28.70    2.18
  -7  -6   4   25.76    1.99
  -7   6   4   27.64    2.33
  -7   6   4   27.16    1.82
   7   6  -4   24.08    1.94
   7   6  -4   26.78    1.69
  -6  -6   4    0.88    0.99
  -6  -6   4    0.39    1.05
   6  -6  -4    1.60    0.78
   6   6  -4    0.04    0.84
   6   6  -4    0.60    0.77
  -6   6   4    2.10    0.97
  -6   6   4   -0.14    0.72
  -5  -6   4   14.76    1.37
  -5  -6   4   14.39    1.36
  -5  -6   4   16.21    1.39
   5   6  -4   14.74    1.59
  -5   6   4   25.83    1.85
  -5   6   4   16.22    1.70
   5   6  -4   15.85    1.41
   5   6  -4   14.93    1.47
  -4  -6   4   11.24    1.15
  -4  -6   4   10.47    1.35
  -4  -6   4   10.28    1.32
   4  -6  -4    9.48    1.16
   4   6  -4    9.76    1.34
  -4   6   4   12.99    1.56
   4   6  -4   11.40    1.19
   4   6  -4    9.23    0.98
  -4   6   4   10.28    1.27
  -4   6   4   11.21    1.08
   4   6  -4    9.39    1.29
  -3  -6   4  181.59    6.05
   3  -6  -4  183.42    6.24
  -3  -6   4  186.25    6.28
  -3  -6   4  179.68    6.04
   3   6  -4  181.47    6.19
   3   6  -4  177.18    6.17
  -3   6   4  176.82    6.07
   3   6  -4  182.36    5.98
  -3   6   4  185.16    6.17
   3   6  -4  189.96    6.24
   2  -6  -4    9.45    1.08
  -2  -6   4   10.23    1.14
  -2  -6   4    9.46    0.98
  -2  -6   4    8.20    1.04
   2   6  -4    9.83    1.08
   2   6  -4   10.14    1.20
  -2   6   4    8.62    1.22
   2   6  -4    8.72    1.30
  -2   6   4   10.40    1.22
   2   6  -4    8.84    1.05
  -1   6   4   10.46    1.28
   0  -6  -4    2.55    0.93
   0  -6  -4    2.03    0.88
   0  -6   4    1.37    0.69
   0   6   4    1.17    0.97
   0   6  -4    2.46    0.90
   0   6  -4    2.52    1.05
   0   6   4    3.01    0.70
   0   6  -4    1.73    0.70
   0   6  -4    2.77    0.63
  -1  -6  -4  123.88    4.54
   1  -6   4  126.89    4.63
  -1  -6  -4  127.76    4.51
  -1   6  -4  130.50    4.88
  -1   6  -4  129.63    4.59
  -1   6  -4  126.82    4.84
   1   6   4  129.65    4.61
  -2  -6  -4   35.23    2.04
   2  -6   4   34.68    2.04
   2   6   4   36.07    2.21
  -2   6  -4   31.53    2.06
  -2   6  -4   32.55    1.97
  -2   6  -4   31.12    2.32
  -3  -6  -4   43.36    2.30
   3  -6   4   43.13    2.28
  -3   6  -4   45.88    2.80
  -3   6  -4   42.86    2.06
   3   6   4   41.39    2.21
  -3   6  -4   42.29    2.39
  -4  -6  -4    1.05    0.88
   4  -6   4    1.18    0.85
   4   6   4    1.19    0.98
  -4   6  -4    1.61    0.83
  -4   6  -4    0.16    1.09
  -4   6  -4   -1.12    1.15
  -5  -6  -4   36.23    1.96
  -5  -6  -4   32.20    2.30
   5  -6   4   36.81    2.08
  -5   6  -4   35.55    2.00
   5   6   4   34.46    2.04
  -5   6  -4   35.08    2.83
  -5   6  -4   32.57    2.22
   6  -7  -4   10.92    1.58
  -6  -7   4   11.70    1.60
  -6  -7   4   11.95    1.44
   6   7  -4   12.02    1.48
  -6   7   4   11.97    1.68
   6   7  -4   12.59    1.49
  -6   7   4   14.13    1.66
   5  -7  -4    6.12    1.34
  -5  -7   4    4.76    1.22
  -5  -7   4    4.46    1.23
  -5  -7   4    3.63    1.18
  -5   7   4    6.01    1.27
   5   7  -4    4.80    1.20
   5   7  -4    4.70    1.32
  -5   7   4    7.27    1.44
  -4  -7   4   15.68    1.43
   4  -7  -4   15.77    1.49
  -4  -7   4   16.26    1.67
  -4  -7   4   15.96    1.64
   4   7  -4   18.69    1.74
   4   7  -4   13.41    1.40
  -4   7   4   15.11    1.59
  -4   7   4   14.90    1.74
   4   7  -4   16.17    1.47
  -3  -7   4   -0.34    0.93
   3  -7  -4    1.38    1.04
  -3  -7   4    1.23    0.76
  -3  -7   4    0.45    0.94
  -3   7   4    0.00    0.70
   3   7  -4   -0.07    0.96
   3   7  -4    0.26    0.72
  -3   7   4    0.40    0.95
   3   7  -4    0.45    0.99
   2  -7  -4   29.32    1.92
  -2  -7   4   31.40    1.81
  -2  -7   4   27.77    2.21
  -2   7   4   28.72    1.88
   2   7  -4   30.09    1.87
   2   7  -4   30.66    2.26
   2   7  -4   30.75    1.94
   2   7  -4   31.65    2.15
  -2   7   4   29.75    2.14
   1  -7  -4   32.75    2.22
  -1  -7   4   34.94    2.28
  -1   7   4   29.91    2.09
   1   7  -4   31.00    2.05
   1   7  -4   31.89    1.95
  -1   7   4   31.15    2.25
   1   7  -4   29.28    2.05
   1   7  -4   31.48    2.03
   0  -7  -4    0.95    0.99
   0  -7  -4    0.00    0.90
   0  -7   4    1.53    1.01
   0   7   4    0.85    0.77
   0   7  -4    1.22    1.01
   0   7  -4    1.08    1.15
   0   7   4    0.93    1.07
   0   7  -4    0.50    0.89
  -1  -7  -4   21.91    1.61
   1  -7   4   18.63    1.61
   1   7   4   21.00    1.83
  -1   7  -4   19.87    1.73
  -1   7  -4   22.61    2.00
  -1   7  -4   19.18    1.72
   2  -7   4    8.89    1.33
  -2  -7  -4   10.72    1.20
  -2   7  -4   11.52    1.41
   2   7   4    9.59    1.46
  -2   7  -4    7.82    1.24
  -2   7  -4   12.16    1.61
   3  -7   4    0.95    0.73
  -3  -7  -4    0.93    1.03
   3   7   4    0.67    1.09
  -3   7  -4    1.43    0.93
  -3   7  -4    1.59    0.96
  -3   7  -4    2.03    0.75
  -4  -7  -4    9.41    1.20
   4  -7   4   11.36    1.41
   4   7   4    9.02    1.45
  -4   7  -4   10.00    1.44
  -4   7  -4   12.15    1.79
  -4   7  -4    8.04    1.27
   3   8  -4    1.75    1.22
  -3   8   4   -0.40    1.30
   3   8  -4   -0.41    1.06
  -3   8   4   -0.22    1.05
  -2  -8   4    1.40    1.17
   2  -8  -4    0.76    1.13
  -2   8   4   -0.17    1.08
   2   8  -4    0.51    1.29
  -2   8   4    0.43    0.77
   2   8  -4    3.10    0.96
   2   8  -4    0.81    1.20
   1  -8  -4    9.53    1.46
  -1  -8   4    8.21    1.44
   1   8  -4    9.55    1.29
  -1   8   4   11.36    1.57
   1   8  -4    9.22    1.61
   0  -8  -4    8.99    1.45
   0  -8   4    7.39    1.43
   0   8  -4    8.34    1.42
   0   8   4    7.01    1.22
   0   8  -4    6.68    1.28
   0   8  -4    6.69    1.51
   1   8   4   -0.22    1.21
  -1   8  -4    0.84    1.13
 -11   0   5   18.38    1.81
 -11   0   5   17.89    1.63
  11   0  -5   15.01    1.61
 -10   0   5    0.35    0.58
 -10   0   5   -2.04    0.93
  10   0  -5    1.06    0.93
  -9   0   5   35.62    2.29
   9   0  -5   34.66    2.10
  -9   0   5   36.49    2.01
   8   0  -5   -0.13    0.75
  -8   0   5   -0.14    0.72
  -8   0   5   -1.16    0.82
   7   0  -5   40.68    1.82
  -7   0   5   41.21    1.86
  -7   0   5   42.62    1.91
  -7   0   5   45.53    2.25
   7   0  -5   43.89    2.11
   6   0  -5   -0.45    0.51
  -6   0   5    0.10    0.49
   6   0  -5    0.11    0.66
  -6   0   5    0.33    0.56
  -6   0   5    0.61    0.64
   6   0  -5    0.30    0.48
   5   0  -5  205.93    6.42
  -5   0   5  204.60    6.42
   5   0  -5  210.01    6.51
   5   0  -5  206.60    6.42
  -5   0   5  205.93    6.54
  -5   0   5  209.08    6.46
  -4   0   5   -0.42    0.36
   4   0  -5   -0.78    0.48
  -4   0   5   -0.11    0.41
   4   0  -5   -0.51    0.52
  -4   0   5    0.05    0.39
   4   0  -5    0.00    0.57
   3   0  -5    5.87    0.75
  -3   0   5    7.49    0.77
   3   0  -5    7.38    0.69
   3   0  -5    6.14    0.70
  -3   0   5    6.48    0.66
  -3   0   5    7.16    0.72
   2   0  -5   -0.33    0.45
  -2   0   5   -0.18    0.44
   2   0  -5   -0.06    0.41
  -2   0   5   -0.05    0.32
  -2   0   5    0.28    0.42
   2   0  -5    0.54    0.48
  -2   0   5    1.12    0.52
   1   0  -5  500.30   13.68
  -1   0   5  436.43   13.56
  -1   0   5  483.58   13.47
   1   0  -5  459.98   13.59
   1   0  -5  465.05   13.43
  -1   0   5  446.59   13.36
   1   0  -5  442.53   13.38
  -1   0   5  465.60   13.40
   0   0   5   -0.24    0.22
   0   0   5   -0.79    0.39
   0   0  -5   -0.46    0.52
   0   0  -5   -0.65    0.48
   0   0   5    0.09    0.35
  -1   0  -5   88.62    3.06
  -1   0  -5   87.18    2.80
   1   0   5   82.80    2.70
  -1   0  -5   83.17    2.94
  -1   0  -5   84.26    2.69
   1   0   5   89.12    2.72
  -2   0  -5    0.14    0.29
   2   0   5   -0.02    0.21
   2   0   5   -0.28    0.20
  -2   0  -5    0.12    0.39
  -2   0  -5   -0.50    0.22
  -2   0  -5   -0.09    0.46
  -3   0  -5  477.65   13.61
  -3   0  -5  472.23   13.76
   3   0   5  479.11   13.62
  -3   0  -5  465.72   13.62
  -3   0  -5  484.27   14.21
   3   0   5  480.46   13.62
  -4   0  -5   -0.33    0.28
   4   0   5    0.01    0.13
  -4   0  -5    0.12    0.14
  -4   0  -5    0.27    0.16
  -4   0  -5    0.26    0.65
   4   0   5   -0.25    0.13
  -5   0  -5  124.58    3.82
  -5   0  -5  137.24    3.83
  -5   0  -5  138.30    4.77
  -6   0  -5   -0.23    0.13
  -6   0  -5   -0.12    0.11
  -6   0  -5   -0.09    0.58
  -7   0  -5   54.79    2.85
  -7   0  -5   55.53    1.67
  -8   0  -5    0.15    0.24
  -8   0  -5    1.11    1.04
 -11  -1   5    1.28    0.96
 -11  -1   5    0.47    1.11
  11  -1  -5   -1.09    0.93
 -11   1   5    0.50    0.67
  11   1  -5    0.92    1.06
 -11   1   5   -0.89    1.02
  10  -1  -5   49.09    2.44
 -10  -1   5   50.26    2.64
 -10  -1   5   48.88    2.38
 -10   1   5   53.16    2.84
  10   1  -5   52.07    2.50
 -10   1   5   53.39    2.58
  -9  -1   5    7.58    1.25
   9  -1  -5    8.45    1.17
  -9  -1   5    7.47    1.07
   9   1  -5    6.93    0.97
  -9   1   5    9.33    1.14
  -9   1   5    8.27    1.09
   8  -1  -5   38.13    1.66
  -8  -1   5   38.33    2.25
  -8  -1   5   35.84    1.99
   8  -1  -5   35.43    1.86
  -8   1   5   38.14    1.98
  -8   1   5   37.99    2.19
   8   1  -5   35.31    2.08
  -7  -1   5   41.99    1.92
   7  -1  -5   41.94    1.83
  -7  -1   5   41.32    1.89
  -7  -1   5   43.71    2.08
   7  -1  -5   40.82    1.94
  -7   1   5   39.76    1.88
   7   1  -5   39.61    1.81
  -7   1   5   43.40    1.87
   7   1  -5   41.87    1.97
  -7   1   5   47.40    2.24
  -6  -1   5  171.58    5.54
  -6  -1   5  167.62    5.44
   6  -1  -5  170.14    5.53
   6  -1  -5  174.91    5.43
   6  -1  -5  170.33    5.43
  -6  -1   5  169.26    5.66
  -6   1   5  168.26    5.57
  -6   1   5  173.90    5.47
   6   1  -5  169.90    5.43
  -6   1   5  173.29    5.48
   6   1  -5  168.92    5.60
  -5  -1   5   -0.62    0.44
   5  -1  -5    0.40    0.39
   5  -1  -5   -0.33    0.60
  -5  -1   5    0.18    0.57
   5  -1  -5   -0.32    0.36
  -5  -1   5    0.54    0.44
  -5   1   5   -0.03    0.58
  -5   1   5    0.52    0.57
   5   1  -5    0.07    0.47
  -5   1   5    0.65    0.49
   5   1  -5    0.86    0.57
  -4  -1   5   52.78    2.01
   4  -1  -5   52.86    2.15
  -4  -1   5   52.39    2.16
   4  -1  -5   53.15    2.05
   4  -1  -5   51.49    2.05
  -4  -1   5   50.87    2.05
   4   1  -5   52.11    2.15
  -4   1   5   51.53    2.29
  -4   1   5   53.95    2.17
  -4   1   5   53.46    2.10
  -4   1   5   49.80    2.01
   4   1  -5   50.86    2.09
  -3  -1   5    0.25    0.37
  -3  -1   5    0.41    0.43
   3  -1  -5    0.07    0.41
  -3  -1   5    0.83    0.39
   3  -1  -5    0.23    0.35
   3  -1  -5    0.41    0.55
  -3   1   5    0.27    0.39
  -3   1   5    0.02    0.35
   3   1  -5    0.10    0.52
  -3   1   5    0.22    0.52
  -3   1   5   -0.72    0.65
   3   1  -5    0.20    0.53
  -2  -1   5  299.11    9.46
   2  -1  -5  342.91    9.63
  -2  -1   5  331.41    9.43
   2  -1  -5  317.09    9.47
  -2  -1   5  307.02    9.39
  -2   1   5  325.98    9.49
  -2   1   5  312.53    9.68
  -2   1   5  326.17    9.46
   2   1  -5  309.18    9.47
  -1  -1   5   96.01    3.12
  -1  -1   5  101.05    3.13
   1  -1  -5  101.12    3.43
  -1  -1   5   97.63    3.27
   1  -1  -5  100.39    3.19
  -1   1   5   93.08    3.37
   1   1  -5  101.91    3.34
   1   1  -5   91.56    3.37
  -1   1   5  101.48    3.26
   1   1  -5   97.10    3.23
  -1   1   5  106.36    3.21
   0  -1   5    8.35    0.70
   0  -1   5    9.91    0.72
   0  -1  -5   10.90    0.90
   0  -1   5   10.23    0.58
   0  -1   5   10.34    0.54
   0  -1  -5   10.06    0.67
   0  -1  -5   10.13    0.87
   0   1   5    9.24    0.67
   0   1  -5    9.79    0.88
   0   1  -5    9.52    0.74
   0   1  -5   10.02    0.81
   0   1   5   10.35    0.64
   1  -1   5   21.60    0.77
   1  -1   5   23.01    0.95
  -1  -1  -5   22.46    1.18
   1  -1   5   20.80    0.97
  -1  -1  -5   17.51    1.13
   1   1   5   20.65    0.99
  -1   1  -5   20.68    1.24
  -1   1  -5   21.42    1.13
  -1   1  -5   22.00    0.90
  -1   1  -5   21.39    0.94
  -2  -1  -5  412.98   11.79
   2  -1   5  402.47   11.76
  -2  -1  -5  404.70   12.05
  -2  -1  -5  407.62   11.75
  -2  -1  -5  395.46   11.79
  -2  -1  -5  395.08   12.05
  -2   1  -5  415.65   11.74
   2   1   5  415.32   11.81
  -2   1  -5  415.70   11.98
   2   1   5  403.49   11.82
  -2   1  -5  406.44   11.75
  -2   1  -5  418.55   12.30
  -3  -1  -5    0.29    0.23
  -3  -1  -5    0.39    0.37
  -3  -1  -5    0.51    0.24
   3  -1   5    0.33    0.20
  -3  -1  -5    0.68    0.21
  -3  -1  -5    0.11    0.46
   3   1   5    0.78    0.27
  -3   1  -5    0.19    0.20
  -3   1  -5    0.39    0.42
   3   1   5    0.39    0.25
  -3   1  -5    0.29    0.53
  -3   1  -5    0.04    0.20
   4  -1   5    3.03    0.24
  -4  -1  -5    3.19    0.34
  -4  -1  -5    3.80    0.57
  -4  -1  -5    2.86    0.35
   4  -1   5    3.29    0.24
  -4  -1  -5    2.50    0.67
  -4   1  -5    2.81    0.50
   4   1   5    2.79    0.36
  -4   1  -5    3.47    0.25
   4   1   5    3.11    0.36
  -4   1  -5    3.21    0.73
  -5  -1  -5   32.11    1.24
  -5  -1  -5   43.31    1.56
  -5  -1  -5   32.42    1.72
  -5   1  -5   46.74    2.31
   5   1   5   33.44    1.26
  -5   1  -5   34.77    1.08
  -6  -1  -5  116.68    3.52
  -6  -1  -5  113.73    4.16
   6   1   5  115.71    3.53
  -6   1  -5  115.95    4.43
  -7  -1  -5   17.06    1.50
  -7  -1  -5   13.78    0.72
   7   1   5   14.25    0.76
  -7   1  -5   16.38    1.58
  -8  -1  -5    1.07    0.33
  -8   1  -5    0.28    0.79
 -10  -2   5    8.52    1.42
  10  -2  -5    5.97    1.19
 -10  -2   5    3.75    1.10
 -10   2   5    6.02    0.93
 -10   2   5    5.02    1.21
   9  -2  -5   78.30    3.30
  -9  -2   5   81.75    3.51
  -9  -2   5   81.80    3.40
  -9   2   5   81.99    3.25
   9   2  -5   88.16    3.55
  -9   2   5   91.86    3.64
   8  -2  -5   -0.22    0.78
  -8  -2   5    0.27    0.67
  -8  -2   5   -0.22    0.76
   8   2  -5    0.36    0.84
  -8   2   5    0.60    0.87
  -8   2   5    1.07    0.76
  -7  -2   5    3.72    0.87
  -7  -2   5    3.31    0.76
   7  -2  -5    5.45    0.82
   7  -2  -5    4.31    0.72
  -7  -2   5    3.18    0.99
  -7   2   5    2.98    0.67
  -7   2   5    4.38    0.62
  -7   2   5    3.09    0.92
   7   2  -5    2.96    0.91
   6  -2  -5    3.22    0.69
   6  -2  -5    5.34    0.66
   6  -2  -5    5.41    0.74
  -6  -2   5    3.40    0.73
  -6  -2   5    4.01    0.70
  -6  -2   5    4.02    0.80
   6   2  -5    5.17    0.80
  -6   2   5    4.16    0.73
  -6   2   5    3.69    0.80
  -6   2   5    4.11    0.90
   5  -2  -5  333.33    9.86
  -5  -2   5  320.26    9.82
  -5  -2   5  324.52    9.89
  -5  -2   5  326.27    9.88
   5  -2  -5  319.65    9.74
   5  -2  -5  332.28    9.88
  -5   2   5  319.10    9.77
  -5   2   5  316.31   10.21
   5   2  -5  333.48    9.84
  -5   2   5  330.09    9.89
  -5   2   5  318.80    9.79
  -4  -2   5   13.66    1.11
   4  -2  -5   12.56    1.08
  -4  -2   5   12.50    1.05
   4  -2  -5   13.22    1.07
  -4  -2   5   14.45    1.09
   4  -2  -5   14.84    1.28
   4   2  -5   15.41    1.20
  -4   2   5   15.56    1.02
  -4   2   5   13.62    1.30
  -4   2   5   16.21    1.18
   3  -2  -5  136.81    4.53
  -3  -2   5  137.50    4.54
  -3  -2   5  137.01    4.41
   3  -2  -5  141.21    4.50
  -3  -2   5  139.39    4.46
   3   2  -5  137.28    4.59
   3   2  -5  138.68    4.62
  -3   2   5  137.33    4.46
  -3   2   5  143.01    4.79
   3   2  -5  132.10    4.45
  -3   2   5  141.76    4.51
  -2  -2   5    2.13    0.39
   2  -2  -5    1.99    0.67
  -2  -2   5    2.10    0.41
  -2  -2   5    2.20    0.64
   2  -2  -5    3.21    0.65
  -2   2   5    1.64    0.42
   2   2  -5    1.75    0.64
   2   2  -5    2.65    0.50
  -2   2   5    2.69    0.63
  -2   2   5    3.61    0.79
   2   2  -5    3.03    0.57
  -1  -2   5  133.26    4.22
  -1  -2   5  128.17    4.04
   1  -2  -5  132.53    4.35
  -1  -2   5  130.56    4.01
   1  -2  -5  126.90    4.13
   1   2  -5  129.46    4.33
   1   2  -5  130.66    4.25
   1   2  -5  130.39    4.18
  -1   2   5  128.27    4.12
  -1   2   5  128.26    4.18
   0  -2  -5    5.47    0.53
   0  -2   5    6.08    0.50
   0  -2   5    4.27    0.53
   0  -2  -5    5.78    0.54
   0  -2  -5    5.66    0.69
   0  -2   5    5.64    0.43
   0   2   5    4.57    0.52
   0   2   5    5.81    0.57
   0   2  -5    5.23    0.72
   0   2  -5    3.88    0.82
   0   2  -5    4.10    0.60
   0   2  -5    5.34    0.46
  -1  -2  -5  102.22    3.33
   1  -2   5  107.25    3.02
  -1  -2  -5   99.16    3.52
  -1  -2  -5  102.84    3.32
   1  -2   5  102.73    3.34
  -1  -2  -5  102.14    3.22
  -1   2  -5  105.32    3.33
   1   2   5  104.54    3.34
  -1   2  -5  101.48    3.47
  -1   2  -5  101.89    3.71
  -2  -2  -5   14.14    1.18
  -2  -2  -5   14.48    0.86
  -2  -2  -5   12.87    0.81
   2  -2   5   12.78    0.80
  -2   2  -5   11.34    0.97
  -2   2  -5   12.47    1.15
   2   2   5   11.48    0.87
  -2   2  -5   13.57    0.70
  -2   2  -5   14.34    0.81
   3  -2   5    2.47    0.33
   3  -2   5    2.39    0.37
  -3  -2  -5    2.26    0.47
  -3  -2  -5    1.84    0.41
  -3  -2  -5    2.19    0.48
  -3  -2  -5    2.89    0.52
  -3   2  -5    2.22    0.32
   3   2   5    1.93    0.43
  -3   2  -5    1.98    0.47
  -3   2  -5    2.78    0.72
  -3   2  -5    2.21    0.36
  -4  -2  -5    1.61    0.56
   4  -2   5    0.75    0.32
  -4  -2  -5    1.73    0.38
  -4  -2  -5    1.16    0.49
  -4   2  -5    0.34    0.90
  -4   2  -5    2.49    0.51
  -4   2  -5    0.72    0.31
  -4   2  -5    1.24    0.28
   4   2   5    0.99    0.39
  -5  -2  -5   20.83    1.26
  -5  -2  -5   17.52    0.92
  -5  -2  -5   21.08    1.19
   5  -2   5   17.50    0.79
  -5   2  -5   13.53    1.06
  -5   2  -5   18.95    1.71
  -5   2  -5   18.88    0.83
   5   2   5   16.16    0.94
   6  -2   5   -0.34    0.25
  -6  -2  -5    1.08    0.63
  -6  -2  -5   -0.50    0.31
  -6   2  -5    0.25    0.41
   6   2   5    0.86    0.38
  -6   2  -5   -0.07    0.25
  -6   2  -5    1.94    1.14
   7  -2   5    1.64    0.36
  -7  -2  -5    1.10    0.40
  -7   2  -5    1.41    1.20
   7   2   5    1.27    0.43
  -7   2  -5    1.21    0.30
  -8  -2  -5    0.63    0.48
   8   2   5    0.94    0.52
  -8   2  -5    0.79    1.27
  -8   2  -5    0.77    0.27
 -10  -3   5   -0.18    0.80
 -10  -3   5    0.74    0.72
  10  -3  -5    0.10    0.95
 -10   3   5   -1.41    0.84
  10   3  -5   -0.59    0.80
 -10   3   5    1.10    1.03
   9  -3  -5   13.85    1.44
  -9  -3   5   12.97    1.39
  -9  -3   5   13.36    1.40
   9   3  -5   12.51    1.32
  -9   3   5   10.80    1.41
  -9   3   5   13.06    1.34
  -8  -3   5   30.47    1.96
   8  -3  -5   29.25    1.69
  -8  -3   5   31.87    1.94
   8  -3  -5   30.24    2.00
  -8   3   5   27.31    1.99
   8   3  -5   27.89    1.71
  -8   3   5   26.84    1.84
   7  -3  -5   -0.21    0.56
  -7  -3   5    0.70    0.61
  -7  -3   5   -0.13    0.61
   7  -3  -5   -0.51    0.61
  -7  -3   5    0.39    0.67
  -7   3   5    0.34    0.55
  -7   3   5    0.21    0.58
   7   3  -5    0.53    0.76
  -6  -3   5   40.06    1.99
   6  -3  -5   35.92    1.92
  -6  -3   5   37.40    1.85
  -6  -3   5   37.01    1.93
   6  -3  -5   38.13    1.79
   6  -3  -5   37.59    1.88
  -6   3   5   38.71    1.83
   6   3  -5   37.95    1.89
  -6   3   5   39.59    2.39
   6   3  -5   36.60    1.77
  -6   3   5   36.11    1.95
  -6   3   5   36.65    2.06
   5  -3  -5   17.20    1.44
  -5  -3   5   19.35    1.46
  -5  -3   5   18.90    1.42
  -5  -3   5   17.00    1.34
   5  -3  -5   18.93    1.28
   5  -3  -5   20.16    1.28
  -5   3   5   19.77    1.39
  -5   3   5   19.52    1.74
   5   3  -5   16.68    1.27
  -5   3   5   17.33    1.41
   5   3  -5   18.02    1.20
   4  -3  -5   31.03    1.78
  -4  -3   5   34.16    1.81
  -4  -3   5   32.18    1.59
   4  -3  -5   34.91    1.86
  -4  -3   5   33.72    1.58
   4   3  -5   30.81    1.80
   4   3  -5   32.56    1.83
  -4   3   5   33.15    1.74
  -4   3   5   31.66    1.57
   4   3  -5   31.96    1.59
  -4   3   5   33.93    1.87
   3  -3  -5    2.59    0.81
  -3  -3   5    2.85    0.77
  -3  -3   5    2.72    0.64
   3  -3  -5    2.45    0.58
  -3  -3   5    2.02    0.62
   3   3  -5    1.95    0.72
  -3   3   5    1.63    0.53
   3   3  -5    1.67    0.58
  -3   3   5    2.55    0.68
  -3   3   5    1.68    0.86
   3   3  -5    0.30    0.65
  -2  -3   5   32.42    1.69
  -2  -3   5   32.46    1.45
   2  -3  -5   29.63    1.62
   2  -3  -5   32.03    1.65
  -2  -3   5   32.40    1.49
   2   3  -5   31.57    1.62
  -2   3   5   30.62    1.63
   2   3  -5   32.11    1.74
  -2   3   5   30.91    1.45
   2   3  -5   29.32    1.57
   1  -3  -5    1.77    0.59
  -1  -3   5    1.09    0.44
   1   3  -5    1.02    0.36
  -1   3   5    3.76    0.69
   1   3  -5    0.46    0.56
   0  -3  -5   10.03    0.74
   0  -3   5   10.17    0.85
   0  -3  -5   10.23    0.79
   0  -3   5   10.76    0.72
   0  -3  -5    9.75    0.81
   0  -3  -5   10.28    1.07
   0  -3   5    9.77    0.64
   0   3   5   10.71    0.84
   0   3  -5    9.01    0.77
   0   3  -5   10.04    0.65
   0   3  -5   10.87    0.99
   0   3  -5   11.19    0.95
   0   3   5   10.36    0.92
  -1  -3  -5  118.89    4.15
  -1  -3  -5  124.68    3.96
  -1  -3  -5  120.02    3.86
   1  -3   5  124.07    3.94
  -1  -3  -5  122.45    3.76
  -1   3  -5  116.70    4.26
  -1   3  -5  121.61    3.94
   1   3   5  116.91    3.84
   1   3   5  123.71    4.02
  -1   3  -5  120.13    4.17
  -1   3  -5  120.66    3.67
   2  -3   5   60.21    2.22
  -2  -3  -5   57.27    2.05
  -2  -3  -5   59.52    2.00
  -2  -3  -5   58.04    2.22
  -2  -3  -5   58.92    2.52
  -2   3  -5   58.90    2.49
   2   3   5   58.91    2.29
  -2   3  -5   60.74    2.18
  -2   3  -5   64.72    2.80
  -3  -3  -5    1.65    0.67
   3  -3   5    0.75    0.43
  -3  -3  -5    0.25    0.32
  -3  -3  -5    1.02    0.49
  -3   3  -5    0.75    0.66
   3   3   5    1.57    0.55
  -3   3  -5    0.85    0.41
  -3   3  -5    0.70    0.68
  -4  -3  -5   -0.02    0.59
   4  -3   5   -0.30    0.45
  -4  -3  -5    0.10    0.45
  -4   3  -5    1.13    0.47
  -4   3  -5    0.95    0.72
  -4   3  -5    1.42    1.00
   4   3   5    0.17    0.50
   5  -3   5   34.66    1.44
  -5  -3  -5   33.59    1.52
  -5  -3  -5   31.75    1.68
  -5   3  -5   33.64    1.35
  -5   3  -5   33.41    1.88
   5   3   5   32.22    1.57
  -5   3  -5   29.77    2.34
   6  -3   5    0.35    0.36
  -6   3  -5    0.72    0.87
  -6   3  -5    0.79    0.44
   7  -3   5   22.39    1.15
  -7  -3  -5   21.62    1.38
  -7   3  -5   24.69    1.72
  -7   3  -5   26.78    2.39
   7   3   5   23.23    1.37
  -7   3  -5   23.00    1.11
  -9  -4   5    1.76    1.23
   9  -4  -5    3.69    1.13
  -9  -4   5    3.00    1.14
  -9   4   5    5.01    1.11
  -9   4   5    5.56    1.21
   9   4  -5    3.96    0.81
  -8  -4   5   25.39    1.94
  -8  -4   5   26.60    2.17
   8  -4  -5   25.12    1.73
   8  -4  -5   23.38    1.71
  -8   4   5   23.81    1.96
  -8   4   5   26.20    1.66
   8   4  -5   24.23    1.61
  -7  -4   5    1.13    1.01
  -7  -4   5    2.02    0.95
   7  -4  -5    2.53    0.81
   7  -4  -5    4.05    1.03
  -7   4   5    1.59    0.71
   7   4  -5    2.13    0.90
  -7   4   5    2.36    0.89
   7   4  -5    2.35    0.90
  -6  -4   5    3.11    0.70
   6  -4  -5    1.13    0.66
   6  -4  -5    3.04    0.87
  -6  -4   5    0.95    0.86
  -6  -4   5    2.01    0.97
   6   4  -5    1.99    0.63
  -6   4   5    2.52    0.77
  -6   4   5    1.31    0.63
  -6   4   5    1.59    0.78
   6   4  -5    3.42    0.88
   6   4  -5    2.54    0.91
  -5  -4   5    0.39    0.78
  -5  -4   5    2.20    0.65
  -5  -4   5    2.39    0.83
   5  -4  -5    2.96    0.94
   5  -4  -5    1.50    0.65
   5   4  -5    1.98    0.75
   5   4  -5    1.59    0.79
  -5   4   5    0.76    0.52
  -5   4   5    1.51    0.63
  -5   4   5    2.48    0.81
   5   4  -5    1.71    0.64
  -4  -4   5   22.21    1.56
   4  -4  -5   25.91    1.70
  -4  -4   5   22.74    1.68
  -4  -4   5   24.23    1.60
   4  -4  -5   23.27    1.81
  -4   4   5   22.46    1.59
  -4   4   5   24.33    1.43
  -4   4   5   23.17    1.89
   4   4  -5   23.57    1.42
   4   4  -5   24.15    1.71
   4   4  -5   24.20    1.57
  -3  -4   5   15.91    1.12
  -3  -4   5   17.14    1.29
   3  -4  -5   18.74    1.27
   3  -4  -5   18.81    1.50
  -3  -4   5   16.02    1.22
  -3   4   5   17.39    1.40
  -3   4   5   17.75    1.43
   3   4  -5   17.78    1.34
   3   4  -5   18.05    1.41
   3   4  -5   19.11    1.33
  -3   4   5   15.56    1.50
   3   4  -5   16.97    1.21
   2   4  -5   30.50    1.78
  -2   4   5   29.36    1.76
  -1  -4   5   36.19    1.52
   1  -4  -5   34.83    1.78
  -1  -4   5   31.40    1.78
  -1  -4   5   30.60    1.44
  -1   4   5   33.86    1.72
   1   4  -5   31.60    1.88
  -1   4   5   33.85    1.82
   1   4  -5   33.90    1.62
   1   4  -5   33.80    1.76
   1   4  -5   35.51    1.77
   0  -4   5  112.32    3.90
   0  -4   5  111.04    3.54
   0  -4  -5  110.52    3.79
   0  -4   5  111.16    3.63
   0  -4  -5  110.22    3.79
   0   4  -5  119.37    4.10
   0   4  -5  109.05    3.83
   0   4   5  108.96    3.78
   0   4  -5  110.83    3.66
   0   4  -5  110.77    4.03
   0   4   5  112.41    3.86
  -1  -4  -5   13.82    0.65
   1  -4   5   13.63    1.02
  -1  -4  -5   14.63    1.20
  -1  -4  -5   15.18    1.26
  -1  -4  -5   13.60    0.96
  -1   4  -5   13.54    1.38
   1   4   5   14.17    1.10
   1   4   5   14.05    0.92
  -1   4  -5   14.19    1.31
  -1   4  -5   13.30    1.06
   2  -4   5   28.61    1.41
  -2  -4  -5   28.54    1.42
  -2  -4  -5   29.01    1.68
  -2   4  -5   26.13    2.01
   2   4   5   26.54    1.47
  -2   4  -5   28.06    1.48
  -2   4  -5   27.76    1.78
  -3  -4  -5   19.18    1.61
   3  -4   5   17.21    1.23
  -3  -4  -5   18.18    1.28
  -3   4  -5   20.37    1.41
  -3   4  -5   17.06    1.70
   3   4   5   16.43    1.36
  -3   4  -5   17.51    1.16
   4  -4   5   69.67    2.72
  -4  -4  -5   74.02    2.77
  -4  -4  -5   68.91    2.98
  -4   4  -5   75.14    3.15
  -4   4  -5   70.36    2.62
  -4   4  -5   72.18    3.49
   4   4   5   72.54    2.84
  -5  -4  -5   24.14    1.63
  -5  -4  -5   17.95    1.24
   5  -4   5   24.86    1.35
   5   4   5   26.36    1.59
  -5   4  -5   26.59    1.87
  -5   4  -5   22.19    1.95
  -5   4  -5   25.93    1.42
   6  -4   5    0.97    0.53
  -6  -4  -5    0.40    0.62
  -6   4  -5    0.91    1.28
  -6   4  -5    0.68    0.51
  -6   4  -5    0.70    0.64
   6   4   5    0.78    0.69
  -7  -4  -5    3.62    0.76
   7  -4   5    3.31    0.62
  -7   4  -5    4.10    0.64
  -7   4  -5    2.89    1.03
  -7   4  -5    4.25    1.28
   7   4   5    4.71    0.86
  -9  -5   5    1.88    0.88
  -9   5   5    2.46    1.11
  -8  -5   5    2.70    1.13
   8  -5  -5    5.84    1.03
  -8  -5   5    1.77    1.22
   8  -5  -5    2.65    0.86
  -8   5   5    2.48    1.08
   8   5  -5    1.44    0.91
  -8   5   5    3.37    0.85
  -7  -5   5  117.64    4.71
   7  -5  -5  119.62    4.60
  -7  -5   5  114.24    4.43
   7  -5  -5  119.55    4.50
   7   5  -5  119.51    4.36
  -7   5   5  117.33    4.42
  -7   5   5  116.70    4.48
   7   5  -5  119.28    4.48
  -7   5   5  125.65    4.95
  -6  -5   5    4.03    1.01
  -6  -5   5    4.42    1.14
   6  -5  -5    3.27    1.06
  -6  -5   5    2.95    0.82
   6  -5  -5    3.27    0.82
  -6   5   5    1.52    0.72
   6   5  -5    1.88    0.94
  -6   5   5    2.72    1.17
   6   5  -5    2.77    0.83
   6   5  -5    3.46    0.83
   5  -5  -5   45.48    2.50
   5  -5  -5   43.53    2.39
  -5  -5   5   40.28    2.15
  -5  -5   5   43.35    2.36
  -5  -5   5   42.75    2.31
   5   5  -5   44.47    2.16
   5   5  -5   40.93    2.28
   5   5  -5   44.30    2.19
   5   5  -5   47.48    2.46
  -5   5   5   40.33    2.35
  -5   5   5   43.14    2.13
  -5   5   5   43.95    2.22
  -4  -5   5    4.97    1.01
  -4  -5   5    3.62    0.98
  -4  -5   5    4.86    0.82
   4  -5  -5    3.66    0.99
   4   5  -5    3.69    0.69
  -4   5   5    3.97    0.95
   4   5  -5    2.10    0.76
   4   5  -5    5.04    1.04
   4   5  -5    4.65    0.82
  -4   5   5    5.03    0.99
  -4   5   5    4.25    0.92
   3  -5  -5  104.62    3.80
  -3  -5   5  107.07    3.85
  -3  -5   5   91.79    3.49
  -3  -5   5   91.91    3.57
  -3   5   5   95.01    3.58
   3   5  -5  103.78    3.71
   3   5  -5   93.40    3.68
  -3   5   5   96.77    3.60
   3   5  -5   94.07    3.59
   3   5  -5   96.24    3.82
   2  -5  -5    5.56    0.98
  -2  -5   5    4.81    0.81
  -2  -5   5    2.34    0.58
  -2  -5   5    5.84    0.74
   2   5  -5    4.10    1.03
   2   5  -5    4.30    0.88
   2   5  -5    4.76    0.92
  -2   5   5    4.80    0.92
  -2   5   5    5.95    0.99
   2   5  -5    3.50    0.92
   1  -5  -5  123.61    4.40
  -1  -5   5  123.28    4.42
  -1  -5   5  121.07    4.11
  -1  -5   5  126.18    4.20
  -1   5   5  124.64    4.27
   1   5  -5  123.94    4.57
   1   5  -5  126.83    4.53
  -1   5   5  123.01    4.34
   1   5  -5  125.05    4.26
   1   5  -5  119.91    4.35
   0  -5   5    6.40    1.04
   0  -5  -5   11.33    1.12
   0  -5  -5   10.48    1.09
   0   5  -5    8.44    0.88
   0   5  -5    8.54    1.22
   0   5   5    8.76    1.00
   0   5   5   10.29    0.96
   0   5  -5    7.59    1.16
   0   5  -5    9.21    1.07
  -1  -5  -5   37.14    1.90
   1  -5   5   42.61    2.07
  -1  -5  -5   38.70    1.85
   1   5   5   38.31    2.12
  -1   5  -5   35.31    2.02
  -1   5  -5   38.36    1.96
   2  -5   5   18.23    1.45
  -2  -5  -5   16.09    1.34
  -2   5  -5   19.92    1.62
  -2   5  -5   17.32    1.39
  -2   5  -5   16.67    1.56
   2   5   5   16.57    1.39
   3  -5   5   39.46    1.97
  -3  -5  -5   37.92    2.34
  -3  -5  -5   37.70    1.98
   3   5   5   39.23    2.15
  -3   5  -5   36.51    2.56
  -3   5  -5   38.07    2.36
  -3   5  -5   35.03    1.88
  -4  -5  -5    3.83    1.05
   4  -5   5    5.65    0.89
  -4  -5  -5    5.82    0.80
  -4   5  -5    8.38    1.34
   4   5   5    5.79    0.87
  -4   5  -5    6.74    1.24
  -4   5  -5    5.49    0.87
  -5  -5  -5    8.13    1.13
  -5  -5  -5    7.52    1.03
   5  -5   5    8.47    1.00
  -5   5  -5    7.56    1.37
   5   5   5   10.28    1.22
  -5   5  -5    7.04    0.92
  -5   5  -5    8.23    1.67
   6  -5   5    6.70    0.94
  -6  -5  -5    8.30    1.09
  -6   5  -5   10.13    1.45
   6   5   5    8.22    1.18
  -6   5  -5    7.36    1.75
  -6   5  -5    8.36    0.98
  -7  -6   5    1.87    0.87
  -7  -6   5    2.09    0.94
   7  -6  -5    1.44    1.19
   7  -6  -5    2.09    1.13
  -7   6   5    2.91    1.15
   7   6  -5    3.14    1.27
  -7   6   5    1.31    0.90
   7   6  -5   -0.21    0.95
  -6  -6   5   26.77    1.85
   6  -6  -5   29.39    2.28
   6  -6  -5   26.46    2.20
  -6  -6   5   24.78    2.08
  -6  -6   5   26.00    2.11
  -6   6   5   26.54    1.82
   6   6  -5   26.88    2.30
   6   6  -5   29.46    2.12
  -6   6   5   30.34    2.15
   5  -6  -5   11.54    1.51
  -5  -6   5   13.23    1.54
  -5  -6   5   15.14    1.42
  -5  -6   5   13.49    1.47
  -5   6   5   14.55    1.38
  -5   6   5   15.16    1.77
   5   6  -5   14.12    1.27
  -5   6   5   15.78    1.46
   5   6  -5   17.32    1.62
   5   6  -5   15.33    1.48
   5   6  -5   14.15    1.50
  -4  -6   5  126.02    4.68
  -4  -6   5  124.24    4.64
  -4  -6   5  127.60    4.70
   4  -6  -5  122.98    4.78
   4   6  -5  129.67    4.75
  -4   6   5  129.21    4.66
  -4   6   5  126.02    5.04
   4   6  -5  125.45    4.63
   4   6  -5  124.81    4.79
   4   6  -5  122.11    4.49
  -4   6   5  133.13    4.73
  -3  -6   5   14.94    1.23
  -3  -6   5   13.13    1.47
   3  -6  -5   14.88    1.52
  -3  -6   5   15.39    1.39
   3   6  -5   14.28    1.30
   3   6  -5   14.42    1.33
  -3   6   5   12.66    1.25
   3   6  -5   14.07    1.58
  -3   6   5   15.42    1.33
   3   6  -5   14.53    1.46
  -2  -6   5    1.07    0.74
   2  -6  -5    1.02    0.94
  -2  -6   5    2.36    0.85
  -2  -6   5    2.80    0.80
   2   6  -5    3.08    0.91
   2   6  -5    1.29    0.65
  -2   6   5    1.43    0.70
  -2   6   5    2.08    0.74
   2   6  -5    2.96    0.84
   2   6  -5    2.99    1.02
  -1  -6   5    1.21    0.95
   1  -6  -5    0.74    0.87
   1   6  -5    1.21    0.74
   1   6  -5    0.87    0.87
  -1   6   5    1.11    0.72
   1   6  -5    0.30    0.91
  -1   6   5    0.13    0.57
   1   6  -5    0.56    1.01
   0  -6   5  121.99    4.63
   0  -6  -5  126.63    4.59
   0  -6  -5  132.11    4.71
   0   6   5  133.99    4.83
   0   6   5  135.11    5.11
   0   6  -5  135.33    4.97
   0   6  -5  122.75    4.66
   0   6  -5  132.72    4.93
  -1  -6  -5    8.44    1.20
   1  -6   5   10.38    1.27
   1   6   5    9.88    1.14
  -1   6  -5   11.91    1.31
  -1   6  -5   11.66    1.32
  -1   6  -5    9.86    1.43
  -2  -6  -5    8.48    1.18
   2  -6   5    7.88    1.14
  -2   6  -5    8.97    1.13
  -2   6  -5    7.66    1.45
   2   6   5    6.95    1.04
  -2   6  -5    8.98    1.24
  -3  -6  -5    1.87    0.70
   3  -6   5    1.87    0.89
  -3   6  -5    1.64    1.28
  -3   6  -5    1.84    0.86
  -3   6  -5    1.08    0.62
   3   6   5    1.53    0.75
  -4  -6  -5   11.85    1.31
  -4  -6  -5   11.96    1.49
   4  -6   5   11.04    1.27
  -4   6  -5   12.76    1.84
   4   6   5   12.27    1.46
  -4   6  -5   14.88    1.35
  -4   6  -5    9.54    1.55
  -5  -6  -5   -0.70    0.90
   5  -6   5   -0.18    0.82
  -5  -6  -5   -0.35    0.89
  -5   6  -5    0.23    0.78
   5   6   5   -1.54    0.96
  -5   6  -5    0.50    0.81
  -5   6  -5    1.35    1.43
  -6  -7   5   11.61    1.40
  -6   7   5   14.61    1.68
   6   7  -5   13.75    1.75
  -5  -7   5    1.85    1.12
  -5  -7   5   -0.01    1.07
  -5  -7   5   -0.54    1.05
   5  -7  -5   -0.34    0.78
  -5   7   5    1.19    1.10
   5   7  -5   -0.30    1.04
   5   7  -5   -0.86    1.06
  -5   7   5    0.12    0.81
  -4  -7   5    1.32    0.77
   4  -7  -5    1.05    1.12
  -4  -7   5    1.30    0.79
  -4  -7   5    0.67    1.06
   4   7  -5    0.17    0.78
   4   7  -5   -0.44    1.04
   4   7  -5    0.94    0.81
  -4   7   5    2.01    0.82
  -4   7   5    1.36    1.06
  -4   7   5    2.27    1.25
   3  -7  -5   19.26    1.63
  -3  -7   5   19.16    1.62
  -3  -7   5   17.05    1.46
  -3  -7   5   17.59    1.78
   3   7  -5   17.81    1.76
   3   7  -5   19.24    1.71
   3   7  -5   16.86    1.66
   3   7  -5   17.02    1.59
  -3   7   5   19.13    1.60
  -3   7   5   17.63    1.67
  -2  -7   5   17.14    1.75
   2  -7  -5   16.83    1.56
  -2   7   5   18.88    1.71
  -2   7   5   18.47    1.57
   2   7  -5   19.02    1.58
   2   7  -5   21.89    1.73
   2   7  -5   18.90    1.69
   2   7  -5   18.74    1.72
   1  -7  -5    4.14    1.13
  -1  -7   5    3.54    1.18
   1   7  -5    5.55    1.01
   1   7  -5    4.13    0.89
  -1   7   5    3.18    1.05
   1   7  -5    4.90    1.29
  -1   7   5    4.52    1.20
   0  -7   5    8.34    1.40
   0  -7  -5   10.86    1.43
   0  -7  -5   11.99    1.30
   0   7  -5   10.91    1.30
   0   7  -5   11.56    1.45
   0   7   5   12.68    1.37
   0   7  -5   12.28    1.43
  -1  -7  -5   46.89    2.63
   1  -7   5   45.30    2.43
  -1   7  -5   45.75    2.59
  -1   7  -5   45.94    2.37
  -1   7  -5   49.23    2.69
   1   7   5   46.52    2.53
   2  -7   5    0.18    0.68
  -2  -7  -5    0.29    0.72
  -2   7  -5   -1.32    1.10
  -2   7  -5    0.29    0.85
   2   7   5    0.07    0.77
  -2   7  -5   -0.06    0.67
   3  -7   5    7.40    1.30
  -3  -7  -5    8.11    1.32
  -3   7  -5    8.64    1.32
   3   7   5    8.21    1.45
  -3   7  -5    8.58    1.67
  -3   7  -5    8.39    1.34
 -11   0   6   -0.63    1.08
  11   0  -6    0.73    1.07
 -11   0   6   -1.07    0.90
  10   0  -6   25.88    2.06
 -10   0   6   28.85    2.28
 -10   0   6   25.10    1.93
   9   0  -6   -0.35    0.88
  -9   0   6   -0.25    0.83
  -9   0   6    1.25    1.03
   8   0  -6   31.31    2.03
  -8   0   6   32.40    2.14
  -8   0   6   34.20    1.97
  -7   0   6   -0.62    0.58
  -7   0   6    0.27    0.64
  -7   0   6    0.04    0.53
   7   0  -6   -0.13    0.56
   7   0  -6    0.57    0.61
   6   0  -6  222.51    6.92
  -6   0   6  215.12    7.01
  -6   0   6  217.40    6.94
   6   0  -6  222.27    6.99
   6   0  -6  223.28    6.88
  -6   0   6  219.05    6.93
  -5   0   6    0.05    0.45
   5   0  -6    0.77    0.70
  -5   0   6   -0.18    0.46
   5   0  -6    0.54    0.61
   5   0  -6    0.80    0.63
  -5   0   6    0.64    0.65
  -4   0   6   17.34    1.33
   4   0  -6   17.83    1.18
  -4   0   6   16.43    1.29
  -4   0   6   16.03    1.07
   4   0  -6   15.56    1.05
   4   0  -6   17.56    1.33
   3   0  -6   -0.32    0.38
   3   0  -6    0.11    0.46
   3   0  -6   -0.23    0.53
  -3   0   6   -0.47    0.49
  -3   0   6    0.40    0.44
  -3   0   6   -0.34    0.67
  -3   0   6   -0.41    0.36
  -2   0   6  987.29   27.94
  -2   0   6  991.49   27.68
  -2   0   6  960.25   27.65
   2   0  -6  906.54   27.67
  -2   0   6  971.93   27.73
   2   0  -6  973.88   27.86
   2   0  -6  950.32   27.68
  -1   0   6   -0.44    0.46
  -1   0   6   -0.09    0.34
   1   0  -6   -0.35    0.44
   1   0  -6    0.12    0.43
   1   0  -6    0.16    0.37
   1   0  -6    0.10    0.59
  -1   0   6   -0.22    0.37
  -1   0   6   -0.10    0.38
   0   0  -6   21.92    1.40
   0   0  -6   20.31    1.27
   0   0   6   21.32    1.13
   0   0  -6   21.06    1.08
   0   0   6   22.15    1.04
   1   0   6   -0.05    0.36
  -1   0  -6   -0.20    0.40
  -1   0  -6   -0.23    0.56
  -1   0  -6    0.42    0.31
  -1   0  -6    0.05    0.37
   2   0   6  443.21   12.86
   2   0   6  443.92   12.85
  -2   0  -6  445.95   12.85
  -2   0  -6  430.48   13.16
  -2   0  -6  452.49   12.95
  -2   0  -6  449.87   13.32
   3   0   6    0.42    0.28
  -3   0  -6    1.01    0.70
  -3   0  -6   -0.19    0.30
   3   0   6    0.11    0.24
  -3   0  -6    0.14    0.26
  -4   0  -6  171.30    5.88
  -4   0  -6  182.08    5.35
  -4   0  -6  175.35    5.21
   4   0   6  177.06    5.21
   5   0   6    0.04    0.24
  -5   0  -6    0.82    0.81
   6   0   6   89.88    2.72
  -6   0  -6   88.86    2.71
  -6   0  -6   94.37    3.83
  -7   0  -6   -0.28    0.19
  -7   0  -6   -0.08    0.93
 -11  -1   6    9.24    1.58
  11  -1  -6    7.89    1.41
 -11  -1   6    8.94    1.37
  11   1  -6   10.10    1.48
 -11   1   6    7.53    1.32
 -11   1   6   11.11    1.61
  10  -1  -6   10.10    1.18
 -10  -1   6   12.67    1.58
 -10  -1   6    9.88    1.32
  10   1  -6   10.56    1.44
 -10   1   6   10.43    1.33
 -10   1   6   11.00    1.19
   9  -1  -6   56.20    2.75
  -9  -1   6   50.89    2.64
  -9  -1   6   58.97    2.69
  -9   1   6   54.73    2.88
  -9   1   6   56.12    2.65
   9   1  -6   54.45    2.78
  -8  -1   6    9.97    1.31
  -8  -1   6    9.44    1.03
   8  -1  -6    9.61    1.19
   8  -1  -6    9.49    0.93
   8   1  -6   10.27    1.10
  -8   1   6    8.97    1.13
  -8   1   6    9.55    1.28
  -7  -1   6   45.69    2.10
  -7  -1   6   40.65    2.11
   7  -1  -6   41.94    1.98
  -7  -1   6   45.11    2.05
   7  -1  -6   42.67    2.23
   7  -1  -6   43.36    2.02
  -7   1   6   46.26    2.17
  -7   1   6   43.98    2.05
   7   1  -6   41.15    2.01
  -7   1   6   45.16    2.17
   7   1  -6   42.77    2.09
  -6  -1   6  118.92    4.20
  -6  -1   6  126.87    4.25
   6  -1  -6  130.25    4.23
   6  -1  -6  127.27    4.38
   6  -1  -6  124.00    4.19
  -6  -1   6  121.05    4.39
   6   1  -6  125.79    4.38
  -6   1   6  126.61    4.27
  -6   1   6  122.74    4.29
   6   1  -6  126.16    4.25
  -6   1   6  115.90    4.28
   5  -1  -6   68.61    2.59
  -5  -1   6   70.27    2.57
   5  -1  -6   62.05    2.66
   5  -1  -6   64.56    2.54
  -5  -1   6   70.06    2.73
  -5  -1   6   63.70    2.56
  -5   1   6   68.48    2.68
  -5   1   6   69.43    2.72
  -5   1   6   64.89    2.53
   5   1  -6   66.67    2.60
   5   1  -6   62.80    2.61
   4  -1  -6   26.49    1.60
   4  -1  -6   26.28    1.62
  -4  -1   6   27.90    1.47
   4  -1  -6   26.60    1.50
  -4  -1   6   32.26    1.61
  -4  -1   6   29.44    1.40
  -4   1   6   29.15    1.60
  -4   1   6   26.50    1.52
  -4   1   6   28.73    1.68
   4   1  -6   25.35    1.57
   4   1  -6   27.06    1.54
  -4   1   6   28.64    1.60
   3  -1  -6  307.75    9.41
  -3  -1   6  315.96    9.28
  -3  -1   6  313.05    9.35
   3  -1  -6  305.04    9.27
   3  -1  -6  312.41    9.35
  -3  -1   6  307.59    9.27
  -3   1   6  312.41    9.34
   3   1  -6  302.55    9.30
   3   1  -6  304.74    9.28
  -3   1   6  314.18    9.30
  -3   1   6  309.95    9.30
  -3   1   6  303.75    9.57
   2  -1  -6  113.17    3.97
  -2  -1   6  114.25    3.70
  -2  -1   6  117.60    3.72
  -2  -1   6  114.62    3.84
   2  -1  -6  111.76    3.79
   2  -1  -6  111.27    3.71
   2   1  -6  112.33    3.97
  -2   1   6  112.12    3.71
  -2   1   6  123.40    4.09
  -2   1   6  119.71    3.83
   2   1  -6  107.82    3.78
  -1  -1   6  150.42    4.66
  -1  -1   6  154.82    4.66
  -1  -1   6  148.82    4.83
   1  -1  -6  156.16    4.98
   1  -1  -6  146.31    4.73
   1  -1  -6  153.15    5.02
  -1   1   6  155.81    4.79
   1   1  -6  151.71    4.80
  -1   1   6  152.68    4.70
  -1   1   6  148.81    4.97
   1   1  -6  153.15    5.02
   1   1  -6  150.02    4.86
   0  -1   6   94.60    3.15
   0  -1  -6   91.30    3.41
   0  -1  -6   95.06    3.00
   0  -1   6   94.87    2.95
   0  -1   6   94.07    3.15
   0  -1  -6   95.94    3.27
   0   1  -6   93.90    3.47
   0   1   6   93.19    3.09
   0   1  -6   97.22    3.13
   0   1   6   91.22    2.97
   0   1  -6   95.45    3.26
   1  -1   6  264.10    7.85
   1  -1   6  254.81    7.82
  -1  -1  -6  262.16    8.04
  -1  -1  -6  262.45    8.12
  -1   1  -6  266.97    7.98
  -1   1  -6  262.07    7.81
   1   1   6  269.37    7.85
  -1   1  -6  264.57    8.25
  -1   1  -6  262.36    7.77
  -2  -1  -6    2.09    0.38
  -2  -1  -6    1.88    0.33
   2  -1   6    1.74    0.12
   2  -1   6    1.93    0.38
  -2  -1  -6    1.99    0.60
  -2  -1  -6    2.26    0.65
   2  -1   6    1.35    0.36
  -2   1  -6    2.27    0.38
  -2   1  -6    1.24    0.77
   2   1   6    1.63    0.42
  -2   1  -6    1.68    0.52
  -2   1  -6    1.06    0.30
   3  -1   6    8.03    0.64
  -3  -1  -6    9.65    0.91
  -3  -1  -6    8.54    0.69
  -3  -1  -6    8.45    0.52
  -3  -1  -6    7.33    0.59
  -3  -1  -6    9.19    0.95
  -3   1  -6    8.38    0.71
   3   1   6    7.97    0.63
  -3   1  -6    8.29    0.61
  -3   1  -6    7.11    0.96
  -3   1  -6    9.07    0.56
  -4  -1  -6   34.97    1.65
   4  -1   6   32.39    1.19
  -4  -1  -6   28.75    1.60
  -4  -1  -6   32.54    1.25
  -4   1  -6   30.94    1.47
   4   1   6   31.29    1.29
  -4   1  -6   34.16    1.17
  -4   1  -6   32.00    1.88
  -4   1  -6   33.83    1.17
   5  -1   6  122.78    3.73
  -5  -1  -6  129.55    4.53
  -5  -1  -6  127.85    3.85
  -5   1  -6  120.46    3.73
   5   1   6  129.51    3.88
  -5   1  -6  127.43    4.10
  -5   1  -6  124.36    4.79
  -6  -1  -6    3.53    0.96
  -6  -1  -6    5.45    0.48
  -6   1  -6    4.33    0.96
   6   1   6    4.85    0.50
  -6   1  -6    4.32    0.32
  -7  -1  -6    0.16    0.33
  -7  -1  -6    0.26    0.62
   7   1   6    0.06    0.29
  -7   1  -6    0.36    0.76
  10  -2  -6   69.25    3.16
 -10  -2   6   74.01    3.38
 -10  -2   6   72.29    3.13
 -10   2   6   70.61    3.21
 -10   2   6   73.49    3.26
  -9  -2   6   20.16    1.64
   9  -2  -6   19.92    1.69
  -9  -2   6   17.07    1.59
  -9   2   6   18.19    1.56
   9   2  -6   17.98    1.67
  -9   2   6   18.89    1.72
  -8  -2   6   26.40    1.86
   8  -2  -6   26.39    1.61
  -8  -2   6   29.16    2.08
   8  -2  -6   23.53    1.88
   8   2  -6   24.77    1.94
  -8   2   6   28.99    2.00
  -8   2   6   23.29    1.81
   7  -2  -6   21.50    1.52
  -7  -2   6   23.75    1.87
  -7  -2   6   22.40    1.42
  -7  -2   6   24.60    1.72
   7  -2  -6   25.52    1.42
   7   2  -6   22.27    1.53
  -7   2   6   24.13    1.37
  -7   2   6   23.90    1.58
  -7   2   6   24.63    1.47
   6  -2  -6  103.14    3.72
  -6  -2   6   94.25    3.59
  -6  -2   6   98.19    3.52
   6  -2  -6   94.73    3.46
   6  -2  -6   98.77    3.60
  -6  -2   6   94.13    3.69
  -6   2   6  101.42    3.61
  -6   2   6   95.41    3.55
   6   2  -6   98.33    3.54
  -6   2   6   95.52    3.58
   5  -2  -6   60.63    2.48
  -5  -2   6   60.21    2.53
   5  -2  -6   61.38    2.48
   5  -2  -6   61.17    2.51
  -5  -2   6   60.72    2.60
  -5  -2   6   59.72    2.58
  -5   2   6   65.08    2.98
   5   2  -6   57.83    2.42
  -5   2   6   65.12    2.46
  -5   2   6   61.66    2.54
  -5   2   6   60.81    2.63
   4  -2  -6  112.70    3.97
  -4  -2   6  108.84    3.79
  -4  -2   6  113.27    3.94
  -4  -2   6  113.69    3.78
   4  -2  -6  107.46    3.83
   4  -2  -6  117.38    3.84
  -4   2   6  105.99    3.79
  -4   2   6  108.15    3.83
   4   2  -6  112.40    3.88
  -4   2   6  114.23    4.24
   3  -2  -6   54.25    2.20
   3  -2  -6   44.76    2.09
  -3  -2   6   52.18    2.04
  -3  -2   6   49.75    1.96
  -3  -2   6   47.37    2.05
   3   2  -6   51.42    2.13
  -3   2   6   53.02    2.01
   3   2  -6   50.25    2.15
  -3   2   6   51.33    2.43
  -3   2   6   41.66    1.96
   2  -2  -6   16.20    1.41
  -2  -2   6   17.25    1.13
  -2  -2   6   16.25    1.03
  -2   2   6   12.32    1.01
   2   2  -6   16.98    1.08
  -2   2   6   18.02    1.03
  -2   2   6   23.98    1.58
   1  -2  -6   -0.65    0.46
   1  -2  -6    0.18    0.67
  -1  -2   6    0.00    0.56
  -1  -2   6    0.38    0.34
  -1  -2   6    0.31    0.37
  -1   2   6    0.34    0.34
   1   2  -6   -0.41    0.47
   1   2  -6    0.07    0.44
  -1   2   6    0.45    0.55
   1   2  -6    0.69    0.55
   0  -2  -6   52.90    2.07
   0  -2   6   51.88    1.74
   0  -2  -6   49.82    2.31
   0  -2  -6   52.03    1.96
   0  -2   6   50.88    1.77
   0  -2   6   52.47    2.09
   0   2   6   50.32    1.90
   0   2   6   54.78    2.08
   0   2  -6   53.41    2.21
   0   2  -6   53.95    2.43
   0   2  -6   53.10    2.06
   0   2  -6   53.66    1.79
  -1  -2  -6  103.24    3.71
  -1  -2  -6  104.79    3.19
  -1  -2  -6   98.55    3.39
   1  -2   6  105.07    3.01
   1  -2   6  100.58    3.40
  -1   2  -6  104.73    3.39
   1   2   6  104.49    3.43
  -1   2  -6  101.90    3.53
  -1   2  -6   97.49    3.72
  -2  -2  -6    1.06    0.52
  -2  -2  -6    1.75    0.46
  -2  -2  -6    1.66    0.49
   2  -2   6    2.16    0.48
  -2   2  -6    0.86    0.62
  -2   2  -6    1.22    0.43
   2   2   6    2.30    0.53
  -2   2  -6    2.29    0.64
  -2   2  -6    1.22    0.43
  -3  -2  -6    1.50    0.52
   3  -2   6    1.86    0.41
  -3  -2  -6    1.51    0.42
  -3  -2  -6    0.28    0.45
  -3   2  -6    1.88    0.40
  -3   2  -6    1.74    0.70
   3   2   6    1.54    0.46
  -3   2  -6    1.37    0.61
   4  -2   6    8.71    0.71
  -4  -2  -6    8.19    0.66
  -4  -2  -6    7.75    0.84
  -4  -2  -6    6.46    0.83
  -4   2  -6    9.80    0.94
  -4   2  -6    7.39    1.26
  -4   2  -6    7.67    0.61
   4   2   6    8.72    0.73
  -5  -2  -6    3.07    0.53
   5  -2   6    2.97    0.41
  -5  -2  -6    3.07    0.65
  -5  -2  -6    2.23    0.67
   5   2   6    2.50    0.56
  -5   2  -6    2.92    1.12
  -5   2  -6    2.26    0.39
  -5   2  -6    3.44    0.72
   6  -2   6   23.35    0.98
  -6  -2  -6   21.40    1.09
   6   2   6   23.08    1.16
  -6   2  -6   20.78    1.88
  -6   2  -6   22.42    0.96
  -7  -2  -6    4.13    0.59
  -7   2  -6    3.58    0.40
   7   2   6    3.21    0.54
  -7   2  -6    3.07    1.38
 -10  -3   6    3.22    1.18
 -10  -3   6    2.27    1.29
  10  -3  -6    2.52    1.14
 -10   3   6    2.68    1.19
  10   3  -6    2.95    1.03
 -10   3   6    4.04    1.11
   9  -3  -6    4.15    0.91
  -9  -3   6    3.27    1.07
  -9  -3   6    4.80    1.27
   9   3  -6    1.62    0.97
  -9   3   6    3.82    1.08
  -9   3   6    2.72    1.12
  -8  -3   6   -1.00    0.94
  -8  -3   6   -1.50    0.85
   8  -3  -6    1.16    0.99
   8  -3  -6    0.03    0.70
   8   3  -6   -0.49    0.88
  -8   3   6    0.99    0.90
  -8   3   6    0.82    0.97
   7  -3  -6   33.52    2.11
  -7  -3   6   33.34    1.95
   7  -3  -6   33.04    1.76
  -7  -3   6   31.25    1.91
  -7  -3   6   33.14    1.84
   7   3  -6   32.03    1.87
  -7   3   6   34.00    2.00
  -7   3   6   31.38    1.68
  -7   3   6   34.82    2.14
   7   3  -6   35.01    1.97
   6  -3  -6    1.40    0.60
  -6  -3   6    2.00    0.90
   6  -3  -6    0.88    0.69
   6  -3  -6    1.59    0.88
  -6  -3   6    1.68    0.63
  -6  -3   6    1.32    0.63
  -6   3   6    2.79    0.92
   6   3  -6    1.34    0.76
  -6   3   6    2.81    0.77
   6   3  -6    1.18    0.87
  -6   3   6    1.78    1.09
  -6   3   6    2.06    0.85
   5  -3  -6   41.06    2.02
   5  -3  -6   43.03    2.19
  -5  -3   6   40.13    2.14
  -5  -3   6   42.30    2.17
   5  -3  -6   42.58    2.03
  -5  -3   6   41.65    2.08
   5   3  -6   40.32    2.08
  -5   3   6   43.47    2.51
  -5   3   6   41.94    1.94
   5   3  -6   45.38    2.34
  -5   3   6   44.09    2.11
   5   3  -6   41.39    2.10
  -4  -3   6   47.46    2.00
   4  -3  -6   48.12    2.26
   4  -3  -6   44.82    2.28
  -4  -3   6   44.80    2.10
  -4  -3   6   46.25    2.13
  -4   3   6   47.86    2.16
  -4   3   6   47.04    2.05
  -4   3   6   44.47    2.50
   4   3  -6   46.98    2.33
   4   3  -6   44.97    2.29
   4   3  -6   46.25    2.17
   3  -3  -6  122.70    4.28
  -3  -3   6  116.92    3.98
  -3  -3   6  117.91    4.17
  -3  -3   6  122.63    4.02
   3  -3  -6  109.43    4.03
  -3   3   6  115.34    4.42
  -3   3   6  121.08    4.08
   3   3  -6  123.90    4.26
   3   3  -6  121.77    4.31
   3   3  -6  117.28    4.04
  -3   3   6  113.86    4.03
  -2  -3   6   16.79    0.97
   2  -3  -6   17.69    1.36
  -2  -3   6   17.19    1.13
   2  -3  -6   19.94    1.35
  -2  -3   6   16.55    1.19
  -2   3   6   17.27    1.17
   2   3  -6   16.10    1.49
   2   3  -6   16.59    1.24
  -2   3   6   17.87    1.11
   2   3  -6   15.78    1.13
   1  -3  -6   19.83    1.36
  -1  -3   6   19.85    1.01
  -1  -3   6   19.00    1.05
  -1  -3   6   18.99    1.21
   1  -3  -6   19.22    1.31
   1   3  -6   19.10    1.17
   1   3  -6   18.44    1.09
   1   3  -6   17.61    1.54
  -1   3   6   19.97    1.25
   1   3  -6   19.42    1.29
  -1   3   6   18.31    1.36
   0  -3  -6   72.12    2.91
   0  -3   6   68.78    2.33
   0  -3   6   67.63    2.63
   0  -3  -6   65.45    2.46
   0  -3   6   69.44    2.25
   0  -3  -6   70.08    2.49
   0   3  -6   67.78    2.32
   0   3  -6   66.14    2.66
   0   3   6   65.14    2.46
   0   3  -6   72.47    2.98
   0   3   6   68.47    2.56
   0   3  -6   67.26    2.60
  -1  -3  -6   27.40    1.80
   1  -3   6   29.28    1.50
  -1  -3  -6   27.61    1.44
  -1  -3  -6   28.89    1.31
  -1   3  -6   25.85    1.90
   1   3   6   26.47    1.53
  -1   3  -6   30.14    1.73
  -1   3  -6   29.66    1.37
   2  -3   6   69.02    2.55
  -2  -3  -6   66.78    2.76
  -2  -3  -6   71.92    2.56
  -2  -3  -6   69.46    2.39
  -2   3  -6   68.67    2.99
  -2   3  -6   67.11    2.51
   2   3   6   68.32    2.63
  -2   3  -6   71.94    2.85
  -3  -3  -6   22.79    1.46
  -3  -3  -6   23.39    1.31
   3  -3   6   25.91    1.29
  -3  -3  -6   23.84    1.14
  -3   3  -6   20.96    1.96
  -3   3  -6   25.92    1.63
   3   3   6   24.81    1.41
  -3   3  -6   25.86    1.25
  -4  -3  -6    4.48    0.82
  -4  -3  -6    3.95    0.64
   4  -3   6    4.50    0.65
   4   3   6    3.48    0.66
  -4   3  -6    4.89    0.92
  -4   3  -6    4.47    0.62
  -4   3  -6    3.38    1.18
  -5   3  -6   22.15    2.03
  -5   3  -6   15.14    1.34
  -6  -3  -6   46.96    1.97
   6  -3   6   45.53    1.82
   6   3   6   48.49    2.05
  -6   3  -6   47.64    1.81
  -6   3  -6   48.79    2.36
  -6   3  -6   48.37    2.82
   7  -3   6    1.51    0.47
  -7  -3  -6    1.18    0.54
  -7   3  -6    1.96    0.47
  -7   3  -6    0.47    1.35
   7   3   6    2.16    0.65
  -9  -4   6    5.58    1.02
  -9  -4   6    5.16    1.08
   9  -4  -6    7.49    1.34
  -9   4   6    6.49    1.22
   9   4  -6    6.07    1.00
  -9   4   6    3.65    0.94
   8  -4  -6    2.31    0.89
   8  -4  -6    4.04    0.92
  -8  -4   6    1.92    1.06
  -8  -4   6    1.98    1.15
  -8   4   6    1.79    0.82
   8   4  -6    2.88    0.83
  -8   4   6    3.77    0.85
  -7  -4   6   12.86    1.35
  -7  -4   6   14.18    1.36
   7  -4  -6   16.44    1.60
   7  -4  -6   11.69    1.32
  -7  -4   6   13.89    1.29
   7   4  -6   13.79    1.48
  -7   4   6   14.42    1.33
  -7   4   6   15.91    1.50
   7   4  -6   18.09    1.59
  -6  -4   6    4.13    0.83
   6  -4  -6    4.03    1.07
  -6  -4   6    3.55    0.81
   6  -4  -6    3.00    0.98
   6  -4  -6    5.50    0.94
  -6  -4   6    3.81    0.80
  -6   4   6    5.45    1.04
   6   4  -6    4.12    0.88
  -6   4   6    3.34    1.21
   6   4  -6    4.34    0.96
  -6   4   6    3.94    0.89
   6   4  -6    3.37    0.79
  -5  -4   6   41.01    2.24
   5  -4  -6   42.71    2.11
  -5  -4   6   45.57    2.21
  -5  -4   6   42.58    2.26
   5  -4  -6   40.80    2.10
   5  -4  -6   40.18    2.11
   5   4  -6   42.57    2.21
  -5   4   6   43.40    2.19
   5   4  -6   39.59    2.23
   5   4  -6   42.57    2.15
  -5   4   6   45.14    2.24
  -5   4   6   43.29    2.60
   4  -4  -6    1.71    0.88
  -4  -4   6    0.53    0.72
  -4  -4   6   -0.66    0.83
  -4  -4   6    2.17    0.61
   4  -4  -6    1.57    0.70
  -4   4   6    0.41    0.78
   4   4  -6    0.83    0.88
   4   4  -6    2.46    0.86
  -4   4   6    1.19    0.81
   4   4  -6    0.87    0.79
  -4   4   6   -0.57    0.91
  -3  -4   6   55.31    2.31
  -3  -4   6   62.00    2.43
   3  -4  -6   60.33    2.62
  -3  -4   6   59.64    2.66
   3  -4  -6   56.52    2.77
   3   4  -6   56.20    2.54
  -3   4   6   57.07    2.49
   3   4  -6   55.70    2.47
   3   4  -6   53.28    2.48
   3   4  -6   59.37    2.69
  -3   4   6   56.50    2.54
  -3   4   6   59.36    2.90
   2  -4  -6   18.11    1.26
   2  -4  -6   11.94    1.22
   2   4  -6   19.69    1.48
  -2   4   6   11.94    1.10
  -1  -4   6  107.21    3.48
  -1  -4   6   98.03    3.80
   1  -4  -6  108.54    3.95
   1  -4  -6  105.13    3.71
  -1  -4   6  104.35    3.54
   1   4  -6  103.91    3.86
   1   4  -6  104.45    3.93
  -1   4   6  106.62    3.71
   1   4  -6  105.59    3.77
   1   4  -6  106.18    3.60
  -1   4   6  103.52    3.80
   0  -4  -6   51.31    2.65
   0  -4   6   50.90    1.87
   0  -4  -6   50.63    2.24
   0  -4   6   53.29    2.35
   0  -4  -6   52.99    1.99
   0   4  -6   52.44    2.00
   0   4   6   51.54    2.18
   0   4  -6   54.82    2.55
   0   4  -6   50.25    2.26
   0   4   6   52.09    2.38
   0   4  -6   58.74    2.70
  -1  -4  -6    6.75    0.90
  -1  -4  -6    9.87    1.23
   1  -4   6    7.69    0.93
  -1  -4  -6    7.55    0.76
  -1   4  -6    7.27    1.09
  -1   4  -6    7.72    1.24
   1   4   6    6.74    0.97
  -1   4  -6    8.36    0.90
   2  -4   6    3.20    0.76
  -2  -4  -6    3.36    0.98
  -2  -4  -6    3.63    0.63
  -2   4  -6    5.26    1.04
  -2   4  -6    3.49    0.60
   2   4   6    3.62    0.69
  -2   4  -6    3.75    0.91
  -3  -4  -6  120.16    4.52
  -3  -4  -6  118.88    4.21
   3  -4   6  126.46    4.20
  -3   4  -6  122.18    4.13
  -3   4  -6  124.10    4.90
  -3   4  -6  126.86    4.49
   3   4   6  125.18    4.32
  -4  -4  -6   65.24    2.62
  -4  -4  -6   58.94    2.87
   4  -4   6   66.30    2.55
  -4   4  -6   67.32    3.45
  -4   4  -6   63.60    2.98
  -4   4  -6   67.56    2.50
   4   4   6   68.43    2.75
  -5  -4  -6   -0.10    0.50
  -5  -4  -6   -0.35    0.62
   5  -4   6    1.08    0.56
  -5   4  -6    0.69    0.52
  -5   4  -6    1.25    0.94
   5   4   6    2.10    0.74
  -5   4  -6    2.18    0.97
  -6  -4  -6    2.78    0.76
   6  -4   6    5.16    0.69
   6   4   6    4.48    0.89
  -6   4  -6    4.67    1.54
  -6   4  -6    3.74    0.72
  -6   4  -6    3.91    1.07
  -8  -5   6   53.27    3.00
   8  -5  -6   46.07    2.43
   8  -5  -6   49.20    2.63
  -8  -5   6   43.35    2.73
   8   5  -6   45.16    2.44
  -8   5   6   47.94    2.51
   8   5  -6   56.90    3.16
  -8   5   6   54.80    2.66
  -7  -5   6    0.40    1.02
  -7  -5   6    0.12    0.77
   7  -5  -6    0.54    0.71
   7  -5  -6    1.73    0.81
   7   5  -6    1.86    1.03
  -7   5   6    1.31    1.25
  -7   5   6   -0.47    0.73
   7   5  -6    1.47    0.89
  -7   5   6    0.27    0.97
   6  -5  -6   25.23    1.81
  -6  -5   6   26.50    1.99
   6  -5  -6   25.11    2.08
  -6  -5   6   23.86    1.89
  -6  -5   6   20.67    1.63
   6   5  -6   22.42    1.88
  -6   5   6   26.07    2.33
   6   5  -6   26.99    1.79
   6   5  -6   26.69    1.87
  -6   5   6   24.15    1.61
  -6   5   6   27.29    1.98
  -5  -5   6    1.35    0.93
   5  -5  -6    0.25    0.70
   5  -5  -6    0.74    0.73
  -5  -5   6    1.77    0.68
  -5  -5   6    0.59    0.63
   5   5  -6    0.99    0.61
   5   5  -6    0.83    0.71
   5   5  -6    0.52    0.64
  -5   5   6   -0.10    0.60
   5   5  -6    1.36    0.97
  -5   5   6    1.38    0.73
  -5   5   6    0.82    0.81
  -4  -5   6  100.26    3.69
   4  -5  -6   96.69    3.90
  -4  -5   6  100.26    3.83
   4  -5  -6  101.70    3.96
  -4  -5   6   95.23    3.66
  -4   5   6  103.33    3.87
  -4   5   6   98.17    4.22
   4   5  -6   92.93    3.81
   4   5  -6  100.04    3.86
   4   5  -6  102.59    3.89
  -4   5   6   99.51    3.85
   4   5  -6   97.90    3.85
  -3  -5   6   19.88    1.53
   3  -5  -6   18.95    1.73
   3  -5  -6   22.65    1.82
  -3  -5   6   19.94    1.54
  -3  -5   6   22.14    1.84
  -3   5   6   22.92    1.49
  -3   5   6   23.88    2.09
   3   5  -6   18.12    1.43
  -3   5   6   17.71    1.43
   3   5  -6   22.37    1.72
   3   5  -6   19.20    1.41
   3   5  -6   16.65    1.59
  -2  -5   6    7.37    1.15
  -2  -5   6    9.89    1.03
   2  -5  -6    9.71    1.21
   2  -5  -6    8.69    1.17
  -2  -5   6    9.14    0.97
   2   5  -6    8.17    1.18
  -2   5   6   10.03    1.23
   2   5  -6   11.55    1.24
   2   5  -6    8.58    1.05
  -2   5   6   11.45    1.20
   2   5  -6    9.77    1.31
  -1  -5   6    5.69    1.09
   1  -5  -6    4.03    0.94
  -1  -5   6    6.11    0.73
   1  -5  -6    5.80    1.02
   1   5  -6    4.69    1.08
  -1   5   6    6.33    1.07
   1   5  -6    7.43    0.91
   1   5  -6    4.36    0.97
   1   5  -6    7.49    1.20
  -1   5   6    7.32    0.88
   0  -5   6   37.42    2.06
   0  -5  -6   35.50    1.97
   0  -5  -6   33.38    2.36
   0   5  -6   35.57    1.99
   0   5  -6   39.63    2.31
   0   5   6   32.14    1.87
   0   5  -6   38.07    2.34
   1  -5   6   23.51    1.50
  -1  -5  -6   25.89    1.71
  -1  -5  -6   24.32    2.10
  -1   5  -6   25.63    2.11
  -1   5  -6   22.25    1.91
   1   5   6   27.90    1.87
  -1   5  -6   23.24    1.61
   2  -5   6    7.18    0.88
  -2  -5  -6    6.86    1.01
  -2  -5  -6    7.81    1.31
  -2   5  -6    8.92    1.04
   2   5   6    9.13    1.18
  -2   5  -6    7.73    1.07
  -2   5  -6    7.80    1.23
  -3  -5  -6    8.39    1.28
   3  -5   6    8.32    1.02
  -3  -5  -6    8.06    1.07
  -3   5  -6    6.15    1.27
  -3   5  -6    7.61    0.86
   3   5   6    8.51    1.16
  -3   5  -6    6.63    1.46
  -4  -5  -6   51.85    2.68
  -4  -5  -6   47.87    2.23
   4  -5   6   50.90    2.31
  -4   5  -6   45.95    2.73
  -4   5  -6   51.18    2.26
   4   5   6   52.53    2.56
  -4   5  -6   48.37    2.84
  -5  -5  -6    9.13    1.12
  -5  -5  -6    7.50    1.05
   5  -5   6    9.59    1.07
  -5   5  -6    9.78    1.03
  -5   5  -6   11.37    1.86
   5   5   6    9.10    1.21
  -5   5  -6    9.15    1.46
  -7  -6   6   15.80    1.64
  -7  -6   6   16.71    1.79
   7  -6  -6   17.99    1.79
   7  -6  -6   15.59    1.78
   7   6  -6   16.33    1.57
   7   6  -6   16.57    1.66
  -7   6   6   15.29    1.67
  -7   6   6   16.25    1.99
   6  -6  -6    9.99    1.28
  -6  -6   6    8.42    1.38
  -6  -6   6    7.75    1.36
   6  -6  -6    8.91    1.49
  -6  -6   6    4.49    1.28
  -6   6   6    8.25    1.58
  -6   6   6   10.77    1.46
   6   6  -6    9.66    1.29
   6   6  -6    7.06    1.38
  -5  -6   6   56.85    2.63
   5  -6  -6   54.56    3.05
   5  -6  -6   48.14    2.61
  -5  -6   6   54.34    2.69
  -5  -6   6   50.50    2.72
   5   6  -6   53.42    2.63
  -5   6   6   58.22    2.88
   5   6  -6   50.22    2.80
   5   6  -6   52.38    2.91
   5   6  -6   48.30    2.62
  -5   6   6   53.69    2.54
  -5   6   6   54.04    2.95
  -4  -6   6    2.09    0.96
  -4  -6   6    2.08    0.76
   4  -6  -6    3.34    0.99
   4  -6  -6    3.12    1.16
  -4  -6   6    2.13    0.83
  -4   6   6    3.23    0.89
   4   6  -6    4.19    1.01
  -4   6   6    3.52    1.06
  -4   6   6    2.21    1.23
   4   6  -6    3.82    1.12
   4   6  -6    3.20    0.93
   4   6  -6    2.98    1.09
   3  -6  -6    5.36    1.18
  -3  -6   6    4.77    1.01
  -3  -6   6    3.53    0.91
   3  -6  -6    6.11    1.38
  -3  -6   6    4.64    1.15
   3   6  -6    3.85    0.99
   3   6  -6    3.77    1.19
   3   6  -6    6.14    0.98
  -3   6   6    3.91    0.88
  -3   6   6    5.08    1.17
  -3   6   6    3.57    1.34
   3   6  -6    4.10    0.82
  -2  -6   6    0.07    0.66
   2  -6  -6   -0.13    0.86
  -2  -6   6    0.55    0.69
   2   6  -6   -0.32    0.54
   2   6  -6    1.06    0.79
  -2   6   6    1.48    0.72
   2   6  -6    0.46    0.87
  -2   6   6    0.01    0.97
   2   6  -6   -0.26    0.90
   1  -6  -6   26.84    1.74
  -1  -6   6   26.04    2.05
   1   6  -6   28.63    2.23
   1   6  -6   30.63    2.16
  -1   6   6   25.42    2.05
   1   6  -6   27.44    2.00
  -1   6   6   33.08    2.09
   0  -6  -6    0.68    1.12
   0  -6   6    0.02    0.63
   0   6  -6   -0.51    0.99
   0   6  -6    0.37    1.02
   0   6   6    0.53    0.71
   0   6  -6    0.07    0.60
  -1  -6  -6    2.86    0.99
   1  -6   6    3.91    1.02
  -1  -6  -6    3.75    1.06
   1   6   6    3.11    0.89
  -1   6  -6    3.33    0.98
  -1   6  -6    4.45    1.27
  -1   6  -6    4.27    1.03
   2  -6   6   -0.28    0.86
  -2  -6  -6   -0.33    0.72
  -2  -6  -6    0.30    0.61
  -2   6  -6    1.36    0.89
  -2   6  -6    0.36    0.80
  -2   6  -6   -0.55    1.11
   2   6   6   -0.78    0.62
  -3  -6  -6   17.69    1.56
   3  -6   6   17.86    1.46
  -3  -6  -6   18.65    1.84
   3   6   6   20.57    1.71
  -3   6  -6   18.00    1.51
  -3   6  -6   17.75    1.87
  -3   6  -6   19.95    2.13
   4  -6   6    0.49    0.88
  -4  -6  -6    0.55    0.66
  -4  -6  -6    0.19    0.68
  -4   6  -6    1.49    1.39
   4   6   6    1.80    0.79
  -4   6  -6    1.19    0.90
  -4   6  -6    0.52    0.81
   5  -7  -6    0.35    1.17
  -5  -7   6    1.23    0.83
  -5  -7   6    0.44    1.12
   5  -7  -6    0.13    0.88
  -5  -7   6    0.95    0.80
  -5   7   6    0.00    0.77
  -5   7   6    1.00    1.30
   5   7  -6    1.22    1.17
   5   7  -6    0.99    0.87
   5   7  -6    1.31    1.17
   4  -7  -6   33.43    2.18
  -4  -7   6   31.01    2.22
  -4  -7   6   29.00    2.45
   4  -7  -6   29.91    2.68
  -4  -7   6   33.10    2.26
  -4   7   6   31.08    2.05
   4   7  -6   28.49    2.38
  -4   7   6   35.75    2.79
   4   7  -6   34.72    2.56
  -4   7   6   34.06    2.41
   4   7  -6   30.79    2.11
   4   7  -6   32.36    2.55
  -3  -7   6    0.77    0.80
   3  -7  -6    1.15    0.81
  -3  -7   6   -0.59    0.54
  -3   7   6    1.72    0.84
   3   7  -6   -0.87    0.82
  -3   7   6    0.48    1.03
   3   7  -6    0.54    1.04
   3   7  -6    0.26    0.83
  -3   7   6   -0.67    1.24
   3   7  -6    0.26    1.07
   2  -7  -6    0.95    0.74
  -2  -7   6    0.60    1.07
   2   7  -6    0.16    1.07
   2   7  -6    1.58    0.89
  -2   7   6    0.30    1.00
  -2   7   6    0.37    1.08
   2   7  -6    0.74    0.96
  -1  -7   6   -0.62    1.05
   1  -7  -6   -1.01    0.89
  -1   7   6   -0.32    0.73
   1   7  -6   -0.08    1.03
   1   7  -6    0.70    1.03
   1   7  -6   -0.79    1.13
   0  -7   6   36.75    2.54
   0   7   6   41.15    2.65
   0   7  -6   41.37    2.67
   0   7  -6   36.46    2.42
   0   7  -6   37.24    2.70
  -1  -7  -6    1.17    1.14
  -1  -7  -6    5.25    1.51
   1  -7   6    0.50    1.05
  -1   7  -6    2.57    1.10
  -1   7  -6    4.21    1.11
  -1   7  -6    2.11    1.29
   1   7   6    3.24    1.28
   2  -7   6   11.12    1.51
  -2  -7  -6   10.58    1.49
  -2  -7  -6   14.04    1.89
   2   7   6   11.85    1.41
  -2   7  -6   12.53    1.48
  -2   7  -6   12.37    1.59
  -2   7  -6   14.12    1.88
  10   0  -7   -0.16    1.01
 -10   0   7    0.59    1.14
 -10   0   7    0.70    0.97
  -9   0   7   30.54    2.31
   9   0  -7   32.70    2.30
  -9   0   7   32.46    2.10
  -8   0   7    0.06    0.86
  -8   0   7    0.03    0.93
   8   0  -7    0.16    0.59
  -8   0   7   -0.13    0.56
  -7   0   7  157.24    5.43
  -7   0   7  149.78    5.26
  -7   0   7  153.93    5.23
   7   0  -7  154.05    5.37
   7   0  -7  158.44    5.22
  -6   0   7   -0.17    0.78
   6   0  -7    0.11    0.82
   6   0  -7    0.29    0.50
   6   0  -7    1.06    0.72
  -6   0   7    0.66    0.74
  -6   0   7    0.74    0.55
   5   0  -7    1.17    0.71
  -5   0   7    1.40    0.55
  -5   0   7    0.88    0.77
   5   0  -7   -0.58    0.69
  -5   0   7    0.08    0.74
   5   0  -7    0.44    0.72
  -4   0   7    0.37    0.49
  -4   0   7    0.00    0.44
   4   0  -7   -0.57    0.64
   4   0  -7    0.25    0.48
   4   0  -7   -0.38    0.68
  -4   0   7   -0.32    0.68
  -3   0   7  343.18   10.35
   3   0  -7  348.09   10.56
   3   0  -7  358.91   10.44
  -3   0   7  335.89   10.64
  -3   0   7  354.35   10.38
  -3   0   7  342.59   10.45
   3   0  -7  338.04   10.38
  -2   0   7    0.97    0.49
   2   0  -7    0.23    0.57
  -2   0   7   -1.03    0.63
   2   0  -7    0.17    0.50
   2   0  -7   -0.56    0.71
   2   0  -7    0.27    0.50
  -2   0   7    0.61    0.60
  -2   0   7    0.11    0.37
  -1   0   7   99.76    3.34
  -1   0   7   98.98    3.26
   1   0  -7   97.26    3.40
  -1   0   7  108.45    3.66
   1   0  -7   98.10    3.62
  -1   0   7  103.50    3.47
   1   0  -7  102.00    3.73
   0   0  -7   -0.49    0.42
   0   0  -7   -0.99    0.44
   0   0   7   -0.54    0.34
   0   0   7   -0.29    0.48
   0   0   7    0.36    0.54
   0   0  -7   -0.67    0.62
  -1   0  -7  121.39    4.23
   1   0   7  122.20    3.94
  -1   0  -7  123.50    3.98
  -1   0  -7  121.80    4.27
   1   0   7  126.05    4.15
  -2   0  -7    0.99    0.44
  -2   0  -7    0.14    0.69
  -2   0  -7    0.15    0.44
   2   0   7    0.08    0.37
  -3   0  -7   77.52    3.25
  -3   0  -7   84.02    2.85
   3   0   7   91.70    2.81
   4   0   7    0.04    0.33
  -4   0  -7   -0.07    0.81
  -5   0  -7   -0.56    0.87
   5   0   7    0.02    0.34
  -6   0  -7   -0.17    0.66
   6   0   7    0.35    0.30
  -7   0  -7    9.91    1.49
 -10  -1   7    7.97    1.29
 -10  -1   7    7.91    1.42
  10  -1  -7    6.80    1.08
 -10   1   7    6.70    1.06
 -10   1   7    6.42    1.14
  10   1  -7    7.08    1.32
  -9  -1   7    1.80    0.86
   9  -1  -7    1.63    0.76
  -9  -1   7    3.01    0.79
  -9   1   7    0.45    0.74
   9   1  -7    0.31    0.76
  -9   1   7    1.13    0.69
  -8  -1   7   50.25    2.52
  -8  -1   7   43.94    2.66
   8  -1  -7   48.66    2.59
  -8  -1   7   50.84    2.69
   8  -1  -7   48.69    2.31
  -8   1   7   52.51    2.69
   8   1  -7   54.85    2.50
  -8   1   7   54.55    2.41
  -7  -1   7   91.25    3.64
   7  -1  -7   95.87    3.76
   7  -1  -7   98.56    3.49
  -7  -1   7   95.51    3.53
   7  -1  -7  100.67    3.62
  -7  -1   7   92.47    3.66
   7   1  -7  100.68    3.61
  -7   1   7   91.54    3.64
  -7   1   7   97.48    3.69
  -7   1   7   93.37    3.50
   7   1  -7   94.45    3.64
  -6  -1   7   68.80    2.77
   6  -1  -7   68.80    2.98
  -6  -1   7   71.51    2.81
   6  -1  -7   74.97    2.82
  -6  -1   7   70.39    2.99
   6  -1  -7   72.04    2.84
   6   1  -7   63.00    2.94
  -6   1   7   69.78    2.77
  -6   1   7   72.20    3.01
   6   1  -7   71.18    2.88
  -6   1   7   68.94    2.89
   5  -1  -7    8.16    1.10
  -5  -1   7   10.21    0.99
   5  -1  -7   10.87    1.09
  -5  -1   7   10.19    0.95
   5  -1  -7    8.93    0.89
  -5  -1   7    8.13    0.92
  -5   1   7   12.21    1.17
   5   1  -7    9.87    1.05
   5   1  -7    9.36    1.12
  -5   1   7    9.45    1.07
  -5   1   7    8.53    0.93
  -4  -1   7   73.66    2.96
  -4  -1   7   74.13    2.88
  -4  -1   7   73.98    2.84
   4  -1  -7   73.25    2.95
   4  -1  -7   79.50    2.91
   4  -1  -7   79.10    3.05
  -4   1   7   71.27    2.90
  -4   1   7   72.22    2.78
   4   1  -7   77.62    2.85
   4   1  -7   74.65    2.83
  -4   1   7   75.61    2.84
  -4   1   7   76.96    3.27
   3  -1  -7   13.07    1.10
  -3  -1   7   13.59    1.09
  -3  -1   7   13.81    1.04
   3  -1  -7   15.53    1.22
   3  -1  -7   14.01    1.21
  -3  -1   7   13.87    1.12
  -3   1   7   12.97    0.96
   3   1  -7   13.12    1.32
  -3   1   7   11.07    1.12
  -3   1   7   12.17    1.00
   3   1  -7   12.03    1.08
  -3   1   7   13.22    1.14
   2  -1  -7    4.54    0.90
  -2  -1   7    4.90    0.66
   2  -1  -7    5.90    0.76
  -2  -1   7    4.67    0.81
  -2  -1   7    5.10    0.57
   2  -1  -7    4.79    0.63
  -2   1   7    4.17    0.56
   2   1  -7    5.11    0.79
  -2   1   7    3.91    0.77
  -2   1   7    4.46    0.64
   2   1  -7    4.67    0.78
  -1  -1   7   13.22    0.74
   1  -1  -7   13.95    1.18
   1  -1  -7   14.45    1.27
   1  -1  -7   13.95    0.99
  -1  -1   7   12.18    1.09
  -1  -1   7   13.54    1.06
  -1  -1   7   13.21    0.90
  -1   1   7   12.07    1.09
   1   1  -7   13.97    1.12
  -1   1   7   13.01    0.92
  -1   1   7   13.52    1.04
   1   1  -7   18.99    1.49
   1   1  -7   12.28    1.10
   0  -1  -7  187.62    6.13
   0  -1  -7  189.66    6.22
   0  -1   7  187.44    5.71
   0  -1   7  192.43    5.98
   0  -1   7  190.05    5.94
   0  -1  -7  191.61    5.72
   0   1  -7  193.00    5.92
   0   1  -7  189.70    6.24
   0   1   7  196.32    5.95
   0   1  -7  189.50    5.64
   0   1  -7  190.04    6.02
   1  -1   7   -1.01    0.43
   1  -1   7   -0.08    0.20
  -1  -1  -7    0.45    0.62
  -1  -1  -7   -0.53    0.67
   1  -1   7   -0.20    0.37
  -1   1  -7    0.14    0.43
  -1   1  -7   -0.01    0.51
  -1   1  -7   -0.52    0.50
   1   1   7    0.46    0.35
   2  -1   7    3.70    0.54
   2  -1   7    3.62    0.57
  -2  -1  -7    2.60    0.72
  -2  -1  -7    2.77    0.42
  -2  -1  -7    3.04    0.81
   2   1   7    3.08    0.54
  -2   1  -7    3.30    0.49
  -2   1  -7    3.33    0.63
  -2   1  -7    1.78    0.87
   3  -1   7   13.65    0.85
  -3  -1  -7   15.30    1.35
  -3  -1  -7   14.87    1.33
   3  -1   7   15.11    0.97
  -3   1  -7   12.08    0.86
  -3   1  -7   15.55    1.48
   3   1   7   16.08    0.93
  -3   1  -7   15.36    1.08
  -4  -1  -7   35.60    1.87
   4  -1   7   37.08    1.42
  -4  -1  -7   33.61    1.83
  -4   1  -7   35.24    1.63
  -4   1  -7   35.87    1.38
   4   1   7   36.16    1.51
  -4   1  -7   41.41    2.37
   5  -1   7    2.08    0.35
  -5  -1  -7    1.89    0.84
   5   1   7    2.60    0.48
  -5   1  -7    2.97    0.90
  -5   1  -7    1.70    0.38
  -6  -1  -7    1.86    0.42
  -6  -1  -7    4.19    1.03
   6   1   7    2.64    0.47
  -6   1  -7    2.25    0.35
  -6   1  -7    2.60    1.19
  -7  -1  -7   17.78    1.61
  -7  -1  -7   18.11    0.97
  -7   1  -7   20.77    2.04
 -10  -2   7   41.00    2.52
 -10  -2   7   43.81    2.59
  10  -2  -7   42.80    2.68
 -10   2   7   41.56    2.43
 -10   2   7   39.01    2.45
   9  -2  -7   40.90    2.28
  -9  -2   7   39.29    2.59
   9  -2  -7   38.14    2.07
  -9  -2   7   41.53    2.40
  -9   2   7   38.84    2.14
  -9   2   7   43.70    2.57
   8  -2  -7    3.58    0.86
   8  -2  -7    3.70    0.85
  -8  -2   7    3.88    1.15
  -8  -2   7    3.23    1.03
  -8   2   7    2.42    0.75
  -8   2   7    2.72    0.84
  -7  -2   7   19.76    1.47
  -7  -2   7   20.16    1.65
   7  -2  -7   21.59    1.71
   7  -2  -7   21.28    1.65
   7  -2  -7   22.47    1.58
  -7  -2   7   23.87    1.87
   7   2  -7   23.57    1.62
  -7   2   7   22.39    1.71
  -7   2   7   21.38    1.61
  -7   2   7   21.34    1.71
  -6  -2   7   36.25    2.07
  -6  -2   7   32.03    1.76
   6  -2  -7   32.59    1.80
  -6  -2   7   29.88    1.89
   6  -2  -7   33.24    1.96
   6  -2  -7   32.33    1.67
  -6   2   7   30.05    1.99
  -6   2   7   30.88    1.92
   6   2  -7   32.12    1.90
  -6   2   7   31.74    1.91
  -5  -2   7   43.89    2.03
  -5  -2   7   49.62    2.33
   5  -2  -7   45.60    2.30
   5  -2  -7   46.26    2.17
  -5  -2   7   49.00    2.28
   5  -2  -7   46.20    2.16
   5   2  -7   45.63    2.10
  -5   2   7   49.65    2.18
  -5   2   7   44.62    2.07
  -5   2   7   45.41    2.43
  -5   2   7   43.86    2.19
  -4  -2   7   46.36    2.07
  -4  -2   7   41.26    1.93
  -4  -2   7   45.95    2.23
   4  -2  -7   47.11    2.15
   4  -2  -7   46.66    2.07
   4  -2  -7   39.80    1.92
   4   2  -7   48.97    2.30
   4   2  -7   42.41    2.01
  -4   2   7   48.91    2.15
  -4   2   7   44.77    2.19
  -4   2   7   46.15    2.53
  -3  -2   7    1.30    0.45
  -3  -2   7    2.60    0.65
   3  -2  -7    3.38    0.87
  -3  -2   7    0.96    0.76
  -3   2   7    3.64    0.80
   3   2  -7    1.76    0.81
  -3   2   7    2.12    0.72
  -3   2   7    1.97    0.69
   3   2  -7    0.04    0.72
   3   2  -7    1.94    0.87
  -2  -2   7   65.25    2.42
   2  -2  -7   69.00    2.67
  -2  -2   7   73.34    2.77
  -2  -2   7   68.96    2.49
   2  -2  -7   72.59    2.82
   2   2  -7   71.00    2.71
  -2   2   7   66.36    2.85
   2   2  -7   63.40    2.67
   2   2  -7   69.27    2.97
  -2   2   7   66.28    2.69
  -2   2   7   70.41    2.60
   1  -2  -7   40.02    1.88
   1  -2  -7   33.73    2.04
   1  -2  -7   36.08    1.69
  -1  -2   7   37.87    1.46
  -1  -2   7   37.20    1.49
  -1  -2   7   34.95    1.81
   1   2  -7   38.26    1.80
  -1   2   7   37.69    1.81
   1   2  -7   36.34    2.10
  -1   2   7   36.51    1.55
   1   2  -7   38.14    1.79
   0  -2  -7    4.12    0.61
   0  -2  -7    2.91    0.70
   0  -2   7    3.26    0.42
   0  -2   7    4.45    0.64
   0  -2  -7    3.99    0.55
   0   2   7    4.62    0.55
   0   2   7    3.45    0.72
   0   2  -7    2.89    0.94
   0   2  -7    4.22    0.71
   0   2  -7    3.46    0.77
   0   2  -7    3.82    0.40
   1  -2   7   53.65    2.18
  -1  -2  -7   53.55    2.38
  -1  -2  -7   56.67    2.18
   1  -2   7   54.96    1.68
   1   2   7   58.32    2.21
  -1   2  -7   52.38    2.48
  -1   2  -7   53.92    2.14
  -1   2  -7   53.38    2.32
   2  -2   7   29.10    1.40
  -2  -2  -7   26.60    1.48
  -2  -2  -7   28.79    1.18
  -2  -2  -7   27.94    1.84
  -2   2  -7   27.76    1.47
   2   2   7   27.56    1.44
  -2   2  -7   27.01    2.01
  -2   2  -7   29.66    1.37
   3  -2   7    1.10    0.43
  -3  -2  -7    1.69    0.61
  -3  -2  -7    0.52    0.70
  -3  -2  -7    1.49    0.57
  -3   2  -7    1.11    0.65
  -3   2  -7    1.21    0.44
   3   2   7    1.59    0.53
  -3   2  -7    2.40    1.02
  -4  -2  -7    5.71    0.89
  -4  -2  -7    3.77    0.57
   4  -2   7    4.77    0.59
  -4  -2  -7    5.68    0.81
  -4   2  -7    4.68    0.79
   4   2   7    4.63    0.64
  -4   2  -7    4.04    0.97
  -4   2  -7    3.74    0.51
  -5  -2  -7   25.95    1.64
  -5  -2  -7   24.29    1.29
   5  -2   7   25.36    1.18
   5   2   7   26.17    1.31
  -5   2  -7   24.67    1.98
  -5   2  -7   24.37    1.14
  -5   2  -7   25.44    1.55
  -6  -2  -7   24.01    1.27
   6  -2   7   24.76    1.12
   6   2   7   23.41    1.35
  -6   2  -7   24.69    1.06
  -6   2  -7   23.73    2.04
 -10  -3   7    0.90    1.13
 -10  -3   7    0.32    1.23
  10  -3  -7    1.81    1.14
 -10   3   7    0.18    1.17
  10   3  -7    1.61    0.83
 -10   3   7    1.64    1.08
   9  -3  -7   19.38    1.61
  -9  -3   7   16.28    1.76
   9  -3  -7   15.64    1.41
  -9  -3   7   17.67    1.70
  -9   3   7   15.55    1.53
   9   3  -7   18.32    1.75
  -9   3   7   14.35    1.37
  -8  -3   7   64.60    3.07
   8  -3  -7   69.78    2.85
  -8  -3   7   68.18    3.25
   8  -3  -7   64.00    3.16
  -8   3   7   60.69    2.96
  -8   3   7   66.15    3.04
   8   3  -7   71.28    3.21
  -7  -3   7    1.17    0.85
  -7  -3   7    1.97    0.72
  -7  -3   7    3.18    0.81
   7  -3  -7    2.15    1.05
   7  -3  -7    1.92    0.91
  -7   3   7    2.50    0.96
  -7   3   7    2.42    1.03
   7   3  -7    3.18    0.86
  -7   3   7    2.20    0.67
   7   3  -7    0.94    0.61
   6  -3  -7    5.87    0.97
  -6  -3   7    4.06    1.02
  -6  -3   7    4.13    0.82
   6  -3  -7    4.71    0.88
   6  -3  -7    3.70    0.77
  -6  -3   7    3.89    1.04
   6   3  -7    3.91    0.86
  -6   3   7    3.65    0.76
  -6   3   7    3.82    1.05
  -6   3   7    3.96    0.77
   6   3  -7    3.02    1.11
  -6   3   7    4.44    1.04
   6   3  -7    4.75    0.81
  -5  -3   7  103.40    3.93
   5  -3  -7  116.41    4.11
   5  -3  -7  102.24    3.86
  -5  -3   7  104.19    3.91
   5  -3  -7  104.53    4.06
  -5  -3   7  108.26    4.04
  -5   3   7  107.91    3.96
   5   3  -7  107.62    3.87
  -5   3   7  101.70    4.35
  -5   3   7  106.42    3.93
   5   3  -7  111.03    4.12
   5   3  -7  106.18    4.00
   4  -3  -7   67.11    2.95
  -4  -3   7   76.09    3.04
   4  -3  -7   81.59    3.30
  -4  -3   7   76.69    3.00
  -4  -3   7   80.87    3.02
  -4   3   7   80.14    3.13
   4   3  -7   76.04    3.22
   4   3  -7   76.24    3.17
   4   3  -7   71.97    3.07
  -4   3   7   75.43    3.47
  -4   3   7   83.33    3.09
  -3  -3   7   51.45    2.16
   3  -3  -7   52.15    2.39
   3  -3  -7   50.81    2.37
  -3  -3   7   49.52    2.41
  -3  -3   7   51.89    2.09
   3   3  -7   53.03    2.58
  -3   3   7   47.44    2.45
   3   3  -7   48.17    2.21
   3   3  -7   50.78    2.48
  -3   3   7   51.75    2.23
  -3   3   7   52.19    2.16
  -2  -3   7    7.09    0.86
  -2  -3   7    5.82    0.70
  -2  -3   7    6.08    0.75
   2  -3  -7    6.12    0.91
   2  -3  -7    8.27    0.99
  -2   3   7    5.53    1.16
   2   3  -7    6.21    1.04
   2   3  -7    6.75    0.80
   2   3  -7    5.83    0.92
  -2   3   7    6.10    0.89
  -2   3   7    5.51    0.92
  -1  -3   7   75.54    2.48
   1  -3  -7   70.09    2.94
  -1  -3   7   72.99    2.52
   1  -3  -7   68.87    2.73
  -1  -3   7   74.38    2.88
   1  -3  -7   67.87    2.64
  -1   3   7   71.53    2.68
   1   3  -7   71.62    2.97
   1   3  -7   71.37    2.82
   1   3  -7   69.50    3.12
   1   3  -7   71.31    2.55
  -1   3   7   69.46    2.82
   0  -3   7   86.92    3.29
   0  -3  -7   88.73    3.58
   0  -3   7   90.46    2.85
   0  -3  -7   93.43    3.15
   0   3   7   81.73    3.25
   0   3  -7   93.93    3.48
   0   3  -7   88.54    3.66
   0   3  -7   91.08    3.20
  -1  -3  -7  141.56    5.06
  -1  -3  -7  141.52    4.62
   1  -3   7  138.94    4.72
  -1   3  -7  145.52    4.70
   1   3   7  147.64    4.77
  -1   3  -7  142.17    4.87
  -1   3  -7  139.59    5.10
  -2  -3  -7    5.47    0.67
  -2  -3  -7    5.44    0.63
   2  -3   7    5.06    0.76
  -2  -3  -7    5.83    0.88
  -2   3  -7    4.88    1.19
   2   3   7    4.86    0.69
  -2   3  -7    4.17    0.70
  -2   3  -7    5.82    0.99
  -3  -3  -7    3.33    0.75
   3  -3   7    3.47    0.64
  -3  -3  -7    4.06    0.69
   3   3   7    3.35    0.74
  -3   3  -7    4.76    1.25
  -3   3  -7    3.76    0.65
  -3   3  -7    4.01    0.89
   4  -3   7   60.42    2.36
  -4  -3  -7   52.25    2.70
  -4  -3  -7   66.88    2.42
   4   3   7   56.60    2.44
  -4   3  -7   63.35    3.31
  -4   3  -7   68.40    2.80
  -4   3  -7   59.72    2.30
   5  -3   7   46.72    1.83
  -5  -3  -7   42.24    1.91
   5   3   7   45.85    2.04
  -5   3  -7   44.63    2.30
  -5   3  -7   42.42    2.94
  -5   3  -7   45.35    1.83
  -6  -3  -7    1.27    0.57
   6  -3   7    0.21    0.39
  -6   3  -7    1.29    0.48
  -6   3  -7    2.60    1.42
   6   3   7    1.45    0.63
   9  -4  -7    0.80    0.87
  -9  -4   7    0.94    0.82
  -9  -4   7    0.67    0.85
   9  -4  -7    1.97    1.20
  -9   4   7    1.24    1.19
  -9   4   7   -0.05    1.03
   9   4  -7    0.12    1.02
  -8  -4   7   27.29    2.17
  -8  -4   7   28.86    2.20
   8  -4  -7   26.55    1.95
   8  -4  -7   28.43    2.04
  -8   4   7   26.89    1.83
   8   4  -7   24.63    2.22
  -8   4   7   25.66    2.08
   8   4  -7   26.32    2.18
   7  -4  -7   47.59    2.55
  -7  -4   7   46.43    2.33
  -7  -4   7   44.41    2.48
   7  -4  -7   41.34    2.36
  -7  -4   7   45.05    2.63
  -7   4   7   42.21    2.66
   7   4  -7   47.14    2.44
   7   4  -7   42.33    2.36
  -7   4   7   45.96    2.39
  -7   4   7   43.80    2.28
   6  -4  -7   32.65    1.98
   6  -4  -7   33.05    2.25
  -6  -4   7   32.44    2.15
  -6  -4   7   35.46    1.92
   6  -4  -7   31.73    2.18
  -6  -4   7   32.11    1.93
   6   4  -7   32.68    2.22
   6   4  -7   37.91    2.14
  -6   4   7   32.83    2.56
  -6   4   7   33.75    1.89
  -6   4   7   27.89    2.02
   6   4  -7   32.72    2.25
  -5  -4   7    8.90    1.18
  -5  -4   7    9.14    1.20
   5  -4  -7    9.57    1.03
   5  -4  -7   11.21    1.17
  -5  -4   7    8.30    1.11
   5  -4  -7    8.42    1.28
  -5   4   7   10.44    1.24
   5   4  -7   10.31    1.34
  -5   4   7    7.80    1.48
   5   4  -7   10.20    1.35
   5   4  -7    8.72    1.22
  -5   4   7   10.91    1.28
  -4  -4   7   23.80    1.88
   4  -4  -7   26.83    2.03
   4  -4  -7   26.14    1.89
  -4  -4   7   24.20    1.66
  -4   4   7   26.04    1.78
   4   4  -7   23.70    1.67
  -4   4   7   17.84    1.48
   4   4  -7   24.39    1.79
   4   4  -7   28.03    1.95
   3  -4  -7   67.84    2.76
  -3  -4   7   61.55    2.89
  -3  -4   7   65.56    2.58
   3  -4  -7   52.10    2.75
  -3  -4   7   72.11    2.68
   3   4  -7   57.74    2.79
   3   4  -7   63.67    2.83
  -3   4   7   67.66    2.89
  -3   4   7   66.24    2.78
   3   4  -7   65.88    2.74
  -3   4   7   74.65    3.31
   3   4  -7   70.24    3.07
   2  -4  -7  131.21    4.78
  -2  -4   7  124.12    4.37
  -2  -4   7  132.23    4.62
  -2  -4   7  134.38    4.37
   2  -4  -7  130.52    4.62
  -2   4   7  134.26    4.67
  -2   4   7  131.50    4.48
   2   4  -7  135.39    4.74
   2   4  -7  133.53    4.64
   2   4  -7  131.54    4.47
   2   4  -7  130.98    4.89
   1  -4  -7  132.11    4.58
   1  -4  -7  135.36    4.89
  -1  -4   7  138.77    4.35
  -1  -4   7  138.94    4.77
   1   4  -7  130.46    4.43
  -1   4   7  138.18    4.76
   1   4  -7  130.82    4.88
  -1   4   7  138.38    4.59
   1   4  -7  135.05    4.69
   1   4  -7  135.20    4.90
   0  -4  -7    0.08    0.92
   0  -4   7    1.49    0.37
   0  -4  -7    1.62    0.56
   0  -4   7    1.34    0.83
   0  -4  -7    1.40    0.46
   0   4  -7    1.48    0.73
   0   4  -7    1.48    0.73
   0   4   7    1.81    0.83
   0   4  -7    0.95    0.66
   1  -4   7   34.66    1.92
  -1  -4  -7   35.33    2.27
  -1   4  -7   35.35    1.95
   1   4   7   37.90    2.01
  -1   4  -7   32.80    2.34
  -1   4  -7   34.13    1.69
  -2  -4  -7   51.88    2.20
  -2  -4  -7   52.67    2.73
   2  -4   7   53.60    2.33
   2   4   7   50.89    2.28
  -2   4  -7   51.89    2.46
  -2   4  -7   53.05    2.26
  -2   4  -7   51.04    2.94
   3  -4   7   61.87    2.51
  -3  -4  -7   57.69    2.51
  -3  -4  -7   61.09    2.90
  -3   4  -7   62.36    2.90
  -3   4  -7   63.21    2.46
  -3   4  -7   56.80    3.01
   3   4   7   58.61    2.51
  -4  -4  -7    8.25    1.21
  -4  -4  -7    7.46    0.96
   4  -4   7   11.31    1.02
  -4   4  -7   12.23    1.40
  -4   4  -7    8.86    1.35
  -4   4  -7    9.45    0.93
   4   4   7   12.48    1.19
  -5  -4  -7   11.70    1.10
   5  -4   7   10.04    0.95
  -5   4  -7    8.20    1.28
  -5   4  -7   10.14    0.93
   5   4   7    8.99    1.08
  -5   4  -7    7.25    1.67
   8  -5  -7    3.04    1.03
   8  -5  -7    3.18    1.14
  -8  -5   7    3.25    1.33
  -8  -5   7    4.58    1.31
   8   5  -7    3.16    1.19
   8   5  -7    4.10    1.17
  -8   5   7    5.76    1.11
  -8   5   7    5.31    1.03
  -7  -5   7    2.13    1.12
   7  -5  -7    5.38    1.08
  -7  -5   7    3.25    1.09
   7  -5  -7    5.11    0.98
  -7  -5   7    2.21    1.17
   7   5  -7    3.79    1.08
  -7   5   7    2.88    0.94
  -7   5   7    4.37    0.96
   7   5  -7    4.05    1.22
  -7   5   7    1.95    1.36
  -6  -5   7   18.69    1.72
  -6  -5   7   20.17    1.77
   6  -5  -7   16.34    1.73
   6  -5  -7   20.38    1.84
  -6  -5   7   19.31    1.72
  -6   5   7   18.39    2.04
   6   5  -7   17.15    1.49
   6   5  -7   17.76    1.66
  -6   5   7   18.80    1.62
  -6   5   7   17.84    1.53
   6   5  -7   19.37    1.77
  -5  -5   7    9.78    1.09
  -5  -5   7    8.18    1.06
  -5  -5   7    7.72    1.33
   5  -5  -7   10.55    1.24
   5  -5  -7    9.41    1.40
   5   5  -7    9.24    1.46
   5   5  -7   11.73    1.21
   5   5  -7    9.82    1.32
  -5   5   7   10.85    1.37
   5   5  -7    9.13    1.34
  -5   5   7    9.03    1.33
  -5   5   7    9.75    1.40
  -4  -5   7   36.78    2.11
   4  -5  -7   38.30    2.36
  -4  -5   7   34.91    2.10
  -4  -5   7   33.99    1.88
   4  -5  -7   36.07    2.49
  -4   5   7   34.86    2.22
   4   5  -7   35.93    2.35
  -4   5   7   37.94    2.61
   4   5  -7   37.12    2.25
   4   5  -7   32.93    2.16
  -4   5   7   36.49    2.18
   4   5  -7   36.18    2.08
   3  -5  -7    1.91    0.98
  -3  -5   7    2.90    0.83
  -3  -5   7    2.19    0.63
   3  -5  -7    2.19    0.90
  -3  -5   7    1.60    0.96
   3   5  -7    2.86    0.99
  -3   5   7    0.86    0.68
   3   5  -7    2.01    0.71
  -3   5   7    2.20    0.93
   3   5  -7    1.55    0.80
  -3   5   7    4.38    1.24
   3   5  -7    2.48    0.88
  -2  -5   7    0.02    0.60
   2  -5  -7    1.22    0.78
   2  -5  -7   -0.76    0.80
  -2  -5   7    1.02    0.95
  -2   5   7   -1.10    0.84
  -2   5   7    2.54    0.87
   2   5  -7    0.32    0.93
   2   5  -7    1.60    0.94
   2   5  -7    1.19    0.73
   2   5  -7    0.54    0.71
   1  -5  -7   14.16    1.33
   1  -5  -7   13.97    1.45
  -1  -5   7   11.22    1.33
  -1  -5   7   13.00    0.98
   1   5  -7   13.18    1.37
  -1   5   7   14.96    1.46
   1   5  -7   10.96    1.26
   0  -5  -7   50.17    2.84
   0  -5   7   49.31    2.44
   0   5  -7   43.11    2.46
   0   5   7   45.87    2.27
   0   5  -7   45.60    2.32
   0   5  -7   48.73    2.46
  -1  -5  -7    0.61    0.82
  -1  -5  -7   -0.77    0.96
   1  -5   7    0.62    0.79
  -1   5  -7    0.85    1.04
  -1   5  -7    2.07    1.13
  -1   5  -7    0.35    0.77
   1   5   7   -0.43    0.85
  -2  -5  -7   16.51    1.69
   2  -5   7   15.29    1.36
  -2  -5  -7   15.82    1.38
  -2   5  -7   16.73    1.34
   2   5   7   16.89    1.49
  -2   5  -7   16.34    1.64
  -2   5  -7   15.38    1.83
   3  -5   7   26.23    1.76
  -3  -5  -7   28.25    2.21
  -3  -5  -7   26.51    1.81
  -3   5  -7   27.56    2.16
  -3   5  -7   28.18    1.74
   3   5   7   28.44    1.99
  -3   5  -7   31.26    1.99
   4  -5   7   10.17    1.14
  -4  -5  -7   13.89    1.30
  -4  -5  -7   10.15    1.39
  -4   5  -7   12.41    1.38
  -4   5  -7   16.10    2.03
  -4   5  -7   12.46    1.17
   4   5   7   13.13    1.38
   7  -6  -7   -0.09    1.09
   7  -6  -7   -0.81    0.81
  -7  -6   7    1.03    1.12
  -7  -6   7   -0.63    0.82
  -7   6   7    1.48    1.39
   7   6  -7    0.70    1.23
  -7   6   7    0.41    1.12
   7   6  -7    0.85    0.80
  -6  -6   7    6.83    1.38
  -6  -6   7    6.81    1.38
   6  -6  -7    8.88    1.28
  -6  -6   7   10.61    1.47
   6  -6  -7    8.16    1.27
  -6   6   7    7.11    1.70
   6   6  -7    9.95    1.56
  -6   6   7    5.06    1.30
   6   6  -7    9.27    1.29
   6   6  -7    6.40    1.37
   6   6  -7    5.67    1.19
   5  -6  -7   -0.32    0.78
   5  -6  -7   -1.38    1.04
  -5  -6   7   -0.31    0.64
  -5  -6   7    0.19    0.72
  -5  -6   7    0.26    1.02
   5   6  -7    1.89    1.08
   5   6  -7   -0.31    1.04
   5   6  -7   -0.39    0.84
  -5   6   7    0.28    0.87
   5   6  -7    1.23    1.10
  -5   6   7   -0.09    0.98
  -5   6   7   -0.57    0.98
   4  -6  -7    0.31    1.19
  -4  -6   7   -0.06    0.63
   4  -6  -7    0.29    1.05
  -4  -6   7   -0.53    0.72
  -4  -6   7   -0.75    0.85
  -4   6   7    0.70    0.71
   4   6  -7   -0.32    0.89
  -4   6   7    1.07    1.03
   4   6  -7    0.89    1.05
   4   6  -7    1.65    1.02
   4   6  -7    0.00    1.10
  -4   6   7    0.39    0.86
   3  -6  -7   -0.27    0.98
   3  -6  -7    0.95    0.86
  -3  -6   7   -0.37    1.00
  -3  -6   7    0.48    0.78
   3   6  -7    0.97    1.02
   3   6  -7    0.59    0.94
  -3   6   7    1.00    1.00
   3   6  -7    0.15    1.06
   3   6  -7   -0.33    0.60
  -3   6   7    0.47    0.69
  -3   6   7    0.47    0.89
   2  -6  -7    4.15    1.38
   2  -6  -7    1.58    1.04
  -2  -6   7    2.56    0.87
  -2  -6   7    3.84    0.83
   2   6  -7    3.27    0.86
   2   6  -7    3.01    0.86
   2   6  -7    1.93    1.17
  -2   6   7    4.01    1.29
  -2   6   7    3.48    1.14
  -1  -6   7    2.49    0.84
   1  -6  -7    4.37    1.35
  -1   6   7    4.60    0.94
   1   6  -7    4.49    1.24
   1   6  -7    4.01    0.90
   1   6  -7    2.89    0.96
   0  -6  -7   11.46    1.46
   0  -6   7    8.52    1.29
   0   6   7    9.62    1.22
   0   6  -7   11.35    1.40
   0   6  -7   11.79    1.40
   0   6  -7   10.20    1.36
   1  -6   7    0.85    0.69
  -1  -6  -7    0.53    0.84
   1   6   7    0.00    0.71
  -1   6  -7    0.14    1.17
  -1   6  -7    0.77    0.84
  -1   6  -7   -0.53    0.62
  -2  -6  -7    2.67    0.98
   2  -6   7    1.90    0.73
  -2  -6  -7    3.81    0.85
  -2   6  -7    1.08    0.94
  -2   6  -7    2.57    1.38
  -2   6  -7    5.25    1.38
   2   6   7    4.09    1.14
  -3  -6  -7    2.38    1.04
  -3  -6  -7    1.17    1.17
   3  -6   7    2.83    0.98
  -3   6  -7    2.91    1.29
  -3   6  -7    2.49    1.47
   3   6   7    2.11    1.14
  -3   6  -7    3.94    1.00
  -4  -7   7   13.74    1.48
   4  -7  -7   13.72    1.96
  -4  -7   7   12.99    1.74
   4  -7  -7   15.38    1.80
   4   7  -7   12.35    1.72
   4   7  -7   10.73    1.31
  -4   7   7   15.80    1.73
   4   7  -7   14.14    1.61
  -4   7   7   16.58    1.75
   4   7  -7   13.00    1.56
  -4   7   7   15.66    1.84
  -3  -7   7    5.40    1.06
  -3  -7   7    4.40    1.09
   3  -7  -7    4.45    1.20
   3  -7  -7    5.73    1.37
   3   7  -7    5.52    1.11
   3   7  -7    4.79    1.02
  -3   7   7    4.79    1.26
   3   7  -7    3.07    1.10
  -3   7   7    5.61    1.08
  -2  -7   7   -0.07    0.77
   2  -7  -7    1.57    0.83
   2  -7  -7    0.26    0.93
   2   7  -7    0.88    1.06
  -2   7   7    0.67    1.18
   2   7  -7   -0.70    1.09
   2   7  -7   -1.11    1.17
  -1  -7   7   17.59    1.65
   1  -7  -7   15.89    1.77
   1   7  -7   12.64    1.55
   1   7  -7   18.92    1.92
   1   7  -7   16.94    1.77
  -1   7   7   15.15    1.76
   0  -7  -7   15.01    1.93
   0  -7   7   13.13    1.67
   0   7   7   14.84    1.74
   0   7  -7   14.11    1.65
   0   7  -7   15.25    1.90
   0   7  -7   16.82    1.91
 -10   0   8    0.42    0.75
 -10   0   8   -0.83    1.15
  10   0  -8    0.82    1.15
  -9   0   8    0.73    0.98
   9   0  -8    0.58    1.10
  -9   0   8    0.11    1.06
   8   0  -8   55.07    2.62
  -8   0   8   55.12    2.84
  -8   0   8   52.27    2.50
  -8   0   8   53.80    2.58
  -7   0   8   -0.35    0.52
  -7   0   8   -0.34    0.58
   7   0  -8    0.23    0.63
   7   0  -8   -0.73    0.73
  -7   0   8   -0.22    0.63
  -6   0   8   58.72    2.60
   6   0  -8   58.10    2.80
  -6   0   8   58.88    2.63
   6   0  -8   61.06    2.78
  -6   0   8   67.33    2.62
   6   0  -8   63.62    2.72
   5   0  -8    0.40    0.56
  -5   0   8   -0.30    0.54
   5   0  -8   -0.15    0.75
  -5   0   8    0.49    0.58
  -5   0   8    1.09    0.77
   5   0  -8    0.28    0.56
  -4   0   8   71.95    2.72
   4   0  -8   70.29    2.88
   4   0  -8   71.51    3.09
  -4   0   8   74.26    2.88
   4   0  -8   73.63    2.92
  -4   0   8   66.30    2.80
  -3   0   8   -0.63    0.51
   3   0  -8    0.11    0.49
   3   0  -8    0.29    0.62
  -3   0   8   -0.24    0.71
   3   0  -8    0.03    0.59
   3   0  -8   -0.01    0.88
  -3   0   8   -0.61    0.57
  -3   0   8    0.09    0.64
  -2   0   8   95.08    3.43
   2   0  -8   91.54    3.61
   2   0  -8  103.74    3.83
   2   0  -8   95.38    3.35
  -2   0   8   98.77    3.38
   2   0  -8   99.75    3.49
  -2   0   8   96.82    3.72
  -2   0   8   95.21    3.31
  -1   0   8    0.31    0.49
   1   0  -8   -0.75    0.52
   1   0  -8   -0.26    0.52
  -1   0   8   -0.04    0.66
  -1   0   8   -0.76    0.34
   1   0  -8    1.23    0.60
  -1   0   8    0.52    0.63
   0   0  -8   14.52    1.12
   0   0   8   15.53    1.04
   0   0  -8   16.76    1.20
   0   0   8   15.86    0.99
   0   0  -8   14.77    1.26
   0   0   8   16.97    1.16
   0   0  -8   15.33    1.32
   1   0   8    0.17    0.36
  -1   0  -8   -0.71    0.73
  -1   0  -8   -0.03    0.46
  -1   0  -8    0.08    0.51
   1   0   8   -0.64    0.48
  -1   0  -8   -0.76    0.49
   1   0   8    0.25    0.60
  -2   0  -8   70.33    2.77
   2   0   8   84.73    2.81
  -2   0  -8   85.83    3.35
  -3   0  -8    0.05    0.81
  -3   0  -8   -0.15    0.38
   3   0   8   -0.23    0.38
  -4   0  -8    9.01    1.14
   4   0   8   10.95    0.80
   5   0   8    0.15    0.39
  -5   0  -8   -0.55    0.90
  -6   0  -8    9.88    1.48
 -10  -1   8    1.65    1.08
  10  -1  -8   -1.63    1.01
 -10  -1   8    0.46    1.19
  10   1  -8   -0.35    1.12
 -10   1   8   -0.53    1.16
 -10   1   8    1.15    1.05
  -9  -1   8   12.75    1.40
   9  -1  -8   11.58    1.48
  -9  -1   8   11.82    1.43
   9  -1  -8   10.97    1.19
  -9   1   8   13.12    1.46
  -9   1   8   12.86    1.60
   9   1  -8   11.34    1.33
   8  -1  -8    8.48    1.31
  -8  -1   8    9.01    1.33
   8  -1  -8    8.64    1.12
  -8  -1   8   11.44    1.25
  -8  -1   8    8.82    1.25
  -8   1   8    7.83    1.21
   8   1  -8    6.13    1.24
  -8   1   8    9.38    1.19
  -8   1   8    9.40    1.19
  -7  -1   8    1.19    0.75
  -7  -1   8    0.42    0.86
   7  -1  -8    1.05    0.61
   7  -1  -8    0.09    0.82
  -7  -1   8    0.99    0.86
   7  -1  -8    1.33    0.96
   7   1  -8    1.79    0.86
  -7   1   8    1.57    0.86
   7   1  -8    0.11    0.68
  -7   1   8    1.22    0.72
  -7   1   8    1.54    0.93
  -6  -1   8    2.42    0.71
  -6  -1   8    2.03    0.87
  -6  -1   8    1.81    0.93
   6  -1  -8    2.52    0.97
   6  -1  -8    1.36    0.85
   6  -1  -8    1.34    0.83
  -6   1   8    2.55    0.89
  -6   1   8    0.63    0.91
  -6   1   8    2.16    0.90
   6   1  -8    2.84    0.71
   6   1  -8    1.68    0.93
  -5  -1   8   81.34    3.23
   5  -1  -8   78.62    3.14
   5  -1  -8   80.57    3.33
  -5  -1   8   80.83    3.16
  -5  -1   8   82.31    3.18
   5  -1  -8   85.88    3.23
   5   1  -8   82.31    3.26
  -5   1   8   78.26    3.13
   5   1  -8   81.68    3.24
  -5   1   8   77.29    3.23
  -5   1   8   82.24    3.19
   4  -1  -8    4.82    1.00
  -4  -1   8    5.42    0.86
  -4  -1   8    5.81    0.89
   4  -1  -8    6.43    0.95
  -4  -1   8    6.42    1.04
  -4   1   8    7.77    0.95
  -4   1   8    5.74    0.80
  -4   1   8    6.85    0.87
   4   1  -8    6.12    0.97
   3  -1  -8    3.44    0.93
  -3  -1   8    3.72    0.74
  -3  -1   8    2.23    0.84
  -3  -1   8    3.17    0.58
   3  -1  -8    2.86    0.76
   3  -1  -8    4.53    0.84
   3   1  -8    2.69    0.66
  -3   1   8    3.48    0.81
   3   1  -8    3.28    1.01
  -3   1   8    3.01    0.74
  -3   1   8    4.70    0.75
  -3   1   8    2.53    0.76
  -2  -1   8   31.41    1.50
   2  -1  -8   30.36    1.72
  -2  -1   8   28.94    1.43
   2  -1  -8   29.35    1.50
   2  -1  -8   28.52    1.93
   2  -1  -8   30.59    1.59
  -2  -1   8   31.04    1.77
   2   1  -8   32.45    1.71
   2   1  -8   28.32    1.97
  -2   1   8   24.45    1.87
  -2   1   8   28.90    1.39
  -2   1   8   29.76    1.56
   1  -1  -8   58.55    2.18
  -1  -1   8   61.84    2.45
  -1  -1   8   57.04    2.05
   1  -1  -8   60.98    2.72
  -1  -1   8   57.61    2.42
   1  -1  -8   55.19    2.44
  -1  -1   8   57.14    2.14
   1   1  -8   57.83    2.49
  -1   1   8   56.45    2.61
   1   1  -8   56.53    2.70
  -1   1   8   55.62    2.13
   1   1  -8   54.63    2.33
  -1   1   8   58.94    2.39
   0  -1   8   -0.40    0.42
   0  -1  -8    0.45    0.68
   0  -1   8   -0.10    0.59
   0  -1   8    0.42    0.54
   0  -1  -8   -0.74    0.79
   0   1  -8    0.67    0.60
   0   1   8    0.94    0.61
   0   1  -8   -0.02    0.59
   0   1  -8    0.48    0.64
   0   1   8    0.69    0.55
   1  -1   8   13.47    1.02
  -1  -1  -8   13.49    1.00
  -1  -1  -8   14.19    1.36
   1  -1   8   13.25    1.13
   1  -1   8   12.70    0.73
  -1  -1  -8   14.67    1.37
  -1   1  -8   14.29    1.03
  -1   1  -8   13.44    1.06
   1   1   8   14.03    0.96
  -1   1  -8   12.05    1.24
   2  -1   8  110.60    3.69
  -2  -1  -8  107.41    4.13
  -2  -1  -8  111.84    4.08
  -2  -1  -8  111.58    3.61
   2  -1   8  112.87    3.71
  -2   1  -8  108.17    3.65
  -2   1  -8  115.68    4.34
   2   1   8  110.46    3.70
  -2   1  -8  112.27    3.84
   3  -1   8   21.60    1.16
  -3   1  -8   20.68    1.11
   3   1   8   20.44    1.18
  -4  -1  -8   16.60    1.25
   4  -1   8   18.92    1.06
  -4  -1  -8   16.54    1.59
  -4   1  -8   17.00    1.60
   4   1   8   17.15    1.04
  -4   1  -8   16.05    1.00
  -5  -1  -8    3.07    0.98
   5  -1   8    2.45    0.48
   5   1   8    2.42    0.49
  -5   1  -8    1.88    0.43
  -5   1  -8    4.66    1.30
  -6  -1  -8   20.38    1.87
  -6   1  -8   20.85    2.06
  -6   1  -8   17.61    0.94
   6   1   8   19.56    1.11
 -10  -2   8   19.25    1.86
 -10  -2   8   17.31    1.72
  10  -2  -8   14.48    1.78
 -10   2   8   18.19    1.78
 -10   2   8   19.48    1.93
  -9  -2   8    2.74    0.96
  -9  -2   8    3.46    1.15
   9  -2  -8    5.32    0.85
   9  -2  -8    5.93    1.30
  -9   2   8    5.25    1.03
  -9   2   8    4.68    1.19
  -8  -2   8    2.32    0.93
  -8  -2   8    0.79    1.05
  -8  -2   8    2.25    1.03
   8  -2  -8    1.32    0.88
   8  -2  -8    1.54    0.78
  -8   2   8    2.45    1.11
  -8   2   8    2.40    0.78
   7  -2  -8   31.82    1.94
   7  -2  -8   29.41    2.12
  -7  -2   8   33.52    2.18
   7  -2  -8   29.17    2.02
  -7  -2   8   31.98    2.06
  -7  -2   8   30.22    2.02
  -7   2   8   29.70    2.17
  -7   2   8   27.05    2.00
   7   2  -8   31.87    1.80
  -7   2   8   30.75    1.80
   6  -2  -8   27.23    1.71
   6  -2  -8   24.40    1.76
   6  -2  -8   26.73    1.69
  -6  -2   8   25.33    1.80
  -6  -2   8   26.95    1.91
  -6  -2   8   25.33    1.64
   6   2  -8   25.44    1.82
  -6   2   8   24.73    1.84
  -6   2   8   23.10    1.66
  -6   2   8   25.88    1.62
  -5  -2   8    7.64    0.98
  -5  -2   8    7.06    0.92
  -5  -2   8    8.91    1.09
   5  -2  -8    8.43    1.10
   5  -2  -8    7.67    1.17
   5  -2  -8   10.02    1.24
  -5   2   8    7.39    0.93
  -5   2   8    8.19    1.01
  -5   2   8    7.05    1.15
   5   2  -8   10.36    1.23
  -5   2   8   11.93    1.08
   5   2  -8    7.40    1.08
   4  -2  -8   51.61    2.27
  -4  -2   8   45.13    2.19
   4  -2  -8   52.60    2.36
   4  -2  -8   49.07    2.38
  -4  -2   8   51.06    2.31
  -4  -2   8   49.29    2.25
  -4   2   8   51.76    2.78
   4   2  -8   46.52    2.36
  -4   2   8   50.20    2.39
   4   2  -8   46.95    2.69
  -4   2   8   50.93    2.32
  -4   2   8   50.85    2.27
   3  -2  -8  103.39    3.98
   3  -2  -8  103.42    3.71
   3  -2  -8  100.61    3.65
  -3  -2   8  105.10    3.60
  -3  -2   8   99.23    3.56
  -3  -2   8  105.12    3.84
  -3   2   8  104.35    3.79
  -3   2   8  101.99    4.13
   3   2  -8   98.38    3.78
   3   2  -8  101.62    3.68
  -3   2   8  101.27    3.66
   3   2  -8  101.31    3.95
  -2  -2   8   -0.13    0.34
   2  -2  -8   -0.69    0.84
  -2  -2   8   -0.39    0.45
  -2  -2   8    1.42    0.81
   2  -2  -8    1.76    0.67
   2   2  -8    0.25    0.89
   2   2  -8   -0.85    0.74
  -2   2   8   -0.11    0.42
  -2   2   8   -0.34    0.71
  -2   2   8    0.38    0.65
   2   2  -8    0.29    0.71
   1  -2  -8   23.30    1.34
   1  -2  -8   21.70    1.86
   1  -2  -8   24.55    1.44
  -1  -2   8   24.77    1.16
  -1  -2   8   23.01    1.58
   1   2  -8   23.35    1.88
  -1   2   8   20.22    1.55
   1   2  -8   23.46    1.66
   1   2  -8   22.90    1.52
  -1   2   8   22.49    1.29
  -1   2   8   20.84    1.52
   0  -2  -8   53.37    2.26
   0  -2   8   55.20    1.86
   0  -2  -8   56.28    2.71
   0  -2   8   54.50    2.33
   0   2  -8   53.20    2.28
   0   2  -8   52.51    2.44
   0   2  -8   52.52    2.56
   0   2   8   55.44    2.21
  -1  -2  -8   84.53    3.45
  -1  -2  -8   83.33    3.09
   1  -2   8   82.68    3.05
  -1   2  -8   82.00    3.01
  -1   2  -8   81.32    3.41
   1   2   8   84.15    3.06
  -1   2  -8   81.25    3.18
  -2  -2  -8   48.63    2.28
  -2  -2  -8   43.92    2.10
   2  -2   8   46.33    1.98
  -2   2  -8   46.87    2.64
   2   2   8   47.52    2.03
  -2   2  -8   46.69    2.20
  -2   2  -8   46.13    1.95
   3  -2   8    1.08    0.52
  -3  -2  -8    0.09    0.59
  -3  -2  -8   -0.11    0.62
  -3   2  -8    1.02    0.76
  -3   2  -8   -0.26    0.45
   3   2   8    0.49    0.54
  -3   2  -8    1.43    0.74
   4  -2   8   65.43    2.48
  -4  -2  -8   65.11    2.93
  -4  -2  -8   67.61    2.83
   4   2   8   65.95    2.54
  -4   2  -8   64.71    2.43
  -4   2  -8   72.06    2.78
  -4   2  -8   68.16    3.46
   5  -2   8   79.89    2.79
  -5   2  -8   80.33    3.98
   5   2   8   81.45    2.93
  -5   2  -8   79.79    2.72
  -6   2  -8   46.48    3.17
  -6   2  -8   43.98    1.70
   6   2   8   45.96    2.02
  -9  -3   8   29.40    2.23
   9  -3  -8   27.75    2.37
   9  -3  -8   25.36    1.99
  -9  -3   8   26.71    2.18
  -9   3   8   27.11    2.17
   9   3  -8   23.46    2.09
  -9   3   8   28.07    2.19
  -8  -3   8    1.24    1.11
   8  -3  -8    1.25    1.12
   8  -3  -8    0.29    0.90
  -8  -3   8    2.01    1.18
  -8  -3   8    0.89    0.74
   8   3  -8    0.81    0.81
  -8   3   8    1.24    0.81
  -8   3   8    1.49    1.02
   7  -3  -8    4.59    0.97
  -7  -3   8    5.97    1.17
   7  -3  -8    4.88    1.12
  -7  -3   8    3.38    0.93
  -7  -3   8    3.89    1.08
  -7   3   8    4.85    1.19
  -7   3   8    4.78    0.91
  -7   3   8    3.73    1.02
   7   3  -8    2.09    0.78
   7   3  -8    4.82    1.21
  -6  -3   8  120.10    4.49
   6  -3  -8  127.21    4.43
  -6  -3   8  121.26    4.44
   6  -3  -8  118.54    4.54
   6  -3  -8  113.69    4.41
  -6  -3   8  117.61    4.52
  -6   3   8  122.01    5.01
   6   3  -8  114.88    4.50
  -6   3   8  122.20    4.57
  -6   3   8  121.62    4.35
  -6   3   8  120.64    4.45
   6   3  -8  120.29    4.79
   6   3  -8  116.12    4.41
   5  -3  -8   72.31    2.92
  -5  -3   8   69.38    3.02
   5  -3  -8   79.16    3.23
  -5  -3   8   70.99    3.02
   5  -3  -8   59.42    2.97
  -5  -3   8   72.09    2.92
   5   3  -8   78.75    3.17
  -5   3   8   70.29    3.56
   5   3  -8   72.85    3.14
  -5   3   8   74.96    3.15
   5   3  -8   74.46    3.42
  -5   3   8   74.54    3.10
   4  -3  -8   65.33    2.89
  -4  -3   8   65.36    2.92
   4  -3  -8   61.06    2.81
  -4  -3   8   63.53    2.56
  -4  -3   8   63.57    2.66
   4  -3  -8   67.88    2.66
  -4   3   8   59.61    2.98
  -4   3   8   60.54    2.81
  -4   3   8   63.36    2.75
   4   3  -8   64.25    3.09
   4   3  -8   60.79    2.95
   4   3  -8   62.40    2.69
  -3  -3   8    8.89    1.05
   3  -3  -8   10.83    1.17
   3  -3  -8    7.51    1.22
  -3  -3   8    8.29    0.96
  -3  -3   8    9.54    0.95
  -3   3   8    9.84    0.99
   3   3  -8    9.42    1.36
   3   3  -8    8.84    1.26
   3   3  -8    8.95    1.18
  -3   3   8    8.35    1.15
  -3   3   8    7.22    1.13
  -2  -3   8   62.45    2.59
  -2  -3   8   59.33    2.25
  -2  -3   8   57.64    2.35
   2  -3  -8   55.86    2.90
   2  -3  -8   60.09    2.48
  -2   3   8   62.12    2.53
   2   3  -8   65.02    3.05
  -2   3   8   61.87    2.69
   2   3  -8   60.97    2.54
   2   3  -8   61.88    2.68
  -2   3   8   59.47    3.02
   1  -3  -8  140.68    4.77
  -1  -3   8  141.00    4.77
   1  -3  -8  135.50    4.61
   1  -3  -8  133.74    4.97
  -1  -3   8  142.44    4.40
  -1   3   8  136.17    4.79
   1   3  -8  142.33    4.81
   1   3  -8  139.78    5.08
   1   3  -8  143.15    4.97
   0  -3   8  106.88    3.84
   0  -3   8  104.96    3.31
   0  -3  -8  100.33    4.14
   0  -3  -8  106.19    3.72
   0   3  -8  103.61    4.23
   0   3  -8  104.52    3.71
   0   3  -8  111.96    4.03
   0   3   8  103.22    3.73
  -1  -3  -8    2.66    1.01
  -1  -3  -8    4.45    0.70
   1  -3   8    4.63    0.84
  -1   3  -8    5.43    1.02
  -1   3  -8    3.31    0.76
  -1   3  -8    4.25    0.99
   1   3   8    5.46    0.90
  -2  -3  -8    8.10    1.01
   2  -3   8    5.12    0.82
  -2  -3  -8    9.78    0.88
  -2   3  -8    6.57    1.05
   2   3   8    7.88    0.96
  -2   3  -8    7.82    0.86
  -2   3  -8    6.58    1.13
  -3  -3  -8  125.91    4.68
   3  -3   8  119.72    4.14
  -3   3  -8  120.82    4.11
  -3   3  -8  120.46    4.46
   3   3   8  125.82    4.27
  -3   3  -8  122.54    5.01
  -4  -3  -8   14.42    1.14
   4  -3   8   15.67    1.17
  -4  -3  -8   15.15    1.34
   4   3   8   15.31    1.23
  -4   3  -8   15.05    1.11
  -4   3  -8   14.96    1.41
  -4   3  -8   15.05    1.88
  -5  -3  -8   -0.14    0.58
   5  -3   8    0.17    0.57
  -5   3  -8    1.77    1.30
   5   3   8    1.21    0.67
  -5   3  -8    0.46    0.81
  -5   3  -8    0.97    0.50
   9  -4  -8    5.92    1.17
  -9  -4   8    7.14    1.53
   9  -4  -8    4.87    1.18
  -9  -4   8    5.88    1.11
  -9   4   8    5.30    1.46
  -9   4   8    5.59    1.08
   9   4  -8    4.16    1.35
   9   4  -8    5.17    1.49
  -8  -4   8   89.94    3.92
   8  -4  -8   85.49    3.58
   8  -4  -8   86.05    3.69
  -8  -4   8   82.44    3.72
  -8   4   8   88.01    3.89
   8   4  -8   85.96    3.88
  -8   4   8   79.20    3.50
   8   4  -8   80.33    3.91
  -7  -4   8   41.18    2.24
   7  -4  -8   38.82    2.61
  -7  -4   8   40.51    2.45
   7  -4  -8   42.43    2.57
  -7  -4   8   41.13    2.56
  -7   4   8   37.29    2.28
   7   4  -8   41.45    2.38
   7   4  -8   37.07    2.12
  -7   4   8   36.32    2.15
  -7   4   8   40.07    2.16
   7   4  -8   45.79    2.69
  -7   4   8   38.76    2.95
  -6  -4   8   18.78    1.54
   6  -4  -8   21.71    1.71
   6  -4  -8   20.41    1.68
   6  -4  -8   22.76    1.82
  -6  -4   8   19.69    1.61
  -6  -4   8   23.65    1.81
   6   4  -8   16.18    1.75
   6   4  -8   20.47    1.86
  -6   4   8   23.82    1.87
   6   4  -8   18.69    1.65
  -6   4   8   19.82    1.71
  -6   4   8   21.02    2.13
  -6   4   8   19.36    1.65
   5  -4  -8    5.02    1.16
   5  -4  -8    2.68    0.86
  -5  -4   8    3.71    0.98
  -5  -4   8    3.98    1.09
   5  -4  -8    5.93    1.08
   5   4  -8    3.40    0.80
  -5   4   8    5.75    1.39
   5   4  -8    5.45    1.22
  -5   4   8    3.87    0.83
  -4  -4   8  149.46    5.21
   4  -4  -8  150.57    5.46
  -4  -4   8  151.78    5.35
   4  -4  -8  146.61    5.39
  -4  -4   8  149.10    5.18
  -4   4   8  151.01    5.27
   4   4  -8  153.15    5.28
  -4   4   8  155.64    5.32
   4   4  -8  153.60    5.59
  -4   4   8  154.13    5.84
   4   4  -8  153.63    5.45
   3  -4  -8   48.24    2.57
  -3  -4   8   55.63    2.34
  -3  -4   8   48.60    2.43
  -3  -4   8   48.86    2.24
   3  -4  -8   54.77    2.89
   3   4  -8   53.34    2.40
  -3   4   8   50.10    2.69
  -3   4   8   48.32    2.43
   3   4  -8   50.62    2.38
   3   4  -8   54.20    2.76
  -3   4   8   53.49    2.43
   3   4  -8   45.97    2.53
   2  -4  -8   59.44    3.05
  -2  -4   8   64.49    2.86
   2  -4  -8   62.78    2.75
  -2  -4   8   58.27    2.37
  -2   4   8   60.62    2.62
   2   4  -8   58.71    2.39
   2   4  -8   58.48    2.73
   2   4  -8   60.86    2.74
   2   4  -8   56.52    2.82
  -2   4   8   60.19    2.61
   1  -4  -8   10.64    1.02
  -1  -4   8   11.11    1.11
  -1  -4   8   11.55    0.93
   1  -4  -8   13.25    1.23
   1  -4  -8   10.65    1.26
   1   4  -8   12.08    1.33
   1   4  -8   10.86    1.24
   1   4  -8   12.35    1.12
  -1   4   8   12.88    1.32
   0  -4  -8   21.43    1.80
   0  -4  -8   15.39    1.13
   0  -4   8   16.39    1.34
   0   4  -8   16.71    1.37
   0   4  -8   14.74    1.53
   0   4   8   19.44    1.39
   0   4  -8   15.75    1.53
  -1  -4  -8   19.61    1.75
   1  -4   8   16.98    1.45
   1   4   8   21.14    1.66
  -1   4  -8   19.44    1.75
  -1   4  -8   19.82    1.71
  -1   4  -8   19.56    1.49
   2  -4   8   76.66    3.06
  -2  -4  -8   74.06    3.45
   2   4   8   80.79    3.19
  -2   4  -8   76.47    3.36
  -2   4  -8   74.76    3.52
  -2   4  -8   74.29    2.97
   3  -4   8    9.05    1.03
  -3  -4  -8    6.74    1.26
  -3  -4  -8    9.28    1.09
  -3   4  -8    8.92    1.61
   3   4   8    7.95    1.11
  -3   4  -8    8.65    1.11
  -3   4  -8    9.22    1.00
  -4  -4  -8    2.44    0.98
   4  -4   8    1.46    0.69
  -4  -4  -8    1.23    0.74
  -4   4  -8    2.87    0.71
   4   4   8    2.65    0.86
  -4   4  -8    2.00    1.38
  -4   4  -8    3.39    1.11
  -8  -5   8    2.98    1.34
   8  -5  -8    4.38    1.25
   8  -5  -8    3.80    1.38
  -8  -5   8    4.41    1.33
   8   5  -8    4.06    1.34
  -8   5   8    3.84    1.03
  -8   5   8    5.71    1.16
   8   5  -8    3.04    1.19
   7  -5  -8   17.03    1.60
  -7  -5   8   16.35    1.73
   7  -5  -8   20.08    1.97
  -7  -5   8   19.64    1.85
  -7  -5   8   19.91    1.90
   7   5  -8   17.64    1.70
  -7   5   8   14.86    2.08
   7   5  -8   15.76    1.77
  -7   5   8   17.88    1.67
  -7   5   8   16.88    1.73
  -6  -5   8    4.97    1.05
   6  -5  -8    6.06    1.34
  -6  -5   8    6.57    1.34
   6  -5  -8    6.29    1.13
  -6  -5   8    3.92    1.03
   6   5  -8    5.35    1.15
   6   5  -8    6.45    1.29
   6   5  -8    6.73    1.30
  -6   5   8    7.63    1.37
  -6   5   8    6.05    1.29
  -6   5   8    6.69    1.25
  -5  -5   8   37.43    2.50
  -5  -5   8   37.92    2.28
  -5  -5   8   32.69    1.96
   5  -5  -8   35.55    2.55
   5  -5  -8   36.14    2.46
  -5   5   8   36.41    2.09
   5   5  -8   34.82    2.17
   5   5  -8   34.58    2.21
   5   5  -8   33.29    2.31
  -5   5   8   39.70    2.57
   5   5  -8   35.57    2.32
  -5   5   8   37.96    2.36
  -4  -5   8    2.07    1.09
   4  -5  -8    3.07    1.10
  -4  -5   8    2.77    0.95
  -4  -5   8    2.51    0.92
   4  -5  -8    2.26    0.91
   4   5  -8    2.81    0.93
   4   5  -8    1.16    1.06
  -4   5   8    3.43    0.83
   4   5  -8    1.65    0.99
  -4   5   8    3.57    1.06
  -4   5   8    2.98    1.09
   4   5  -8    4.25    1.12
   3  -5  -8   -0.50    1.06
  -3  -5   8   -0.58    0.94
   3  -5  -8    0.18    0.64
  -3  -5   8   -0.01    0.71
   3   5  -8   -0.33    1.04
   3   5  -8   -0.35    0.94
   3   5  -8   -0.39    0.78
  -3   5   8   -0.04    0.85
   3   5  -8   -0.14    1.01
  -3   5   8    0.92    0.98
  -3   5   8    0.24    0.83
   2  -5  -8    1.69    0.95
  -2  -5   8    2.50    0.56
   2  -5  -8    3.81    1.27
  -2  -5   8    2.92    1.08
   2   5  -8    2.35    1.03
   1  -5  -8   40.35    2.67
  -1  -5   8   38.92    2.12
  -1  -5   8   37.98    2.00
   1   5  -8   36.57    2.28
   1   5  -8   40.49    2.51
  -1   5   8   41.16    2.39
   1   5  -8   36.87    2.03
   0  -5   8    0.65    0.87
   0  -5  -8    2.15    1.18
   0   5  -8   -0.11    1.10
   0   5  -8    0.62    0.86
   0   5  -8    2.28    1.12
   0   5   8    0.45    0.69
   1  -5   8    3.61    0.79
  -1  -5  -8    5.60    1.09
  -1   5  -8    4.31    1.37
  -1   5  -8    5.67    1.04
   1   5   8    5.01    0.91
  -1   5  -8    3.85    0.96
   2  -5   8    4.19    0.80
  -2  -5  -8    4.34    1.25
  -2   5  -8    2.73    0.87
   2   5   8    3.71    1.08
  -2   5  -8    4.66    0.99
  -2   5  -8    3.93    1.14
  -3  -5  -8    3.03    1.17
  -3  -5  -8    2.82    0.73
   3  -5   8    3.66    0.93
  -3   5  -8    5.02    1.53
  -3   5  -8    2.61    1.19
  -3   5  -8    3.31    0.71
   3   5   8    2.10    0.75
   6  -6  -8    2.27    0.99
  -6  -6   8    2.16    0.90
  -6  -6   8    2.27    1.16
  -6  -6   8    3.30    1.28
   6  -6  -8    3.11    1.35
   6   6  -8    3.76    1.05
   6   6  -8    2.18    0.95
  -6   6   8    2.60    1.52
   6   6  -8    2.46    1.14
  -6   6   8    4.46    1.02
   6   6  -8    1.50    0.93
  -5  -6   8    2.98    1.22
  -5  -6   8    4.43    0.96
  -5  -6   8    2.65    0.81
   5  -6  -8    1.84    0.94
   5  -6  -8    1.54    0.88
  -5   6   8    3.59    0.91
   5   6  -8    1.61    1.10
   5   6  -8    3.23    1.29
  -5   6   8    4.13    1.51
  -5   6   8    3.11    1.19
   5   6  -8    2.10    0.87
   4  -6  -8    0.57    1.21
   4  -6  -8    3.69    0.98
  -4  -6   8    0.16    0.85
  -4  -6   8    1.76    1.15
  -4   6   8    2.32    1.15
   4   6  -8    1.78    1.10
   4   6  -8    1.90    0.92
  -4   6   8    2.74    1.42
  -4   6   8    1.08    1.06
   4   6  -8    3.35    1.09
   4   6  -8    4.70    1.23
  -3  -6   8   -1.11    0.71
  -3  -6   8    1.40    0.82
   3  -6  -8    2.04    1.08
   3  -6  -8    2.19    1.02
   3   6  -8    0.52    1.06
   3   6  -8    0.42    0.85
  -3   6   8    1.01    1.07
   3   6  -8    0.87    1.05
  -3   6   8   -0.60    1.27
   2  -6  -8   10.29    1.84
   2  -6  -8   10.12    1.40
  -2  -6   8    8.90    1.43
  -2  -6   8   10.36    0.95
   2   6  -8   11.30    1.64
  -2   6   8   11.54    1.32
   2   6  -8   14.73    1.61
   2   6  -8    9.51    1.51
  -1  -6   8   14.42    1.60
   1  -6  -8   12.25    1.71
   1   6  -8   13.37    1.55
  -1   6   8    9.13    1.26
   1   6  -8   10.89    1.62
   1   6  -8   14.98    1.56
   0  -6  -8    0.73    1.22
   0  -6   8   -0.35    0.68
   0   6   8   -0.25    1.04
   0   6  -8   -0.18    0.66
   0   6  -8    0.22    1.19
   0   6  -8   -1.14    1.09
  -1  -6  -8    3.45    1.43
   1  -6   8    6.02    1.23
  -1   6  -8    4.79    1.15
  -1   6  -8    5.31    1.44
   1   6   8    5.66    1.05
  -1   6  -8    7.78    1.63
  -2  -6  -8    1.65    1.21
   2  -6   8    3.24    1.04
  -2   6  -8   -0.41    0.62
  -2   6  -8    2.48    0.99
  -2   6  -8    1.69    1.01
   2   6   8    0.32    1.09
 -10   0   9   -0.16    0.73
  10   0  -9    1.61    1.23
 -10   0   9   -0.54    0.82
  -9   0   9   72.15    3.37
   9   0  -9   79.92    3.62
  -9   0   9   67.71    3.30
  -8   0   9   -0.53    0.93
  -8   0   9    0.26    0.64
  -8   0   9   -0.54    1.00
   8   0  -9   -0.35    1.02
   7   0  -9   77.05    3.26
  -7   0   9   82.20    3.45
  -7   0   9   75.02    3.27
  -7   0   9   75.96    3.17
   7   0  -9   74.62    3.41
   6   0  -9    0.19    0.64
  -6   0   9    0.33    0.63
   6   0  -9    0.39    0.88
  -6   0   9    0.03    0.84
  -6   0   9    0.23    0.63
   6   0  -9   -0.24    0.82
   5   0  -9    2.10    0.67
  -5   0   9    1.18    0.91
   5   0  -9    2.19    0.98
   4   0  -9    1.06    0.84
   4   0  -9    0.04    0.63
  -4   0   9   -0.17    0.47
  -4   0   9    0.48    0.74
  -4   0   9   -0.56    0.59
   4   0  -9   -0.26    0.74
   3   0  -9  293.99    9.55
   3   0  -9  296.07    9.16
  -3   0   9  298.57    9.52
   3   0  -9  293.64    9.24
  -3   0   9  288.16    9.06
  -3   0   9  298.13    9.13
  -3   0   9  306.96    9.33
   3   0  -9  304.72    9.53
  -2   0   9   -0.39    0.57
  -2   0   9   -0.18    0.72
  -2   0   9   -0.54    0.53
   2   0  -9    0.63    0.73
   2   0  -9   -0.58    0.84
   2   0  -9   -0.41    0.64
  -2   0   9    1.56    0.85
   1   0  -9   -0.28    0.89
   1   0  -9    0.09    0.66
  -1   0   9   -1.08    0.68
   1   0  -9    0.24    0.86
  -1   0   9    0.83    0.75
  -1   0   9    0.83    0.41
   0   0  -9   -0.10    0.55
   0   0   9   -1.24    0.58
   0   0  -9   -0.99    0.54
   0   0  -9    0.08    0.62
   0   0  -9    0.26    0.47
   0   0   9   -0.22    0.45
   0   0   9    0.56    0.69
  -1   0  -9   42.96    1.99
  -1   0  -9   47.36    2.47
  -1   0  -9   47.84    2.46
   1   0   9   45.07    1.75
   1   0   9   41.98    1.99
  -1   0  -9   43.37    1.93
   1   0   9   47.22    2.19
  -2   0  -9    0.54    0.89
   2   0   9    0.10    0.59
  -2   0  -9    0.48    0.61
   2   0   9    0.35    0.54
  -2   0  -9   -0.19    0.46
  -3   0  -9   14.51    1.01
   3   0   9   13.15    1.06
  -3   0  -9   13.81    1.35
   4   0   9   -0.45    0.51
  -4   0  -9    0.35    0.95
  -4   0  -9    0.20    0.49
   5   0   9   14.58    0.98
  -5   0  -9   16.16    1.03
  -5   0  -9   16.68    1.77
  10  -1  -9   26.66    2.27
 -10  -1   9   31.14    2.06
 -10  -1   9   29.14    2.21
 -10   1   9   27.69    2.29
  10   1  -9   28.29    2.17
 -10   1   9   30.65    2.20
   9  -1  -9    6.51    1.09
  -9  -1   9    6.91    1.41
  -9  -1   9    7.37    1.29
   9  -1  -9    7.57    1.16
  -9   1   9    7.21    1.23
  -9   1   9    7.20    1.33
   9   1  -9    6.72    1.17
   8  -1  -9    2.72    0.79
  -8  -1   9    2.48    1.01
  -8  -1   9    2.69    0.87
  -8  -1   9    1.23    1.02
   8  -1  -9    1.49    1.14
  -8   1   9    2.80    0.87
   8   1  -9    2.26    0.90
  -8   1   9    2.30    0.98
  -8   1   9    2.46    1.05
   7  -1  -9    1.73    1.06
  -7  -1   9    0.45    0.69
   7  -1  -9    2.01    0.76
  -7  -1   9    1.82    0.79
  -7  -1   9    1.71    0.74
   7  -1  -9    1.10    0.89
  -7   1   9    2.64    1.13
  -7   1   9    2.34    0.73
   7   1  -9    2.81    0.86
  -7   1   9    3.85    0.82
   7   1  -9    2.72    0.98
   6  -1  -9   97.29    3.68
  -6  -1   9   86.57    3.70
  -6  -1   9   88.84    3.69
   6  -1  -9   92.82    3.81
  -6  -1   9   91.80    3.63
   6  -1  -9   86.41    3.71
  -6   1   9   97.54    3.78
   6   1  -9   94.90    3.59
  -6   1   9   91.55    3.59
  -6   1   9   91.06    3.52
   6   1  -9   92.68    3.61
   5  -1  -9   30.70    2.14
  -5  -1   9   28.75    1.88
   5  -1  -9   30.96    1.95
   5  -1  -9   29.52    1.75
  -5  -1   9   28.67    2.02
  -5  -1   9   28.29    1.81
  -5   1   9   23.75    1.69
   5   1  -9   31.31    1.75
   5   1  -9   26.91    1.93
  -5   1   9   29.06    1.85
  -5   1   9   28.62    1.96
   4  -1  -9    8.22    0.96
   4  -1  -9    7.94    1.10
  -4  -1   9    8.98    1.06
  -4  -1   9    8.70    1.04
  -4  -1   9    8.04    1.00
   4  -1  -9    7.55    1.06
  -4   1   9    6.15    1.35
  -4   1   9    6.04    1.09
   4   1  -9    7.38    1.13
  -4   1   9    9.66    1.13
   4   1  -9    7.75    1.40
  -4   1   9    8.55    1.04
  -3  -1   9   62.27    2.53
  -3  -1   9   64.64    2.68
   3  -1  -9   59.85    2.54
   3  -1  -9   63.63    2.82
   3  -1  -9   70.11    3.12
   3  -1  -9   60.94    2.71
  -3  -1   9   59.07    2.54
   3   1  -9   65.12    2.65
  -3   1   9   63.22    3.07
  -3   1   9   66.60    2.60
  -3   1   9   62.17    2.63
  -3   1   9   65.26    2.70
   3   1  -9   63.74    3.09
   2  -1  -9  109.39    4.03
   2  -1  -9  116.62    4.29
   2  -1  -9  115.65    4.35
  -2  -1   9  111.75    4.13
   2  -1  -9  115.36    3.94
  -2  -1   9  114.01    3.88
  -2   1   9  109.22    3.85
   2   1  -9  120.12    4.12
   2   1  -9  108.08    4.30
  -2   1   9  117.10    4.43
  -2   1   9  113.92    4.11
  -2   1   9  113.99    3.99
   2   1  -9  119.29    4.24
   1  -1  -9    1.03    0.93
  -1  -1   9    0.21    0.48
   1  -1  -9    0.25    0.48
   1  -1  -9    1.85    0.67
  -1  -1   9   -0.68    0.72
   1   1  -9    0.93    0.77
   1   1  -9    0.12    0.71
  -1   1   9    0.00    0.84
   1   1  -9    1.17    0.70
  -1   1   9    1.24    0.58
   0  -1  -9   20.93    1.70
   0  -1   9   21.38    1.16
   0  -1   9   21.85    1.43
   0  -1   9   19.51    1.49
   0  -1  -9   21.86    1.64
   0   1  -9   21.01    1.43
   0   1  -9   23.06    1.58
   0   1   9   20.76    1.47
   0   1  -9   22.76    1.93
   0   1   9   22.87    1.52
  -1  -1  -9   65.05    2.98
  -1  -1  -9   71.13    2.63
   1  -1   9   69.86    2.69
   1  -1   9   68.53    2.71
  -1  -1  -9   71.13    3.19
   1   1   9   67.72    2.71
  -1   1  -9   71.39    2.67
  -1   1  -9   70.25    3.22
  -1   1  -9   69.10    2.79
   2  -1   9   38.61    1.83
  -2  -1  -9   48.06    2.33
  -2  -1  -9   43.25    2.19
   2   1   9   32.47    1.79
  -2   1  -9   37.55    1.78
  -2   1  -9   49.45    2.64
  -2   1  -9   36.54    1.92
   3  -1   9   14.01    1.10
  -3  -1  -9   13.89    1.40
  -3  -1  -9   12.62    1.23
  -3   1  -9   13.59    1.63
   3   1   9   12.95    1.09
  -3   1  -9   13.82    1.12
  -3   1  -9   13.38    1.02
   4  -1   9   19.03    1.25
  -4  -1  -9   18.06    1.64
   4   1   9   20.03    1.21
  -4   1  -9   18.72    1.18
  -4   1  -9   19.83    1.79
  -5  -1  -9    6.33    1.23
   5  -1   9    4.96    0.70
  -5   1  -9    5.12    0.64
   5   1   9    4.56    0.74
  -5   1  -9    6.59    1.45
 -10  -2   9    2.51    0.98
 -10   2   9    3.91    1.02
  -9  -2   9    9.99    1.46
   9  -2  -9    9.53    1.30
  -9  -2   9    9.15    1.53
   9  -2  -9   11.64    1.59
  -9   2   9    7.70    1.24
  -9   2   9   11.66    1.51
   8  -2  -9    8.01    1.40
   8  -2  -9    5.70    1.18
  -8  -2   9    7.18    1.10
  -8  -2   9    9.13    1.32
  -8  -2   9    5.66    1.07
  -8   2   9    7.81    1.20
  -8   2   9    5.72    1.27
  -8   2   9    7.33    1.37
   7  -2  -9    1.38    1.00
   7  -2  -9    1.47    1.06
   7  -2  -9    0.09    0.89
  -7  -2   9    0.43    0.78
  -7  -2   9    0.87    0.71
  -7  -2   9    1.19    0.99
  -7   2   9    1.40    0.98
   7   2  -9    0.28    0.93
  -7   2   9    1.22    1.03
  -7   2   9    1.57    0.98
   6  -2  -9   24.19    2.01
   6  -2  -9   27.53    2.08
   6  -2  -9   24.69    1.89
  -6  -2   9   23.56    1.70
  -6  -2   9   22.66    1.88
  -6  -2   9   26.60    1.88
  -6   2   9   24.01    1.63
  -6   2   9   25.73    1.98
   6   2  -9   27.72    1.96
  -6   2   9   22.49    1.71
   6   2  -9   23.50    2.12
  -5  -2   9   38.60    2.13
   5  -2  -9   47.46    2.42
   5  -2  -9   37.96    2.22
  -5  -2   9   41.87    2.21
   5  -2  -9   45.71    2.52
  -5  -2   9   35.04    2.08
  -5   2   9   40.93    2.12
   5   2  -9   35.59    2.62
  -5   2   9   39.57    2.20
  -5   2   9   40.33    2.46
  -5   2   9   45.23    2.38
   5   2  -9   40.66    2.28
  -4  -2   9   15.98    1.30
   4  -2  -9   17.51    1.46
   4  -2  -9   15.94    1.27
  -4  -2   9   14.52    1.26
   4  -2  -9   13.10    1.36
  -4  -2   9   17.15    1.53
   4   2  -9   17.91    1.78
   4   2  -9   14.39    1.26
  -4   2   9   14.75    1.52
  -4   2   9   13.90    1.20
   4   2  -9   14.07    1.51
  -4   2   9   14.43    1.39
  -4   2   9   14.41    1.40
  -3  -2   9   14.35    1.40
   3  -2  -9   14.66    1.51
  -3  -2   9   15.23    1.19
   3  -2  -9   14.60    1.19
   3  -2  -9   16.04    1.34
  -3  -2   9   11.42    1.08
   3   2  -9   13.59    1.34
   3   2  -9   15.60    1.53
  -3   2   9   14.28    1.45
  -3   2   9   14.57    1.23
   3   2  -9   14.24    1.62
  -3   2   9   15.19    1.42
   2  -2  -9   12.68    1.44
   2  -2  -9   14.64    1.42
   2  -2  -9   13.38    1.08
  -2  -2   9   13.34    1.34
  -2  -2   9   14.66    1.10
  -2   2   9   12.16    1.66
  -2   2   9   15.15    1.25
   2   2  -9   12.14    1.23
   2   2  -9   13.07    1.54
  -2   2   9   13.01    1.37
   2   2  -9   13.17    1.28
  -1  -2   9  127.96    4.50
   1  -2  -9  122.64    4.65
   1  -2  -9  124.45    4.56
  -1  -2   9  124.80    4.05
   1   2  -9  125.18    4.74
   1   2  -9  122.34    4.48
  -1   2   9  130.33    4.82
  -1   2   9  125.19    4.43
   1   2  -9  131.44    4.46
   0  -2  -9   46.05    2.27
   0  -2  -9   44.90    2.57
   0  -2   9   42.60    2.19
   0   2  -9   45.73    2.16
   0   2  -9   45.36    2.14
   0   2   9   46.40    2.19
   0   2  -9   44.76    2.63
   1  -2   9   59.84    2.44
  -1  -2  -9   57.88    2.54
  -1  -2  -9   61.04    2.99
  -1   2  -9   61.68    2.69
   1   2   9   61.80    2.56
  -1   2  -9   60.73    2.51
  -1   2  -9   63.85    3.13
  -2  -2  -9    7.65    1.03
  -2  -2  -9    6.78    1.22
   2  -2   9    6.78    0.88
  -2   2  -9    6.20    0.82
   2   2   9    7.44    0.92
  -2   2  -9    7.41    0.90
  -2   2  -9    7.36    1.40
  -3  -2  -9   27.40    1.76
  -3  -2  -9   22.70    1.99
   3  -2   9   26.68    1.48
  -3   2  -9   23.77    1.39
   3   2   9   23.68    1.51
  -3   2  -9   27.89    1.73
  -3   2  -9   22.64    1.96
  -4  -2  -9   16.43    1.54
   4  -2   9   15.60    1.18
  -4   2  -9   25.75    2.40
   4   2   9   17.64    1.30
  -4   2  -9   16.25    1.13
   5  -2   9   69.17    2.54
   5   2   9   64.29    2.61
  -5   2  -9   68.59    3.75
  -5   2  -9   65.68    2.43
   9  -3  -9    6.26    1.24
   9  -3  -9    7.76    1.53
  -9  -3   9    6.28    1.23
  -9  -3   9    4.93    1.08
  -9   3   9    5.04    1.32
  -9   3   9    7.16    1.48
   9   3  -9    4.51    1.10
  -8  -3   9   15.16    1.65
  -8  -3   9   17.63    1.67
  -8  -3   9   14.61    1.49
   8  -3  -9   12.75    1.65
   8  -3  -9   14.32    1.56
  -8   3   9   14.58    1.52
   8   3  -9   12.45    1.50
  -8   3   9   15.84    1.66
   7  -3  -9   39.09    2.28
  -7  -3   9   35.71    2.40
   7  -3  -9   35.01    2.15
  -7  -3   9   36.13    2.40
   7  -3  -9   35.93    2.45
  -7  -3   9   32.08    2.02
  -7   3   9   34.27    2.44
   7   3  -9   31.15    2.32
   7   3  -9   40.15    2.60
   7   3  -9   37.15    2.29
  -7   3   9   33.91    2.06
  -7   3   9   40.77    2.38
  -6  -3   9   20.97    1.62
  -6  -3   9   19.02    1.54
   6  -3  -9   24.70    1.80
   6  -3  -9   23.89    1.91
   6  -3  -9   25.31    2.16
  -6  -3   9   24.87    2.05
  -6   3   9   22.38    2.20
  -6   3   9   23.45    1.96
  -6   3   9   23.96    1.77
   6   3  -9   21.40    1.64
   6   3  -9   25.02    2.17
   6   3  -9   23.20    1.93
  -6   3   9   18.22    1.68
   5  -3  -9   44.77    2.42
  -5  -3   9   45.69    2.56
   5  -3  -9   42.11    2.27
  -5  -3   9   43.78    2.16
   5  -3  -9   48.82    2.44
  -5  -3   9   43.81    2.29
  -5   3   9   39.47    2.32
  -5   3   9   43.34    2.26
   5   3  -9   45.98    2.48
   5   3  -9   44.35    2.52
  -5   3   9   42.63    2.90
  -5   3   9   45.55    2.51
   5   3  -9   43.43    2.61
   4  -3  -9   18.34    1.58
   4  -3  -9   18.07    1.38
   4  -3  -9   15.38    1.47
  -4  -3   9   16.49    1.36
  -4  -3   9   17.90    1.39
  -4  -3   9   16.64    1.44
  -4   3   9   17.67    1.50
  -4   3   9   16.07    1.49
   4   3  -9   19.57    1.87
   4   3  -9   17.33    1.55
   4   3  -9   16.20    1.40
  -4   3   9   16.84    1.87
   3  -3  -9    2.83    0.90
  -3  -3   9    4.09    0.87
   3  -3  -9    3.14    0.97
  -3  -3   9    3.39    0.62
  -3   3   9    3.94    0.76
   3   3  -9    3.11    0.85
   3   3  -9    3.94    1.02
  -3   3   9    3.55    1.22
   3   3  -9    4.46    1.25
  -3   3   9    3.61    1.01
   2  -3  -9   90.06    3.42
  -2  -3   9   90.83    3.13
   2  -3  -9   85.04    3.64
   2  -3  -9   87.82    3.55
  -2  -3   9   88.75    3.44
  -2   3   9   84.79    3.38
   2   3  -9   86.63    3.39
   2   3  -9   85.30    3.52
  -2   3   9   88.57    3.76
   2   3  -9   93.65    3.94
  -1  -3   9   19.20    1.53
   1  -3  -9   18.61    1.52
   1  -3  -9   22.00    1.82
  -1  -3   9   19.09    1.06
   1   3  -9   19.19    1.49
  -1   3   9   19.59    1.54
   1   3  -9   20.33    1.66
   1   3  -9   17.62    1.78
   0  -3  -9   15.31    1.31
   0  -3  -9   13.00    1.37
   0  -3   9   15.58    1.26
   0   3  -9   13.21    1.25
   0   3  -9   17.82    1.53
   0   3  -9   15.34    1.52
   0   3   9   15.31    1.36
  -1   3  -9   15.67    1.58
   2  -3   9   38.59    1.96
  -2  -3  -9   38.50    2.50
   2   3   9   35.57    1.98
  -2   3  -9   39.17    2.24
  -2   3  -9   33.78    2.32
  -2   3  -9   37.48    1.90
  -3  -3  -9   -0.36    0.91
   3  -3   9    1.07    0.65
  -3   3  -9   -0.82    1.19
  -3   3  -9    0.57    0.62
   3   3   9    0.43    0.72
  -3   3  -9    0.16    0.61
  -4  -3  -9    5.76    1.21
   4  -3   9    5.71    0.82
  -4   3  -9    5.66    0.92
   4   3   9    6.02    0.94
  -4   3  -9    6.19    1.28
  -4   3  -9    6.17    0.90
  -8  -4   9   29.26    2.12
  -8  -4   9   28.46    2.29
   8  -4  -9   26.33    2.16
   8  -4  -9   25.22    2.05
  -8  -4   9   31.38    2.44
  -8   4   9   27.04    1.99
  -8   4   9   31.56    2.54
   8   4  -9   30.19    2.53
   8   4  -9   29.89    2.22
   7  -4  -9    9.81    1.52
  -7  -4   9    7.72    1.34
   7  -4  -9    8.06    1.20
  -7  -4   9    7.22    1.14
  -7  -4   9    9.30    1.22
  -7   4   9    7.92    1.79
  -7   4   9    7.69    1.48
  -7   4   9    8.05    1.37
   7   4  -9    8.12    1.54
  -7   4   9    8.08    1.15
   7   4  -9    6.93    1.28
   7   4  -9    9.98    1.36
   6  -4  -9    5.39    1.27
   6  -4  -9    3.46    0.86
  -6  -4   9    5.39    1.14
  -6  -4   9    2.22    1.13
  -6  -4   9    3.57    0.87
   6  -4  -9    1.63    0.88
   6   4  -9    2.81    1.25
   6   4  -9    2.82    1.25
   6   4  -9    2.81    0.84
  -6   4   9    4.61    1.17
  -6   4   9    3.51    0.97
  -6   4   9    3.08    1.44
  -6   4   9    4.05    0.91
   5  -4  -9   27.63    2.01
  -5  -4   9   23.89    1.64
  -5  -4   9   21.90    1.71
  -5  -4   9   26.72    1.86
   5  -4  -9   23.24    1.91
   5  -4  -9   29.30    2.18
   5   4  -9   26.53    2.26
  -5   4   9   26.28    2.51
   5   4  -9   26.02    2.27
  -5   4   9   24.13    1.71
  -5   4   9   27.94    2.10
   5   4  -9   26.17    2.04
  -4  -4   9   25.10    1.56
   4  -4  -9   23.38    2.05
   4  -4  -9   27.09    2.10
  -4  -4   9   22.70    2.09
  -4  -4   9   29.02    1.93
   4   4  -9   29.75    2.04
  -4   4   9   27.17    1.93
   4   4  -9   27.11    2.02
  -4   4   9   27.90    2.13
  -4   4   9   26.93    1.80
   4   4  -9   28.14    1.96
  -3  -4   9   20.96    1.64
   3  -4  -9   23.48    1.76
   3  -4  -9   22.69    1.86
  -3  -4   9   21.06    1.46
  -3   4   9   24.85    1.85
   3   4  -9   18.45    1.63
   3   4  -9   19.19    1.68
   3   4  -9   22.00    1.99
  -3   4   9   21.23    1.91
  -3   4   9   22.88    1.70
   3   4  -9   16.25    1.33
   2  -4  -9   24.56    1.94
  -2  -4   9   26.77    1.98
   2  -4  -9   21.28    1.68
  -2  -4   9   25.23    1.42
   2  -4  -9   26.69    1.86
   2   4  -9   27.91    1.91
  -2   4   9   23.14    1.93
   2   4  -9   22.52    1.75
  -2   4   9   21.83    2.09
   2   4  -9   25.17    2.25
   1  -4  -9    1.16    0.66
  -1  -4   9    0.92    0.68
   1  -4  -9    2.02    1.14
   1   4  -9    0.48    1.11
   1   4  -9    0.85    0.65
   1   4  -9    0.62    0.73
  -1   4   9   -0.06    0.88
   0  -4  -9   17.98    1.60
   0  -4   9   12.70    1.24
   0   4  -9   14.89    1.59
   0   4   9   13.46    1.39
   0   4  -9   12.68    1.50
   0   4  -9   12.91    1.31
  -1  -4  -9    2.74    0.95
   1  -4   9    3.12    0.94
  -1   4  -9    3.08    0.86
  -1   4  -9    3.97    1.08
  -1   4  -9    2.43    1.07
   1   4   9    2.91    0.98
   2  -4   9    0.81    0.81
  -2  -4  -9    0.14    1.04
  -2   4  -9    2.90    1.03
  -2   4  -9    3.09    1.10
  -2   4  -9    3.26    0.85
   2   4   9    1.94    0.92
  -3  -4  -9    3.04    0.92
   3  -4   9    3.99    0.91
  -3   4  -9    3.41    0.85
   3   4   9    3.12    0.96
  -3   4  -9    3.91    1.48
  -3   4  -9    2.66    1.09
  -7  -5   9    0.73    0.84
  -7  -5   9   -1.24    0.74
   7  -5  -9    1.97    1.31
  -7  -5   9    0.55    1.13
   7  -5  -9   -0.16    1.15
  -7   5   9    0.32    1.07
   7   5  -9   -0.05    1.11
  -7   5   9    1.19    1.22
   7   5  -9   -0.20    0.88
  -7   5   9    1.18    1.15
  -6  -5   9   16.01    1.78
  -6  -5   9   14.76    1.61
   6  -5  -9   13.77    1.75
  -6  -5   9   13.42    1.58
   6  -5  -9   14.53    1.74
  -6   5   9   12.02    1.37
   6   5  -9   11.70    1.37
   6   5  -9   14.07    1.76
  -6   5   9   16.24    2.12
   6   5  -9   14.57    1.79
  -6   5   9   13.04    1.41
   5  -5  -9    0.28    1.11
  -5  -5   9    1.92    0.90
   5  -5  -9    3.45    1.13
   5  -5  -9    0.55    1.22
  -5  -5   9    3.30    0.83
  -5   5   9    1.55    0.81
  -5   5   9    2.28    1.09
   5   5  -9    2.43    0.83
   5   5  -9    1.94    1.23
   5   5  -9    3.00    1.24
  -5   5   9    1.19    1.41
   5   5  -9   -0.50    1.01
  -4  -5   9    2.01    0.90
   4  -5  -9    2.75    1.26
  -4  -5   9    1.93    1.14
   4  -5  -9    0.87    1.05
   4   5  -9    0.26    1.15
   4   5  -9    0.72    0.83
  -4   5   9    2.35    0.81
   4   5  -9    2.21    0.97
  -4   5   9    1.77    1.39
  -4   5   9    0.54    1.05
   4   5  -9    1.04    0.80
   3  -5  -9    9.72    1.21
   3  -5  -9    9.03    1.34
  -3  -5   9   10.16    1.15
  -3  -5   9    9.48    1.45
  -3   5   9    8.86    1.37
   3   5  -9    8.87    1.53
   3   5  -9    9.67    1.43
   3   5  -9   11.45    1.41
  -3   5   9    8.67    1.43
  -2  -5   9    2.20    0.84
   2  -5  -9    2.48    0.99
  -2  -5   9    3.36    0.73
   2   5  -9    3.28    1.29
   2   5  -9    1.74    1.24
   2   5  -9    3.23    0.86
  -2   5   9    4.88    1.45
  -2   5   9    3.37    1.14
   1  -5  -9   18.30    1.93
  -1  -5   9   21.12    1.65
  -1   5   9   18.12    1.55
   1   5  -9   19.45    1.93
   1   5  -9   19.59    1.53
   1   5  -9   17.80    1.75
   0  -5   9    0.30    0.95
   0  -5  -9   -0.01    0.82
   0   5  -9    0.16    0.88
   0   5  -9    1.97    1.30
   0   5   9   -0.62    0.97
   0   5  -9    1.71    1.17
   1  -5   9    9.16    1.14
  -1  -5  -9    8.44    1.53
  -1   5  -9   10.06    1.50
  -1   5  -9    8.08    1.26
   1   5   9    8.21    1.33
  -1   5  -9    9.42    1.23
  -2  -5  -9    3.60    1.02
   2  -5   9    2.28    0.75
  -2   5  -9    3.57    1.24
  -2   5  -9    3.39    1.54
   2   5   9    2.21    0.79
  -2   5  -9    2.54    0.92
   5  -6  -9    1.21    1.23
  -5  -6   9   -1.31    0.94
  -5  -6   9    0.84    0.91
   5  -6  -9    1.58    1.35
   5   6  -9    0.96    1.19
  -5   6   9   -0.05    1.45
  -5   6   9    0.37    0.80
  -5   6   9   -0.63    1.07
   5   6  -9   -2.19    1.18
   5   6  -9    0.31    0.79
   5   6  -9    2.20    1.23
  -4  -6   9    9.45    1.59
  -4  -6   9    8.74    1.09
   4  -6  -9    9.34    1.33
   4  -6  -9    7.66    1.65
  -4   6   9    7.91    1.49
   4   6  -9    9.56    1.67
  -4   6   9    9.90    1.57
   4   6  -9   11.13    1.37
   4   6  -9    8.89    1.57
  -3  -6   9    0.59    0.58
  -3  -6   9   -0.31    1.15
   3  -6  -9    1.65    1.39
  -3   6   9    2.41    1.49
  -3   6   9    2.45    1.21
   3   6  -9    2.68    1.21
   3   6  -9    0.76    0.93
   3   6  -9    0.20    1.14
   2  -6  -9    3.43    1.47
  -2  -6   9    3.97    1.32
   2   6  -9    3.80    1.39
   2   6  -9    2.41    1.29
   2   6  -9    2.96    1.22
  -2   6   9    4.12    1.31
   1  -6  -9    1.83    1.38
  -1  -6   9    1.90    1.19
   1   6  -9    5.19    1.49
   1   6  -9    2.52    1.07
   1   6  -9    4.45    1.25
  -1   6   9    3.07    1.28
   0  -6   9   46.28    2.53
   0  -6  -9   49.35    3.26
   0   6  -9   42.55    2.39
   0   6  -9   43.17    2.99
   0   6  -9   48.26    3.21
   0   6   9   46.30    2.86
   9   0 -10   -0.58    0.79
  -9   0  10   -0.34    1.07
  -9   0  10    0.26    0.84
   8   0 -10  144.53    5.45
  -8   0  10  149.54    5.48
  -8   0  10  149.84    5.48
  -8   0  10  151.44    5.37
  -7   0  10    0.15    0.94
   7   0 -10    0.97    0.78
  -7   0  10   -0.27    0.96
  -7   0  10    1.27    1.00
   7   0 -10   -0.28    0.94
   6   0 -10   27.25    2.12
   6   0 -10   30.37    2.09
  -6   0  10   27.14    1.96
  -6   0  10   26.47    2.14
  -6   0  10   27.38    1.81
   6   0 -10   33.38    2.01
   5   0 -10   -0.35    0.58
   5   0 -10    1.09    0.68
  -5   0  10    0.38    0.94
  -5   0  10   -0.09    0.81
   5   0 -10   -0.05    0.99
  -5   0  10   -1.28    0.81
  -4   0  10  133.96    4.77
  -4   0  10  141.20    5.05
   4   0 -10  137.06    4.88
   4   0 -10  142.01    4.89
   4   0 -10  138.03    5.08
   4   0 -10  136.05    5.25
  -4   0  10  142.35    4.81
  -3   0  10   -0.10    0.70
  -3   0  10   -0.25    0.60
   3   0 -10   -0.19    0.70
   3   0 -10   -0.24    0.58
   3   0 -10    0.45    1.04
  -3   0  10    0.08    0.94
   2   0 -10    1.86    0.66
   2   0 -10    1.45    0.86
  -2   0  10    3.54    0.98
   2   0 -10    3.43    1.15
  -2   0  10    4.49    0.82
  -2   0  10    3.86    0.85
  -1   0  10   -0.16    0.76
   1   0 -10    0.55    0.74
  -1   0  10   -0.52    0.76
  -1   0  10    0.70    0.60
   1   0 -10    0.88    0.95
   1   0 -10   -1.51    0.91
   1   0 -10   -0.95    0.72
   0   0  10   67.72    2.49
   0   0  10   65.94    2.66
   0   0 -10   63.82    2.71
   0   0 -10   65.36    3.00
   0   0  10   66.49    2.94
   0   0 -10   69.67    3.21
   0   0 -10   65.86    2.80
  -1   0 -10    1.04    0.66
  -1   0 -10   -0.94    0.56
   1   0  10    0.03    0.65
  -1   0 -10    0.28    0.94
   1   0  10    0.69    0.54
   2   0  10    6.75    0.91
  -2   0 -10    6.57    1.25
  -2   0 -10    6.94    0.88
   2   0  10    7.88    1.04
  -2   0 -10    6.56    0.85
  -3   0 -10   -0.20    0.63
  -3   0 -10   -0.80    0.63
   3   0  10    0.87    0.60
  -4   0 -10   45.89    2.57
   4   0  10   47.52    2.02
  -4   0 -10   44.16    1.92
   9  -1 -10    0.10    0.95
  -9  -1  10   -1.17    1.13
   9  -1 -10    0.39    1.18
  -9  -1  10   -0.17    1.06
  -9   1  10   -0.13    1.18
   9   1 -10   -0.03    0.87
  -9   1  10    1.03    0.79
  -8  -1  10    0.64    0.97
   8  -1 -10    0.46    0.99
  -8  -1  10   -0.10    0.78
  -8  -1  10    0.57    1.01
   8  -1 -10   -0.75    0.73
  -8   1  10    1.19    1.11
  -8   1  10    0.75    1.00
  -8   1  10    0.57    1.01
   8   1 -10    1.70    0.82
  -7  -1  10   98.00    3.85
  -7  -1  10   98.37    3.93
   7  -1 -10   98.97    3.86
   7  -1 -10   95.76    3.93
   7  -1 -10   95.01    3.94
  -7  -1  10   98.98    4.08
   7   1 -10  103.71    4.15
  -7   1  10   96.85    3.94
  -7   1  10  100.89    4.08
  -7   1  10   95.66    3.98
   7   1 -10  100.28    4.02
  -6  -1  10   13.82    1.45
   6  -1 -10   12.84    1.55
   6  -1 -10   15.07    1.51
  -6  -1  10   15.22    1.51
   6  -1 -10   14.62    1.59
  -6  -1  10   15.81    1.42
  -6   1  10   14.01    1.38
   6   1 -10   14.07    1.48
  -6   1  10   13.66    1.36
   6   1 -10   15.16    1.57
  -6   1  10   15.38    1.35
   5  -1 -10    2.83    0.83
  -5  -1  10    4.23    1.14
  -5  -1  10    3.33    0.98
  -5  -1  10    2.72    0.75
   5  -1 -10    3.22    1.01
   5  -1 -10    2.82    0.88
   5   1 -10    2.64    1.03
  -5   1  10    3.55    0.96
  -5   1  10    1.86    1.06
  -5   1  10    1.89    0.75
   5   1 -10    1.19    1.26
   4  -1 -10   30.50    2.03
   4  -1 -10   33.72    2.34
  -4  -1  10   29.53    1.81
   4  -1 -10   31.89    2.02
  -4  -1  10   33.82    1.92
  -4  -1  10   31.60    1.89
   4   1 -10   32.41    2.06
  -4   1  10   30.76    1.98
  -4   1  10   32.19    1.91
  -4   1  10   29.23    2.38
  -4   1  10   30.56    1.69
   4   1 -10   29.90    2.38
  -3  -1  10  124.75    4.37
  -3  -1  10  127.53    4.53
   3  -1 -10  125.48    4.88
   3  -1 -10  120.96    4.74
   3  -1 -10  131.24    4.47
   3  -1 -10  132.90    4.58
  -3   1  10  123.48    4.46
  -3   1  10  126.27    4.61
   3   1 -10  126.57    4.48
   3   1 -10  127.14    5.00
  -3   1  10  117.99    4.77
  -2  -1  10    1.68    0.64
   2  -1 -10   -0.40    0.90
  -2  -1  10    0.59    0.91
   2  -1 -10    1.56    0.83
   2  -1 -10    0.29    1.05
   2   1 -10    1.08    0.68
  -2   1  10   -0.03    0.82
   2   1 -10   -0.35    0.83
  -2   1  10    1.45    1.00
  -2   1  10    1.01    0.56
   2   1 -10    0.00    1.01
   1  -1 -10   26.51    1.95
  -1  -1  10   28.99    1.44
   1  -1 -10   26.84    2.00
   1  -1 -10   29.65    1.79
  -1  -1  10   23.89    1.84
  -1   1  10   31.84    1.89
  -1   1  10   27.65    1.83
   1   1 -10   30.41    1.94
  -1   1  10   28.15    1.63
   1   1 -10   30.73    2.00
   1   1 -10   27.23    1.77
   0  -1 -10    2.95    0.79
   0  -1  10    3.42    0.77
   0  -1 -10    3.02    0.80
   0  -1 -10    3.58    0.81
   0  -1 -10    3.74    1.16
   0  -1  10    2.18    0.86
   0   1 -10    3.32    0.85
   0   1  10    3.88    1.03
   0   1  10    3.21    0.85
   0   1 -10    2.26    0.84
   0   1 -10    2.43    1.11
  -1  -1 -10  105.98    4.22
   1  -1  10  100.16    3.86
  -1  -1 -10  106.14    3.77
  -1  -1 -10  105.67    3.81
  -1  -1 -10  107.83    4.22
  -1   1 -10  103.77    3.82
  -1   1 -10  112.36    4.48
   1   1  10  108.89    3.88
  -1   1 -10  107.53    3.95
   1   1  10  115.08    4.26
  -2  -1 -10    7.45    1.30
  -2  -1 -10    8.08    1.07
   2  -1  10    9.35    1.01
   2   1  10    8.36    1.22
  -2   1 -10    9.09    1.28
  -2   1 -10    8.91    1.06
  -2   1 -10    8.29    0.93
   2   1  10    8.65    0.98
  -3  -1 -10    9.18    1.31
  -3  -1 -10    8.00    1.27
   3  -1  10    9.59    0.97
  -3   1 -10    9.32    1.55
  -3   1 -10    6.83    0.92
   3   1  10   10.04    1.06
  -4  -1 -10    2.12    1.06
   4  -1  10    2.17    0.63
   4   1  10    2.05    0.65
  -4   1 -10    4.23    1.12
  -4   1 -10    2.11    0.68
  -9  -2  10    0.37    0.87
   9  -2 -10    1.56    1.04
   9  -2 -10    0.73    0.87
  -9  -2  10   -0.24    1.12
  -9   2  10    1.02    1.17
  -9   2  10    2.96    0.99
  -8  -2  10    0.06    1.01
   8  -2 -10    1.25    1.08
  -8  -2  10   -0.92    1.03
  -8  -2  10   -0.15    0.78
   8  -2 -10    2.23    1.21
  -8   2  10   -0.36    0.98
  -8   2  10    2.04    1.10
  -8   2  10   -0.58    1.12
   7  -2 -10    3.97    0.93
  -7  -2  10    5.32    1.02
  -7  -2  10    5.46    1.24
  -7  -2  10    3.54    0.90
   7  -2 -10    4.64    1.26
   7  -2 -10    6.18    1.20
  -7   2  10    3.64    1.19
  -7   2  10    5.57    0.98
   7   2 -10    6.97    1.24
  -7   2  10    2.59    1.20
  -6  -2  10   82.75    3.49
  -6  -2  10   77.55    3.35
   6  -2 -10   88.80    3.68
   6  -2 -10   82.05    3.55
  -6  -2  10   78.74    3.44
   6  -2 -10   80.22    3.37
  -6   2  10   86.42    3.55
   6   2 -10   78.07    3.55
  -6   2  10   89.20    3.69
   6   2 -10   83.31    3.85
  -6   2  10   82.99    3.62
   5  -2 -10    0.97    0.98
   5  -2 -10    1.19    0.98
  -5  -2  10    0.62    0.97
   5  -2 -10    1.46    0.77
  -5  -2  10   -0.43    0.78
  -5  -2  10   -0.72    0.82
   5   2 -10   -0.75    1.14
  -5   2  10    0.81    0.89
   5   2 -10    0.80    0.73
  -5   2  10    1.28    0.91
  -5   2  10    1.45    1.01
  -5   2  10   -0.07    0.97
   4  -2 -10   18.65    1.55
  -4  -2  10   18.90    1.51
   4  -2 -10   17.22    1.41
  -4  -2  10   18.48    1.65
  -4  -2  10   18.41    1.42
   4  -2 -10   18.41    1.76
  -4   2  10   20.77    2.02
  -4   2  10   17.66    1.46
  -4   2  10   17.15    1.55
  -4   2  10   17.82    1.59
   4   2 -10   17.95    1.74
   4   2 -10   15.79    1.66
   4   2 -10   19.43    1.64
   3  -2 -10   10.42    1.05
   3  -2 -10    6.24    1.28
   3  -2 -10   10.16    1.36
  -3  -2  10   10.61    1.31
   3  -2 -10    8.84    1.18
  -3  -2  10   10.82    1.05
  -3   2  10    7.34    1.02
  -3   2  10    6.67    1.11
   3   2 -10   10.13    1.36
  -3   2  10    9.59    1.30
   3   2 -10    8.52    1.26
   3   2 -10   10.02    1.09
   2  -2 -10   69.48    3.35
   2  -2 -10   68.25    3.14
  -2  -2  10   69.60    2.94
   2  -2 -10   70.40    2.96
  -2  -2  10   68.85    2.56
   2   2 -10   66.98    2.85
  -2   2  10   67.81    3.01
   2   2 -10   71.69    3.27
  -2   2  10   68.59    3.37
   2   2 -10   65.34    2.98
  -1  -2  10    1.27    0.90
   1  -2 -10    1.02    0.85
  -1  -2  10    0.46    0.45
   1  -2 -10    0.58    0.79
   1   2 -10    1.81    0.98
  -1   2  10    1.12    0.79
   1   2 -10   -0.59    0.79
   1   2 -10    0.33    0.80
  -1   2  10    0.00    0.83
   0  -2 -10   96.78    3.85
   0  -2  10   95.05    3.72
   0  -2 -10  104.00    4.20
   0   2 -10   97.09    3.84
   0   2  10   99.73    4.12
   0   2  10   99.22    3.72
   0   2 -10   90.51    3.62
   0   2 -10   96.98    4.24
  -1  -2 -10    2.35    0.85
   1  -2  10    3.06    0.87
  -1  -2 -10    0.75    1.08
  -1   2 -10    4.24    1.28
   1   2  10    2.95    0.86
  -1   2 -10    2.72    0.82
  -1   2 -10    2.71    0.90
   2  -2  10    1.57    0.74
  -2  -2 -10    2.62    1.15
  -2  -2 -10    2.93    0.92
   2   2  10    4.21    0.86
  -2   2 -10    4.00    0.81
  -2   2 -10    3.41    0.93
  -2   2 -10    1.07    0.90
  -3  -2 -10    1.44    1.00
   3  -2  10    0.37    0.65
  -3   2 -10    2.96    1.33
  -3   2 -10    0.26    0.75
  -3   2 -10    0.04    0.60
   3   2  10    1.27    0.71
  -4  -2 -10   47.24    2.73
   4  -2  10   47.70    2.21
   4   2  10   47.47    2.19
  -4   2 -10   41.10    3.10
  -4   2 -10   46.60    2.11
  -8  -3  10   -0.71    1.09
   8  -3 -10    1.55    1.26
  -8  -3  10    2.06    0.88
  -8  -3  10   -0.55    0.74
   8  -3 -10   -0.30    0.74
  -8   3  10   -0.22    0.80
   8   3 -10    2.40    1.32
   8   3 -10   -0.11    0.96
  -8   3  10    1.65    1.18
  -7  -3  10    1.59    1.08
   7  -3 -10    1.87    1.21
   7  -3 -10    3.09    1.14
   7  -3 -10    4.34    1.25
  -7  -3  10    3.73    0.94
  -7  -3  10    4.15    0.99
   7   3 -10    1.98    1.11
  -7   3  10    3.75    0.94
   7   3 -10    4.94    1.50
  -7   3  10    4.20    1.19
   7   3 -10    1.66    0.99
  -7   3  10    2.94    0.96
   6  -3 -10   24.25    2.00
   6  -3 -10   24.85    2.05
   6  -3 -10   21.93    1.70
  -6  -3  10   20.86    1.76
  -6  -3  10   23.61    1.94
  -6  -3  10   19.76    1.62
  -6   3  10   22.28    2.34
   6   3 -10   23.83    1.78
  -6   3  10   23.90    1.72
  -6   3  10   23.23    1.92
  -6   3  10   22.88    1.89
   6   3 -10   23.51    1.93
   6   3 -10   21.85    2.20
  -5  -3  10   12.20    1.34
  -5  -3  10   10.39    1.27
  -5  -3  10    9.70    1.44
   5  -3 -10   13.07    1.53
   5  -3 -10    7.59    1.45
   5  -3 -10   13.62    1.49
   5   3 -10   10.36    1.35
  -5   3  10   11.35    1.28
  -5   3  10   10.90    1.42
   5   3 -10   13.57    1.84
  -5   3  10   12.05    1.37
  -5   3  10   10.25    1.52
   5   3 -10   11.24    1.43
   4  -3 -10    6.12    1.12
   4  -3 -10    5.99    0.98
  -4  -3  10    7.58    1.30
   4  -3 -10    6.11    1.20
  -4  -3  10    5.40    0.82
  -4   3  10    5.73    1.23
   4   3 -10    4.54    1.26
  -4   3  10    6.49    0.99
   4   3 -10    5.95    1.01
  -4   3  10    7.82    1.28
  -3  -3  10   12.92    1.06
  -3  -3  10   13.16    1.48
   3  -3 -10   11.22    1.37
   3  -3 -10   11.90    1.34
   3  -3 -10   12.70    1.37
   3   3 -10   13.64    1.46
  -3   3  10   12.32    1.28
   3   3 -10   11.12    1.67
  -3   3  10   13.28    1.76
   3   3 -10   14.03    1.62
  -2  -3  10    2.22    1.00
   2  -3 -10    2.29    0.90
   2  -3 -10    0.99    0.86
  -2  -3  10    2.28    0.61
   2   3 -10    1.33    1.06
  -2   3  10    2.45    1.00
   2   3 -10    1.72    1.17
  -2   3  10    1.87    0.91
   2   3 -10    3.63    1.03
  -1  -3  10   -0.24    0.62
   1  -3 -10    0.08    1.06
   1  -3 -10   -0.66    0.68
  -1   3  10    0.92    0.91
   1   3 -10    0.27    1.08
   1   3 -10    0.37    0.64
  -1   3  10   -0.82    1.06
   1   3 -10    0.56    0.71
   0  -3  10    3.73    0.98
   0   3 -10    6.98    1.46
   0   3  10    8.04    1.11
  -1  -3 -10   17.20    1.44
   1  -3  10   17.27    1.37
  -1  -3 -10   16.40    1.78
  -1   3 -10   17.26    1.41
  -1   3 -10   17.86    1.51
  -1   3 -10   18.75    1.95
   1   3  10   16.78    1.47
   2  -3  10    2.72    0.84
  -2  -3 -10    1.71    1.12
   2   3  10    2.71    0.88
  -2   3 -10    2.73    1.34
  -2   3 -10    2.44    0.81
  -2   3 -10    1.60    0.98
  -3  -3 -10   -0.51    1.01
   3  -3  10    0.08    0.68
  -3   3 -10    0.56    0.65
  -3   3 -10    0.19    0.88
  -3   3 -10   -0.60    1.27
   3   3  10    0.10    0.72
  -7  -4  10   16.00    1.55
  -7  -4  10   18.92    1.70
  -7  -4  10   22.30    1.91
   7  -4 -10   17.90    1.72
   7  -4 -10   14.11    1.78
  -7   4  10   19.85    1.88
  -7   4  10   16.65    1.88
   7   4 -10   18.82    1.94
   7   4 -10   16.84    1.75
  -7   4  10   18.21    2.33
  -7   4  10   18.94    1.85
   7   4 -10   17.19    1.76
   6  -4 -10    3.10    1.26
  -6  -4  10    3.20    0.89
  -6  -4  10    2.01    1.22
  -6  -4  10    2.56    1.09
   6  -4 -10    2.46    1.14
   6  -4 -10    2.87    1.27
  -6   4  10    2.84    1.20
   6   4 -10    2.15    0.88
  -6   4  10    3.07    1.16
   6   4 -10    4.60    1.08
  -6   4  10    3.85    1.30
  -6   4  10    3.13    1.53
   6   4 -10    3.70    1.36
  -5  -4  10   31.91    1.89
   5  -4 -10   31.49    2.00
   5  -4 -10   34.28    2.30
   5  -4 -10   31.70    2.10
  -5  -4  10   34.41    2.19
   5   4 -10   35.15    2.28
   5   4 -10   33.54    2.34
   5   4 -10   36.22    2.68
  -5   4  10   31.29    2.46
  -5   4  10   29.32    2.32
  -5   4  10   35.05    2.31
   4  -4 -10    0.18    0.98
  -4  -4  10    0.15    0.76
   4  -4 -10    0.63    1.00
   4  -4 -10   -1.35    1.12
  -4  -4  10    0.08    0.76
   4   4 -10   -0.40    1.10
   4   4 -10    0.81    1.04
   4   4 -10    0.71    0.85
  -4   4  10   -1.26    1.24
  -4   4  10    0.06    0.74
  -3  -4  10    6.41    1.08
  -3  -4  10    5.52    0.88
   3  -4 -10    5.56    1.45
  -3   4  10    3.49    1.15
   3   4 -10    6.47    1.05
   3   4 -10    5.25    1.09
   3   4 -10    5.81    1.46
  -3   4  10    5.75    1.24
  -2  -4  10    3.81    1.15
   2  -4 -10    5.42    1.01
   2  -4 -10    4.00    1.34
   2   4 -10    4.49    1.14
   2   4 -10    3.07    1.05
  -2   4  10    6.73    1.48
   2   4 -10    4.23    0.99
  -2   4  10    2.86    1.12
   1  -4 -10    3.29    0.83
   1  -4 -10    2.88    1.25
  -1  -4  10    2.02    1.06
   1   4 -10    4.00    1.07
  -1   4  10    2.82    1.06
  -1   4  10    3.07    1.35
   1   4 -10    2.76    0.98
   1   4 -10    3.63    1.27
   0  -4  10   17.10    1.56
   0  -4 -10   14.85    1.80
   0   4 -10   14.63    1.88
   0   4 -10   14.50    1.63
   0   4 -10   12.40    1.37
   0   4  10   14.64    1.52
   1  -4  10    4.97    1.08
  -1  -4 -10    7.28    1.44
   1   4  10    5.38    0.95
  -1   4 -10    7.97    1.40
  -1   4 -10    6.00    1.08
  -1   4 -10    4.82    1.48
   2  -4  10    2.45    0.91
  -2  -4 -10    1.35    1.18
  -2   4 -10    1.14    1.08
  -2   4 -10    1.79    1.04
   2   4  10    2.05    1.00
  -2   4 -10    1.06    0.81
   6  -5 -10   14.63    1.50
  -6  -5  10   14.59    1.46
  -6  -5  10   16.88    1.88
   6  -5 -10   16.69    1.96
   6  -5 -10   14.33    1.79
  -6   5  10   17.37    1.79
   6   5 -10   15.15    1.93
   6   5 -10   16.38    1.99
  -6   5  10   14.62    1.72
  -6   5  10   16.42    2.27
   6   5 -10   14.43    1.73
  -5  -5  10    8.71    1.29
   5  -5 -10    5.31    1.37
   5  -5 -10    6.24    1.25
  -5  -5  10    6.84    1.22
   5  -5 -10    6.38    1.33
  -5   5  10    8.35    1.91
   5   5 -10    7.16    1.56
   5   5 -10    7.86    1.45
  -5   5  10    7.57    1.19
  -5   5  10    6.69    1.46
   5   5 -10    5.25    1.50
  -4  -5  10   35.74    2.58
   4  -5 -10   33.57    2.78
  -4  -5  10   32.07    1.86
   4  -5 -10   37.02    2.49
  -4   5  10   34.12    2.93
   4   5 -10   32.63    2.13
   4   5 -10   34.21    2.32
   4   5 -10   34.19    2.71
  -4   5  10   34.41    2.51
   3  -5 -10    5.73    1.24
  -3  -5  10    6.06    1.36
  -3  -5  10    7.68    1.03
   3   5 -10    5.41    1.53
   3   5 -10    7.38    1.39
   3   5 -10    5.38    1.47
  -3   5  10    5.86    1.14
  -3   5  10    6.28    1.33
  -2  -5  10   80.46    3.76
   2  -5 -10   86.58    4.17
   2   5 -10   85.50    3.98
   2   5 -10   83.41    3.87
   2   5 -10   83.24    3.68
  -2   5  10   84.28    4.28
  -2   5  10   79.61    3.53
   1  -5 -10    0.15    1.23
  -1  -5  10    1.83    1.06
   1   5 -10    1.74    1.31
   1   5 -10    1.01    1.26
   1   5 -10    0.94    1.03
  -1   5  10    0.57    0.80
   0  -5  10   14.81    1.58
   0  -5 -10   11.98    1.81
   0   5  10   12.92    1.62
   0   5 -10   14.50    1.80
   0   5 -10   10.62    1.82
   0   5 -10   15.19    1.53
   1  -5  10    1.42    0.99
  -1  -5 -10    2.09    1.00
  -1   5 -10    2.83    1.06
   1   5  10    1.94    1.13
  -1   5 -10    2.32    1.48
   9   0 -11   46.84    2.98
  -9   0  11   40.23    2.87
  -9   0  11   42.16    2.47
   8   0 -11    0.02    1.16
  -8   0  11   -0.65    0.74
  -8   0  11   -0.04    1.05
  -8   0  11   -0.01    0.80
   8   0 -11    1.06    1.25
   7   0 -11   10.94    1.50
  -7   0  11   14.25    1.57
   7   0 -11   12.83    1.60
  -7   0  11   14.38    1.46
  -7   0  11   14.71    1.62
  -6   0  11    0.38    0.66
  -6   0  11    0.81    1.01
   6   0 -11    0.38    1.02
  -6   0  11    0.64    1.07
   6   0 -11   -0.76    0.95
   5   0 -11   11.30    1.34
   5   0 -11   11.60    1.75
   5   0 -11   11.11    1.47
  -5   0  11   12.80    1.52
  -5   0  11    9.46    1.13
  -5   0  11   11.86    1.20
   5   0 -11   10.51    1.39
   4   0 -11    0.43    1.12
   4   0 -11    0.16    0.81
   4   0 -11    0.88    0.98
  -4   0  11   -0.39    0.83
   4   0 -11   -0.28    0.77
  -4   0  11    0.31    1.03
   3   0 -11   12.86    1.65
   3   0 -11   11.23    1.45
  -3   0  11   12.00    1.47
   3   0 -11   11.62    1.38
  -3   0  11   12.64    1.22
  -2   0  11   -0.17    0.89
   2   0 -11    0.06    0.76
  -2   0  11    1.06    0.67
  -2   0  11   -0.60    0.87
   2   0 -11    0.52    0.62
   2   0 -11    0.43    1.07
  -1   0  11   28.04    1.97
   1   0 -11   31.15    2.02
  -1   0  11   29.04    2.06
  -1   0  11   28.22    1.60
   1   0 -11   31.53    2.37
   1   0 -11   32.03    1.93
   1   0 -11   31.20    2.38
   0   0  11   -0.49    0.78
   0   0 -11   -0.08    0.52
   0   0 -11   -0.29    0.74
   0   0 -11    0.62    1.05
   0   0  11    0.27    0.80
   1   0  11   70.03    3.01
  -1   0 -11   69.97    3.29
  -1   0 -11   72.84    2.95
   1   0  11   73.25    3.02
  -1   0 -11   73.18    2.95
  -2   0 -11   -0.10    0.73
  -2   0 -11    1.11    0.69
   2   0  11    0.23    0.72
  -3   0 -11   25.19    2.31
   3   0  11   21.65    1.74
  -3   0 -11   26.00    1.55
  -9  -1  11    3.50    1.09
   9  -1 -11    6.96    1.53
  -9  -1  11    2.27    1.25
  -9   1  11    3.34    1.25
   9   1 -11    4.79    1.12
  -9   1  11    2.43    1.35
  -8  -1  11   38.06    2.56
   8  -1 -11   36.94    2.64
   8  -1 -11   34.73    2.25
  -8  -1  11   35.20    2.26
  -8  -1  11   38.87    2.49
   8   1 -11   29.45    2.50
   8   1 -11   35.87    2.62
  -8   1  11   35.63    2.28
  -8   1  11   31.37    2.18
  -8   1  11   34.97    2.44
   7  -1 -11   -0.88    0.71
  -7  -1  11    0.44    1.06
  -7  -1  11    0.02    1.00
   7  -1 -11    0.14    0.74
  -7  -1  11   -1.24    1.00
   7  -1 -11    0.05    1.09
   7   1 -11    0.65    0.80
  -7   1  11    0.04    0.98
  -7   1  11    1.21    1.08
  -7   1  11    0.15    0.76
  -6  -1  11    3.38    0.84
   6  -1 -11    2.48    0.94
   6  -1 -11    3.58    1.15
   6  -1 -11    2.85    1.16
  -6  -1  11    2.87    1.09
  -6  -1  11    2.77    1.17
  -6   1  11    3.71    0.89
  -6   1  11    3.04    1.13
  -6   1  11    3.07    0.94
   6   1 -11    2.67    0.91
   6   1 -11    2.24    1.45
   5  -1 -11    4.54    1.10
  -5  -1  11    5.13    1.09
  -5  -1  11    2.81    1.17
   5  -1 -11    5.72    1.20
  -5  -1  11    7.59    1.49
   5  -1 -11    3.83    1.00
  -5   1  11    4.49    0.94
  -5   1  11    4.50    0.88
  -5   1  11    4.97    1.23
   5   1 -11    4.80    1.22
   5   1 -11    1.69    1.30
   4  -1 -11  106.17    4.44
   4  -1 -11  105.57    4.10
  -4  -1  11  103.96    3.82
  -4  -1  11  101.92    4.02
   4  -1 -11   92.04    4.22
   4  -1 -11  101.90    3.87
  -4   1  11  103.22    4.36
   4   1 -11  103.64    4.10
  -4   1  11  101.74    3.98
   4   1 -11  103.01    4.39
  -4   1  11  107.74    4.21
  -3  -1  11   24.33    1.65
   3  -1 -11   22.87    1.90
   3  -1 -11   22.39    2.05
  -3  -1  11   23.74    2.01
   3  -1 -11   24.58    2.20
   3   1 -11   22.31    1.80
   3   1 -11   24.12    2.10
  -3   1  11   22.42    1.87
   3   1 -11   22.48    1.97
  -3   1  11   25.79    1.92
  -3   1  11   21.92    1.73
   2  -1 -11    0.39    0.81
  -2  -1  11    0.27    0.61
  -2  -1  11    0.75    0.69
   2  -1 -11   -0.25    0.83
   2  -1 -11   -0.60    0.98
   2   1 -11    0.53    0.82
  -2   1  11   -1.73    0.83
  -2   1  11   -0.75    0.72
   2   1 -11    1.01    0.73
   2   1 -11    0.26    0.65
  -2   1  11    1.21    1.07
   1  -1 -11    5.22    0.85
   1  -1 -11    6.62    1.26
  -1  -1  11    6.25    0.97
   1  -1 -11    4.74    1.33
  -1  -1  11    6.34    0.88
  -1   1  11    7.98    1.35
  -1   1  11    6.87    0.93
   1   1 -11    6.81    0.92
   1   1 -11    6.16    0.99
   1   1 -11    6.53    1.43
  -1   1  11    5.59    1.08
   0  -1 -11   41.29    2.54
   0  -1 -11   39.08    2.13
   0  -1 -11   44.96    2.77
   0  -1  11   39.53    2.26
   0  -1 -11   39.02    2.12
   0   1  11   39.89    2.24
   0   1 -11   41.61    2.77
   0   1  11   43.81    2.53
   0   1  11   38.53    1.94
   0   1 -11   40.72    2.16
   0   1 -11   41.62    2.30
  -1  -1 -11    8.56    1.06
   1  -1  11   10.95    1.21
  -1  -1 -11   10.12    1.54
  -1  -1 -11   13.39    1.50
   1   1  11    9.27    1.16
   1   1  11    9.32    1.34
  -1   1 -11   11.62    1.24
  -1   1 -11    9.15    1.31
  -1   1 -11    9.01    1.12
  -2  -1 -11    6.25    0.94
  -2  -1 -11    5.76    1.07
  -2  -1 -11    5.88    1.25
   2  -1  11    5.74    0.98
   2   1  11    5.99    1.01
  -2   1 -11    6.23    0.95
  -2   1 -11    8.27    1.09
  -2   1 -11    6.30    1.43
   2   1  11    6.47    0.99
  -3  -1 -11   22.70    1.51
   3  -1  11   20.91    1.58
  -3  -1 -11   23.72    2.11
  -3   1 -11   21.01    2.00
   3   1  11   23.57    1.59
  -3   1 -11   21.74    1.48
  -8  -2  11    2.26    1.18
  -8  -2  11    1.21    1.14
   8  -2 -11    1.14    1.17
  -8  -2  11    0.54    1.09
   8  -2 -11    1.69    1.19
  -8   2  11    0.36    0.88
  -8   2  11    1.23    0.80
  -8   2  11    1.70    0.85
   8   2 -11    2.75    1.49
  -7  -2  11   54.27    2.91
  -7  -2  11   54.52    2.75
   7  -2 -11   61.45    3.17
  -7  -2  11   56.58    3.08
   7  -2 -11   53.62    2.88
   7  -2 -11   54.82    2.75
   7   2 -11   51.88    2.95
  -7   2  11   61.15    3.13
   7   2 -11   59.09    3.32
  -7   2  11   51.02    2.67
  -7   2  11   53.52    2.82
  -6  -2  11   -0.12    0.67
  -6  -2  11    0.08    1.10
   6  -2 -11    0.01    0.78
   6  -2 -11    0.44    0.76
   6  -2 -11    1.51    1.13
  -6  -2  11   -0.94    0.89
   6   2 -11    0.91    0.98
  -6   2  11    0.97    0.77
  -6   2  11    0.45    0.98
   6   2 -11    0.97    0.80
  -6   2  11    2.06    0.89
  -5  -2  11   44.95    2.45
   5  -2 -11   42.26    2.83
  -5  -2  11   42.40    2.36
   5  -2 -11   42.25    2.31
   5  -2 -11   43.28    2.55
  -5   2  11   41.98    2.31
   5   2 -11   45.37    2.62
  -5   2  11   41.98    3.02
   5   2 -11   46.07    2.76
  -5   2  11   41.43    2.62
  -5   2  11   45.64    2.57
   5   2 -11   41.43    2.49
  -4  -2  11   11.47    1.51
   4  -2 -11   18.65    1.47
  -4  -2  11   15.48    1.35
   4  -2 -11   15.96    1.81
   4  -2 -11   11.62    1.41
   4  -2 -11   12.13    1.45
  -4   2  11   13.33    1.49
   4   2 -11   14.71    1.72
  -4   2  11   13.62    1.62
  -4   2  11   13.82    1.37
   4   2 -11   18.38    2.02
   4   2 -11   12.74    1.51
  -3  -2  11   14.41    1.21
  -3  -2  11   15.17    1.59
   3  -2 -11   13.63    1.52
   3  -2 -11   12.94    1.63
   3  -2 -11   15.59    1.52
   3   2 -11   14.17    1.81
   3   2 -11   17.50    1.76
   3   2 -11   13.01    1.30
  -3   2  11   13.73    1.41
  -3   2  11   15.52    1.42
  -3   2  11   13.58    1.56
   2  -2 -11    1.92    1.23
   2  -2 -11    3.32    0.81
  -2  -2  11    3.93    0.73
   2  -2 -11    2.83    1.09
  -2  -2  11    4.23    1.11
   2   2 -11    4.33    1.21
  -2   2  11    3.46    1.26
   2   2 -11    3.60    1.07
   2   2 -11    2.34    0.99
  -2   2  11    3.37    0.85
   1  -2 -11   96.60    3.77
   1  -2 -11  104.87    4.06
  -1  -2  11   95.09    3.88
   1  -2 -11   91.74    4.27
  -1   2  11   92.20    3.82
   1   2 -11   99.16    3.84
   1   2 -11   93.33    4.17
  -1   2  11   98.31    4.26
   1   2 -11   97.30    4.00
   0  -2 -11    7.42    1.06
   0  -2  11    6.59    0.97
   0  -2 -11    8.76    1.52
   0   2  11    6.47    1.33
   0   2 -11    7.45    1.53
   0   2 -11    8.00    1.23
   0   2 -11    5.98    1.05
   0   2  11    5.12    1.05
  -1  -2 -11    1.64    1.22
   1  -2  11    0.97    0.62
  -1  -2 -11    1.53    0.91
  -1   2 -11    1.35    0.74
   1   2  11    2.25    0.89
   1   2  11    0.88    1.08
  -1   2 -11    1.91    0.85
  -1   2 -11   -0.23    1.12
   2  -2  11   -0.12    0.77
  -2  -2 -11    1.38    0.71
  -2  -2 -11   -0.04    1.10
  -2   2 -11   -0.07    1.18
  -2   2 -11    2.18    0.92
   2   2  11    1.33    0.84
  -2   2 -11    1.04    0.75
  -8  -3  11    8.36    1.48
  -8   3  11    7.12    1.45
   8   3 -11    8.27    1.45
   8   3 -11    9.32    1.92
   7  -3 -11    4.64    1.03
  -7  -3  11    6.55    1.20
  -7  -3  11    4.12    1.01
   7  -3 -11    6.65    1.19
   7  -3 -11    7.71    1.47
  -7  -3  11    5.23    1.27
   7   3 -11    5.40    1.31
   7   3 -11    8.24    1.62
  -7   3  11    4.95    1.41
  -7   3  11    3.02    1.27
  -7   3  11    6.92    1.36
   7   3 -11    5.00    1.31
   6  -3 -11    1.21    1.11
  -6  -3  11   -0.79    0.92
  -6  -3  11    0.86    1.14
   6  -3 -11    1.13    0.87
   6  -3 -11    0.51    1.09
  -6   3  11    0.13    0.78
   6   3 -11   -1.30    1.15
   6   3 -11    0.01    0.94
  -6   3  11   -0.20    1.00
  -6   3  11    0.39    1.03
  -6   3  11    0.19    1.11
   6   3 -11    0.18    0.76
   5  -3 -11    8.43    1.39
   5  -3 -11    8.63    1.39
   5  -3 -11    7.46    1.50
  -5  -3  11    9.29    1.25
  -5  -3  11    7.67    1.21
   5   3 -11   10.17    1.53
  -5   3  11    9.08    1.42
  -5   3  11    8.70    1.44
   5   3 -11    6.15    1.21
   5   3 -11   10.36    1.48
  -5   3  11   10.80    1.78
   4  -3 -11   18.67    1.57
  -4  -3  11   20.15    1.71
  -4  -3  11   20.41    1.61
   4  -3 -11   18.59    1.73
  -4   3  11   17.43    1.73
  -4   3  11   19.98    1.97
   4   3 -11   22.43    1.86
  -4   3  11   20.38    1.81
   4   3 -11   14.12    1.96
   4   3 -11   23.68    2.06
   3  -3 -11    0.75    0.72
   3  -3 -11    0.07    0.94
  -3  -3  11    0.16    0.71
  -3  -3  11    0.19    0.63
   3  -3 -11   -0.77    0.77
   3   3 -11    0.92    1.02
  -3   3  11    0.02    1.02
   3   3 -11    1.78    1.29
  -3   3  11   -0.99    1.17
   3   3 -11    0.42    0.82
  -2  -3  11   11.86    1.45
   2  -3 -11    8.66    1.30
   2  -3 -11   10.85    1.38
   2   3 -11    8.77    1.31
  -2   3  11    9.25    1.36
   2   3 -11   11.32    1.35
   2   3 -11    8.69    1.67
  -2   3  11    9.58    1.67
   1  -3 -11    5.95    1.38
  -1  -3  11    2.62    1.06
   1  -3 -11    3.13    0.93
  -1   3  11    3.10    1.34
   1   3 -11    4.45    0.86
   1   3 -11    3.15    1.19
   1   3 -11    4.23    1.14
  -1   3  11    2.05    1.04
   0  -3 -11    6.94    1.45
   0  -3  11    6.08    1.20
   0  -3 -11    9.12    1.20
   0   3 -11    7.24    1.01
   0   3  11   11.92    1.67
   0   3  11    7.79    1.24
   0   3 -11    7.84    1.31
   0   3 -11    8.90    1.42
  -1  -3 -11    1.06    1.22
   1  -3  11    0.60    0.62
  -1   3 -11    0.48    0.89
  -1   3 -11    1.61    0.90
   1   3  11   -0.09    0.84
  -1   3 -11    0.49    0.98
  -2  -3 -11   11.10    1.68
   2  -3  11   11.43    1.29
   2   3  11   10.97    1.31
  -2   3 -11   12.50    1.92
  -2   3 -11   11.32    1.25
  -2   3 -11   10.03    1.44
   6  -4 -11    5.06    1.47
   6  -4 -11    4.51    1.35
  -6  -4  11    6.84    1.48
   6  -4 -11    6.29    1.37
  -6  -4  11    6.32    1.26
   6   4 -11    5.06    1.25
  -6   4  11    3.98    1.35
   6   4 -11    6.61    1.55
   6   4 -11    5.51    1.12
  -6   4  11    4.25    1.36
  -6   4  11    4.12    1.06
  -6   4  11    5.05    1.30
   5  -4 -11   -0.44    0.77
  -5  -4  11    0.25    0.62
   5  -4 -11   -0.42    0.82
   5  -4 -11    0.40    1.09
  -5  -4  11   -0.01    1.17
   5   4 -11    1.17    1.02
   5   4 -11   -0.06    0.78
  -5   4  11    0.55    1.41
   5   4 -11   -2.26    1.17
  -5   4  11   -1.05    1.09
  -4  -4  11    4.98    1.37
   4  -4 -11    7.09    1.56
   4  -4 -11    7.87    1.34
  -4  -4  11    6.73    1.04
   4   4 -11    7.27    1.36
   4   4 -11    5.69    1.21
  -4   4  11    6.16    1.72
  -4   4  11    7.11    1.38
   4   4 -11    5.07    1.03
   3  -4 -11    1.72    1.00
  -3  -4  11    2.26    1.20
   3  -4 -11    1.21    1.28
   3   4 -11    1.31    1.36
   3   4 -11   -0.04    1.06
   3   4 -11    3.67    1.38
  -3   4  11    0.45    1.00
  -3   4  11    2.23    0.88
  -2  -4  11   16.22    1.53
   2  -4 -11   14.49    1.50
   2  -4 -11   14.84    1.87
   2   4 -11   16.18    1.83
   2   4 -11   13.80    1.42
  -2   4  11   12.86    1.43
  -2   4  11   14.09    1.72
   2   4 -11   15.27    1.77
   1  -4 -11    3.01    1.06
  -1  -4  11    0.03    0.73
   1   4 -11    0.80    0.72
   1   4 -11    2.35    1.25
  -1   4  11    0.85    0.95
   1   4 -11    2.64    1.41
  -1   4  11    0.98    1.08
   0  -4 -11   -2.74    1.13
   0  -4  11    1.47    0.78
   0   4 -11    0.55    0.96
   0   4 -11    0.01    0.77
   0   4 -11   -0.52    0.88
   0   4  11   -0.59    0.98
  -1   4 -11    0.04    0.65
  -4   5  11    5.08    1.41
   4   5 -11    4.37    1.33
  -3  -5  11   68.89    3.25
   3  -5 -11   61.53    3.75
  -3   5  11   61.40    3.57
  -3   5  11   66.68    3.44
   3   5 -11   66.48    3.76
   3   5 -11   61.86    3.56
   3   5 -11   61.89    3.28
  -2  -5  11   -0.59    1.15
  -2   5  11    0.35    1.02
   2   5 -11    0.09    1.09
   2   5 -11    0.46    1.36
  -2   5  11   -0.81    1.13
  -8   0  12    0.51    1.09
  -8   0  12    2.22    1.26
   8   0 -12    1.33    1.23
   8   0 -12    0.67    0.91
  -8   0  12    1.25    0.88
   7   0 -12    0.06    1.13
  -7   0  12    0.79    0.74
  -7   0  12   -2.33    1.07
   7   0 -12    1.14    1.14
  -7   0  12   -0.11    0.79
  -6   0  12    3.28    1.14
  -6   0  12    2.66    1.25
   6   0 -12    0.87    1.09
   6   0 -12    3.05    1.24
   6   0 -12    1.54    1.44
   5   0 -12   -1.39    1.23
  -5   0  12    0.88    0.95
  -5   0  12   -0.69    0.72
   5   0 -12    0.22    1.11
   4   0 -12   39.17    2.64
  -4   0  12   43.32    2.41
   4   0 -12   37.46    2.81
  -4   0  12   45.16    2.39
   4   0 -12   43.49    2.34
   3   0 -12   -1.61    1.06
   3   0 -12    0.23    0.99
  -3   0  12    0.17    1.04
  -3   0  12   -0.97    0.75
   3   0 -12   -1.26    1.12
  -2   0  12    1.00    0.77
   2   0 -12    0.78    0.76
  -2   0  12    1.57    1.06
   2   0 -12    3.11    0.94
   2   0 -12    0.42    0.68
  -2   0  12    0.36    0.99
  -1   0  12   -0.74    0.61
   1   0 -12   -0.13    0.59
   1   0 -12    0.71    0.81
  -1   0  12   -0.60    0.63
   1   0 -12   -0.66    0.61
   0   0  12   73.79    3.33
   0   0 -12   70.98    3.17
   0   0 -12   73.94    3.15
   0   0 -12   72.18    3.68
   0   0  12   70.25    3.19
   1   0  12   -0.58    0.79
  -1   0 -12   -0.07    0.74
  -1   0 -12    0.77    0.84
  -8  -1  12   23.18    1.93
  -8  -1  12   25.20    2.17
   8  -1 -12   26.29    2.12
   8  -1 -12   30.34    2.57
  -8  -1  12   28.13    2.10
  -8   1  12   28.16    2.16
  -8   1  12   29.96    2.05
   8   1 -12   30.36    2.43
  -8   1  12   25.29    2.08
   7  -1 -12    1.52    1.19
   7  -1 -12    0.99    0.87
  -7  -1  12   -0.01    1.08
  -7  -1  12    2.08    1.26
   7  -1 -12    1.07    1.28
  -7  -1  12    0.02    0.75
  -7   1  12    4.21    1.33
  -7   1  12    0.06    1.04
   7   1 -12    0.12    1.48
   7   1 -12    3.94    1.28
  -7   1  12   -0.98    1.14
   6  -1 -12   -0.25    0.80
   6  -1 -12   -0.33    0.84
  -6  -1  12   -0.85    1.11
  -6  -1  12   -0.49    0.66
   6  -1 -12    0.68    1.08
  -6   1  12    0.76    1.15
   6   1 -12    0.08    0.74
  -6   1  12    0.31    0.77
   6   1 -12    0.19    1.34
  -5  -1  12   17.67    1.83
   5  -1 -12   18.57    1.63
  -5  -1  12   18.86    1.53
   5  -1 -12   17.33    1.89
   5  -1 -12   14.99    2.05
  -5   1  12   17.89    1.88
  -5   1  12   17.96    1.70
   5   1 -12   19.18    1.81
   5   1 -12   17.45    2.12
  -4  -1  12   64.33    2.99
  -4  -1  12   62.05    2.84
   4  -1 -12   60.59    3.16
   4  -1 -12   60.18    2.85
   4  -1 -12   58.34    3.40
  -4   1  12   63.74    2.97
   4   1 -12   57.65    2.86
   4   1 -12   57.20    3.24
  -4   1  12   68.62    3.24
  -4   1  12   58.35    3.19
   3  -1 -12    1.07    1.06
  -3  -1  12    0.42    1.07
   3  -1 -12    1.24    1.19
   3  -1 -12    1.19    0.94
  -3  -1  12    1.61    0.80
  -3   1  12    0.75    0.67
   3   1 -12    0.24    0.80
   3   1 -12    0.82    1.00
   3   1 -12    0.58    1.28
  -3   1  12    1.78    1.26
  -3   1  12    0.13    1.04
  -2  -1  12   20.91    1.53
   2  -1 -12   26.21    2.24
   2  -1 -12   21.83    1.66
   2  -1 -12   30.05    2.37
  -2  -1  12   27.02    2.10
  -2   1  12   25.57    1.79
  -2   1  12   23.77    1.56
   2   1 -12   23.48    1.87
  -2   1  12   26.60    2.28
   2   1 -12   28.35    2.53
   2   1 -12   25.42    2.14
   1  -1 -12   19.16    1.68
   1  -1 -12   19.44    1.86
   1  -1 -12   24.27    1.87
   1  -1 -12   22.83    1.89
  -1  -1  12   20.24    1.76
   1   1 -12   22.42    1.60
  -1   1  12   20.07    1.58
   1   1 -12   23.04    1.90
   1   1 -12   25.23    2.34
  -1   1  12   20.75    1.76
  -1   1  12   21.11    1.81
   0  -1 -12   10.07    1.22
   0  -1 -12    7.56    1.17
   0  -1 -12    7.81    1.42
   0  -1 -12    9.78    1.60
   0  -1  12    9.47    1.29
   0   1 -12   10.69    1.32
   0   1 -12    9.43    1.29
   0   1  12    9.16    1.28
   0   1  12   10.30    1.47
   0   1 -12    9.71    1.66
  -1  -1 -12    1.03    0.87
  -1  -1 -12    1.10    0.81
   1  -1  12    0.38    0.64
  -1  -1 -12    1.07    1.00
   1   1  12    0.73    0.99
  -1   1 -12    0.92    0.90
   1   1  12    0.08    0.84
  -1   1 -12    1.93    0.88
  -1   1 -12   -0.41    0.80
   7  -2 -12   30.34    2.55
   7  -2 -12   30.73    2.51
  -7  -2  12   30.24    2.23
  -7  -2  12   32.33    2.14
   7  -2 -12   33.94    2.22
  -7   2  12   33.65    2.66
   7   2 -12   34.59    2.66
  -7   2  12   32.72    2.60
  -7   2  12   31.73    2.09
   7   2 -12   34.46    2.54
  -6  -2  12   73.35    3.40
   6  -2 -12   76.69    3.56
   6  -2 -12   72.62    3.84
  -6  -2  12   72.86    3.38
   6  -2 -12   68.89    3.30
  -6   2  12   73.13    3.62
   6   2 -12   70.29    3.54
  -6   2  12   74.44    3.37
   6   2 -12   68.38    3.51
   6   2 -12   75.53    4.17
  -5  -2  12   17.21    1.87
   5  -2 -12   20.50    1.89
  -5  -2  12   18.41    1.50
   5  -2 -12   19.26    1.83
  -5   2  12   16.56    1.91
  -5   2  12   19.35    1.81
   5   2 -12   19.53    1.85
  -5   2  12   18.26    1.68
   5   2 -12   16.35    2.14
   5   2 -12   20.43    1.89
  -4  -2  12   -1.91    1.02
   4  -2 -12    0.21    0.85
   4  -2 -12    2.00    1.13
   4  -2 -12   -0.11    1.19
  -4  -2  12    0.94    0.63
   4   2 -12    0.62    1.00
   4   2 -12    0.29    1.20
  -4   2  12    0.40    0.92
   4   2 -12   -1.10    1.04
  -4   2  12    1.42    1.05
  -4   2  12    1.34    0.83
   3  -2 -12    4.82    1.07
  -3  -2  12    6.20    1.34
   3  -2 -12    5.27    1.50
  -3  -2  12    5.58    0.93
   3  -2 -12    4.79    0.98
  -3   2  12    6.13    1.31
   3   2 -12    6.53    1.45
   3   2 -12    4.78    1.22
  -3   2  12    2.99    1.08
   3   2 -12    2.69    1.46
  -3   2  12    5.07    1.22
   2  -2 -12   51.74    2.93
  -2  -2  12   56.19    2.88
   2  -2 -12   50.65    2.69
   2  -2 -12   47.73    2.89
  -2   2  12   50.27    2.88
   2   2 -12   51.70    3.33
   2   2 -12   53.09    2.74
  -2   2  12   49.57    2.40
   2   2 -12   51.89    2.95
  -2   2  12   48.93    2.81
   1  -2 -12   50.51    3.23
   1  -2 -12   45.22    2.79
  -1  -2  12   52.25    2.58
   1  -2 -12   47.06    2.42
   1   2 -12   52.42    2.50
  -1   2  12   52.20    2.51
  -1   2  12   52.99    2.76
   1   2 -12   50.54    2.98
   1   2 -12   50.02    2.84
  -1   2  12   49.40    2.82
   0  -2  12   10.58    1.37
   0  -2 -12    8.47    1.64
   0  -2 -12   10.99    1.48
   0  -2 -12    7.24    1.15
   0   2 -12    7.65    1.22
   0   2 -12    9.38    1.47
   0   2  12    8.43    1.11
   0   2 -12    9.61    1.34
   0   2  12   11.24    1.64
  -1  -2 -12    2.12    1.02
   1  -2  12    3.12    1.04
  -1  -2 -12    2.16    1.32
  -1  -2 -12    1.59    0.70
  -1   2 -12    2.27    1.03
  -1   2 -12    2.79    0.75
   1   2  12    2.28    1.19
   1   2  12    2.52    0.99
  -1   2 -12    2.43    1.10
   6  -3 -12    1.93    1.27
  -6  -3  12    0.20    0.75
   6  -3 -12   -0.90    1.21
  -6  -3  12    0.81    0.90
   6  -3 -12    1.17    0.89
  -6   3  12    1.83    1.27
  -6   3  12    0.94    1.51
   6   3 -12   -0.05    1.21
   6   3 -12    1.07    1.35
  -6   3  12    2.95    1.34
   6   3 -12    1.67    1.58
  -5  -3  12   31.21    2.54
   5  -3 -12   35.24    2.17
   5  -3 -12   25.69    2.25
  -5  -3  12   31.39    1.88
  -5   3  12   29.64    2.41
  -5   3  12   28.25    2.50
   5   3 -12   31.73    2.86
   5   3 -12   31.15    2.44
  -5   3  12   31.06    2.37
   5   3 -12   34.74    2.71
   4  -3 -12    2.20    1.34
  -4  -3  12    3.13    1.32
   4  -3 -12    3.40    0.95
   4  -3 -12    2.25    0.97
  -4  -3  12    3.02    0.92
  -4   3  12    3.20    1.54
   4   3 -12    1.74    1.47
   4   3 -12    1.87    1.20
  -4   3  12    2.57    1.25
   4   3 -12    0.71    0.91
  -4   3  12    3.84    0.95
  -3  -3  12   46.88    2.77
   3  -3 -12   44.44    3.10
   3  -3 -12   39.42    2.67
   3  -3 -12   38.38    2.53
   3   3 -12   41.19    2.80
  -3   3  12   44.86    2.75
   3   3 -12   43.63    2.60
   3   3 -12   45.56    2.69
  -3   3  12   39.33    3.07
   2  -3 -12    6.97    1.11
   2  -3 -12    7.38    1.30
   2  -3 -12    6.23    1.28
  -2  -3  12    8.02    1.38
   2   3 -12    5.92    1.33
   2   3 -12    5.04    1.62
   2   3 -12    7.11    1.22
  -2   3  12    3.75    1.56
  -2   3  12    6.91    1.11
  -1  -3  12    8.92    1.19
   1  -3 -12    8.43    1.31
   1  -3 -12    9.86    1.75
  -1   3  12   10.25    1.42
  -1   3  12   10.54    1.67
   1   3 -12   10.97    1.56
   1   3 -12    8.95    1.48
   1   3 -12    6.53    1.08
   0  -3  12   29.85    1.92
   0  -3 -12   27.60    2.44
   0   3  12   26.09    1.84
   0   3 -12   24.86    2.49
   0   3 -12   23.80    2.00
   0   3  12   26.46    2.18
   0   3 -12   24.47    1.94
  -4  -4  12    2.58    1.10
   4  -4 -12    2.77    0.98
   4  -4 -12    3.69    1.24
   4  -4 -12    1.95    1.43
  -4   4  12    2.44    1.35
   4   4 -12    2.10    1.48
  -4   4  12    2.62    1.23
   4   4 -12    0.13    1.24
   4   4 -12    2.33    1.25
   3  -4 -12   12.27    1.59
   3  -4 -12   15.13    2.03
   3  -4 -12   12.27    1.42
  -3  -4  12   12.26    1.72
  -3   4  12   12.78    1.79
   3   4 -12   10.74    1.96
   3   4 -12   12.74    1.47
   3   4 -12   13.06    1.63
  -3   4  12   13.55    1.72
   2   4 -12   12.69    1.41
   6   0 -13   -0.53    1.42
  -6   0  13   -0.64    0.85
  -6   0  13    1.27    1.10
   6   0 -13    0.87    1.25
  -5   0  13   28.92    2.19
   5   0 -13   29.07    2.70
   5   0 -13   29.46    2.10
  -5   0  13   29.78    2.51
   4   0 -13   -0.70    1.09
   4   0 -13    2.01    1.07
  -4   0  13    1.05    1.23
  -4   0  13   -1.44    0.87
   3   0 -13   11.70    1.63
  -3   0  13   10.03    1.08
   3   0 -13   13.12    1.87
   3   0 -13    8.68    1.46
  -3   0  13   10.17    1.53
  -2   0  13   -1.52    1.01
   2   0 -13    0.99    0.78
   2   0 -13   -0.48    1.21
   2   0 -13    0.60    1.07
  -1   0  13    4.69    1.24
  -1   0  13    7.23    1.34
   1   0 -13    6.22    1.27
   1   0 -13    8.65    1.33
   1   0 -13    5.27    1.53
  -6  -1  13    9.89    1.44
  -6  -1  13    8.63    1.61
   6  -1 -13    7.91    1.82
   6  -1 -13    7.20    1.37
   6  -1 -13    8.46    1.56
  -6   1  13    8.51    1.63
   6   1 -13    6.65    1.23
   6   1 -13    8.75    1.61
  -6   1  13    6.91    1.17
  -5  -1  13   22.53    1.69
   5  -1 -13   22.93    2.27
   5  -1 -13   25.63    2.10
   5  -1 -13   18.52    2.04
  -5  -1  13   24.21    2.02
  -5   1  13   20.02    1.86
  -5   1  13   25.54    2.03
   5   1 -13   23.93    2.54
   5   1 -13   24.51    2.09
   4  -1 -13    2.78    1.44
   4  -1 -13    5.98    1.54
   4  -1 -13    6.70    1.17
  -4  -1  13    4.23    1.38
  -4  -1  13    5.74    1.13
  -4   1  13    5.50    1.24
  -4   1  13    4.45    1.40
  -4   1  13    4.63    1.51
   4   1 -13    7.64    1.74
   4   1 -13    4.44    1.28
   4   1 -13    5.27    1.50
  -3  -1  13    8.24    1.47
   3  -1 -13    8.01    1.67
  -3  -1  13    7.92    1.10
   3  -1 -13    7.57    1.55
   3  -1 -13   10.27    1.44
  -3   1  13    8.18    1.49
  -3   1  13    7.66    1.20
   3   1 -13    9.85    1.55
   3   1 -13   10.83    1.66
   3   1 -13    6.58    1.35
  -3   1  13    8.84    1.66
  -2  -1  13   27.44    2.19
   2  -1 -13   26.84    2.07
   2  -1 -13   25.16    2.33
   2  -1 -13   24.06    2.33
  -2   1  13   30.16    1.97
   2   1 -13   26.47    2.32
  -2   1  13   27.07    2.14
   2   1 -13   28.75    2.33
   2   1 -13   26.83    2.13
  -2   1  13   32.97    2.38
   1  -1 -13    1.05    0.96
   1  -1 -13   -0.15    1.11
  -1  -1  13   -0.51    1.00
   1  -1 -13    0.24    1.27
   1  -1 -13    0.34    0.97
   1   1 -13   -0.01    1.02
   1   1 -13    0.07    0.73
  -1   1  13    1.46    1.14
  -1   1  13    0.58    1.04
   1   1 -13    0.50    1.36
   5  -2 -13    3.45    1.54
   5  -2 -13    4.50    1.39
  -5  -2  13    5.26    1.48
  -5  -2  13    6.06    1.21
   5  -2 -13    6.17    1.56
  -5   2  13    4.25    1.32
   5   2 -13    6.37    1.82
  -5   2  13    3.54    1.07
   5   2 -13    5.44    1.42
   5   2 -13    3.50    1.20
  -5   2  13    5.33    1.30
   4  -2 -13    8.23    1.49
   4  -2 -13    8.47    1.65
  -4  -2  13   10.07    1.23
  -4  -2  13    7.99    1.53
   4  -2 -13   10.90    1.35
   4   2 -13    9.49    1.54
   4   2 -13    4.64    1.55
  -4   2  13    9.39    1.24
  -4   2  13   10.00    1.63
   4   2 -13   10.95    2.00
  -4   2  13    8.23    1.48
   3  -2 -13   20.41    2.08
  -3  -2  13   17.15    1.87
   3  -2 -13   20.23    1.87
   3  -2 -13   19.65    2.19
   3   2 -13   18.59    2.06
  -3   2  13   15.63    1.64
   3   2 -13   16.08    1.81
  -3   2  13   20.39    1.96
  -3   2  13   15.91    1.86
   3   2 -13   19.20    2.05
   2  -2 -13    7.25    1.15
  -2  -2  13    8.23    1.23
   2  -2 -13    7.87    1.49
   2  -2 -13    8.66    1.79
  -2   2  13    8.49    1.48
  -2   2  13    9.56    1.31
   2   2 -13    9.95    1.29
   2   2 -13    9.81    1.60
   2   2 -13    8.24    1.88
  -2   2  13    9.39    1.73
   0   0   0    0.00    0.00
;
loop_
_symmetry_equiv_pos_as_xyz
'x, y, z'
'-x+1/2, y+1/2, -z+1/2'
'-x, -y, -z'
'x-1/2, -y-1/2, z-1/2'
loop_
_atom_site_label
_atom_site_type_symbol
_atom_site_fract_x
_atom_site_fract_y
_atom_site_fract_z
_atom_site_U_iso_or_equiv
_atom_site_adp_type
_atom_site_occupancy
_atom_site_site_symmetry_order
_atom_site_calc_flag
_atom_site_refinement_flags_posn
_atom_site_refinement_flags_adp
C1 C 0.8459(5) 0.8613(6) 0.0554(4) 0.0183(9) Uani 1 1 d . .
H1A H 0.830372 0.750462 -0.00305 0.022 Uiso 1 1 calc R U
H1B H 0.761772 0.95442 0.01734 0.022 Uiso 1 1 calc R U
C2 C 1.0026(5) 0.9582(6) 0.0654(4) 0.0214(9) Uani 1 1 d . .
H2A H 1.086906 0.862414 0.093772 0.026 Uiso 1 1 calc R U
H2B H 1.024163 1.062798 0.128864 0.026 Uiso 1 1 calc R U
C3 C 1.0096(5) 0.6365(6) 0.2776(4) 0.0221(9) Uani 1 1 d . .
H3A H 1.098022 0.726781 0.298058 0.026 Uiso 1 1 calc R U
H3B H 1.00802 0.578056 0.358048 0.026 Uiso 1 1 calc R U
C4 C 1.0365(6) 0.4761(6) 0.1917(4) 0.0296(11) Uani 1 1 d . .
H4A H 0.946527 0.390438 0.166137 0.044 Uiso 1 1 calc R U
H4B H 1.128768 0.402349 0.238106 0.044 Uiso 1 1 calc R U
H4C H 1.051153 0.533573 0.116299 0.044 Uiso 1 1 calc R U
S1 S 0.82784(12) 0.77520(14) 0.20778(9) 0.0159(2) Uani 1 1 d . .
Cl1 Cl 0.86880(13) 0.86434(17) 0.55172(10) 0.0279(3) Uani 1 1 d . .
Cu1 Cu 0.86753(6) 1.03744(8) 0.35739(5) 0.02521(18) Uani 1 1 d . .
loop_
_atom_site_aniso_label
_atom_site_aniso_U_11
_atom_site_aniso_U_22
_atom_site_aniso_U_33
_atom_site_aniso_U_23
_atom_site_aniso_U_13
_atom_site_aniso_U_12
C1 0.020(2) 0.018(2) 0.015(2) 0.0036(16) 0.0034(17) 0.0005(17)
C2 0.022(2) 0.021(2) 0.021(2) 0.0016(18) 0.0068(18) -0.0033(18)
C3 0.018(2) 0.023(2) 0.021(2) 0.0060(18) 0.0003(17) 0.0035(18)
C4 0.030(3) 0.025(2) 0.034(3) 0.006(2) 0.011(2) 0.010(2)
S1 0.0167(5) 0.0161(5) 0.0151(5) -0.0001(4) 0.0054(4) -0.0008(4)
Cl1 0.0232(6) 0.0345(6) 0.0242(5) 0.0082(5) 0.0053(4) -0.0068(5)
Cu1 0.0224(3) 0.0298(3) 0.0234(3) 0.0000(2) 0.0074(2) 0.0048(2)
loop_
_atom_type_symbol
_atom_type_description
_atom_type_scat_dispersion_real
_atom_type_scat_dispersion_imag
_atom_type_scat_source
C C 0.0033 0.0016 'International Tables Vol C Tables 4.2.6.8 and 6.1.1.4'
H H 0 0 'International Tables Vol C Tables 4.2.6.8 and 6.1.1.4'
S S 0.1246 0.1234 'International Tables Vol C Tables 4.2.6.8 and 6.1.1.4'
Cl Cl 0.1484 0.1585 'International Tables Vol C Tables 4.2.6.8 and 6.1.1.4'
Cu Cu 0.3201 1.2651 'International Tables Vol C Tables 4.2.6.8 and 6.1.1.4'
loop_
_geom_angle_atom_site_label_1
_geom_angle_atom_site_label_2
_geom_angle_atom_site_label_3
_geom_angle
_geom_angle_site_symmetry_1
_geom_angle_site_symmetry_3
C2 C1 S1 115.3(3) . .
C1 C2 C2 110.4(4) . 3_775
C4 C3 S1 114.5(3) . .
C1 S1 C3 102.60(19) . .
C1 S1 Cu1 103.02(13) . 2_645
C3 S1 Cu1 104.41(14) . 2_645
C1 S1 Cu1 110.54(14) . .
C3 S1 Cu1 100.82(14) . .
Cu1 S1 Cu1 131.88(4) 2_645 .
Cu1 Cl1 Cu1 87.18(4) 3_776 .
S1 Cu1 Cl1 119.13(4) 2_655 3_776
S1 Cu1 S1 112.62(3) 2_655 .
Cl1 Cu1 S1 114.40(4) 3_776 .
S1 Cu1 Cl1 113.40(4) 2_655 .
Cl1 Cu1 Cl1 92.82(4) 3_776 .
S1 Cu1 Cl1 101.27(4) . .
loop_
_geom_bond_atom_site_label_1
_geom_bond_atom_site_label_2
_geom_bond_distance
_geom_bond_site_symmetry_2
C1 C2 1.522(5) .
C1 S1 1.823(4) .
C2 C2 1.526(8) 3_775
C3 C4 1.511(6) .
C3 S1 1.822(4) .
S1 Cu1 2.3208(11) 2_645
S1 Cu1 2.3706(11) .
Cl1 Cu1 2.3434(12) 3_776
Cl1 Cu1 2.4278(12) .
loop_
_geom_hbond_atom_site_label_D
_geom_hbond_atom_site_label_H
_geom_hbond_atom_site_label_A
_geom_hbond_distance_DH
_geom_hbond_distance_HA
_geom_hbond_distance_DA
_geom_hbond_angle_DHA
_geom_hbond_site_symmetry_A
C1 H1B Cl1 0.97 3.03 3.919(4) 153.4 2_655
C4 H4B Cl1 0.96 2.92 3.526(5) 121.8 3_766
C1 H1B Cl1 0.97 3.03 3.919(4) 153.4 2_655
C4 H4B Cl1 0.96 2.92 3.526(5) 121.8 3_766
