#------------------------------------------------------------------------------
#$Date: 2019-09-16 12:14:22 +0300 (Mon, 16 Sep 2019) $
#$Revision: 218318 $
#$URL: file:///home/coder/svn-repositories/cod/cif/7/23/38/7233872.cif $
#------------------------------------------------------------------------------
#
# This file is available in the Crystallography Open Database (COD),
# http://www.crystallography.net/
#
# All data on this site have been placed in the public domain by the
# contributors.
#
data_7233872
loop_
_publ_author_name
'Alexander N. Chernyshev'
'Dmitry Morozov'
'Jarkko Mutanen'
'Vadim Yu Kukushkin'
'Gerrit Groenhof'
'Matti Haukka'
_publ_section_title
;
 Weak intermolecular interactions promote blue luminescence of protonated
 2,2'-dipyridylamine salts
;
_journal_name_full               'Journal of Materials Chemistry C'
_journal_page_first              8285
_journal_page_last               8294
_journal_paper_doi               10.1039/C4TC01165A
_journal_volume                  2
_journal_year                    2014
_chemical_formula_moiety         'C10 H10 N3, F3 Si0.5, H2 O'
_chemical_formula_sum            'C10 H12 F3 N3 O Si0.5'
_chemical_formula_weight         261.27
_space_group_crystal_system      triclinic
_space_group_IT_number           2
_space_group_name_Hall           '-P 1'
_space_group_name_H-M_alt        'P -1'
_atom_sites_solution_hydrogens   mixed
_cell_angle_alpha                117.066(2)
_cell_angle_beta                 100.294(3)
_cell_angle_gamma                98.373(3)
_cell_formula_units_Z            2
_cell_length_a                   7.1604(10)
_cell_length_b                   9.0853(5)
_cell_length_c                   9.8694(6)
_cell_measurement_reflns_used    3284
_cell_measurement_temperature    290(2)
_cell_volume                     543.33(9)
_computing_cell_refinement       'SAINT (Bruker AXS, 2009)'
_computing_data_collection       'APEX2 (Bruker AXS, 2010)'
_computing_data_reduction        'SAINT (Bruker AXS, 2009)'
_computing_molecular_graphics
'CrystaMaker (CrystalMaker Software ltd., 2011)'
_computing_publication_material  'SHELXL-2013 (Sheldrick, 2013)'
_computing_structure_refinement  'SHELXL-2013 (Sheldrick, 2013)'
_computing_structure_solution    'SUPERFLIP (Palatinus & Chapuis, 2007)'
_diffrn_ambient_temperature      290(2)
_diffrn_detector_area_resol_mean 16
_diffrn_measured_fraction_theta_full 0.999
_diffrn_measured_fraction_theta_max 0.995
_diffrn_measurement_device       '\k-geometry diffractometer'
_diffrn_measurement_device_type  'Bruker KAPPA APEX II CCD'
_diffrn_measurement_method       '\f scans and \w scans with \k offset'
_diffrn_radiation_monochromator  'horizontally mounted graphite crystal'
_diffrn_radiation_type           MoK\a
_diffrn_radiation_wavelength     0.71073
_diffrn_reflns_av_R_equivalents  0.0370
_diffrn_reflns_av_unetI/netI     0.0387
_diffrn_reflns_Laue_measured_fraction_full 0.999
_diffrn_reflns_Laue_measured_fraction_max 0.995
_diffrn_reflns_limit_h_max       9
_diffrn_reflns_limit_h_min       -9
_diffrn_reflns_limit_k_max       11
_diffrn_reflns_limit_k_min       -11
_diffrn_reflns_limit_l_max       12
_diffrn_reflns_limit_l_min       -12
_diffrn_reflns_number            9282
_diffrn_reflns_point_group_measured_fraction_full 0.999
_diffrn_reflns_point_group_measured_fraction_max 0.995
_diffrn_reflns_theta_full        25.242
_diffrn_reflns_theta_max         27.498
_diffrn_reflns_theta_min         2.413
_diffrn_source                   'fine-focus sealed tube'
_exptl_absorpt_coefficient_mu    0.193
_exptl_absorpt_correction_T_max  1.0000
_exptl_absorpt_correction_T_min  0.9064
_exptl_absorpt_correction_type   numerical
_exptl_absorpt_process_details   'SADABS (Sheldrick, 2008)'
_exptl_crystal_colour            colourless
_exptl_crystal_density_diffrn    1.597
_exptl_crystal_description       block
_exptl_crystal_F_000             270
_exptl_crystal_size_max          0.667
_exptl_crystal_size_mid          0.556
_exptl_crystal_size_min          0.229
_exptl_transmission_factor_max   0.98003
_exptl_transmission_factor_min   0.94928
_refine_diff_density_max         1.586
_refine_diff_density_min         -0.463
_refine_diff_density_rms         0.076
_refine_ls_extinction_coef       .
_refine_ls_extinction_method     none
_refine_ls_goodness_of_fit_ref   1.043
_refine_ls_hydrogen_treatment    mixed
_refine_ls_matrix_type           full
_refine_ls_number_parameters     160
_refine_ls_number_reflns         2478
_refine_ls_number_restraints     0
_refine_ls_restrained_S_all      1.043
_refine_ls_R_factor_all          0.1025
_refine_ls_R_factor_gt           0.0712
_refine_ls_shift/su_max          0.000
_refine_ls_shift/su_mean         0.000
_refine_ls_structure_factor_coef Fsqd
_refine_ls_weighting_details
'w=1/[\s^2^(Fo^2^)+(0.1248P)^2^+0.4974P] where P=(Fo^2^+2Fc^2^)/3'
_refine_ls_weighting_scheme      calc
_refine_ls_wR_factor_gt          0.2060
_refine_ls_wR_factor_ref         0.2268
_reflns_Friedel_coverage         0.000
_reflns_Friedel_fraction_full    .
_reflns_Friedel_fraction_max     .
_reflns_number_gt                1696
_reflns_number_total             2478
_reflns_threshold_expression     'I > 2\s(I)'
_cod_data_source_file            1000008.cif
_cod_data_source_block           PCOD1000008
_cod_original_formula_sum        'C10 H12 F3 N3 O Si0.50'
_cod_database_code               7233872
_shelx_space_group_comment
;
The symmetry employed for this shelxl refinement is uniquely defined
by the following loop, which should always be used as a source of
symmetry information in preference to the above space-group names.
They are only intended as comments.
;
_shelx_estimated_absorpt_t_min   0.882
_shelx_estimated_absorpt_t_max   0.957
_shelxl_version_number           2013-4
_shelx_hkl_file
;
  -1   1   0   27.09    0.81
  -1   1   0   26.95    0.81
   1  -1   0   26.78    0.82
   1  -1   0   26.99    0.81
   1  -1   0   26.16    0.61
   1  -1   0   27.29    0.63
  -2   2   0   34.37    0.83
  -2   2   0   35.88    1.12
   2  -2   0   34.68    0.85
   2  -2   0   37.20    1.00
   2  -2   0   35.48    1.13
   2  -2   0   35.09    1.12
  -3   3   0   14.63    0.52
  -3   3   0   15.46    0.64
  -3   3   0   14.39    0.46
   3  -3   0   16.38    0.79
   3  -3   0   13.97    0.62
   3  -3   0   14.56    0.64
   3  -3   0   14.81    0.49
  -4   4   0   30.59    0.84
  -4   4   0   30.84    0.98
   4  -4   0   30.72    1.24
   4  -4   0   31.67    1.15
   4  -4   0   30.59    0.87
   4  -4   0   30.90    1.13
  -5   5   0    1.11    0.33
   5  -5   0    0.59    0.37
   5  -5   0    0.88    0.27
  -6   6   0   -0.07    0.33
   6  -6   0    0.33    0.27
  -7   7   0    4.47    0.59
   7  -7   0    4.10    0.48
  -8   8   0    0.29    0.47
   8  -8   0    0.82    0.40
   8  -8   0    1.23    0.56
  -9   9   0   -0.05    0.52
   9  -9   0    0.02    0.48
  -9  10  -1   -0.05    0.54
   8  -9   1    0.49    0.39
   8  -9   1   -0.52    0.44
  -8   9  -1   -0.20    0.47
   7  -8   1    3.98    0.59
   7  -8   1    2.84    0.43
  -7   8  -1    1.97    0.49
   6  -7   1    1.02    0.33
  -6   7  -1    1.65    0.39
   5  -6   1   -0.35    0.33
   5  -6   1    0.04    0.22
  -5   6  -1    0.21    0.29
   4  -5   1    7.65    0.55
   4  -5   1    8.06    0.54
   4  -5   1    8.49    0.46
  -4   5  -1    8.20    0.50
   3  -4   1   24.15    0.88
   3  -4   1   23.58    0.86
   3  -4   1   23.66    0.67
  -3   4  -1   24.08    0.75
  -3   4  -1   24.02    0.64
   2  -3   1  117.33    2.58
   2  -3   1  117.58    3.44
   2  -3   1  123.06    3.45
  -2   3  -1  118.46    2.56
  -2   3  -1  118.78    2.56
   1  -2   1    0.84    0.13
   1  -2   1    1.02    0.10
   1  -2   1    1.27    0.18
  -1   2  -1    1.20    0.17
   0   1  -1    4.58    0.16
   0   1  -1    4.45    0.16
   0   1  -1    4.47    0.14
  -1   0   1   66.31    2.09
   1   0  -1   67.66    2.13
   1   0  -1   70.77    1.30
   1   0  -1   65.40    1.51
  -2   1   1  669.43   14.62
  -2   1   1  671.37   19.51
   2  -1  -1  673.35   14.63
   2  -1  -1  705.79   11.03
   2  -1  -1  671.01   19.51
   2  -1  -1  676.65   19.61
  -3   2   1    7.76    0.37
  -3   2   1    7.61    0.32
  -3   2   1    7.49    0.42
   3  -2  -1    7.35    0.36
   3  -2  -1    7.73    0.45
   3  -2  -1    6.66    0.62
   3  -2  -1    7.84    0.43
  -4   3   1    5.35    0.34
  -4   3   1    5.01    0.43
  -4   3   1    5.90    0.44
   4  -3  -1    5.69    0.44
   4  -3  -1    5.34    0.35
   4  -3  -1    7.07    0.71
   4  -3  -1    6.05    0.49
  -5   4   1    7.17    0.56
  -5   4   1    7.48    0.48
   5  -4  -1    7.22    0.49
   5  -4  -1    6.74    0.82
   5  -4  -1    8.24    0.67
  -6   5   1    0.10    0.31
   6  -5  -1    0.41    0.28
  -7   6   1    2.68    0.48
   7  -6  -1    2.67    0.39
  -8   7   1    0.37    0.46
   8  -7  -1   -0.64    0.39
  -9   8   1    2.23    0.59
   9  -8  -1    2.25    0.49
 -10   9   1    0.01    0.56
  -9  11  -2   -0.37    0.53
   8 -10   2    0.26    0.39
   8 -10   2    0.69    0.54
  -8  10  -2    0.28    0.52
   7  -9   2    1.70    0.48
   7  -9   2    2.31    0.43
  -7   9  -2    2.23    0.51
   6  -8   2    0.56    0.31
   6  -8   2    0.19    0.35
  -6   8  -2    0.22    0.36
   5  -7   2    7.01    0.48
   5  -7   2    6.35    0.60
  -5   7  -2    7.96    0.55
   4  -6   2    4.44    0.51
   4  -6   2    5.75    0.41
   4  -6   2    3.70    0.48
  -4   6  -2    5.15    0.49
   3  -5   2   13.64    0.49
   3  -5   2   14.28    0.63
   3  -5   2   13.33    0.63
  -3   5  -2   14.60    0.57
   2  -4   2   33.45    1.07
   2  -4   2   31.82    0.80
   2  -4   2   32.77    1.06
   1  -3   2    4.33    0.26
   1  -3   2    4.63    0.28
   1  -3   2    3.70    0.33
   1  -3   2    4.53    0.23
   1  -3   2    4.46    0.28
   0  -2   2   58.04    1.63
   0  -2   2   56.33    1.37
   0  -2   2   56.68    1.68
   0  -2   2   58.04    1.24
   0  -2   2   53.40    1.47
   0   2  -2   58.26    1.04
  -1  -1   2   38.18    0.85
  -1  -1   2   38.13    1.14
  -1  -1   2   38.40    1.14
   1   1  -2   38.89    0.85
   1   1  -2   38.23    1.14
   1   1  -2   37.57    1.14
   2   0  -2  997.48   16.28
   2   0  -2 1000.00   28.54
  -3   1   2    0.30    0.17
  -3   1   2    0.47    0.15
  -3   1   2    0.27    0.16
   3  -1  -2    0.42    0.15
   3  -1  -2    0.31    0.32
   3  -1  -2    0.44    0.17
   3  -1  -2    0.42    0.19
  -4   2   2    1.43    0.24
  -4   2   2    1.30    0.21
   4  -2  -2    1.85    0.49
   4  -2  -2    1.56    0.29
   4  -2  -2    1.55    0.21
   4  -2  -2    1.38    0.25
  -5   3   2   17.34    0.71
  -5   3   2   17.53    0.65
   5  -3  -2   16.91    0.66
   5  -3  -2   17.36    1.17
  -6   4   2    0.73    0.33
  -6   4   2    0.52    0.26
   6  -4  -2    0.79    0.28
  -7   5   2    1.11    0.42
   7  -5  -2    0.78    0.33
  -8   6   2    0.57    0.45
   8  -6  -2    0.76    0.39
  -9   7   2    0.36    0.51
   9  -7  -2    0.89    0.41
 -10   8   2   -0.49    0.51
  -8  11  -3   -0.33    0.50
   7 -10   3    0.97    0.39
   7 -10   3    0.18    0.40
  -7  10  -3    0.16    0.46
   6  -9   3    2.38    0.46
   6  -9   3    1.67    0.37
  -6   9  -3    1.86    0.57
  -6   9  -3    1.66    0.45
   5  -8   3   22.13    0.90
   5  -8   3   23.55    0.81
   5  -8   3   23.44    1.03
  -5   8  -3   24.84    0.90
   4  -7   3    0.69    0.30
   4  -7   3    0.68    0.31
   4  -7   3    1.26    0.26
   4  -7   3    0.72    0.32
  -4   7  -3    1.07    0.29
   3  -6   3    1.46    0.29
   3  -6   3    0.90    0.27
   3  -6   3    0.82    0.22
   3  -6   3    0.89    0.26
  -3   6  -3    1.04    0.24
   2  -5   3   24.25    0.85
   2  -5   3   23.26    0.84
   2  -5   3   23.91    0.65
   2  -5   3   24.60    0.74
  -2   5  -3   24.32    0.81
   1  -4   3    3.56    0.21
   1  -4   3    3.43    0.31
   1  -4   3    4.05    0.26
   1  -4   3    2.97    0.26
   1  -4   3    3.69    0.28
  -1   4  -3    3.91    0.37
   0  -3   3   35.80    1.07
   0  -3   3   35.69    1.02
   0  -3   3   35.53    0.80
   0  -3   3   35.91    1.06
   0  -3   3   34.69    0.90
   0   3  -3   34.61    0.79
  -1  -2   3    0.12    0.13
  -1  -2   3    0.14    0.13
  -1  -2   3    0.18    0.13
  -1  -2   3    0.18    0.10
   1   2  -3    0.23    0.21
  -2  -1   3   29.95    0.98
  -2  -1   3   29.44    0.97
  -2  -1   3   31.05    0.74
  -2  -1   3   29.67    0.83
   2   1  -3   28.71    0.73
   2   1  -3   30.52    0.99
   2   1  -3   29.93    0.91
  -3   0   3    5.01    0.28
  -3   0   3    4.77    0.31
  -3   0   3    4.79    0.36
  -3   0   3    4.81    0.32
  -3   0   3    4.83    0.36
   3   0  -3    4.68    0.28
   3   0  -3    5.39    0.54
   3   0  -3    4.05    0.36
  -4   1   3  196.60    5.79
  -4   1   3  198.61    4.33
  -4   1   3  197.06    4.97
   4  -1  -3  203.46    3.98
   4  -1  -3  201.82    4.35
  -5   2   3    5.58    0.45
  -5   2   3    5.52    0.46
   5  -2  -3    6.05    0.42
   5  -2  -3    5.03    0.73
  -6   3   3    0.14    0.31
  -6   3   3   -0.11    0.25
   6  -3  -3   -0.13    0.27
   6  -3  -3   -0.01    0.56
  -7   4   3    0.14    0.35
   7  -4  -3    0.30    0.30
  -8   5   3    0.25    0.43
   8  -5  -3    0.33    0.34
  -9   6   3   -0.04    0.49
   9  -6  -3   -0.82    0.41
 -10   7   3    0.18    0.54
   7 -11   4    1.19    0.40
   7 -11   4   -0.18    0.41
   6 -10   4    1.86    0.56
   6 -10   4    0.60    0.35
  -6  10  -4   -0.20    0.47
   5  -9   4   -0.27    0.31
   5  -9   4    0.51    0.30
   5  -9   4   -0.37    0.37
  -5   9  -4   -0.11    0.42
   4  -8   4    3.23    0.46
   4  -8   4    3.87    0.42
   4  -8   4    4.08    0.42
  -4   8  -4    3.85    0.58
   3  -7   4   34.57    1.20
   3  -7   4   32.83    0.93
   3  -7   4   35.15    1.08
   3  -7   4   32.54    1.19
  -3   7  -4   32.91    1.15
  -3   7  -4   35.11    1.04
   2  -6   4    3.26    0.30
   2  -6   4    3.85    0.35
   2  -6   4    4.03    0.39
   2  -6   4    3.72    0.37
  -2   6  -4    3.30    0.43
   1  -5   4    0.34    0.13
   1  -5   4    0.14    0.16
   1  -5   4    0.41    0.15
   1  -5   4    0.43    0.16
   1  -5   4    0.66    0.22
  -1   5  -4    0.34    0.24
   0  -4   4   15.92    0.48
   0  -4   4   15.87    0.56
   0  -4   4   16.06    0.43
   0  -4   4   16.68    0.58
   0  -4   4   16.22    0.62
   0   4  -4   15.39    0.55
  -1  -3   4    3.97    0.28
  -1  -3   4    4.37    0.32
  -1  -3   4    3.69    0.28
  -1  -3   4    4.37    0.21
   1   3  -4    4.17    0.36
  -2  -2   4    1.76    0.22
  -2  -2   4    2.36    0.29
  -2  -2   4    1.94    0.27
  -2  -2   4    2.39    0.28
   2   2  -4    1.72    0.22
   2   2  -4    1.76    0.34
  -3  -1   4    0.08    0.18
  -3  -1   4    0.21    0.17
  -3  -1   4    0.63    0.21
  -3  -1   4    0.25    0.15
  -3  -1   4    0.40    0.14
   3   1  -4    0.08    0.35
   3   1  -4    0.29    0.20
   3   1  -4    0.41    0.15
  -4   0   4   68.24    2.17
  -4   0   4   67.40    2.16
  -4   0   4   68.86    1.84
  -4   0   4   69.55    1.63
  -4   0   4   67.72    1.84
   4   0  -4   67.89    2.17
   4   0  -4   72.26    1.95
   4   0  -4   68.07    1.64
  -5   1   4    2.22    0.33
  -5   1   4    3.13    0.44
  -5   1   4    2.35    0.29
   5  -1  -4    2.35    0.63
   5  -1  -4    2.49    0.30
  -6   2   4   -0.01    0.28
  -6   2   4    0.22    0.33
   6  -2  -4    0.03    0.26
   6  -2  -4    0.03    0.56
  -7   3   4    0.13    0.37
  -7   3   4    0.20    0.31
   7  -3  -4    0.46    0.31
   7  -3  -4   -0.24    0.68
  -8   4   4    0.10    0.42
   8  -4  -4   -0.60    0.36
  -9   5   4    0.10    0.49
   9  -5  -4    0.62    0.41
 -10   6   4    0.53    0.54
   7 -12   5    0.56    0.41
   6 -11   5    0.30    0.36
   6 -11   5   -0.26    0.34
   5 -10   5    0.81    0.45
   5 -10   5    1.48    0.39
   5 -10   5    0.76    0.35
  -5  10  -5    1.57    0.56
   4  -9   5    0.46    0.30
   4  -9   5    0.27    0.26
   4  -9   5    0.03    0.31
  -4   9  -5    0.57    0.42
   3  -8   5   27.57    1.01
   3  -8   5   27.53    0.82
   3  -8   5   27.56    1.02
   3  -8   5   26.78    0.92
  -3   8  -5   25.99    1.04
   2  -7   5   13.17    0.58
   2  -7   5   13.63    0.49
   2  -7   5   12.91    0.60
   2  -7   5   13.38    0.62
  -2   7  -5   13.98    0.69
   1  -6   5    8.73    0.43
   1  -6   5    8.55    0.43
   1  -6   5    9.93    0.56
   1  -6   5    8.33    0.45
   1  -6   5    9.82    0.36
  -1   6  -5    9.35    0.58
   0  -5   5    0.90    0.24
   0  -5   5    1.06    0.14
   0  -5   5    1.65    0.26
   0  -5   5    1.36    0.23
   0   5  -5    1.18    0.28
  -1  -4   5    3.78    0.33
  -1  -4   5    4.24    0.23
  -1  -4   5    4.49    0.31
  -1  -4   5    3.70    0.30
   1   4  -5    4.41    0.41
  -2  -3   5    9.27    0.35
  -2  -3   5    8.86    0.44
  -2  -3   5    8.36    0.42
  -2  -3   5    8.35    0.44
   2   3  -5    7.70    0.64
  -3  -2   5   10.12    0.45
  -3  -2   5    9.76    0.53
  -3  -2   5   10.17    0.41
  -3  -2   5   10.32    0.54
  -3  -2   5   10.09    0.43
   3   2  -5   10.72    0.73
   3   2  -5    9.93    0.40
  -4  -1   5    1.38    0.21
  -4  -1   5    1.25    0.30
  -4  -1   5    1.17    0.24
  -4  -1   5    1.45    0.29
  -4  -1   5    1.41    0.26
   4   1  -5    1.43    0.24
   4   1  -5    0.88    0.48
  -5   0   5    3.25    0.41
  -5   0   5    3.08    0.39
  -5   0   5    3.18    0.36
   5   0  -5    3.40    0.43
   5   0  -5    3.22    0.67
  -6   1   5   42.16    1.34
  -6   1   5   43.94    1.22
   6  -1  -5   42.43    1.74
   6  -1  -5   41.49    1.20
  -7   2   5    0.55    0.33
  -7   2   5    0.30    0.38
   7  -2  -5    1.19    0.69
   7  -2  -5    0.45    0.31
  -8   3   5    0.45    0.38
  -8   3   5    0.35    0.41
   8  -3  -5    0.98    0.36
  -9   4   5    0.17    0.45
   9  -4  -5    0.75    0.43
 -10   5   5    0.39    0.53
  10  -5  -5   -0.60    0.46
   6 -12   6    0.32    0.34
   6 -12   6    0.12    0.35
   5 -11   6    0.08    0.31
   5 -11   6    0.28    0.34
  -5  11  -6    0.05    0.47
   4 -10   6    1.81    0.35
   4 -10   6    1.29    0.36
   4 -10   6    1.80    0.32
  -4  10  -6    1.82    0.50
   3  -9   6    0.15    0.25
   3  -9   6    0.34    0.23
   3  -9   6    0.06    0.27
   3  -9   6    0.11    0.24
  -3   9  -6    0.62    0.40
   2  -8   6    1.33    0.28
   2  -8   6    1.37    0.25
   2  -8   6    1.51    0.24
   2  -8   6    1.58    0.29
  -2   8  -6    1.31    0.40
   1  -7   6   29.77    1.05
   1  -7   6   29.71    1.03
   1  -7   6   33.94    1.15
   1  -7   6   30.36    0.82
   1  -7   6   31.74    0.92
  -1   7  -6   30.99    1.03
   0  -6   6    3.90    0.32
   0  -6   6    4.13    0.28
   0  -6   6    4.14    0.36
   0  -6   6    3.33    0.51
   0   6  -6    3.94    0.43
  -1  -5   6   -0.14    0.17
  -1  -5   6    0.00    0.22
  -1  -5   6    0.05    0.14
  -1  -5   6   -0.25    0.17
   1   5  -6   -0.18    0.29
  -2  -4   6    4.16    0.31
  -2  -4   6    3.29    0.34
  -2  -4   6    4.18    0.38
  -2  -4   6    3.46    0.34
   2   4  -6    4.10    0.51
  -3  -3   6   18.22    0.77
  -3  -3   6   17.65    0.61
  -3  -3   6   15.86    0.76
  -3  -3   6   17.98    0.66
  -3  -3   6   18.87    0.58
   3   3  -6   17.70    0.96
  -4  -2   6    3.64    0.39
  -4  -2   6    3.83    0.43
  -4  -2   6    3.54    0.34
  -4  -2   6    4.35    0.44
   4   2  -6    3.42    0.36
   4   2  -6    3.02    0.60
  -5  -1   6    1.99    0.28
  -5  -1   6    2.18    0.31
  -5  -1   6    1.86    0.33
   5   1  -6    2.06    0.64
   5   1  -6    1.80    0.29
  -6   0   6    2.45    0.34
  -6   0   6    2.20    0.39
   6   0  -6    2.27    0.33
   6   0  -6    2.20    0.68
  -7   1   6    1.95    0.36
  -7   1   6    1.46    0.40
   7  -1  -6    1.53    0.74
   7  -1  -6    1.97    0.38
  -8   2   6    1.39    0.48
  -8   2   6    1.37    0.39
   8  -2  -6    1.36    0.80
   8  -2  -6    1.66    0.42
  -9   3   6   -0.52    0.43
 -10   4   6   -0.31    0.50
 -11   5   6    0.47    0.61
   5 -12   7    0.82    0.31
   5 -12   7    0.72    0.36
   4 -11   7    0.47    0.29
   4 -11   7    0.63    0.33
  -4  11  -7    0.11    0.46
   3 -10   7    0.29    0.25
   3 -10   7   -0.10    0.26
   3 -10   7   -0.17    0.24
   3 -10   7    0.50    0.28
  -3  10  -7    0.60    0.45
   2  -9   7    0.34    0.23
   2  -9   7    0.00    0.20
   2  -9   7    1.05    0.28
  -2   9  -7    0.61    0.39
   1  -8   7   24.86    0.89
   1  -8   7   24.92    0.91
   1  -8   7   25.33    1.01
   1  -8   7   25.36    0.72
  -1   8  -7   25.26    0.95
   0  -7   7    0.73    0.36
   0  -7   7    0.61    0.24
   0  -7   7    0.83    0.19
   0   7  -7    0.67    0.36
  -1  -6   7    0.82    0.24
  -1  -6   7    1.40    0.32
  -1  -6   7    1.64    0.20
  -1  -6   7    1.51    0.28
   1   6  -7    1.85    0.43
  -2  -5   7    0.57    0.21
  -2  -5   7    0.01    0.25
  -2  -5   7   -0.24    0.17
  -2  -5   7   -0.09    0.22
   2   5  -7    0.62    0.41
  -3  -4   7   14.99    0.72
  -3  -4   7   14.04    0.72
  -3  -4   7   15.13    0.66
  -3  -4   7   16.55    0.55
   3   4  -7   14.67    0.94
  -4  -3   7    0.84    0.25
  -4  -3   7    0.94    0.26
  -4  -3   7    0.91    0.32
  -4  -3   7    0.94    0.25
   4   3  -7    0.85    0.55
  -5  -2   7    1.46    0.28
  -5  -2   7    1.78    0.33
  -5  -2   7    1.57    0.28
   5   2  -7    1.59    0.61
  -6  -1   7    0.26    0.33
  -6  -1   7    0.23    0.26
   6   1  -7    0.14    0.62
  -7   0   7    0.56    0.39
  -7   0   7   -0.06    0.33
   7   0  -7   -0.34    0.66
  -8   1   7    1.85    0.50
  -8   1   7    1.49    0.45
   8  -1  -7    2.39    0.85
  -9   2   7    0.47    0.51
  -9   2   7   -0.14    0.39
 -10   3   7   -0.63    0.50
 -11   4   7    0.03    0.59
   4 -12   8    0.51    0.32
   3 -11   8    3.62    0.41
   3 -11   8    2.42    0.38
  -3  11  -8    3.26    0.60
   2 -10   8    0.10    0.22
   2 -10   8   -0.31    0.26
   2 -10   8    0.06    0.24
  -2  10  -8    0.04    0.40
   1  -9   8   -0.65    0.37
   1  -9   8    0.76    0.21
   1  -9   8    0.36    0.23
   1  -9   8    0.43    0.22
  -1   9  -8    0.15    0.38
   0  -8   8    7.91    0.47
   0  -8   8    7.16    0.59
   0  -8   8    8.93    0.40
   0  -8   8    8.31    0.48
   0   8  -8    7.85    0.68
  -1  -7   8   67.40    1.93
  -1  -7   8   65.24    1.50
  -1  -7   8   58.93    1.95
  -1  -7   8   59.80    1.95
   1   7  -8   64.14    1.69
  -2  -6   8    0.08    0.28
  -2  -6   8    0.43    0.26
  -2  -6   8    0.31    0.20
  -2  -6   8    0.92    0.24
   2   6  -8    0.81    0.45
  -3  -5   8    4.92    0.46
  -3  -5   8    5.79    0.40
  -3  -5   8    5.23    0.50
  -3  -5   8    5.41    0.52
   3   5  -8    6.30    0.75
  -4  -4   8    0.25    0.22
  -4  -4   8    1.39    0.35
  -4  -4   8    0.72    0.29
   4   4  -8    0.35    0.51
   5   3  -8    0.83    0.56
  -6  -2   8    0.03    0.31
  -6  -2   8    0.22    0.28
   6   2  -8    0.09    0.58
  -7  -1   8    0.56    0.38
  -7  -1   8    0.52    0.34
   7   1  -8    1.08    0.68
  -8   0   8    0.55    0.40
  -8   0   8    0.61    0.47
   8   0  -8    0.65    0.75
  -9   1   8   -0.48    0.47
  -9   1   8   -0.28    0.41
   9  -1  -8   -0.11    0.87
 -10   2   8   -0.22    0.52
  -2  11  -9    0.24    0.46
   1 -10   9    3.51    0.37
   1 -10   9    2.88    0.37
   1 -10   9    2.90    0.36
  -1  10  -9    3.39    0.55
   0  -9   9    1.57    0.25
   0  -9   9    0.99    0.26
   0   9  -9    1.36    0.46
  -1  -8   9    0.30    0.21
  -1  -8   9    0.63    0.39
  -1  -8   9    0.79    0.27
   1   8  -9    0.05    0.41
  -2  -7   9   10.30    0.55
  -2  -7   9    8.63    0.44
  -2  -7   9    7.51    0.57
  -2  -7   9    8.52    0.66
   2   7  -9    8.17    0.79
  -3  -6   9   13.68    0.54
  -3  -6   9   13.93    0.73
  -3  -6   9   11.99    0.70
   3   6  -9   12.44    1.01
  -4  -5   9    3.51    0.40
  -4  -5   9    3.55    0.49
  -4  -5   9    3.88    0.48
   4   5  -9    3.53    0.72
  -5  -4   9    1.17    0.32
   5   4  -9    0.92    0.61
  -6  -3   9    0.54    0.30
   6   3  -9    0.31    0.63
  -7  -2   9    0.04    0.34
   7   2  -9    0.25    0.70
  -8  -1   9   -0.33    0.39
   8   1  -9    0.16    0.74
  -9   0   9    0.14    0.43
   0 -10  10    1.02    0.25
   0  10 -10    0.99    0.50
  -1  -9  10    1.87    0.49
  -1  -9  10    2.16    0.29
  -1  -9  10    1.67    0.31
   1   9 -10    1.67    0.55
  -2  -8  10    0.25    0.23
  -2  -8  10    0.15    0.39
  -2  -8  10   -0.27    0.26
  -2  -8  10    0.48    0.33
   2   8 -10    0.24    0.50
  -3  -7  10    7.22    0.63
  -3  -7  10    6.39    0.45
  -3  -7  10    6.27    0.54
   3   7 -10    6.59    0.84
  -4  -6  10    2.06    0.33
  -4  -6  10    3.29    0.50
   4   6 -10    1.57    0.65
  -5  -5  10    0.80    0.34
   5   5 -10    0.10    0.59
  -6  -4  10    1.02    0.38
   6   4 -10    0.78    0.72
  -7  -3  10    0.13    0.36
   7   3 -10    0.29    0.74
  -8  -2  10   -0.07    0.41
  -1 -10  11    2.63    0.57
  -1 -10  11   -0.08    0.27
   1  10 -11   -0.14    0.50
  -2  -9  11    0.00    0.28
  -2  -9  11    0.81    0.49
   2   9 -11    0.02    0.53
  -3  -8  11    0.60    0.43
  -3  -8  11    0.57    0.30
  -3  -8  11    0.52    0.39
   3   8 -11   -0.41    0.56
  -4  -7  11    0.40    0.39
  -4  -7  11    0.55    0.32
  -4  -7  11    0.96    0.44
   4   7 -11    0.08    0.57
  -5  -6  11    2.29    0.41
   5   6 -11    0.89    0.66
  -6  -5  11   -0.39    0.35
   6   5 -11    0.02    0.69
  -7  -4  11    0.60    0.38
  -8  -3  11   -0.12    0.40
  -2 -10  12   -0.58    0.27
  -2 -10  12    0.83    0.57
   2  10 -12   -0.37    0.57
  -3  -9  12    0.19    0.48
  -3  -9  12    0.08    0.31
   3   9 -12   -0.25    0.57
   4   8 -12    0.62    0.66
  -5  -7  12    2.13    0.43
  -6  -6  12   -0.61    0.36
  -7  -5  12   -0.95    0.37
  -3 -10  13    0.28    0.32
  -3 -10  13    0.07    0.55
  -4  -9  13   -0.08    0.34
  -5  -8  13   -0.97    0.39
  -5  -7  13   -0.50    0.41
  -4  -8  13   -0.19    0.33
  -3  -9  13    0.02    0.36
  -2 -10  13   -0.15    0.32
  -7  -4  12    0.04    0.38
  -6  -5  12    1.69    0.47
   5   6 -12    1.50    0.73
  -5  -6  12    2.10    0.45
   4   7 -12   -0.01    0.64
  -4  -7  12    0.84    0.39
  -4  -7  12   -0.13    0.33
   3   8 -12    0.21    0.63
  -3  -8  12    0.13    0.30
   2   9 -12   -0.43    0.57
  -2  -9  12    0.92    0.58
  -2  -9  12   -0.79    0.30
   1  10 -12    0.18    0.58
  -1 -10  12   -0.69    0.29
  -8  -2  11    0.54    0.41
  -7  -3  11    0.54    0.39
   6   4 -11   -0.08    0.65
  -6  -4  11   -0.82    0.36
   5   5 -11   -0.04    0.65
  -5  -5  11    2.13    0.41
   4   6 -11    0.14    0.57
  -4  -6  11    1.25    0.45
  -4  -6  11    0.55    0.31
   3   7 -11   -0.08    0.58
  -3  -7  11    0.64    0.29
  -3  -7  11    0.74    0.34
  -3  -7  11    1.02    0.42
   2   8 -11    0.79    0.57
  -2  -8  11    0.34    0.27
  -2  -8  11    1.13    0.42
  -2  -8  11    0.14    0.41
   1   9 -11    2.54    0.66
  -1  -9  11    2.06    0.36
  -1  -9  11    2.57    0.34
  -1  -9  11    1.84    0.56
   0  10 -11    0.07    0.48
   0 -10  11    0.37    0.27
  -1  11 -11   -0.42    0.50
   1 -11  11    0.50    0.28
  -8  -1  10    0.17    0.41
   7   2 -10    0.96    0.82
  -7  -2  10    1.61    0.42
   6   3 -10    0.33    0.64
  -6  -3  10    0.03    0.34
   5   4 -10   -0.05    0.61
  -5  -4  10    0.74    0.34
   4   5 -10   -0.16    0.51
  -4  -5  10    0.77    0.40
  -4  -5  10   -0.10    0.25
   3   6 -10   -0.35    0.49
  -3  -6  10   -0.06    0.33
  -3  -6  10    0.05    0.25
  -3  -6  10    0.33    0.33
   2   7 -10    0.14    0.49
  -2  -7  10    0.57    0.35
  -2  -7  10    0.37    0.37
  -2  -7  10    0.44    0.23
   1   8 -10    2.62    0.61
  -1  -8  10    2.80    0.36
  -1  -8  10    3.33    0.46
  -1  -8  10    4.31    0.54
   0   9 -10    0.78    0.48
   0  -9  10    1.29    0.29
   0  -9  10    1.75    0.33
   0  -9  10    1.42    0.27
  -1  10 -10    1.64    0.54
   1 -10  10    0.63    0.31
   1 -10  10    1.13    0.29
  -2  11 -10    0.34    0.48
   2 -11  10    0.55    0.28
 -10   2   9    0.03    0.55
  -9   1   9   -0.16    0.43
  -9   1   9   -0.28    0.51
   8   0  -9    1.54    0.87
  -8   0   9    1.05    0.49
  -8   0   9    0.46    0.46
   7   1  -9   -0.41    0.67
  -7  -1   9   -0.05    0.42
  -7  -1   9    0.18    0.35
   6   2  -9    0.34    0.65
  -6  -2   9    0.74    0.30
   5   3  -9    0.62    0.62
  -5  -3   9    0.60    0.28
   4   4  -9    2.34    0.65
  -4  -4   9    1.66    0.38
  -4  -4   9    1.93    0.29
   3   5  -9   -0.45    0.48
  -3  -5   9    0.13    0.22
  -3  -5   9   -0.19    0.28
  -3  -5   9    0.19    0.31
   2   6  -9    0.11    0.44
  -2  -6   9   -0.41    0.30
  -2  -6   9    0.05    0.20
  -2  -6   9   -0.48    0.26
   1   7  -9    0.43    0.45
  -1  -7   9    0.35    0.22
  -1  -7   9   -0.29    0.35
  -1  -7   9    0.48    0.31
   0   8  -9    2.80    0.55
   0  -8   9    1.46    0.32
   0  -8   9    1.90    0.33
   0  -8   9    2.57    0.29
   0  -8   9    2.15    0.46
  -1   9  -9    0.42    0.45
   1  -9   9    0.83    0.23
   1  -9   9    0.27    0.27
   1  -9   9    0.52    0.25
  -2  10  -9    0.87    0.50
   2 -10   9    1.40    0.29
   2 -10   9    0.76    0.28
   2 -10   9    0.69    0.32
  -3  11  -9   -0.07    0.52
   3 -11   9    0.48    0.32
   3 -11   9    0.18    0.28
   4 -12   9    0.64    0.31
 -10   3   8   -0.11    0.54
  -9   2   8   -0.35    0.49
   8  -1  -8   -0.40    0.72
  -8   1   8    0.35    0.47
  -8   1   8    0.20    0.39
   7   0  -8   -0.46    0.67
  -7   0   8    0.65    0.33
  -7   0   8    0.39    0.41
   6   1  -8    6.26    0.95
  -6  -1   8    6.49    0.52
  -6  -1   8    6.30    0.58
   5   2  -8    1.13    0.65
  -5  -2   8    0.94    0.28
  -5  -2   8    1.69    0.34
   4   3  -8    1.91    0.57
  -4  -3   8    2.74    0.33
  -4  -3   8    4.21    0.55
  -4  -3   8    2.50    0.32
  -4  -3   8    2.61    0.32
   3   4  -8    2.85    0.61
  -3  -4   8    4.06    0.37
  -3  -4   8    3.11    0.45
  -3  -4   8    3.81    0.46
   2   5  -8   10.30    0.88
  -2  -5   8   11.55    0.64
  -2  -5   8   10.31    0.65
  -2  -5   8   11.46    0.48
  -2  -5   8   11.10    0.59
   1   6  -8    5.04    0.60
  -1  -6   8    4.13    0.32
  -1  -6   8    4.07    0.42
  -1  -6   8    3.43    0.53
  -1  -6   8    4.07    0.46
   0   7  -8    7.62    0.69
   0  -7   8    8.18    0.41
   0  -7   8    7.59    0.53
   0  -7   8    9.32    0.63
  -1   8  -8    0.34    0.42
   1  -8   8    0.77    0.22
   1  -8   8    0.74    0.24
   1  -8   8    0.32    0.27
  -2   9  -8   -0.17    0.39
   2  -9   8    0.18    0.22
   2  -9   8    0.21    0.25
   2  -9   8   -0.03    0.27
   2  -9   8    0.56    0.23
  -3  10  -8    0.92    0.51
   3 -10   8    0.25    0.28
   3 -10   8    0.77    0.27
   3 -10   8    0.25    0.33
  -4  11  -8    1.14    0.57
   4 -11   8    0.79    0.35
   4 -11   8    0.62    0.32
   5 -12   8    0.41    0.32
   5 -12   8    0.16    0.33
 -10   4   7    0.03    0.54
  -9   3   7   -0.05    0.50
  -8   2   7   -0.27    0.40
  -8   2   7    0.20    0.46
   7  -1  -7    0.18    0.66
   7  -1  -7    0.46    0.34
  -7   1   7   -0.19    0.37
  -7   1   7   -0.14    0.34
   6   0  -7    0.40    0.30
   6   0  -7    1.49    0.68
  -6   0   7    0.32    0.35
  -6   0   7    0.45    0.29
   5   1  -7    0.35    0.26
   5   1  -7   -0.60    0.50
  -5  -1   7    0.14    0.29
  -5  -1   7   -0.38    0.24
   4   2  -7   17.21    1.11
  -4  -2   7   16.49    0.85
  -4  -2   7   17.98    0.65
  -4  -2   7   17.22    0.69
  -4  -2   7   16.77    0.64
   3   3  -7    4.28    0.64
  -3  -3   7    4.20    0.41
  -3  -3   7    4.66    0.43
  -3  -3   7    4.16    0.35
  -3  -3   7    4.44    0.37
  -3  -3   7    4.61    0.46
   2   4  -7    3.63    0.55
  -2  -4   7    5.64    0.45
  -2  -4   7    3.74    0.41
  -2  -4   7    5.00    0.43
  -2  -4   7    3.94    0.33
   1   5  -7    5.94    0.59
  -1  -5   7    5.21    0.44
  -1  -5   7    5.71    0.44
  -1  -5   7    6.32    0.35
  -1  -5   7    6.03    0.50
   0   6  -7   10.29    0.71
   0  -6   7   10.29    0.43
   0  -6   7   10.72    0.53
   0  -6   7   10.96    0.55
   0  -6   7    9.34    0.63
  -1   7  -7   20.95    0.93
   1  -7   7   20.21    0.64
   1  -7   7   20.03    0.82
   1  -7   7   21.18    0.80
  -2   8  -7    0.19    0.40
   2  -8   7    0.71    0.23
   2  -8   7    0.69    0.25
   2  -8   7    0.90    0.26
   2  -8   7    0.34    0.29
  -3   9  -7    0.40    0.45
   3  -9   7    0.50    0.25
   3  -9   7    0.49    0.28
   3  -9   7    0.66    0.27
   3  -9   7    1.36    0.34
  -4  10  -7   -0.20    0.44
   4 -10   7    0.37    0.28
   4 -10   7    0.09    0.29
   4 -10   7    0.08    0.34
  -5  11  -7    1.14    0.56
   5 -11   7    1.42    0.34
   5 -11   7    1.05    0.37
   6 -12   7    0.11    0.36
   6 -12   7    0.35    0.32
 -10   5   6   -0.09    0.54
  -9   4   6    0.22    0.50
   8  -3  -6    0.17    0.38
  -8   3   6    0.36    0.47
   7  -2  -6    0.24    0.31
   7  -2  -6   -0.43    0.60
  -7   2   6   -0.10    0.35
  -7   2   6    0.37    0.33
   6  -1  -6    1.31    0.31
   6  -1  -6    1.40    0.67
  -6   1   6    1.39    0.33
  -6   1   6    1.27    0.35
   5   0  -6    0.16    0.61
   5   0  -6    0.37    0.26
  -5   0   6   -0.21    0.26
  -5   0   6    0.50    0.25
   4   1  -6    3.69    0.41
   4   1  -6    2.77    0.65
  -4  -1   6    3.01    0.34
  -4  -1   6    3.58    0.50
  -4  -1   6    3.46    0.36
  -4  -1   6    3.41    0.44
   3   2  -6   23.09    0.69
   3   2  -6   21.47    1.06
  -3  -2   6   22.09    0.74
  -3  -2   6   22.65    0.67
  -3  -2   6   23.39    0.92
  -3  -2   6   22.91    0.89
  -3  -2   6   22.47    0.73
   2   3  -6    5.72    0.57
  -2  -3   6    4.84    0.36
  -2  -3   6    6.20    0.43
  -2  -3   6    5.32    0.33
  -2  -3   6    4.80    0.41
  -2  -3   6    5.31    0.33
   1   4  -6    1.61    0.36
  -1  -4   6    2.01    0.32
  -1  -4   6    1.15    0.17
  -1  -4   6    1.06    0.24
  -1  -4   6    1.24    0.23
   0   5  -6    9.83    0.48
   0   5  -6   11.57    0.67
   0  -5   6   12.17    0.53
   0  -5   6   11.23    0.41
   0  -5   6   11.51    0.55
   0  -5   6   11.68    0.61
  -1   6  -6    6.85    0.60
   1  -6   6    6.00    0.41
   1  -6   6    5.59    0.34
   1  -6   6    5.63    0.42
   1  -6   6    4.97    0.40
  -2   7  -6    1.15    0.43
   2  -7   6    0.70    0.25
   2  -7   6    0.51    0.27
   2  -7   6    1.11    0.22
   2  -7   6    0.77    0.26
  -3   8  -6    7.99    0.69
   3  -8   6    9.37    0.60
   3  -8   6    8.20    0.56
   3  -8   6    8.53    0.44
   3  -8   6    8.83    0.51
  -4   9  -6    1.30    0.48
   4  -9   6    1.49    0.33
   4  -9   6    0.71    0.34
   4  -9   6    1.25    0.29
  -5  10  -6    1.06    0.54
   5 -10   6    0.84    0.32
   5 -10   6   -0.10    0.37
   5 -10   6    0.67    0.34
   6 -11   6    0.17    0.34
   6 -11   6    0.45    0.35
   7 -12   6    0.66    0.40
 -10   6   5   -0.16    0.53
   9  -5  -5   -0.15    0.41
  -9   5   5    0.38    0.48
   8  -4  -5    0.25    0.38
  -8   4   5    0.03    0.45
   7  -3  -5    0.32    0.33
  -7   3   5    0.06    0.30
  -7   3   5   -0.23    0.37
   6  -2  -5    0.04    0.29
   6  -2  -5   -0.24    0.58
  -6   2   5   -0.08    0.29
  -6   2   5    0.16    0.33
   5  -1  -5    3.77    0.47
   5  -1  -5    5.33    0.79
  -5   1   5    4.26    0.40
  -5   1   5    3.89    0.52
   4   0  -5    3.25    0.60
   4   0  -5    1.74    0.26
  -4   0   5    1.72    0.21
  -4   0   5    1.33    0.25
  -4   0   5    1.45    0.30
  -4   0   5    2.28    0.31
   3   1  -5    5.23    0.32
   3   1  -5    5.60    0.60
   3   1  -5    6.01    0.45
  -3  -1   5    4.17    0.46
  -3  -1   5    5.23    0.34
  -3  -1   5    5.96    0.35
  -3  -1   5    5.90    0.46
  -3  -1   5    5.28    0.30
   2   2  -5   13.81    0.45
   2   2  -5   12.89    0.74
  -2  -2   5   13.23    0.50
  -2  -2   5   13.22    0.48
  -2  -2   5   14.10    0.46
  -2  -2   5   13.36    0.57
  -2  -2   5   14.02    0.59
   1   3  -5    3.67    0.39
  -1  -3   5    3.28    0.23
  -1  -3   5    3.65    0.30
  -1  -3   5    2.83    0.31
  -1  -3   5    2.93    0.31
   0   4  -5   34.93    0.97
   0  -4   5   33.82    1.09
   0  -4   5   34.06    0.83
   0  -4   5   31.67    1.02
   0  -4   5   34.74    1.10
  -1   5  -5    0.18    0.29
   1  -5   5    0.54    0.16
   1  -5   5    0.13    0.17
   1  -5   5    0.24    0.18
   1  -5   5    0.60    0.21
  -2   6  -5    2.36    0.27
  -2   6  -5    2.15    0.42
   2  -6   5    1.95    0.28
   2  -6   5    1.90    0.27
   2  -6   5    1.95    0.24
   2  -6   5    1.97    0.30
  -3   7  -5    7.41    0.68
  -3   7  -5    8.14    0.52
   3  -7   5    8.41    0.57
   3  -7   5    7.33    0.46
   3  -7   5    8.35    0.54
   3  -7   5    7.27    0.50
  -4   8  -5    0.90    0.46
   4  -8   5    0.41    0.34
   4  -8   5    0.99    0.33
   4  -8   5    0.45    0.28
  -5   9  -5    8.59    0.60
  -5   9  -5    6.63    0.78
   5  -9   5    7.50    0.65
   5  -9   5    7.10    0.52
   5  -9   5    7.44    0.56
  -6  10  -5    2.12    0.64
   6 -10   5    1.95    0.44
   6 -10   5    2.25    0.42
   7 -11   5    0.52    0.37
   7 -11   5    0.22    0.38
 -10   7   4    0.21    0.54
   9  -6  -4    1.86    0.47
  -9   6   4    1.07    0.51
   8  -5  -4    0.50    0.36
  -8   5   4    0.40    0.43
   7  -4  -4    0.91    0.34
  -7   4   4    0.27    0.38
   6  -3  -4    5.44    0.86
   6  -3  -4    6.33    0.47
  -6   3   4    5.04    0.46
  -6   3   4    6.96    0.60
   5  -2  -4   16.34    0.67
   5  -2  -4   14.62    1.08
  -5   2   4   16.01    0.62
  -5   2   4   16.61    0.75
   4  -1  -4    0.57    0.22
   4  -1  -4    0.34    0.27
   4  -1  -4    0.23    0.48
  -4   1   4    0.46    0.20
  -4   1   4    0.25    0.23
  -4   1   4    0.36    0.25
  -4   1   4    0.63    0.22
   3   0  -4    8.28    0.37
   3   0  -4    8.19    0.69
  -3   0   4    7.63    0.35
  -3   0   4    6.60    0.50
  -3   0   4    8.20    0.34
  -3   0   4    7.73    0.46
  -3   0   4    8.27    0.39
   2   1  -4    0.20    0.17
   2   1  -4   -0.07    0.27
   2   1  -4    0.08    0.13
  -2  -1   4    0.05    0.16
  -2  -1   4    0.02    0.15
  -2  -1   4    0.00    0.16
  -2  -1   4    0.02    0.11
  -2  -1   4    0.21    0.13
   1   2  -4    1.70    0.15
   1   2  -4    2.17    0.31
  -1  -2   4    1.77    0.19
  -1  -2   4    1.65    0.20
  -1  -2   4    1.64    0.20
  -1  -2   4    1.72    0.22
   0   3  -4   46.62    1.08
   0  -3   4   46.29    1.06
   0  -3   4   45.18    1.28
   0  -3   4   47.51    1.42
   0  -3   4   46.03    1.41
  -1   4  -4    6.24    0.47
   1  -4   4    6.76    0.37
   1  -4   4    7.34    0.29
   1  -4   4    6.19    0.33
   1  -4   4    6.50    0.36
  -2   5  -4   16.78    0.59
  -2   5  -4   18.31    0.76
   2  -5   4   16.76    0.69
   2  -5   4   16.06    0.53
   2  -5   4   16.75    0.67
   2  -5   4   16.77    0.61
  -3   6  -4   -0.02    0.35
  -3   6  -4   -0.01    0.23
   3  -6   4   -0.08    0.20
   3  -6   4    0.09    0.25
   3  -6   4    0.19    0.27
   3  -6   4    0.04    0.23
  -4   7  -4    1.28    0.48
  -4   7  -4    1.50    0.33
   4  -7   4    1.28    0.35
   4  -7   4    1.49    0.28
  -5   8  -4    7.88    0.59
  -5   8  -4    7.81    0.83
   5  -8   4    7.09    0.61
   5  -8   4    6.34    0.59
   5  -8   4    8.10    0.50
  -6   9  -4    0.89    0.41
  -6   9  -4    0.32    0.53
   6  -9   4    0.07    0.40
   6  -9   4    1.14    0.35
  -7  10  -4    0.09    0.45
   7 -10   4    0.98    0.39
   7 -10   4   -0.01    0.42
  -8  11  -4    0.09    0.50
   8 -11   4    0.47    0.45
 -10   8   3   -0.24    0.53
   9  -7  -3    0.62    0.40
  -9   7   3    0.22    0.51
   8  -6  -3    2.33    0.46
  -8   6   3    2.65    0.56
   7  -5  -3    1.69    0.37
  -7   5   3    1.81    0.46
   6  -4  -3    2.08    0.35
  -6   4   3    2.62    0.35
  -6   4   3    2.57    0.42
   5  -3  -3   11.14    1.00
   5  -3  -3   10.17    0.52
  -5   3   3   10.70    0.51
  -5   3   3    9.89    0.57
   4  -2  -3   26.09    1.16
   4  -2  -3   25.03    0.75
   4  -2  -3   24.44    0.98
  -4   2   3   25.82    0.87
  -4   2   3   24.93    0.73
   3  -1  -3    2.10    0.42
   3  -1  -3    1.58    0.24
   3  -1  -3    1.68    0.20
   3  -1  -3    1.53    0.23
  -3   1   3    1.84    0.23
  -3   1   3    1.60    0.22
   2   0  -3   47.44    1.22
   2   0  -3   44.90    1.06
   2   0  -3   44.70    1.40
  -2   0   3   43.74    1.20
  -2   0   3   45.33    1.41
  -2   0   3   44.50    1.05
  -2   0   3   43.56    1.40
   1   1  -3   45.78    1.38
   1   1  -3   45.62    1.08
   1   1  -3   45.17    1.03
  -1  -1   3   43.25    1.37
  -1  -1   3   45.69    1.03
  -1  -1   3   45.48    1.38
   0   2  -3   15.65    0.57
   0   2  -3   16.39    0.57
   0  -2   3   16.76    0.57
   0  -2   3   16.58    0.54
   0  -2   3   16.48    0.43
   0  -2   3   16.52    0.58
  -1   3  -3    4.77    0.38
   1  -3   3    5.19    0.33
   1  -3   3    4.57    0.24
   1  -3   3    4.73    0.28
   1  -3   3    5.00    0.30
  -2   4  -3   57.04    1.35
  -2   4  -3   55.02    1.47
   2  -4   3   56.08    1.73
   2  -4   3   54.79    1.30
   2  -4   3   56.67    1.47
   2  -4   3   56.25    1.72
  -3   5  -3   17.73    0.83
  -3   5  -3   17.55    0.64
   3  -5   3   16.29    0.58
   3  -5   3   17.79    0.75
   3  -5   3   18.04    0.74
   3  -5   3   18.28    0.69
  -4   6  -3   16.72    0.92
  -4   6  -3   15.85    0.67
   4  -6   3   14.89    0.61
   4  -6   3   15.88    0.78
   4  -6   3   14.30    0.75
   4  -6   3   17.14    0.72
  -5   7  -3    4.06    0.52
  -5   7  -3    3.62    0.61
   5  -7   3    4.62    0.49
   5  -7   3    3.97    0.43
   5  -7   3    3.02    0.51
  -6   8  -3    4.79    0.73
  -6   8  -3    7.78    0.64
   6  -8   3   10.51    0.68
   6  -8   3    7.78    0.54
  -7   9  -3    1.54    0.62
  -7   9  -3    2.21    0.52
   7  -9   3    2.38    0.44
   7  -9   3    1.51    0.45
  -8  10  -3    0.06    0.49
   8 -10   3    0.65    0.40
   8 -10   3   -0.60    0.45
  -9  11  -3   -0.31    0.53
 -10   9   2    0.04    0.55
   9  -8  -2   -0.64    0.43
  -9   8   2    0.38    0.53
   8  -7  -2    0.66    0.40
  -8   7   2    0.21    0.47
   7  -6  -2    0.31    0.32
  -7   6   2    0.22    0.37
   6  -5  -2    2.40    0.36
  -6   5   2    2.15    0.39
   5  -4  -2    5.61    0.42
   5  -4  -2    5.82    0.79
  -5   4   2    5.86    0.45
  -5   4   2    5.51    0.55
   4  -3  -2    3.77    0.59
   4  -3  -2    3.68    0.38
   4  -3  -2    3.24    0.45
   4  -3  -2    2.90    0.42
  -4   3   2    3.20    0.36
  -4   3   2    3.45    0.43
   3  -2  -2    0.37    0.35
   3  -2  -2    0.29    0.14
   3  -2  -2    0.16    0.19
   3  -2  -2    0.20    0.19
  -3   2   2    0.42    0.15
  -3   2   2    0.31    0.18
  -3   2   2   -0.06    0.16
   2  -1  -2    0.63    0.31
   2  -1  -2    0.51    0.17
   2  -1  -2    0.86    0.15
   2  -1  -2    0.87    0.17
  -2   1   2    0.60    0.18
  -2   1   2    0.56    0.14
   1   0  -2   56.07    1.16
   1   0  -2   53.18    1.20
   1   0  -2   54.48    1.60
  -1   0   2   55.21    1.20
  -1   0   2   51.07    1.59
   0   1  -2  466.39    8.07
   0  -1   2  472.41   10.12
  -1   2  -2   11.73    0.48
  -1   2  -2   12.52    0.47
   1  -2   2   12.12    0.36
   1  -2   2   11.76    0.47
   1  -2   2   12.11    0.46
   1  -2   2   11.43    0.41
  -2   3  -2   92.22    2.05
  -2   3  -2   94.20    1.90
   2  -3   2   95.96    2.77
   2  -3   2   92.38    2.34
   2  -3   2   94.83    2.77
   2  -3   2   95.91    2.08
  -3   4  -2   62.82    1.40
  -3   4  -2   60.25    1.61
   3  -4   2   61.05    1.43
   3  -4   2   58.86    1.61
   3  -4   2   60.26    1.89
   3  -4   2   61.45    1.90
   3  -4   2   59.20    1.60
  -4   5  -2   22.18    0.80
   4  -5   2   22.04    0.71
   4  -5   2   24.28    0.84
   4  -5   2   22.51    0.92
   4  -5   2   23.76    0.95
  -5   6  -2    2.70    0.37
   5  -6   2    2.16    0.38
   5  -6   2    2.12    0.31
   5  -6   2    2.27    0.41
  -6   7  -2    1.34    0.39
   6  -7   2    1.29    0.37
   6  -7   2    1.36    0.33
  -7   8  -2   13.57    0.80
   7  -8   2   10.34    0.75
   7  -8   2   13.00    0.66
  -8   9  -2    0.16    0.49
   8  -9   2    0.85    0.41
   8  -9   2   -0.02    0.44
  -9  10  -2   -0.18    0.51
  -9   9   1   -0.08    0.50
   8  -8  -1    1.47    0.45
  -8   8   1    1.55    0.52
   7  -7  -1    0.98    0.38
  -7   7   1    1.18    0.46
   6  -6  -1    1.30    0.32
  -6   6   1    1.13    0.38
   5  -5  -1    0.16    0.25
   5  -5  -1    0.17    0.34
  -5   5   1    0.14    0.30
   4  -4  -1    1.06    0.23
   4  -4  -1    1.15    0.27
   4  -4  -1    0.12    0.47
   4  -4  -1    1.20    0.30
  -4   4   1    1.29    0.28
  -4   4   1    1.07    0.22
   3  -3  -1   13.88    0.45
   3  -3  -1   15.06    0.77
   3  -3  -1   14.22    0.64
   3  -3  -1   13.25    0.59
  -3   3   1   13.53    0.52
  -3   3   1   13.74    0.44
  -3   3   1   13.34    0.60
   2  -2  -1   70.87    1.62
   2  -2  -1   72.17    2.16
   2  -2  -1   74.10    1.61
   2  -2  -1   73.57    2.16
  -2   2   1   71.63    1.61
  -2   2   1   73.96    2.16
   1  -1  -1   45.01    0.94
   1  -1  -1   41.73    1.26
   1  -1  -1   42.53    1.26
   1  -1  -1   42.56    0.94
  -1   1   1   42.69    1.26
  -1   1   1   41.14    1.26
  -1   1   1   40.94    0.94
   0   0  -1    6.05    0.22
   0   0   1    6.18    0.22
  -1   1  -1   64.62    1.95
  -1   1  -1   65.13    1.24
  -1   1  -1   65.12    1.42
  -1   1  -1   67.68    1.90
   1  -1   1   67.91    1.43
   1  -1   1   64.93    1.90
   1  -1   1   62.56    1.60
   1  -1   1   64.50    1.95
  -2   2  -1  133.10    2.86
  -2   2  -1  134.74    3.91
  -2   2  -1  132.84    2.86
   2  -2   1  132.27    2.88
   2  -2   1  132.12    3.84
   2  -2   1  135.05    3.84
  -3   3  -1   49.08    1.33
  -3   3  -1   50.62    1.57
  -3   3  -1   49.55    1.16
   3  -3   1   48.93    1.58
   3  -3   1   48.94    1.18
   3  -3   1   48.94    1.57
  -4   4  -1   25.17    0.71
  -4   4  -1   23.62    0.82
   4  -4   1   24.93    0.97
   4  -4   1   23.62    0.74
   4  -4   1   23.95    0.95
  -5   5  -1    0.89    0.31
   5  -5   1    0.96    0.28
   5  -5   1    0.46    0.33
  -6   6  -1   -0.04    0.30
   6  -6   1   -0.03    0.27
  -7   7  -1    0.68    0.41
   7  -7   1    0.81    0.35
   7  -7   1    0.62    0.38
  -8   8  -1    0.17    0.47
   8  -8   1    0.51    0.39
   8  -8   1   -0.09    0.44
  -9   9  -1    2.48    0.60
   9  -9   1    3.45    0.69
 -10  10  -1   -0.33    0.52
  -9  10   0   -0.20    0.51
   8  -9   0    0.05    0.37
  -8   9   0    0.24    0.49
   7  -8   0    1.88    0.40
  -7   8   0    2.20    0.49
   6  -7   0    0.83    0.31
  -6   7   0    0.64    0.37
   5  -6   0    3.31    0.35
  -5   6   0    3.08    0.39
   4  -5   0    1.09    0.32
   4  -5   0    0.47    0.26
   4  -5   0    0.63    0.21
  -4   5   0    0.66    0.26
   3  -4   0   23.48    0.97
   3  -4   0   21.85    0.84
   3  -4   0   22.75    0.65
   3  -4   0   22.82    0.86
  -3   4   0   21.73    0.72
  -3   4   0   23.40    0.63
   2  -3   0    2.95    0.31
   2  -3   0    3.13    0.23
   2  -3   0    2.93    0.36
   2  -3   0    2.70    0.28
  -2   3   0    2.78    0.21
   1  -2   0   55.53    1.67
   1  -2   0   57.15    1.67
   1  -2   0   57.73    1.25
  -1   2   0   58.60    1.67
   0  -1   0  137.73    3.94
   0   1   0  137.27    3.94
   0   1   0  136.37    2.22
  -1   0   0  117.69    3.42
  -1   0   0  112.59    2.59
   1   0   0  117.14    2.03
   1   0   0  119.84    3.55
  -2   1   0  232.96    5.16
  -2   1   0  236.21    7.09
   2  -1   0  249.16    4.13
   2  -1   0  236.76    7.11
   2  -1   0  229.65    6.99
  -3   2   0    1.58    0.17
  -3   2   0    1.60    0.20
  -3   2   0    1.84    0.30
   3  -2   0    1.58    0.37
   3  -2   0    1.53    0.24
   3  -2   0    1.15    0.17
   3  -2   0    1.41    0.22
  -4   3   0   25.13    0.71
  -4   3   0   25.47    0.84
   4  -3   0   25.63    0.99
   4  -3   0   27.18    1.11
   4  -3   0   24.78    0.97
   4  -3   0   25.40    0.74
  -5   4   0    0.24    0.28
  -5   4   0    0.18    0.23
   5  -4   0    0.06    0.22
   5  -4   0   -0.07    0.27
   5  -4   0    0.18    0.54
  -6   5   0    0.91    0.35
   6  -5   0    1.12    0.29
  -7   6   0   -0.34    0.37
   7  -6   0    0.55    0.31
  -8   7   0    0.75    0.44
   8  -7   0    1.06    0.41
   8  -7   0    0.10    0.47
  -9   8   0    0.66    0.51
   9  -8   0    1.50    0.47
   9  -8   0    1.14    0.52
 -10   9   0   -0.12    0.53
  -9  11  -1   -0.40    0.53
   8 -10   1    0.59    0.40
   8 -10   1    0.04    0.44
  -8  10  -1    0.04    0.49
   7  -9   1    2.65    0.44
  -7   9  -1    2.67    0.52
   6  -8   1    0.33    0.30
  -6   8  -1    0.20    0.35
   5  -7   1    2.04    0.32
   5  -7   1    3.50    0.56
  -5   7  -1    2.01    0.37
   4  -6   1    0.51    0.23
   4  -6   1    0.90    0.32
   4  -6   1    0.19    0.27
  -4   6  -1    0.75    0.27
   3  -5   1   50.39    1.64
   3  -5   1   51.11    1.65
   3  -5   1   52.96    1.25
  -3   5  -1   52.28    1.41
   2  -4   1   26.29    0.88
   2  -4   1   26.18    0.67
   2  -4   1   26.96    0.89
   1  -3   1    0.91    0.14
   1  -3   1    0.91    0.10
   1  -3   1    0.97    0.14
   1  -3   1    1.18    0.17
  -1   3  -1    0.97    0.23
  -1  -1   1   43.46    1.24
  -1  -1   1   40.76    0.94
  -1  -1   1   43.28    1.24
   1   1  -1   42.15    1.23
   1   1  -1   42.47    1.23
  -2   0   1  484.17   13.84
  -2   0   1  458.09   13.89
  -2   0   1  469.69   10.31
   2   0  -1  483.59   10.33
   2   0  -1  482.05    7.84
   2   0  -1  481.22   13.79
  -3   1   1   29.74    0.86
  -3   1   1   30.53    0.76
  -3   1   1   29.51    1.02
   3  -1  -1   31.04    1.02
   3  -1  -1   29.91    0.77
   3  -1  -1   30.18    1.02
  -4   2   1   24.44    0.70
  -4   2   1   24.11    0.80
   4  -2  -1   23.14    0.90
   4  -2  -1   23.54    0.91
   4  -2  -1   25.08    1.09
   4  -2  -1   22.21    0.70
  -5   3   1    0.03    0.21
  -5   3   1    0.08    0.27
   5  -3  -1   -0.26    0.28
   5  -3  -1   -0.02    0.50
   5  -3  -1   -0.22    0.23
  -6   4   1    0.34    0.27
  -6   4   1    0.09    0.30
   6  -4  -1    0.30    0.60
   6  -4  -1   -0.02    0.26
  -7   5   1   -0.14    0.36
   7  -5  -1   -0.09    0.29
  -8   6   1    0.32    0.44
   8  -6  -1    0.70    0.38
  -9   7   1    0.15    0.51
   9  -7  -1    0.48    0.42
   9  -7  -1    0.18    0.45
 -10   8   1    0.22    0.55
  -8  11  -2   -0.58    0.49
   7 -10   2    0.23    0.36
   7 -10   2   -0.26    0.42
  -7  10  -2    0.28    0.46
   6  -9   2    1.29    0.35
  -6   9  -2    0.96    0.40
   5  -8   2    0.17    0.26
  -5   8  -2    0.09    0.31
   4  -7   2    0.32    0.27
   4  -7   2    0.26    0.23
   4  -7   2    0.02    0.31
  -4   7  -2    0.09    0.26
   3  -6   2    8.18    0.49
   3  -6   2    6.62    0.37
   3  -6   2    6.79    0.46
  -3   6  -2    7.62    0.44
   2  -5   2   37.94    1.23
   2  -5   2   39.55    1.23
   2  -5   2   38.71    0.93
   1  -4   2    0.12    0.12
   1  -4   2    0.21    0.09
   1  -4   2    0.22    0.18
   1  -4   2    0.21    0.12
  -1   4  -2    0.20    0.20
   0  -3   2   65.60    1.88
   0  -3   2   66.10    1.90
   0  -3   2   65.91    1.74
  -1  -2   2    6.21    0.27
  -1  -2   2    5.85    0.31
  -1  -2   2    5.95    0.26
  -1  -2   2    6.48    0.20
   1   2  -2    5.68    0.34
  -2  -1   2   50.53    1.35
  -2  -1   2   50.63    1.54
  -2  -1   2   50.09    1.15
  -2  -1   2   52.57    1.54
   2   1  -2   49.42    1.21
   2   1  -2   51.92    1.54
   2   1  -2   51.57    1.16
  -3   0   2   69.53    1.86
  -3   0   2   70.67    2.19
  -3   0   2   72.79    1.64
  -3   0   2   72.86    2.19
   3   0  -2   73.28    1.65
   3   0  -2   74.17    1.72
   3   0  -2   73.69    2.20
  -4   1   2  199.84    4.91
  -4   1   2  193.75    5.72
  -4   1   2  193.85    4.27
   4  -1  -2  199.42    3.90
   4  -1  -2  199.29    4.29
  -5   2   2    0.65    0.27
  -5   2   2    0.70    0.24
   5  -2  -2    1.00    0.57
   5  -2  -2    0.58    0.24
  -6   3   2    0.65    0.34
  -6   3   2    0.69    0.29
   6  -3  -2    0.42    0.28
   6  -3  -2    0.76    0.64
  -7   4   2    0.14    0.36
   7  -4  -2    0.23    0.31
  -8   5   2    1.19    0.43
   8  -5  -2    0.20    0.37
  -9   6   2    0.69    0.50
   9  -6  -2    0.99    0.42
 -10   7   2    0.01    0.53
  10  -7  -2    0.22    0.52
   7 -11   3    0.40    0.38
   7 -11   3   -0.01    0.41
   6 -10   3   -0.21    0.38
   6 -10   3   -0.16    0.44
   6 -10   3    0.70    0.36
  -6  10  -3   -0.07    0.49
   5  -9   3   -0.48    0.31
   5  -9   3    0.17    0.27
   4  -8   3    1.29    0.28
   4  -8   3    0.92    0.37
   4  -8   3    1.56    0.34
   4  -8   3    0.63    0.31
   3  -7   3    3.45    0.41
   3  -7   3    3.74    0.40
   2  -6   3   23.23    0.63
   2  -6   3   22.01    0.79
   2  -6   3   22.03    0.79
   1  -5   3    6.27    0.32
   1  -5   3    6.86    0.26
   1  -5   3    6.65    0.31
   1  -5   3    6.23    0.40
   1  -5   3    6.84    0.33
  -1   5  -3    6.41    0.37
   0  -4   3    2.57    0.17
   0  -4   3    2.62    0.29
   0  -4   3    2.86    0.18
   0  -4   3    2.47    0.17
   0  -4   3    3.12    0.14
   0   4  -3    2.95    0.25
  -1  -3   3   26.31    0.81
  -1  -3   3   28.29    0.63
  -1  -3   3   28.60    0.85
  -1  -3   3   28.10    0.85
   1   3  -3   26.73    0.68
  -2  -2   3    2.49    0.19
  -2  -2   3    2.85    0.23
  -2  -2   3    2.73    0.27
   2   2  -3    3.07    0.35
  -3  -1   3   17.31    0.66
  -3  -1   3   16.28    0.55
  -3  -1   3   16.46    0.65
  -3  -1   3   16.72    0.50
  -3  -1   3   15.96    0.57
   3   1  -3   16.38    0.82
   3   1  -3   16.13    0.65
   3   1  -3   16.66    0.51
  -4   0   3   99.60    2.95
  -4   0   3   98.20    2.20
  -4   0   3   95.64    2.94
  -4   0   3   93.68    2.53
  -4   0   3   96.19    2.51
   4   0  -3   98.06    2.95
   4   0  -3   99.33    2.34
   4   0  -3   97.38    2.20
  -5   1   3    3.23    0.37
  -5   1   3    4.21    0.48
   5  -1  -3    3.88    0.68
   5  -1  -3    4.20    0.43
  -6   2   3   41.70    1.15
  -6   2   3   41.42    1.31
   6  -2  -3   43.45    1.19
   6  -2  -3   40.49    1.70
  -7   3   3    2.71    0.36
  -7   3   3    2.42    0.44
   7  -3  -3    2.21    0.77
   7  -3  -3    2.57    0.40
  -8   4   3    0.05    0.37
   8  -4  -3    0.46    0.34
  -9   5   3    0.92    0.52
   9  -5  -3    1.68    0.44
 -10   6   3    0.26    0.56
  10  -6  -3    0.50    0.41
 -11   7   3   -0.41    0.55
   7 -12   4   -0.26    0.40
   6 -11   4    0.65    0.34
   6 -11   4   -0.61    0.38
   5 -10   4    1.56    0.40
   5 -10   4    2.20    0.36
  -5  10  -4    0.84    0.50
   4  -9   4    0.02    0.25
   4  -9   4   -0.02    0.34
  -4   9  -4    0.28    0.41
   3  -8   4    0.26    0.26
   3  -8   4    0.76    0.25
   3  -8   4    0.62    0.23
   3  -8   4    0.92    0.30
  -3   8  -4    0.79    0.38
   2  -7   4    4.32    0.35
   2  -7   4    4.11    0.33
   2  -7   4    4.46    0.42
   2  -7   4    4.65    0.36
  -2   7  -4    4.76    0.48
   1  -6   4    4.74    0.33
   1  -6   4    5.60    0.32
   1  -6   4    5.31    0.43
   1  -6   4    5.44    0.31
   1  -6   4    5.09    0.28
  -1   6  -4    6.03    0.43
   0  -5   4    1.43    0.19
   0  -5   4    1.08    0.17
   0  -5   4    1.28    0.15
   0  -5   4    1.12    0.25
   0  -5   4    1.08    0.13
   0   5  -4    0.98    0.21
  -1  -4   4   32.19    0.74
  -1  -4   4   32.05    0.98
  -1  -4   4   33.13    0.99
  -1  -4   4   32.51    0.97
   1   4  -4   29.95    0.80
  -2  -3   4    5.68    0.33
  -2  -3   4    5.30    0.35
  -2  -3   4    4.80    0.32
  -2  -3   4    5.40    0.24
   2   3  -4    5.07    0.50
  -3  -2   4    0.32    0.17
  -3  -2   4    0.21    0.18
  -3  -2   4    0.34    0.15
  -3  -2   4    0.37    0.16
  -3  -2   4    0.40    0.16
   3   2  -4    0.30    0.33
   3   2  -4    0.34    0.13
  -4  -1   4   10.49    0.48
  -4  -1   4   10.62    0.42
  -4  -1   4   10.30    0.56
  -4  -1   4   10.19    0.49
  -4  -1   4   10.80    0.57
   4   1  -4   10.41    0.42
   4   1  -4    9.48    0.58
   4   1  -4   10.21    0.86
  -5   0   4   10.00    0.48
  -5   0   4    9.70    0.57
  -5   0   4   10.23    0.65
  -5   0   4   11.03    0.58
   5   0  -4   10.66    0.53
   5   0  -4   10.11    0.93
  -6   1   4   38.78    1.11
  -6   1   4   38.54    1.23
  -6   1   4   39.66    1.25
   6  -1  -4   40.67    1.68
   6  -1  -4   38.92    1.12
  -7   2   4    4.25    0.52
  -7   2   4    4.34    0.58
   7  -2  -4    3.37    0.42
   7  -2  -4    5.31    0.93
  -8   3   4    1.62    0.38
  -8   3   4    1.36    0.45
   8  -3  -4    1.46    0.39
  -9   4   4    0.91    0.50
   9  -4  -4    0.26    0.45
 -10   5   4   -0.16    0.53
  10  -5  -4    1.09    0.46
 -11   6   4    0.00    0.58
   6 -12   5    0.38    0.38
   6 -12   5   -0.36    0.36
   5 -11   5    2.05    0.38
   5 -11   5    2.03    0.42
  -5  11  -5    2.06    0.56
   4 -10   5    1.28    0.34
   4 -10   5    1.19    0.29
   4 -10   5    1.83    0.40
  -4  10  -5    1.04    0.47
   3  -9   5    3.06    0.36
   3  -9   5    3.04    0.34
   3  -9   5    2.25    0.33
   3  -9   5    3.19    0.36
  -3   9  -5    2.69    0.47
   2  -8   5   -0.15    0.20
   2  -8   5   -0.08    0.21
   2  -8   5   -0.01    0.19
  -2   8  -5    0.19    0.31
   1  -7   5   32.85    0.92
   1  -7   5   30.85    1.04
   1  -7   5   32.38    1.03
   1  -7   5   34.01    1.15
   1  -7   5   32.08    0.81
  -1   7  -5   33.90    0.95
   0  -6   5    1.23    0.29
   0  -6   5    1.62    0.24
   0  -6   5    1.28    0.14
   0   6  -5    1.45    0.27
  -1  -5   5    3.80    0.27
  -1  -5   5    3.31    0.27
  -1  -5   5    4.14    0.21
  -1  -5   5    3.44    0.42
   1   5  -5    3.97    0.38
  -2  -4   5    1.09    0.20
  -2  -4   5    1.10    0.23
  -2  -4   5    1.86    0.24
   2   4  -5    0.68    0.33
  -3  -3   5   17.87    0.71
  -3  -3   5   16.67    0.53
  -3  -3   5   17.32    0.64
  -3  -3   5   16.33    0.69
   3   3  -5   16.54    0.86
  -4  -2   5    0.31    0.24
  -4  -2   5    0.26    0.22
  -4  -2   5    0.40    0.20
  -4  -2   5    0.29    0.21
  -4  -2   5   -0.05    0.23
   4   2  -5    0.20    0.18
   4   2  -5    0.32    0.44
  -5  -1   5    3.29    0.39
  -5  -1   5    3.18    0.43
  -5  -1   5    4.31    0.42
  -5  -1   5    2.92    0.47
   5   1  -5    3.92    0.42
   5   1  -5    2.97    0.66
  -6   0   5   13.26    0.64
  -6   0   5   12.62    0.66
  -6   0   5   12.33    0.59
   6   0  -5   13.28    0.59
   6   0  -5   11.65    1.04
  -7   1   5    2.79    0.44
  -7   1   5    2.93    0.38
   7  -1  -5    2.13    0.76
   7  -1  -5    2.88    0.41
  -8   2   5   11.39    0.64
  -8   2   5   11.28    0.79
   8  -2  -5   11.35    0.64
  -9   3   5   -0.29    0.46
   9  -3  -5   -0.83    0.40
 -10   4   5    0.22    0.53
 -11   5   5   -0.28    0.56
   5 -12   6    1.20    0.34
   4 -11   6    1.58    0.33
   4 -11   6    1.69    0.35
  -4  11  -6    1.57    0.50
   3 -10   6    1.13    0.25
   3 -10   6    1.05    0.25
   3 -10   6    0.42    0.29
   3 -10   6    0.92    0.28
  -3  10  -6    0.79    0.41
   2  -9   6    0.45    0.22
   2  -9   6    0.82    0.21
   2  -9   6    0.40    0.23
   2  -9   6    0.72    0.20
  -2   9  -6    0.12    0.34
   1  -8   6    1.28    0.19
   1  -8   6    0.94    0.21
   1  -8   6    0.94    0.38
   1  -8   6    0.51    0.18
  -1   8  -6    0.82    0.35
   0  -7   6    6.74    0.55
   0  -7   6    7.61    0.32
   0  -7   6    7.43    0.37
   0  -7   6    7.42    0.37
   0   7  -6    7.64    0.52
  -1  -6   6   34.20    0.82
  -1  -6   6   32.31    1.07
  -1  -6   6   35.18    1.15
  -1  -6   6   33.83    1.06
   1   6  -6   31.81    0.98
  -2  -5   6    0.82    0.22
  -2  -5   6    1.41    0.18
  -2  -5   6    0.81    0.22
  -2  -5   6    0.99    0.27
   2   5  -6    0.78    0.37
  -3  -4   6   25.29    0.73
  -3  -4   6   26.06    0.89
  -3  -4   6   25.36    0.96
  -3  -4   6   27.93    0.97
   3   4  -6   24.29    1.03
  -4  -3   6   15.73    0.58
  -4  -3   6   15.25    0.73
  -4  -3   6   15.36    0.59
  -4  -3   6   16.11    0.65
  -4  -3   6   14.91    0.71
   4   3  -6   16.50    1.01
  -5  -2   6    6.13    0.40
  -5  -2   6    6.16    0.45
  -5  -2   6    5.24    0.55
  -5  -2   6    6.38    0.46
   5   2  -6    6.44    0.81
  -6  -1   6    2.28    0.37
  -6  -1   6    2.34    0.33
  -6  -1   6    2.41    0.32
   6   1  -6    2.05    0.68
  -7   0   6    0.50    0.36
  -7   0   6    0.58    0.30
   7   0  -6    1.40    0.69
  -8   1   6   14.75    0.83
  -8   1   6   13.83    0.70
   8  -1  -6   11.60    1.31
  -9   2   6    0.65    0.42
  -9   2   6   -0.09    0.43
 -10   3   6    0.14    0.53
 -11   4   6    0.17    0.60
   4 -12   7    0.23    0.28
  -4  12  -7    0.16    0.51
   3 -11   7   -0.39    0.24
  -3  11  -7    0.40    0.44
   2 -10   7   -0.04    0.19
   2 -10   7   -0.11    0.20
   2 -10   7    0.27    0.21
  -2  10  -7   -0.26    0.35
   1  -9   7    0.13    0.17
   1  -9   7    0.84    0.40
   1  -9   7    0.02    0.19
  -1   9  -7    0.27    0.34
   0  -8   7    7.52    0.39
   0  -8   7    8.05    0.39
   0  -8   7    7.25    0.61
   0  -8   7    8.25    0.35
   0   8  -7    8.19    0.59
  -1  -7   7    4.87    0.36
  -1  -7   7    4.43    0.57
  -1  -7   7    6.39    0.36
  -1  -7   7    5.06    0.30
   1   7  -7    5.03    0.51
  -2  -6   7   16.51    0.53
  -2  -6   7   17.20    0.69
  -2  -6   7   16.78    0.68
  -2  -6   7   15.98    0.73
   2   6  -7   15.80    0.86
  -3  -5   7   26.53    0.74
  -3  -5   7   25.00    0.97
  -3  -5   7   25.68    0.99
  -3  -5   7   27.10    0.96
   3   5  -7   26.27    1.13
  -4  -4   7   10.91    0.65
  -4  -4   7   11.53    0.61
  -4  -4   7   13.06    0.54
   4   4  -7   11.11    0.97
  -5  -3   7    3.22    0.42
  -5  -3   7    3.38    0.46
  -5  -3   7    2.99    0.34
   5   3  -7    3.32    0.68
  -6  -2   7    4.05    0.44
  -6  -2   7    3.64    0.43
  -6  -2   7    3.53    0.49
   6   2  -7    3.41    0.75
  -7  -1   7    0.62    0.35
  -7  -1   7    1.72    0.40
   7   1  -7    1.01    0.69
  -8   0   7   -0.05    0.40
  -8   0   7    0.19    0.35
   8   0  -7   -0.64    0.66
  -9   1   7   -0.53    0.45
  -9   1   7   -0.27    0.39
   9  -1  -7    0.04    0.81
 -10   2   7    3.56    0.67
 -11   3   7   -0.32    0.57
   1 -10   8    0.13    0.16
   1 -10   8   -0.86    0.37
  -1  10  -8    0.37    0.36
   0  -9   8    1.47    0.42
   0  -9   8    1.40    0.21
   0  -9   8    2.20    0.24
   0  -9   8    1.92    0.22
   0   9  -8    1.86    0.41
  -1  -8   8    3.87    0.35
  -1  -8   8    5.37    0.61
  -1  -8   8    4.40    0.33
  -1  -8   8    5.74    0.36
   1   8  -8    4.11    0.53
  -2  -7   8    0.29    0.24
  -2  -7   8    0.91    0.21
  -2  -7   8    0.39    0.32
  -2  -7   8    0.10    0.24
   2   7  -8    0.75    0.43
  -3  -6   8    8.27    0.44
  -3  -6   8    9.61    0.54
  -3  -6   8    6.99    0.53
  -3  -6   8    8.04    0.61
   3   6  -8    7.75    0.76
  -4  -5   8    7.36    0.57
  -4  -5   8    8.18    0.46
  -4  -5   8    8.82    0.58
   4   5  -8    6.85    0.78
  -5  -4   8    1.99    0.35
  -5  -4   8    1.70    0.39
   5   4  -8    2.42    0.68
   6   3  -8    0.92    0.65
  -7  -2   8   -0.04    0.31
   7   2  -8   -0.08    0.63
  -8  -1   8    0.46    0.37
   8   1  -8   -0.09    0.70
  -9   0   8    0.39    0.40
  -9   0   8    0.19    0.50
   9   0  -8    0.00    0.86
 -10   1   8    0.48    0.44
 -10   1   8    0.81    0.56
 -11   2   8   -0.43    0.56
   0 -10   9    0.93    0.45
   0 -10   9    0.22    0.17
   0  10  -9   -0.14    0.37
  -1  -9   9    1.54    0.24
  -1  -9   9    1.89    0.48
  -1  -9   9    1.84    0.30
   1   9  -9    0.68    0.41
  -2  -8   9    0.43    0.27
  -2  -8   9   -0.14    0.19
  -2  -8   9    0.00    0.36
   2   8  -9   -0.08    0.44
  -3  -7   9   12.62    0.64
  -3  -7   9   12.57    0.66
  -3  -7   9   13.09    0.75
  -3  -7   9   12.48    0.53
   3   7  -9   11.02    0.87
  -4  -6   9    1.29    0.28
  -4  -6   9    2.20    0.41
  -4  -6   9    1.47    0.35
   4   6  -9    1.44    0.60
  -5  -5   9    1.83    0.41
  -5  -5   9    1.44    0.38
   5   5  -9    0.68    0.64
  -6  -4   9   -0.13    0.30
   6   4  -9    0.36    0.59
  -7  -3   9   -0.23    0.32
   7   3  -9   -0.55    0.58
  -8  -2   9    0.00    0.35
   8   2  -9   -0.82    0.70
  -9  -1   9    0.01    0.40
  -1 -10  10    4.29    0.60
   1  10 -10    2.21    0.55
  -2  -9  10    0.14    0.41
  -2  -9  10    0.76    0.23
  -2  -9  10   -0.59    0.23
  -2  -9  10    0.65    0.26
   2   9 -10    0.26    0.48
  -3  -8  10    0.07    0.24
  -3  -8  10    0.84    0.26
  -3  -8  10    0.16    0.39
   3   8 -10   -0.13    0.49
  -4  -7  10   -0.23    0.26
  -4  -7  10    0.44    0.37
  -4  -7  10    0.05    0.31
   4   7 -10    0.30    0.54
  -5  -6  10   11.91    0.73
  -5  -6  10    9.82    0.72
   5   6 -10    9.73    1.09
  -6  -5  10    0.39    0.34
   6   5 -10   -0.05    0.66
  -7  -4  10   -0.52    0.36
   7   4 -10   -0.80    0.63
  -8  -3  10   -1.02    0.39
  -1 -11  11    1.64    0.62
  -2 -10  11    0.31    0.49
   2  10 -11    0.03    0.51
  -3  -9  11    1.27    0.50
  -3  -9  11    0.66    0.28
   3   9 -11    0.13    0.57
  -4  -8  11    0.38    0.43
  -4  -8  11   -0.09    0.31
   4   8 -11   -0.27    0.59
   5   7 -11    1.28    0.73
  -6  -6  11    0.94    0.39
   6   6 -11    1.30    0.78
  -7  -5  11    1.55    0.44
  -8  -4  11   -0.48    0.41
  -2 -11  12    0.35    0.56
  -3 -10  12    0.45    0.52
   3  10 -12   -0.30    0.54
  -4  -9  12    0.18    0.50
  -4  -9  12   -0.56    0.33
  -5  -8  12   -0.20    0.39
  -6  -7  12   -0.71    0.36
  -7  -6  12    1.18    0.44
  -3 -11  13   -0.52    0.51
  -5  -9  13   -0.92    0.37
  -3  -9  14    0.65    0.42
  -2 -10  14   -0.69    0.32
  -6  -5  13    1.07    0.49
  -5  -6  13    0.54    0.42
  -4  -7  13   -0.13    0.34
  -3  -8  13   -0.39    0.33
  -2  -9  13   -0.74    0.34
  -1 -10  13    0.19    0.33
   0 -11  13   -0.05    0.30
  -7  -3  12    0.61    0.42
   5   5 -12    0.62    0.74
  -5  -5  12    1.21    0.41
   4   6 -12    0.49    0.68
  -4  -6  12    0.80    0.35
   3   7 -12    0.39    0.63
  -3  -7  12    0.07    0.29
  -3  -7  12   -0.87    0.43
   2   8 -12    0.56    0.59
  -2  -8  12    1.53    0.47
  -2  -8  12    0.25    0.31
   1   9 -12    0.20    0.60
  -1  -9  12    0.85    0.32
   0  10 -12    0.09    0.54
   0 -10  12    0.01    0.29
   1 -11  12    0.15    0.30
  -8  -1  11    0.77    0.45
   7   2 -11    0.95    0.82
  -7  -2  11    0.43    0.39
   6   3 -11    0.23    0.70
   5   4 -11    1.15    0.70
  -5  -4  11    0.92    0.35
   4   5 -11   -0.47    0.55
  -4  -5  11    0.15    0.29
   3   6 -11    0.02    0.55
  -3  -6  11    0.36    0.27
  -3  -6  11    0.61    0.35
   2   7 -11    0.53    0.58
  -2  -7  11    1.51    0.44
  -2  -7  11    0.76    0.29
  -2  -7  11    1.39    0.45
   1   8 -11    0.02    0.51
  -1  -8  11    0.82    0.36
  -1  -8  11    0.66    0.27
   0   9 -11    0.56    0.52
   0  -9  11    1.09    0.39
   0  -9  11    0.53    0.27
  -1  10 -11    0.56    0.55
   1 -10  11    1.29    0.32
  -2  11 -11    0.88    0.61
   2 -11  11    0.77    0.32
   3 -12  11    0.93    0.33
 -10   2  10   -0.09    0.58
  -9   1  10   -0.22    0.53
  -8   0  10    0.19    0.42
  -8   0  10   -0.13    0.48
   7   1 -10   -0.53    0.75
  -7  -1  10    0.48    0.38
  -7  -1  10    0.54    0.48
   6   2 -10    4.81    0.94
  -6  -2  10    3.70    0.46
   5   3 -10    0.36    0.63
  -5  -3  10   -0.72    0.29
   4   4 -10    1.91    0.65
  -4  -4  10    1.17    0.30
   3   5 -10   -0.56    0.47
  -3  -5  10    0.47    0.36
  -3  -5  10    0.00    0.24
   2   6 -10   -0.93    0.46
  -2  -6  10    0.17    0.23
  -2  -6  10   -0.32    0.30
  -2  -6  10   -0.25    0.35
   1   7 -10    2.32    0.61
  -1  -7  10    2.72    0.33
  -1  -7  10    3.30    0.53
  -1  -7  10    4.68    0.61
   0   8 -10    1.77    0.56
   0  -8  10    1.37    0.34
   0  -8  10    1.71    0.29
  -1   9 -10    2.73    0.61
   1  -9  10    4.32    0.41
   1  -9  10    3.52    0.49
  -2  10 -10    0.33    0.52
   2 -10  10    0.07    0.27
  -3  11 -10    0.38    0.55
   3 -11  10    0.27    0.30
   4 -12  10    0.42    0.31
 -10   3   9    0.12    0.57
  -9   2   9   -0.02    0.53
  -8   1   9   -0.06    0.49
   7   0  -9    0.65    0.75
  -7   0   9    0.13    0.36
  -7   0   9    0.19    0.45
   6   1  -9    0.98    0.69
  -6  -1   9    0.58    0.38
  -6  -1   9    0.91    0.32
   5   2  -9   -0.16    0.59
  -5  -2   9    0.25    0.30
  -5  -2   9    0.24    0.32
   4   3  -9    5.72    0.81
  -4  -3   9    5.17    0.44
   3   4  -9    0.40    0.50
  -3  -4   9    0.24    0.22
   2   5  -9    0.17    0.46
  -2  -5   9    0.00    0.30
  -2  -5   9    0.36    0.23
  -2  -5   9    0.38    0.32
   1   6  -9    0.72    0.45
  -1  -6   9    0.41    0.22
  -1  -6   9    0.49    0.34
  -1  -6   9    0.44    0.34
   0   7  -9    4.35    0.64
   0  -7   9    4.39    0.36
   0  -7   9    6.28    0.52
  -1   8  -9    1.77    0.53
   1  -8   9    3.94    0.38
   1  -8   9    3.64    0.49
  -2   9  -9    0.11    0.45
   2  -9   9    0.26    0.24
   2  -9   9    0.06    0.31
  -3  10  -9    4.68    0.73
   3 -10   9    5.71    0.46
   3 -10   9    5.57    0.50
  -4  11  -9   -0.43    0.51
   4 -11   9    0.71    0.32
   4 -11   9    0.40    0.32
   5 -12   9    0.23    0.34
   5 -12   9    0.28    0.32
 -10   4   8   -0.37    0.53
  -9   3   8   -0.38    0.51
  -8   2   8    0.20    0.40
  -8   2   8    0.30    0.49
   7  -1  -8   -0.03    0.67
  -7   1   8    0.20    0.42
  -7   1   8    0.41    0.36
   6   0  -8   -0.25    0.61
  -6   0   8   -0.23    0.35
  -6   0   8    0.33    0.31
   5   1  -8    1.03    0.61
  -5  -1   8    0.47    0.28
  -5  -1   8    1.01    0.34
   4   2  -8   10.23    0.94
  -4  -2   8   10.66    0.51
  -4  -2   8   10.14    0.57
   3   3  -8    3.96    0.66
  -3  -3   8    3.79    0.38
  -3  -3   8    3.67    0.39
  -3  -3   8    2.75    0.44
  -3  -3   8    3.70    0.42
   2   4  -8    0.77    0.48
  -2  -4   8    1.28    0.25
  -2  -4   8    1.02    0.29
  -2  -4   8    1.21    0.32
   1   5  -8    0.43    0.42
  -1  -5   8   -0.27    0.29
  -1  -5   8   -0.28    0.24
  -1  -5   8   -0.44    0.27
  -1  -5   8    0.00    0.19
   0   6  -8    1.63    0.48
   0  -6   8    1.79    0.30
   0  -6   8    1.74    0.24
   0  -6   8    1.42    0.32
  -1   7  -8    3.33    0.57
   1  -7   8    2.16    0.34
   1  -7   8    2.93    0.35
  -2   8  -8    0.56    0.45
   2  -8   8    0.14    0.29
   2  -8   8    0.21    0.25
   2  -8   8    0.18    0.23
  -3   9  -8   -0.01    0.45
   3  -9   8   -0.21    0.30
   3  -9   8    0.26    0.25
   3  -9   8    0.40    0.28
  -4  10  -8   -0.47    0.50
   4 -10   8    0.62    0.32
   4 -10   8    0.50    0.39
   4 -10   8    0.71    0.33
   5 -11   8    1.20    0.37
   5 -11   8    0.97    0.39
   6 -12   8    0.45    0.37
 -10   5   7   -0.21    0.53
   9  -4  -7   -0.10    0.39
  -9   4   7   -0.43    0.49
   8  -3  -7    0.37    0.38
  -8   3   7   -0.13    0.46
   7  -2  -7   -0.42    0.64
   7  -2  -7    0.01    0.31
  -7   2   7   -0.04    0.41
  -7   2   7   -0.67    0.31
   6  -1  -7    1.80    0.35
   6  -1  -7    2.14    0.77
  -6   1   7    1.65    0.33
  -6   1   7    1.61    0.39
   5   0  -7    0.40    0.26
   5   0  -7    0.52    0.57
  -5   0   7    0.22    0.32
  -5   0   7   -0.37    0.26
   4   1  -7    8.23    0.51
   4   1  -7    7.04    0.84
  -4  -1   7    7.47    0.44
  -4  -1   7    7.51    0.53
   3   2  -7    0.15    0.21
   3   2  -7    0.38    0.46
  -3  -2   7    0.08    0.20
  -3  -2   7    0.04    0.23
  -3  -2   7   -0.35    0.23
  -3  -2   7   -0.09    0.17
   2   3  -7    3.33    0.56
  -2  -3   7    3.23    0.30
  -2  -3   7    2.39    0.37
  -2  -3   7    3.67    0.42
  -2  -3   7    3.24    0.37
   1   4  -7    2.88    0.50
  -1  -4   7    2.26    0.38
  -1  -4   7    2.73    0.34
  -1  -4   7    2.92    0.33
  -1  -4   7    2.97    0.31
  -1  -4   7    3.02    0.31
   0   5  -7    1.49    0.42
   0  -5   7    1.72    0.22
   0  -5   7    1.57    0.32
   0  -5   7    1.62    0.27
  -1   6  -7    4.97    0.56
  -1   6  -7    5.98    0.45
   1  -6   7    4.13    0.36
   1  -6   7    3.77    0.45
   1  -6   7    5.09    0.40
  -2   7  -7    0.67    0.44
   2  -7   7    0.34    0.25
   2  -7   7    0.34    0.22
   2  -7   7    0.35    0.25
   2  -7   7    0.06    0.26
  -3   8  -7    1.21    0.49
   3  -8   7    1.48    0.27
   3  -8   7    1.03    0.35
   3  -8   7    1.57    0.34
  -4   9  -7    0.03    0.42
   4  -9   7   -0.35    0.25
   4  -9   7    0.23    0.29
  -5  10  -7   -0.15    0.52
   5 -10   7    0.04    0.38
   5 -10   7    0.28    0.31
   5 -10   7    0.68    0.36
   6 -11   7    0.07    0.35
   6 -11   7    0.59    0.36
 -10   6   6    0.01    0.55
   9  -5  -6    0.68    0.42
  -9   5   6    0.27    0.50
   8  -4  -6    0.31    0.38
  -8   4   6    0.29    0.45
   7  -3  -6    0.47    0.34
  -7   3   6   -0.26    0.29
  -7   3   6    0.10    0.37
   6  -2  -6    0.73    0.30
   6  -2  -6    0.22    0.68
  -6   2   6    0.68    0.35
  -6   2   6    0.81    0.30
   5  -1  -6    0.01    0.28
   5  -1  -6   -0.38    0.53
  -5   1   6    0.35    0.27
  -5   1   6    0.25    0.29
   4   0  -6    1.98    0.63
   4   0  -6    2.32    0.31
  -4   0   6    1.94    0.28
  -4   0   6    2.44    0.35
   3   1  -6    6.17    0.43
   3   1  -6    6.19    0.73
  -3  -1   6    6.49    0.53
  -3  -1   6    5.42    0.36
  -3  -1   6    5.93    0.34
  -3  -1   6    5.90    0.46
   2   2  -6  139.88    3.09
   2   2  -6  141.56    2.95
  -2  -2   6  145.20    4.15
  -2  -2   6  143.02    3.56
  -2  -2   6  138.39    3.10
  -2  -2   6  138.04    3.53
  -2  -2   6  137.79    4.14
   1   3  -6    0.59    0.32
   1   3  -6    0.40    0.15
  -1  -3   6    0.20    0.20
  -1  -3   6    0.17    0.18
  -1  -3   6    0.44    0.18
  -1  -3   6    0.34    0.15
  -1  -3   6    0.15    0.20
   0   4  -6    3.52    0.45
   0   4  -6    4.78    0.39
   0  -4   6    5.15    0.38
   0  -4   6    3.51    0.29
   0  -4   6    4.26    0.36
   0  -4   6    4.28    0.43
  -1   5  -6    6.48    0.62
   1  -5   6    6.33    0.35
   1  -5   6    6.46    0.42
   1  -5   6    6.57    0.44
   1  -5   6    6.27    0.46
  -2   6  -6    3.77    0.54
  -2   6  -6    3.75    0.40
   2  -6   6    3.69    0.40
   2  -6   6    4.62    0.38
   2  -6   6    3.64    0.45
   2  -6   6    3.37    0.43
  -3   7  -6    0.23    0.27
  -3   7  -6    0.15    0.39
   3  -7   6    0.36    0.22
   3  -7   6    0.24    0.27
   3  -7   6   -0.20    0.25
   3  -7   6    0.02    0.28
  -4   8  -6    0.01    0.31
  -4   8  -6    0.25    0.41
   4  -8   6    0.25    0.26
   4  -8   6    0.01    0.29
   4  -8   6    1.08    0.37
  -5   9  -6    0.08    0.38
  -5   9  -6   -0.35    0.45
   5  -9   6    0.10    0.32
   5  -9   6   -0.18    0.35
   5  -9   6    0.32    0.31
  -6  10  -6    0.17    0.45
  -6  10  -6    0.44    0.53
   6 -10   6    0.29    0.35
   6 -10   6    0.42    0.37
   7 -11   6    0.52    0.40
 -10   7   5    0.06    0.54
   9  -6  -5   -0.34    0.43
  -9   6   5    0.35    0.52
   8  -5  -5    1.35    0.41
  -8   5   5    1.10    0.52
   7  -4  -5    0.04    0.30
  -7   4   5   -0.06    0.38
   6  -3  -5    2.52    0.37
   6  -3  -5    2.00    0.74
  -6   3   5    2.30    0.37
  -6   3   5    2.40    0.41
   5  -2  -5    4.59    0.79
   5  -2  -5    3.62    0.40
  -5   2   5    4.14    0.44
  -5   2   5    4.37    0.47
   4  -1  -5    5.43    0.45
   4  -1  -5    5.80    0.75
  -4   1   5    5.42    0.44
  -4   1   5    3.82    0.42
   3   0  -5    3.18    0.32
   3   0  -5    3.49    0.56
  -3   0   5    3.21    0.40
  -3   0   5    3.46    0.41
  -3   0   5    3.32    0.23
  -3   0   5    3.35    0.30
   2   1  -5    4.39    0.29
   2   1  -5    4.93    0.53
   2   1  -5    4.14    0.39
  -2  -1   5    4.34    0.29
  -2  -1   5    4.12    0.25
  -2  -1   5    5.36    0.39
  -2  -1   5    4.49    0.36
  -2  -1   5    5.08    0.39
   1   2  -5   47.01    1.16
   1   2  -5   51.00    1.33
   1   2  -5   50.62    1.57
  -1  -2   5   49.21    1.33
  -1  -2   5   50.41    1.35
  -1  -2   5   50.10    1.57
  -1  -2   5   50.02    1.18
  -1  -2   5   51.82    1.58
   0   3  -5   35.29    1.01
   0   3  -5   36.37    1.05
   0   3  -5   35.92    0.88
   0  -3   5   36.50    1.05
   0  -3   5   36.66    1.19
   0  -3   5   36.64    0.90
   0  -3   5   37.03    1.20
  -1   4  -5    0.56    0.30
  -1   4  -5    0.22    0.17
   1  -4   5    0.18    0.17
   1  -4   5    0.35    0.19
   1  -4   5    0.22    0.15
   1  -4   5    0.33    0.20
  -2   5  -5    0.88    0.37
  -2   5  -5    1.35    0.25
   2  -5   5    1.00    0.24
   2  -5   5    0.88    0.26
   2  -5   5    0.74    0.25
  -3   6  -5    2.74    0.49
  -3   6  -5    3.37    0.42
   3  -6   5    3.32    0.36
   3  -6   5    3.26    0.32
   3  -6   5    2.89    0.45
   3  -6   5    3.20    0.42
  -4   7  -5    0.83    0.45
  -4   7  -5    0.78    0.33
   4  -7   5    0.82    0.31
   4  -7   5    0.87    0.27
   4  -7   5    1.66    0.37
  -5   8  -5    3.66    0.52
  -5   8  -5    4.03    0.68
   5  -8   5    4.17    0.43
   5  -8   5    3.78    0.45
   5  -8   5    3.15    0.54
  -6   9  -5    1.75    0.60
  -6   9  -5    2.49    0.48
   6  -9   5    1.93    0.39
   6  -9   5    2.04    0.43
  -7  10  -5    0.50    0.50
   7 -10   5    0.60    0.41
   7 -10   5    0.79    0.38
  -8  11  -5   -0.24    0.50
 -10   8   4   -0.39    0.54
   9  -7  -4   -0.05    0.44
  -9   7   4   -0.02    0.48
   8  -6  -4    0.45    0.38
  -8   6   4    0.17    0.49
   7  -5  -4    1.75    0.40
  -7   5   4    1.62    0.43
   6  -4  -4    6.47    0.52
  -6   4   4    6.11    0.62
   5  -3  -4    4.72    0.81
   5  -3  -4    5.28    0.48
  -5   3   4    5.09    0.56
  -5   3   4    5.21    0.41
   4  -2  -4   13.64    0.56
   4  -2  -4   14.50    1.02
   4  -2  -4   15.47    0.82
  -4   2   4   13.95    0.66
  -4   2   4   13.86    0.53
   3  -1  -4    8.50    0.74
   3  -1  -4    8.26    0.40
  -3   1   4    8.62    0.44
  -3   1   4    9.15    0.52
  -3   1   4    8.16    0.38
   2   0  -4   12.52    0.72
   2   0  -4   12.29    0.43
  -2   0   4   12.20    0.54
  -2   0   4   12.03    0.55
  -2   0   4   12.00    0.50
  -2   0   4   11.65    0.41
   1   1  -4   61.70    1.44
   1   1  -4   62.39    1.40
  -1  -1   4   60.58    1.59
  -1  -1   4   60.81    1.86
  -1  -1   4   60.59    1.86
   0   2  -4  180.17    3.24
   0   2  -4  181.78    3.94
   0  -2   4  184.14    5.47
   0  -2   4  179.51    5.32
   0  -2   4  187.17    3.98
   0  -2   4  164.41    4.62
  -1   3  -4   15.71    0.68
  -1   3  -4   14.55    0.45
  -1   3  -4   15.19    0.52
   1  -3   4   16.55    0.63
   1  -3   4   15.46    0.47
   1  -3   4   15.75    0.54
   1  -3   4   15.89    0.62
  -2   4  -4   17.25    0.59
  -2   4  -4   18.09    0.75
   2  -4   4   17.85    0.69
   2  -4   4   16.89    0.70
   2  -4   4   16.36    0.53
   2  -4   4   16.17    0.61
  -3   5  -4   15.01    0.82
  -3   5  -4   14.35    0.59
   3  -5   4   13.99    0.54
   3  -5   4   13.30    0.56
   3  -5   4   13.97    0.69
   3  -5   4   13.57    0.64
   3  -5   4   14.63    0.68
  -4   6  -4    0.53    0.44
  -4   6  -4    0.41    0.28
   4  -6   4    0.86    0.33
   4  -6   4   -0.28    0.30
   4  -6   4    0.29    0.25
  -5   7  -4    3.06    0.40
  -5   7  -4    2.82    0.60
   5  -7   4    2.15    0.43
   5  -7   4    2.63    0.41
   5  -7   4    3.37    0.42
  -6   8  -4    3.67    0.71
  -6   8  -4    4.13    0.55
   6  -8   4    3.81    0.47
   6  -8   4    3.33    0.49
  -7   9  -4    3.30    0.56
  -7   9  -4    2.41    0.70
   7  -9   4    3.26    0.54
   7  -9   4    2.33    0.48
  -8  10  -4   -0.33    0.51
   8 -10   4    0.60    0.42
   8 -10   4    0.22    0.45
  -9  11  -4    0.11    0.53
  -9   8   3    0.36    0.52
   8  -7  -3    1.47    0.44
  -8   7   3    1.45    0.54
   7  -6  -3    2.89    0.42
  -7   6   3    2.94    0.52
   6  -5  -3    0.22    0.27
  -6   5   3    0.16    0.35
   5  -4  -3    2.73    0.35
  -5   4   3    2.78    0.39
  -5   4   3    2.47    0.33
   4  -3  -3   17.70    1.03
   4  -3  -3   15.07    0.75
   4  -3  -3   15.36    0.58
  -4   3   3   15.39    0.65
  -4   3   3   16.01    0.56
   3  -2  -3    5.04    0.36
   3  -2  -3    5.84    0.50
   3  -2  -3    6.48    0.62
   3  -2  -3    5.43    0.40
  -3   2   3    4.83    0.36
  -3   2   3    5.80    0.34
  -3   2   3    4.92    0.40
   2  -1  -3    9.96    0.64
   2  -1  -3    9.49    0.48
   2  -1  -3    9.52    0.47
   2  -1  -3    9.37    0.36
  -2   1   3    9.18    0.42
  -2   1   3    9.21    0.34
  -2   1   3    9.18    0.46
   1   0  -3  110.21    3.15
   1   0  -3  110.42    2.37
   1   0  -3  110.20    2.14
  -1   0   3  106.30    3.15
  -1   0   3  102.83    3.14
  -1   0   3  110.64    2.36
   0   1  -3    6.32    0.36
   0   1  -3    6.39    0.29
   0   1  -3    6.24    0.48
   0   1  -3    5.57    0.33
   0  -1   3    5.79    0.33
   0  -1   3    6.34    0.27
   0  -1   3    6.06    0.37
  -1   2  -3   -0.20    0.22
  -1   2  -3    0.05    0.15
  -1   2  -3   -0.05    0.13
   1  -2   3   -0.02    0.14
   1  -2   3   -0.13    0.15
   1  -2   3    0.11    0.17
   1  -2   3   -0.02    0.12
  -2   3  -3   56.68    1.37
  -2   3  -3   57.88    1.52
  -2   3  -3   57.54    1.32
   2  -3   3   57.63    1.34
   2  -3   3   56.68    1.52
   2  -3   3   59.02    1.80
   2  -3   3   60.04    1.79
  -3   4  -3   49.68    1.41
  -3   4  -3   49.08    1.39
  -3   4  -3   51.36    1.21
   3  -4   3   50.01    1.65
   3  -4   3   51.32    1.64
   3  -4   3   48.20    1.23
   3  -4   3   51.69    1.42
   3  -4   3   53.55    1.41
  -4   5  -3   11.78    0.79
  -4   5  -3   11.50    0.58
   4  -5   3   11.18    0.64
   4  -5   3   11.88    0.65
   4  -5   3   10.08    0.51
   4  -5   3   11.11    0.64
  -5   6  -3   -0.14    0.42
  -5   6  -3    0.10    0.30
   5  -6   3   -0.14    0.24
   5  -6   3   -0.28    0.29
   5  -6   3   -0.54    0.30
  -6   7  -3    1.06    0.53
  -6   7  -3    0.79    0.38
   6  -7   3    0.48    0.34
   6  -7   3    0.92    0.30
  -7   8  -3    0.13    0.55
  -7   8  -3    0.20    0.43
   7  -8   3   -0.53    0.41
   7  -8   3    0.25    0.35
  -8   9  -3   -0.47    0.46
   8  -9   3    0.55    0.37
  -9  10  -3   -0.38    0.52
  -9   9   2   -0.11    0.51
   8  -8  -2    0.17    0.41
  -8   8   2    0.15    0.50
   7  -7  -2    0.39    0.35
  -7   7   2    0.44    0.44
   6  -6  -2    3.91    0.42
  -6   6   2    4.61    0.57
   5  -5  -2   19.92    0.73
  -5   5   2   20.02    0.80
   4  -4  -2    1.27    0.32
   4  -4  -2    1.73    0.53
   4  -4  -2    2.00    0.26
  -4   4   2    1.92    0.31
  -4   4   2    1.85    0.26
   3  -3  -2   10.84    0.54
   3  -3  -2   10.73    0.58
   3  -3  -2   10.97    0.79
   3  -3  -2   11.53    0.43
  -3   3   2   11.04    0.54
  -3   3   2   11.03    0.50
  -3   3   2   11.51    0.42
   2  -2  -2   11.52    0.51
   2  -2  -2   11.07    0.66
   2  -2  -2   11.44    0.51
   2  -2  -2   11.30    0.38
  -2   2   2   10.68    0.51
  -2   2   2   11.21    0.42
  -2   2   2   10.94    0.38
   1  -1  -2   50.25    1.54
   1  -1  -2   52.25    1.19
   1  -1  -2   51.81    1.54
   1  -1  -2   49.78    1.15
  -1   1   2   49.98    1.14
  -1   1   2   50.24    1.54
  -1   1   2   50.60    1.54
   0   0  -2    1.49    0.19
   0   0  -2    1.73    0.23
   0   0  -2    1.53    0.16
   0   0   2    1.59    0.15
   0   0   2    1.46    0.19
  -1   1  -2   32.06    1.01
  -1   1  -2   32.24    1.01
  -1   1  -2   31.50    0.75
  -1   1  -2   31.32    0.81
   1  -1   2   32.11    1.01
   1  -1   2   33.11    0.76
   1  -1   2   31.18    1.00
   1  -1   2   30.81    0.85
  -2   2  -2  101.44    2.25
  -2   2  -2  105.33    2.07
   2  -2   2  103.06    3.03
   2  -2   2  104.02    3.03
   2  -2   2  105.33    2.28
   2  -2   2  101.02    2.55
  -3   3  -2   17.07    0.71
  -3   3  -2   16.71    0.50
  -3   3  -2   17.63    0.77
  -3   3  -2   16.20    0.58
   3  -3   2   16.90    0.69
   3  -3   2   16.56    0.71
   3  -3   2   16.77    0.53
   3  -3   2   16.27    0.61
  -4   4  -2   14.37    0.64
  -4   4  -2   14.96    0.54
   4  -4   2   15.08    0.68
   4  -4   2   15.08    0.72
   4  -4   2   13.32    0.57
   4  -4   2   13.76    0.68
  -5   5  -2    0.04    0.28
   5  -5   2    0.09    0.25
   5  -5   2   -0.36    0.28
   5  -5   2   -0.25    0.30
  -6   6  -2    5.02    0.51
   6  -6   2    3.55    0.51
   6  -6   2    4.76    0.49
  -7   7  -2    0.24    0.38
  -7   7  -2   -0.12    0.49
   7  -7   2    0.17    0.33
   7  -7   2    1.52    0.47
  -8   8  -2   -0.08    0.46
  -8   8  -2    0.36    0.62
   8  -8   2   -0.09    0.43
   8  -8   2    0.40    0.37
  -9   9  -2    0.74    0.52
   9  -9   2   -0.26    0.52
 -10  10  -2    0.19    0.56
  -9  10   1    0.05    0.52
   8  -9  -1    0.68    0.39
  -8   9   1    0.19    0.49
   7  -8  -1    0.96    0.39
  -7   8   1    0.44    0.46
   6  -7  -1   -0.08    0.29
  -6   7   1   -0.17    0.35
   5  -6  -1    1.77    0.40
   5  -6  -1    2.32    0.32
  -5   6   1    2.04    0.37
   4  -5  -1   16.89    0.80
   4  -5  -1   16.83    0.62
  -4   5   1   17.29    0.70
   3  -4  -1   36.13    1.20
   3  -4  -1   36.27    1.24
   3  -4  -1   36.56    0.94
   3  -4  -1   36.34    1.23
  -3   4   1   36.88    0.91
  -3   4   1   35.07    1.04
   2  -3  -1   16.76    0.72
   2  -3  -1   16.51    0.62
   2  -3  -1   15.67    0.63
   2  -3  -1   16.09    0.48
  -2   3   1   15.38    0.53
  -2   3   1   16.12    0.46
   1  -2  -1    5.72    0.33
   1  -2  -1    5.86    0.23
   1  -2  -1    5.90    0.31
   1  -2  -1    5.23    0.44
  -1   2   1    5.67    0.23
  -1   2   1    5.38    0.33
   0  -1  -1  191.08    3.20
   0  -1  -1  191.34    4.23
   0  -1  -1  186.54    5.61
   0  -1  -1  189.61    5.62
   0   1   1  193.86    5.60
   0   1   1  193.44    5.61
  -1   0  -1   52.55    1.58
  -1   0  -1   53.01    1.58
  -1   0  -1   53.45    1.09
  -1   0  -1   54.61    1.18
   1   0   1   54.00    1.19
   1   0   1   53.06    1.58
  -2   1  -1   24.59    0.63
  -2   1  -1   25.56    0.77
  -2   1  -1   24.88    0.84
  -2   1  -1   24.71    0.63
   2  -1   1   24.72    0.84
   2  -1   1   24.77    0.64
   2  -1   1   23.98    0.73
   2  -1   1   24.56    0.84
  -3   2  -1   15.39    0.49
  -3   2  -1   15.07    0.54
  -3   2  -1   15.69    0.50
   3  -2   1   16.68    0.51
   3  -2   1   15.73    0.60
   3  -2   1   15.12    0.68
   3  -2   1   15.53    0.67
  -4   3  -1  154.21    3.38
  -4   3  -1  151.79    3.88
  -4   3  -1  161.15    4.55
  -4   3  -1  154.88    3.38
   4  -3   1  153.19    4.53
   4  -3   1  155.14    3.41
   4  -3   1  151.51    4.54
   4  -3   1  150.31    3.83
  -5   4  -1   -0.08    0.27
  -5   4  -1    0.13    0.24
  -5   4  -1   -0.07    0.23
   5  -4   1   -0.10    0.23
   5  -4   1   -0.18    0.29
   5  -4   1    0.14    0.29
  -6   5  -1    0.34    0.31
   6  -5   1    0.91    0.36
   6  -5   1    0.58    0.29
  -7   6  -1    0.24    0.37
   7  -6   1    0.82    0.34
   7  -6   1    0.82    0.39
  -8   7  -1    1.67    0.51
   8  -7   1    1.95    0.44
   8  -7   1    0.45    0.49
  -9   8  -1   -0.02    0.46
   9  -8   1    0.82    0.43
   9  -8   1   -0.19    0.49
 -10   9  -1   -0.06    0.53
  -9  11   0   -0.05    0.53
  -8  10   0   -0.15    0.48
   7  -9   0    0.16    0.36
  -7   9   0   -0.08    0.44
   6  -8   0    0.89    0.31
  -6   8   0    1.46    0.41
   5  -7   0   -0.02    0.25
   5  -7   0   -0.47    0.31
  -5   7   0   -0.16    0.30
   4  -6   0    4.69    0.40
   4  -6   0    3.85    0.48
  -4   6   0    4.57    0.50
   3  -5   0    6.73    0.50
   3  -5   0    7.40    0.46
   3  -5   0    8.36    0.39
  -3   5   0    7.49    0.43
   2  -4   0    3.84    0.30
   2  -4   0    3.19    0.33
   2  -4   0    3.12    0.24
   1  -3   0    0.20    0.13
   1  -3   0    0.14    0.10
   1  -3   0    0.32    0.14
   1  -3   0    0.25    0.13
  -1   3   0    0.37    0.22
   0  -2   0   12.52    0.41
   0  -2   0   12.25    0.41
   0  -2   0   12.29    0.31
   0   2   0   11.87    0.37
  -1  -1   0   44.19    1.29
  -1  -1   0   43.46    0.96
  -1  -1   0   42.57    1.29
   1   1   0   44.24    1.29
   1   1   0   43.42    1.29
  -2   0   0  103.66    2.31
  -2   0   0  107.38    2.03
  -2   0   0  109.59    3.18
  -2   0   0  109.47    3.10
   2   0   0   99.17    2.61
   2   0   0  105.94    3.10
   2   0   0  108.34    2.11
   2   0   0  109.92    2.33
   2   0   0  110.39    3.11
  -3   1   0    5.43    0.31
  -3   1   0    4.59    0.36
  -3   1   0    4.36    0.34
   3  -1   0    4.95    0.37
   3  -1   0    4.61    0.29
   3  -1   0    3.81    0.35
   3  -1   0    4.51    0.49
  -4   2   0   20.81    0.71
  -4   2   0   20.69    0.62
   4  -2   0   21.29    0.85
   4  -2   0   21.07    0.84
   4  -2   0   23.26    1.04
   4  -2   0   22.12    0.65
  -5   3   0    3.77    0.38
  -5   3   0    3.79    0.48
   5  -3   0    3.34    0.37
   5  -3   0    2.34    0.63
   5  -3   0    3.43    0.47
  -6   4   0    1.86    0.32
  -6   4   0    2.40    0.39
   6  -4   0    1.86    0.31
   6  -4   0    1.95    0.65
  -7   5   0   -0.05    0.37
   7  -5   0   -0.60    0.37
   7  -5   0    0.18    0.32
  -8   6   0   -0.11    0.44
   8  -6   0    0.56    0.43
   8  -6   0    0.18    0.34
  -9   7   0    0.88    0.54
   9  -7   0    0.37    0.48
   9  -7   0    1.59    0.46
 -10   8   0    0.32    0.54
  -8  11  -1   -0.13    0.49
   7 -10   1    0.11    0.37
  -7  10  -1    0.05    0.44
   6  -9   1    0.27    0.31
  -6   9  -1    0.14    0.40
   5  -8   1    0.25    0.27
   5  -8   1   -0.04    0.34
  -5   8  -1    0.22    0.33
   4  -7   1   -0.10    0.25
   4  -7   1   -0.12    0.21
  -4   7  -1    0.02    0.27
   3  -6   1   14.32    0.64
   3  -6   1   14.76    0.51
   3  -6   1   14.75    0.66
  -3   6  -1   14.75    0.59
   2  -5   1   14.63    0.58
   2  -5   1   15.16    0.46
   2  -5   1   14.53    0.59
   1  -4   1   38.65    1.18
   1  -4   1   39.43    1.18
   1  -4   1   39.78    0.89
   1  -4   1   39.22    1.12
  -1   4  -1   38.89    0.92
   0  -3   1    0.70    0.12
   0  -3   1    0.65    0.12
   0  -3   1    0.68    0.15
   0   3  -1    0.76    0.14
  -1  -2   1   29.45    0.85
  -1  -2   1   29.52    0.85
  -1  -2   1   27.55    0.78
  -1  -2   1   28.61    0.63
   1   2  -1   25.50    0.65
   1   2  -1   27.46    0.60
  -2  -1   1   10.29    0.46
  -2  -1   1   10.52    0.43
  -2  -1   1   10.35    0.34
   2   1  -1   10.88    0.46
   2   1  -1   10.84    0.34
   2   1  -1   10.53    0.56
  -3   0   1   26.41    0.90
  -3   0   1   25.07    0.89
  -3   0   1   24.18    0.65
  -3   0   1   23.98    0.74
   3   0  -1   25.76    0.68
   3   0  -1   26.98    0.99
   3   0  -1   24.78    0.88
  -4   1   1    3.41    0.42
  -4   1   1    3.19    0.36
  -4   1   1    2.86    0.32
  -4   1   1    3.25    0.32
   4  -1  -1    2.75    0.25
   4  -1  -1    3.28    0.55
  -5   2   1    0.37    0.23
  -5   2   1    0.19    0.25
   5  -2  -1   -0.14    0.48
   5  -2  -1   -0.07    0.21
   5  -2  -1   -0.04    0.25
  -6   3   1    1.32    0.33
  -6   3   1    1.67    0.31
   6  -3  -1    1.47    0.64
   6  -3  -1    1.18    0.32
  -7   4   1    0.09    0.33
  -7   4   1    0.23    0.36
   7  -4  -1    0.46    0.32
  -8   5   1    0.20    0.42
   8  -5  -1    0.28    0.36
  -9   6   1    0.44    0.51
   9  -6  -1    1.07    0.44
   9  -6  -1    0.62    0.49
 -10   7   1    0.28    0.50
   7 -11   2    0.65    0.39
   7 -11   2   -0.25    0.41
   6 -10   2    0.80    0.45
   6 -10   2    0.37    0.35
   6 -10   2   -0.56    0.35
   5  -9   2    2.21    0.35
   5  -9   2    1.38    0.40
   4  -8   2    2.53    0.30
   4  -8   2    1.76    0.37
   4  -8   2    2.29    0.34
   3  -7   2    2.66    0.39
   3  -7   2    1.71    0.24
   3  -7   2    0.95    0.27
   2  -6   2   20.00    0.72
   2  -6   2   17.83    0.74
   2  -6   2   19.22    0.55
   2  -6   2   18.48    0.70
   1  -5   2   69.86    1.49
   1  -5   2   64.63    1.86
   1  -5   2   71.16    1.99
   1  -5   2   69.78    1.99
  -1   5  -2   67.49    1.38
   0  -4   2   28.10    0.85
  -1  -3   2    2.21    0.17
  -1  -3   2    1.97    0.24
  -1  -3   2    2.27    0.11
  -1  -3   2    1.96    0.15
   1   3  -2    1.97    0.21
  -2  -2   2    8.51    0.29
  -2  -2   2    8.83    0.37
  -2  -2   2    8.85    0.39
  -2  -2   2    9.10    0.40
   2   2  -2    7.75    0.52
  -3  -1   2   16.21    0.48
  -3  -1   2   14.85    0.62
  -3  -1   2   15.86    0.53
  -3  -1   2   15.21    0.57
  -3  -1   2   16.34    0.64
   3   1  -2   14.89    0.73
   3   1  -2   15.92    0.48
   3   1  -2   15.28    0.62
  -4   0   2   33.49    1.22
  -4   0   2   35.94    0.91
  -4   0   2   35.37    1.22
  -4   0   2   36.03    1.04
   4   0  -2   35.48    1.24
   4   0  -2   35.94    0.93
   4   0  -2   36.40    1.25
  -5   1   2    0.16    0.21
  -5   1   2   -0.01    0.25
  -5   1   2    0.08    0.26
   5  -1  -2   -0.04    0.20
   5  -1  -2    0.06    0.52
  -6   2   2    3.87    0.43
  -6   2   2    3.38    0.46
   6  -2  -2    4.27    0.81
   6  -2  -2    3.71    0.39
  -7   3   2   -0.14    0.34
   7  -3  -2   -0.52    0.30
   7  -3  -2    0.26    0.60
  -8   4   2    0.26    0.37
   8  -4  -2    0.13    0.34
  -9   5   2    0.51    0.47
   9  -5  -2    0.86    0.43
   9  -5  -2   -0.49    0.52
 -10   6   2   -0.35    0.52
  10  -6  -2    0.60    0.42
  10  -6  -2    0.12    0.51
 -11   7   2   -0.44    0.53
   7 -12   3    0.29    0.42
   6 -11   3    0.18    0.41
   6 -11   3    0.44    0.33
   5 -10   3    0.66    0.36
   5 -10   3    0.16    0.36
   5 -10   3    1.25    0.33
   4  -9   3   -0.40    0.31
   4  -9   3   -0.30    0.24
   3  -8   3    7.97    0.44
   3  -8   3    8.97    0.53
   3  -8   3    7.42    0.50
   2  -7   3    1.61    0.20
   2  -7   3    1.04    0.33
   2  -7   3    0.91    0.23
   1  -6   3    8.31    0.53
   1  -6   3    7.74    0.34
   1  -6   3    7.71    0.34
   1  -6   3    7.43    0.29
  -1   6  -3    7.56    0.48
   0  -5   3   24.61    0.83
  -1  -4   3   21.41    0.47
  -1  -4   3   19.06    0.68
  -1  -4   3   21.53    0.63
  -1  -4   3   20.64    0.63
   1   4  -3   20.70    0.53
  -2  -3   3   22.70    0.74
  -2  -3   3   22.37    0.55
  -2  -3   3   21.83    0.73
  -2  -3   3   21.39    0.71
   2   3  -3   20.74    0.73
  -3  -2   3    6.51    0.39
  -3  -2   3    6.68    0.35
  -3  -2   3    6.93    0.38
  -3  -2   3    6.27    0.30
   3   2  -3    5.41    0.52
   3   2  -3    6.20    0.31
  -4  -1   3    5.01    0.37
  -4  -1   3    5.82    0.46
  -4  -1   3    4.56    0.32
  -4  -1   3    4.96    0.40
  -4  -1   3    6.57    0.43
   4   1  -3    5.74    0.45
   4   1  -3    5.21    0.31
   4   1  -3    4.86    0.58
  -5   0   3    0.99    0.29
  -5   0   3    0.15    0.23
  -5   0   3    0.11    0.21
  -5   0   3   -0.13    0.24
   5   0  -3    0.11    0.20
   5   0  -3    0.38    0.50
  -6   1   3   11.08    0.53
  -6   1   3   11.10    0.60
   6  -1  -3   11.72    0.56
   6  -1  -3   11.53    1.06
  -7   2   3    0.99    0.32
  -7   2   3    0.50    0.35
   7  -2  -3    0.32    0.30
   7  -2  -3   -0.47    0.66
  -8   3   3    0.19    0.40
   8  -3  -3    0.34    0.34
  -9   4   3    0.12    0.47
   9  -4  -3    0.37    0.40
 -10   5   3   -0.24    0.53
  10  -5  -3    1.06    0.58
  10  -5  -3    0.25    0.40
 -11   6   3   -0.22    0.54
   6 -12   4    0.58    0.34
   5 -11   4    0.69    0.38
   5 -11   4    1.35    0.35
  -5  11  -4    1.65    0.55
   4 -10   4    1.13    0.29
   4 -10   4    1.98    0.38
   4 -10   4    0.83    0.29
  -4  10  -4    0.72    0.44
   3  -9   4    0.09    0.27
   3  -9   4    0.22    0.22
   3  -9   4    0.69    0.28
   3  -9   4    0.22    0.21
  -3   9  -4    0.29    0.34
   2  -8   4    8.11    0.59
   2  -8   4    9.61    0.42
   2  -8   4    9.99    0.46
   2  -8   4   10.74    0.48
  -2   8  -4   10.69    0.59
   1  -7   4   12.99    0.49
   1  -7   4   15.13    0.72
   1  -7   4   13.46    0.43
   1  -7   4   16.01    0.50
   1  -7   4   13.16    0.49
  -1   7  -4   13.71    0.54
   0  -6   4    1.89    0.19
   0  -6   4    2.13    0.17
   0  -6   4    2.78    0.34
   0   6  -4    2.50    0.23
  -1  -5   4   21.69    0.63
  -1  -5   4   20.63    0.48
  -1  -5   4   19.68    0.73
  -1  -5   4   20.28    0.63
   1   5  -4   19.17    0.57
  -2  -4   4   47.19    1.07
  -2  -4   4   47.77    1.42
  -2  -4   4   47.27    1.42
  -2  -4   4   47.41    1.35
   2   4  -4   44.20    1.13
  -3  -3   4   10.44    0.50
  -3  -3   4   10.29    0.49
  -3  -3   4   10.09    0.50
  -3  -3   4   11.26    0.41
   3   3  -4    9.80    0.68
  -4  -2   4    8.91    0.46
  -4  -2   4    8.90    0.49
  -4  -2   4    8.98    0.42
  -4  -2   4    8.92    0.55
  -4  -2   4    9.39    0.51
   4   2  -4    9.21    0.81
   4   2  -4    9.49    0.41
  -5  -1   4    0.33    0.25
  -5  -1   4    0.21    0.21
  -5  -1   4    0.42    0.26
  -5  -1   4    0.74    0.28
   5   1  -4    0.48    0.22
   5   1  -4    0.39    0.49
  -6   0   4   21.26    0.76
  -6   0   4   21.31    0.85
  -6   0   4   20.64    0.83
   6   0  -4   20.58    1.24
   6   0  -4   21.21    0.77
  -7   1   4    1.54    0.40
  -7   1   4    1.96    0.34
  -7   1   4    1.99    0.41
   7  -1  -4    1.04    0.71
   7  -1  -4    1.60    0.35
  -8   2   4    8.74    0.70
  -8   2   4    9.07    0.57
   8  -2  -4    7.13    0.61
   8  -2  -4    7.87    1.12
  -9   3   4    0.41    0.48
   9  -3  -4    1.00    0.42
 -10   4   4   -0.04    0.51
 -11   5   4    0.06    0.55
   5 -12   5   -0.07    0.31
   4 -11   5    0.97    0.33
   4 -11   5    0.88    0.27
   4 -11   5    1.00    0.29
  -4  11  -5    0.80    0.45
   3 -10   5    0.55    0.22
   3 -10   5    0.73    0.23
   3 -10   5    0.20    0.26
   3 -10   5   -0.36    0.23
  -3  10  -5    0.12    0.36
   2  -9   5    1.69    0.29
   2  -9   5    0.78    0.25
   2  -9   5    1.14    0.22
   2  -9   5    1.00    0.19
  -2   9  -5    0.85    0.34
   1  -8   5    1.15    0.36
   1  -8   5    0.29    0.13
   1  -8   5    0.40    0.18
   1  -8   5    0.36    0.16
  -1   8  -5    0.51    0.29
   0  -7   5   20.74    0.84
   0  -7   5   21.27    0.53
   0   7  -5   20.99    0.63
  -1  -6   5    1.89    0.20
  -1  -6   5    1.39    0.31
  -1  -6   5    1.53    0.18
  -1  -6   5    1.50    0.19
   1   6  -5    1.54    0.29
  -2  -5   5    1.06    0.15
  -2  -5   5    1.63    0.26
  -2  -5   5    1.12    0.27
  -2  -5   5    1.19    0.19
   2   5  -5    0.62    0.33
  -3  -4   5    0.68    0.18
  -3  -4   5    0.28    0.21
  -3  -4   5    0.15    0.20
  -3  -4   5    0.30    0.21
   3   4  -5    0.27    0.39
  -4  -3   5   11.18    0.45
  -4  -3   5   10.99    0.56
  -4  -3   5   10.62    0.57
  -4  -3   5   11.15    0.60
  -4  -3   5   10.86    0.46
   4   3  -5    9.38    0.85
  -5  -2   5    5.44    0.42
  -5  -2   5    5.06    0.52
  -5  -2   5    5.25    0.47
  -5  -2   5    5.61    0.47
   5   2  -5    4.07    0.69
  -6  -1   5    0.87    0.31
  -6  -1   5    0.83    0.31
  -6  -1   5    1.03    0.28
   6   1  -5   -0.12    0.54
  -7   0   5    6.66    0.62
  -7   0   5    7.10    0.50
  -7   0   5    7.16    0.60
   7   0  -5    6.31    0.95
  -8   1   5    0.06    0.38
  -8   1   5    0.11    0.34
   8  -1  -5    0.19    0.74
  -9   2   5    0.82    0.37
  -9   2   5    0.03    0.46
 -10   3   5    1.52    0.57
 -11   4   5   -0.17    0.54
  -4  12  -6    1.39    0.50
   3 -11   6    0.81    0.26
   3 -11   6    0.25    0.20
  -3  11  -6    0.50    0.40
   2 -10   6    0.34    0.19
   2 -10   6    0.25    0.14
  -2  10  -6    0.27    0.34
   1  -9   6    2.80    0.28
   1  -9   6    1.45    0.40
  -1   9  -6    2.11    0.35
   0  -8   6    0.95    0.14
   0  -8   6    0.56    0.36
   0   8  -6    1.17    0.28
  -1  -7   6    0.34    0.13
  -1  -7   6    0.11    0.13
  -1  -7   6    0.13    0.14
  -1  -7   6   -0.19    0.30
   1   7  -6    0.08    0.28
  -2  -6   6    4.47    0.32
  -2  -6   6    3.98    0.30
  -2  -6   6    3.97    0.44
  -2  -6   6    4.09    0.31
   2   6  -6    3.30    0.45
  -3  -5   6    6.91    0.48
  -3  -5   6    7.76    0.46
  -3  -5   6    6.70    0.37
  -3  -5   6    7.12    0.45
   3   5  -6    7.64    0.74
  -4  -4   6    2.65    0.34
  -4  -4   6    1.91    0.33
  -4  -4   6    3.47    0.36
  -4  -4   6    2.43    0.41
   4   4  -6    2.94    0.61
  -5  -3   6    2.09    0.29
  -5  -3   6    2.25    0.34
  -5  -3   6    2.16    0.36
   5   3  -6    2.30    0.62
  -6  -2   6   -0.26    0.27
  -6  -2   6    0.19    0.25
  -6  -2   6    0.06    0.29
   6   2  -6   -0.41    0.52
  -7  -1   6    3.72    0.51
  -7  -1   6    3.04    0.39
  -7  -1   6    3.57    0.48
   7   1  -6    3.73    0.84
  -8   0   6    0.14    0.33
  -8   0   6    0.08    0.40
   8   0  -6   -0.42    0.68
  -9   1   6    1.28    0.44
  -9   1   6    0.88    0.52
   9  -1  -6   -0.24    0.83
 -10   2   6    1.77    0.58
 -11   3   6   -0.08    0.55
   0  -9   7    1.18    0.42
   0   9  -7    1.00    0.31
  -1  -8   7   12.17    0.41
  -1  -8   7   12.72    0.76
   1   8  -7   11.22    0.62
  -2  -7   7    0.31    0.32
  -2  -7   7    0.93    0.19
  -2  -7   7    0.11    0.19
   2   7  -7    0.31    0.36
  -3  -6   7   10.80    0.54
  -3  -6   7    9.33    0.52
  -3  -6   7    9.70    0.43
  -3  -6   7   10.24    0.59
   3   6  -7   10.57    0.79
  -4  -5   7    3.54    0.42
  -4  -5   7    3.44    0.49
  -4  -5   7    5.12    0.37
  -4  -5   7    4.36    0.47
   4   5  -7    4.20    0.67
  -5  -4   7    6.42    0.58
  -5  -4   7    6.65    0.45
  -5  -4   7    7.14    0.53
   5   4  -7    7.03    0.84
  -6  -3   7    0.07    0.29
  -6  -3   7   -0.16    0.26
   6   3  -7    0.50    0.60
  -7  -2   7    0.50    0.33
  -7  -2   7    0.90    0.31
   7   2  -7    0.69    0.64
  -8  -1   7    0.25    0.40
  -8  -1   7    0.02    0.33
   8   1  -7   -0.45    0.64
  -9   0   7   -0.17    0.45
  -9   0   7    0.06    0.42
   9   0  -7    0.12    0.83
 -10   1   7   -0.14    0.49
 -10   1   7    0.60    0.41
 -11   2   7   -0.28    0.53
   0 -10   8    0.62    0.40
  -1  -9   8    1.01    0.41
   1   9  -8    0.97    0.36
  -2  -8   8    3.26    0.30
  -2  -8   8    2.58    0.31
  -2  -8   8    2.62    0.32
  -2  -8   8    2.48    0.43
   2   8  -8    2.87    0.48
  -3  -7   8    2.97    0.38
  -3  -7   8    4.02    0.56
  -3  -7   8    3.83    0.38
  -3  -7   8    3.13    0.29
   3   7  -8    2.79    0.56
  -4  -6   8    0.82    0.26
  -4  -6   8    0.10    0.27
  -4  -6   8    0.63    0.35
  -4  -6   8    0.74    0.28
   4   6  -8    0.26    0.49
  -5  -5   8    6.31    0.56
  -5  -5   8    6.58    0.59
  -5  -5   8    5.20    0.44
   5   5  -8    5.17    0.77
  -6  -4   8   -0.06    0.28
  -6  -4   8    0.29    0.31
   6   4  -8    0.39    0.61
  -7  -3   8    0.15    0.33
   7   3  -8    0.27    0.67
  -8  -2   8   -0.44    0.39
   8   2  -8    0.01    0.69
  -9  -1   8    0.16    0.40
 -10   0   8    0.83    0.46
   0 -11   9    1.11    0.52
  -1 -10   9    0.32    0.44
  -2  -9   9    1.27    0.44
  -2  -9   9    1.09    0.19
  -2  -9   9    1.08    0.21
  -2  -9   9    0.84    0.26
   2   9  -9    0.57    0.42
  -3  -8   9    0.73    0.25
  -3  -8   9    0.47    0.23
  -3  -8   9    0.91    0.37
  -3  -8   9    0.25    0.23
   3   8  -9    0.62    0.48
  -4  -7   9    3.66    0.42
  -4  -7   9    4.36    0.47
  -4  -7   9    2.97    0.48
   4   7  -9    1.61    0.61
  -5  -6   9    0.97    0.35
  -5  -6   9    0.62    0.30
  -5  -6   9    0.67    0.37
   5   6  -9    0.21    0.59
  -6  -5   9    0.20    0.32
  -6  -5   9    0.30    0.38
   6   5  -9   -0.62    0.58
  -7  -4   9   -0.17    0.32
   7   4  -9   -0.09    0.67
  -8  -3   9    0.39    0.39
   8   3  -9    0.60    0.75
  -9  -2   9   -0.47    0.39
  -1 -11  10   -0.13    0.45
  -2 -10  10    0.19    0.42
  -3  -9  10    0.54    0.23
  -3  -9  10    0.24    0.43
  -3  -9  10   -0.50    0.23
   3   9 -10    0.00    0.49
  -4  -8  10    0.56    0.31
  -4  -8  10    0.34    0.28
  -4  -8  10    0.31    0.40
   4   8 -10   -0.35    0.55
  -5  -7  10   -0.17    0.31
  -5  -7  10   -0.46    0.30
  -5  -7  10    0.18    0.40
   5   7 -10    0.39    0.62
  -6  -6  10    0.30    0.40
  -6  -6  10    0.34    0.36
  -6  -6  10   -0.39    0.31
   6   6 -10    0.21    0.65
  -7  -5  10    0.77    0.41
   7   5 -10    0.50    0.71
  -8  -4  10   -0.49    0.39
  -1 -12  11    1.46    0.66
  -2 -11  11    1.08    0.51
  -3 -10  11    0.90    0.52
  -4  -9  11    0.71    0.33
  -4  -9  11    0.58    0.47
   4   9 -11    0.08    0.56
  -5  -8  11    0.53    0.44
  -5  -8  11   -0.33    0.32
   5   8 -11   -0.27    0.61
  -6  -7  11   -0.07    0.34
  -7  -6  11    0.67    0.40
  -8  -5  11   -0.28    0.41
  -2 -12  12   -0.69    0.51
  -3 -11  12    0.44    0.54
  -4 -10  12    0.01    0.50
  -5  -9  12    0.65    0.51
  -5  -9  12    0.45    0.34
  -6  -8  12   -0.27    0.36
  -3 -12  13   -0.38    0.56
  -4 -11  13    0.76    0.55
  -4  -7  14   -0.13    0.39
  -3  -8  14    0.49    0.38
  -1 -10  14    0.37    0.34
  -5  -5  13    0.27    0.36
  -4  -6  13   -0.39    0.33
   3   7 -13    1.00    0.76
  -3  -7  13    1.16    0.37
  -2  -8  13    1.02    0.38
  -1  -9  13   -0.20    0.34
   0 -10  13   -0.08    0.32
   1 -11  13   -0.20    0.32
  -7  -2  12    0.21    0.42
   5   4 -12    0.57    0.75
  -5  -4  12    0.27    0.33
   4   5 -12    1.92    0.76
  -4  -5  12    0.69    0.35
   3   6 -12    0.19    0.60
  -3  -6  12    0.20    0.31
   2   7 -12   -0.52    0.58
  -2  -7  12    0.16    0.29
  -2  -7  12   -0.03    0.47
   1   8 -12    0.23    0.59
  -1  -8  12    0.59    0.41
  -1  -8  12    0.95    0.32
   0   9 -12    0.42    0.60
   0  -9  12    0.18    0.29
   1 -10  12    0.75    0.33
   2 -11  12    0.04    0.31
  -9   1  11   -0.35    0.53
  -8   0  11    0.03    0.42
  -8   0  11   -0.13    0.52
   7   1 -11    0.53    0.80
  -7  -1  11   -0.12    0.39
   6   2 -11   -0.35    0.71
   5   3 -11    0.84    0.74
  -5  -3  11    1.44    0.39
   4   4 -11    2.06    0.75
  -4  -4  11    1.76    0.35
   3   5 -11   -0.30    0.53
  -3  -5  11   -0.04    0.27
   2   6 -11    1.50    0.62
  -2  -6  11    1.27    0.30
  -2  -6  11    1.66    0.47
   1   7 -11    0.10    0.53
  -1  -7  11    0.99    0.40
  -1  -7  11    0.16    0.28
   0   8 -11   -0.45    0.45
   0  -8  11    0.01    0.32
   0  -8  11   -0.11    0.26
  -1   9 -11    0.36    0.55
   1  -9  11    0.03    0.28
   1  -9  11   -0.27    0.34
  -2  10 -11    0.01    0.52
   2 -10  11    0.79    0.32
   3 -11  11    1.81    0.36
  -9   2  10   -0.19    0.55
  -8   1  10   -0.17    0.51
  -8   1  10    0.55    0.41
   7   0 -10    0.63    0.84
  -7   0  10    0.51    0.48
  -7   0  10    0.63    0.40
   6   1 -10   -0.11    0.72
  -6  -1  10    0.12    0.42
  -6  -1  10   -0.55    0.33
   5   2 -10    0.28    0.65
  -5  -2  10    0.38    0.38
   4   3 -10    0.70    0.62
  -4  -3  10    0.23    0.25
   3   4 -10    0.54    0.58
  -3  -4  10    0.94    0.29
   2   5 -10    0.28    0.50
  -2  -5  10   -0.15    0.31
  -2  -5  10    0.14    0.24
   1   6 -10    0.07    0.47
  -1  -6  10    0.41    0.38
  -1  -6  10    0.28    0.24
   0   7 -10    4.32    0.70
   0  -7  10    4.45    0.39
   0  -7  10    5.48    0.54
  -1   8 -10   -0.05    0.44
   1  -8  10    1.24    0.38
   1  -8  10    0.19    0.25
  -2   9 -10   -0.15    0.47
   2  -9  10   -0.11    0.32
   2  -9  10    0.19    0.26
  -3  10 -10   -0.45    0.51
   3 -10  10    0.05    0.28
   4 -11  10    0.87    0.34
   5 -12  10    0.24    0.36
  -9   3   9    0.29    0.56
  -8   2   9   -0.30    0.50
   7  -1  -9   -0.75    0.75
  -7   1   9    0.30    0.36
  -7   1   9    0.12    0.45
   6   0  -9    0.38    0.69
  -6   0   9    1.16    0.34
  -6   0   9    0.87    0.42
   5   1  -9   -0.43    0.55
  -5  -1   9   -0.19    0.29
  -5  -1   9   -0.02    0.34
   4   2  -9    1.33    0.61
  -4  -2   9    0.83    0.32
  -4  -2   9    1.03    0.29
   3   3  -9   -0.22    0.52
  -3  -3   9    0.40    0.23
  -3  -3   9    0.28    0.28
   2   4  -9    0.74    0.52
  -2  -4   9    0.86    0.24
  -2  -4   9    1.90    0.39
   1   5  -9    0.30    0.44
  -1  -5   9    0.34    0.34
  -1  -5   9    0.22    0.22
   0   6  -9   -0.29    0.43
   0  -6   9   -0.30    0.29
   0  -6   9    0.28    0.22
  -1   7  -9    4.69    0.66
  -1   7  -9    6.89    0.51
   1  -7   9    4.67    0.51
   1  -7   9    5.22    0.42
  -2   8  -9    2.29    0.60
   2  -8   9    2.05    0.31
   2  -8   9    1.46    0.38
  -3   9  -9    1.05    0.55
   3  -9   9    0.69    0.29
   3  -9   9    0.65    0.31
   3  -9   9    0.43    0.36
  -4  10  -9    0.22    0.54
   4 -10   9    0.63    0.35
   4 -10   9    0.86    0.32
   5 -11   9    0.64    0.36
   5 -11   9    0.85    0.36
 -10   5   8   -0.05    0.56
  -9   4   8    0.15    0.54
   8  -3  -8    0.91    0.44
  -8   3   8    0.13    0.49
   7  -2  -8    1.38    0.41
  -7   2   8    0.76    0.36
  -7   2   8    0.73    0.47
   6  -1  -8    0.06    0.70
   6  -1  -8    0.19    0.30
  -6   1   8    0.22    0.35
  -6   1   8    0.23    0.29
   5   0  -8    0.84    0.61
   5   0  -8   -0.37    0.29
  -5   0   8    0.37    0.32
  -5   0   8   -0.34    0.30
   4   1  -8    0.39    0.57
   4   1  -8    0.44    0.27
  -4  -1   8    0.42    0.26
  -4  -1   8   -0.07    0.29
   3   2  -8   -0.16    0.51
  -3  -2   8    0.16    0.20
  -3  -2   8   -0.08    0.27
   2   3  -8   12.99    0.98
  -2  -3   8   12.64    0.57
  -2  -3   8   14.12    0.62
  -2  -3   8   13.27    0.71
  -2  -3   8   13.44    0.56
   1   4  -8    1.95    0.52
  -1  -4   8    1.91    0.33
  -1  -4   8    2.37    0.35
  -1  -4   8    2.36    0.28
   0   5  -8    5.05    0.64
   0  -5   8    5.23    0.38
   0  -5   8    5.78    0.55
  -1   6  -8    4.32    0.51
  -1   6  -8    4.54    0.62
   1  -6   8    4.94    0.37
   1  -6   8    3.97    0.48
  -2   7  -8    0.16    0.30
  -2   7  -8    0.23    0.42
   2  -7   8    0.10    0.27
   2  -7   8    0.13    0.22
   2  -7   8    0.33    0.31
  -3   8  -8    2.26    0.37
  -3   8  -8    1.58    0.55
   3  -8   8    2.36    0.36
   3  -8   8    2.09    0.33
   3  -8   8    1.89    0.40
  -4   9  -8    1.04    0.40
  -4   9  -8    0.86    0.54
   4  -9   8    1.10    0.32
   4  -9   8    0.34    0.39
   4  -9   8    0.82    0.35
  -5  10  -8    3.13    0.76
   5 -10   8    2.86    0.43
   5 -10   8    2.48    0.44
   6 -11   8    0.64    0.35
   6 -11   8    0.31    0.38
 -10   6   7   -0.45    0.55
   9  -5  -7    0.39    0.44
  -9   5   7   -0.36    0.52
   8  -4  -7    0.46    0.40
  -8   4   7    0.30    0.50
   7  -3  -7    0.63    0.38
  -7   3   7    0.54    0.42
   6  -2  -7    0.37    0.30
   6  -2  -7   -0.25    0.63
  -6   2   7    0.18    0.28
  -6   2   7   -0.03    0.37
   5  -1  -7    0.62    0.28
   5  -1  -7    0.68    0.59
  -5   1   7    0.15    0.27
  -5   1   7    0.35    0.34
   4   0  -7    2.84    0.35
   4   0  -7    2.06    0.64
  -4   0   7    2.78    0.36
  -4   0   7    2.77    0.39
   3   1  -7    0.00    0.50
   3   1  -7    0.10    0.23
  -3  -1   7    0.09    0.26
  -3  -1   7   -0.17    0.22
   2   2  -7    3.71    0.60
   2   2  -7    3.51    0.33
  -2  -2   7    2.56    0.33
  -2  -2   7    3.57    0.41
  -2  -2   7    3.82    0.35
   1   3  -7    4.98    0.36
   1   3  -7    5.03    0.61
  -1  -3   7    5.19    0.45
  -1  -3   7    4.88    0.33
  -1  -3   7    4.88    0.38
  -1  -3   7    5.33    0.44
   0   4  -7   19.89    0.92
   0  -4   7   19.04    0.85
   0  -4   7   19.51    0.67
   0  -4   7   19.35    0.63
   0  -4   7   19.99    0.81
  -1   5  -7    6.59    0.66
  -1   5  -7    5.77    0.50
   1  -5   7    8.71    0.59
   1  -5   7    7.60    0.50
   1  -5   7    7.10    0.41
  -2   6  -7    8.74    0.78
   2  -6   7    7.34    0.44
   2  -6   7    7.57    0.50
   2  -6   7    7.77    0.57
  -3   7  -7   -0.13    0.41
  -3   7  -7    0.29    0.30
   3  -7   7    0.12    0.26
   3  -7   7   -0.02    0.30
   3  -7   7    0.00    0.23
  -4   8  -7    0.29    0.36
  -4   8  -7    0.20    0.47
   4  -8   7    0.08    0.29
   4  -8   7    0.29    0.26
   4  -8   7   -0.36    0.32
  -5   9  -7    1.05    0.55
  -5   9  -7    1.46    0.44
   5  -9   7    1.68    0.48
   5  -9   7    0.88    0.36
   5  -9   7    1.59    0.39
  -6  10  -7   -0.11    0.47
   6 -10   7    0.01    0.37
   6 -10   7   -0.24    0.35
   7 -11   7    0.77    0.42
  -9   6   6    0.18    0.54
   8  -5  -6   -0.04    0.37
  -8   5   6   -0.26    0.47
   7  -4  -6    0.82    0.39
  -7   4   6    0.42    0.41
   6  -3  -6    4.55    0.49
  -6   3   6    4.31    0.61
  -6   3   6    4.55    0.51
   5  -2  -6    0.23    0.27
   5  -2  -6   -0.58    0.60
  -5   2   6    0.18    0.27
  -5   2   6    0.10    0.32
   4  -1  -6    9.08    0.51
   4  -1  -6    9.18    0.95
  -4   1   6    8.43    0.48
  -4   1   6    8.94    0.56
   3   0  -6    3.06    0.61
   3   0  -6    2.71    0.29
  -3   0   6    2.61    0.33
  -3   0   6    2.87    0.37
   2   1  -6   27.64    0.80
   2   1  -6   27.39    1.03
   2   1  -6   29.23    1.13
  -2  -1   6   27.51    0.79
  -2  -1   6   27.67    1.03
  -2  -1   6   28.08    0.89
  -2  -1   6   26.38    0.78
  -2  -1   6   25.40    1.02
   1   2  -6   16.64    0.70
   1   2  -6   16.73    0.87
   1   2  -6   15.37    0.55
  -1  -2   6   16.20    0.72
  -1  -2   6   16.18    0.55
  -1  -2   6   16.54    0.71
  -1  -2   6   18.85    0.59
  -1  -2   6   16.76    0.62
   0   3  -6   13.85    0.74
   0   3  -6   14.18    0.48
   0  -3   6   13.55    0.47
   0  -3   6   13.89    0.64
   0  -3   6   14.52    0.64
   0  -3   6   14.21    0.53
  -1   4  -6   23.55    0.84
  -1   4  -6   24.97    0.99
   1  -4   6   26.01    0.78
   1  -4   6   25.05    0.94
   1  -4   6   25.02    0.94
   1  -4   6   25.02    0.72
  -2   5  -6    8.27    0.73
  -2   5  -6    8.24    0.47
   2  -5   6    7.99    0.55
   2  -5   6    6.65    0.45
   2  -5   6    7.38    0.41
   2  -5   6    6.49    0.40
   2  -5   6    7.43    0.51
  -3   6  -6    1.05    0.45
  -3   6  -6    1.58    0.32
   3  -6   6    1.39    0.32
   3  -6   6    1.04    0.26
   3  -6   6    1.28    0.35
  -4   7  -6   -0.12    0.31
  -4   7  -6   -0.29    0.41
   4  -7   6   -0.35    0.30
   4  -7   6   -0.02    0.23
   4  -7   6    0.05    0.29
  -5   8  -6    0.13    0.36
  -5   8  -6   -0.29    0.43
   5  -8   6    0.04    0.28
   5  -8   6   -0.19    0.30
   5  -8   6    1.30    0.44
  -6   9  -6    0.44    0.46
  -6   9  -6    0.66    0.57
   6  -9   6    0.12    0.35
   6  -9   6    0.61    0.34
  -7  10  -6    0.14    0.47
   7 -10   6    0.29    0.39
   7 -10   6    0.56    0.39
  -8  11  -6    0.15    0.52
  -9   7   5   -0.08    0.53
   8  -6  -5    0.35    0.42
  -8   6   5   -0.09    0.49
   7  -5  -5    0.49    0.34
  -7   5   5    0.24    0.43
   6  -4  -5    0.14    0.31
  -6   4   5    0.10    0.37
   5  -3  -5    0.69    0.60
   5  -3  -5    0.52    0.28
  -5   3   5    0.91    0.27
  -5   3   5    0.74    0.33
   4  -2  -5   14.59    0.64
   4  -2  -5   15.07    1.05
  -4   2   5   14.54    0.57
  -4   2   5   14.30    0.67
   3  -1  -5    0.97    0.47
   3  -1  -5    0.17    0.25
   3  -1  -5    0.19    0.20
  -3   1   5    0.23    0.23
  -3   1   5    0.42    0.19
  -3   1   5    0.21    0.24
   2   0  -5  109.61    2.45
   2   0  -5  110.02    2.45
  -2   0   5  105.70    2.80
  -2   0   5  112.79    2.46
  -2   0   5  109.92    3.27
  -2   0   5  108.05    3.27
   1   1  -5   60.42    1.90
   1   1  -5   60.63    1.42
   1   1  -5   60.91    1.55
  -1  -1   5   61.47    1.43
  -1  -1   5   59.96    1.62
  -1  -1   5   61.72    1.90
  -1  -1   5   62.57    1.91
   0   2  -5   31.95    1.00
   0   2  -5   30.70    0.79
   0   2  -5   31.33    1.07
   0  -2   5   31.80    1.08
   0  -2   5   31.14    0.91
   0  -2   5   30.99    0.81
   0  -2   5   31.04    1.09
  -1   3  -5    0.38    0.15
  -1   3  -5    0.56    0.30
  -1   3  -5    0.27    0.20
   1  -3   5    0.56    0.19
   1  -3   5    0.48    0.21
   1  -3   5    0.34    0.20
   1  -3   5    0.31    0.15
   1  -3   5    0.42    0.19
  -2   4  -5    7.99    0.45
  -2   4  -5    6.78    0.62
  -2   4  -5    7.79    0.36
   2  -4   5    7.22    0.48
   2  -4   5    7.49    0.51
   2  -4   5    6.69    0.43
   2  -4   5    8.15    0.37
   2  -4   5    7.65    0.49
  -3   5  -5   11.03    0.75
  -3   5  -5   11.08    0.57
   3  -5   5   11.25    0.52
   3  -5   5   10.72    0.65
   3  -5   5   11.02    0.62
   3  -5   5   10.62    0.55
   3  -5   5   10.15    0.49
  -4   6  -5    0.66    0.43
  -4   6  -5    1.11    0.33
   4  -6   5    1.02    0.32
   4  -6   5    0.82    0.25
   4  -6   5    0.70    0.34
  -5   7  -5    0.85    0.50
  -5   7  -5    0.73    0.36
   5  -7   5    1.58    0.43
   5  -7   5    0.75    0.34
   5  -7   5    0.68    0.29
  -6   8  -5    1.77    0.45
  -6   8  -5    1.18    0.58
   6  -8   5    2.34    0.44
   6  -8   5    1.90    0.39
  -7   9  -5    0.08    0.47
  -7   9  -5    0.11    0.58
   7  -9   5    0.33    0.40
   7  -9   5    0.24    0.36
  -8  10  -5    0.18    0.52
   8 -10   5    0.31    0.41
  -9  11  -5    0.00    0.53
  -9   8   4   -0.05    0.53
   8  -7  -4    0.93    0.42
  -8   7   4    0.32    0.51
   7  -6  -4    0.58    0.35
  -7   6   4   -0.09    0.41
   6  -5  -4    1.96    0.37
  -6   5   4    1.97    0.44
   5  -4  -4    7.41    0.55
  -5   4   4    9.24    0.63
   4  -3  -4    7.80    0.52
   4  -3  -4    9.52    0.92
  -4   3   4    8.55    0.47
  -4   3   4    8.49    0.53
   3  -2  -4    8.61    0.47
   3  -2  -4    8.92    0.56
   3  -2  -4    8.13    0.79
  -3   2   4    8.93    0.59
  -3   2   4    8.64    0.40
  -3   2   4    8.33    0.47
   2  -1  -4    7.74    0.44
   2  -1  -4    7.68    0.36
   2  -1  -4    8.23    0.67
  -2   1   4    7.33    0.43
  -2   1   4    6.94    0.33
   1   0  -4   51.58    1.20
   1   0  -4   49.88    1.58
   1   0  -4   52.29    1.35
  -1   0   4   49.79    1.19
  -1   0   4   49.30    1.37
  -1   0   4   49.59    1.58
  -1   0   4   50.60    1.59
   0   1  -4   26.46    0.70
   0   1  -4   26.66    0.91
   0   1  -4   25.95    0.85
   0  -1   4   26.46    0.91
   0  -1   4   26.94    0.69
   0  -1   4   26.14    0.91
   0  -1   4   26.37    0.78
  -1   2  -4    2.14    0.35
  -1   2  -4    2.01    0.26
  -1   2  -4    2.30    0.23
  -1   2  -4    2.08    0.27
   1  -2   4    2.03    0.28
   1  -2   4    2.20    0.34
   1  -2   4    2.45    0.23
   1  -2   4    2.24    0.22
   1  -2   4    2.14    0.24
  -2   3  -4   67.92    1.63
  -2   3  -4   67.19    1.53
  -2   3  -4   65.86    1.75
   2  -3   4   68.75    2.07
   2  -3   4   65.44    1.75
   2  -3   4   66.14    2.07
   2  -3   4   67.05    1.76
   2  -3   4   65.22    1.55
  -3   4  -4    6.23    0.60
  -3   4  -4    6.57    0.46
  -3   4  -4    6.59    0.37
   3  -4   4    6.39    0.50
   3  -4   4    6.39    0.48
   3  -4   4    5.51    0.48
   3  -4   4    5.98    0.40
   3  -4   4    4.80    0.48
  -4   5  -4   -0.13    0.28
  -4   5  -4    0.15    0.43
   4  -5   4    0.08    0.21
   4  -5   4   -0.19    0.27
   4  -5   4   -0.38    0.28
  -5   6  -4    0.75    0.34
  -5   6  -4    0.33    0.47
   5  -6   4    1.43    0.40
   5  -6   4    0.39    0.28
   5  -6   4    0.69    0.33
  -6   7  -4    2.53    0.62
  -6   7  -4    2.09    0.44
   6  -7   4    2.61    0.46
   6  -7   4    1.90    0.39
  -7   8  -4    1.63    0.50
  -7   8  -4    1.83    0.67
   7  -8   4    1.51    0.42
   7  -8   4    1.40    0.44
  -8   9  -4    0.05    0.50
   8  -9   4    0.74    0.38
   8  -9   4    0.22    0.45
  -9  10  -4   -0.55    0.50
  -9   9   3   -0.11    0.52
   8  -8  -3    0.91    0.42
  -8   8   3   -0.25    0.49
   7  -7  -3   -0.17    0.36
  -7   7   3   -0.33    0.43
   6  -6  -3    1.84    0.35
  -6   6   3    1.80    0.41
   5  -5  -3    0.26    0.24
  -5   5   3    0.00    0.31
   4  -4  -3   38.19    1.50
   4  -4  -3   37.47    1.05
   4  -4  -3   39.46    1.43
  -4   4   3   37.46    1.01
  -4   4   3   37.89    1.21
   3  -3  -3   10.17    0.44
   3  -3  -3   10.60    0.58
   3  -3  -3   10.48    0.59
   3  -3  -3    9.30    0.83
  -3   3   3    9.95    0.50
  -3   3   3   10.51    0.44
  -3   3   3   11.24    0.62
   2  -2  -3    0.35    0.15
   2  -2  -3    0.41    0.20
   2  -2  -3    0.17    0.30
   2  -2  -3    0.30    0.16
  -2   2   3    0.24    0.19
  -2   2   3    0.28    0.19
  -2   2   3    0.41    0.14
   1  -1  -3   53.98    1.70
   1  -1  -3   56.54    1.71
   1  -1  -3   57.46    1.37
   1  -1  -3   55.63    1.28
  -1   1   3   56.68    1.28
  -1   1   3   54.77    1.70
  -1   1   3   54.51    1.47
   0   0  -3    9.84    0.56
   0   0  -3    9.24    0.47
   0   0  -3   10.01    0.38
   0   0   3   10.34    0.45
   0   0   3    9.59    0.36
  -1   1  -3    1.64    0.17
  -1   1  -3    1.62    0.31
  -1   1  -3    1.44    0.21
  -1   1  -3    1.45    0.21
   1  -1   3    1.24    0.15
   1  -1   3    1.36    0.23
   1  -1   3    1.50    0.22
   1  -1   3    1.64    0.19
  -2   2  -3   34.24    0.98
  -2   2  -3   35.15    1.14
  -2   2  -3   34.78    1.02
  -2   2  -3   35.27    0.86
   2  -2   3   32.77    1.01
   2  -2   3   33.30    0.86
   2  -2   3   35.18    1.14
   2  -2   3   34.90    1.15
   2  -2   3   34.26    0.98
  -3   3  -3   51.85    1.24
  -3   3  -3   53.26    1.46
  -3   3  -3   52.66    1.45
  -3   3  -3   51.62    1.68
   3  -3   3   52.77    1.69
   3  -3   3   53.07    1.71
   3  -3   3   49.87    1.28
   3  -3   3   52.69    1.46
   3  -3   3   54.32    1.47
  -4   4  -3   62.86    1.75
  -4   4  -3   63.60    1.78
  -4   4  -3   65.17    1.53
   4  -4   3   61.46    1.76
   4  -4   3   61.66    1.58
   4  -4   3   67.47    1.80
   4  -4   3   63.79    2.08
  -5   5  -3    0.29    0.31
  -5   5  -3    0.40    0.46
   5  -5   3    0.73    0.37
   5  -5   3    0.52    0.25
   5  -5   3    0.18    0.32
  -6   6  -3    1.88    0.38
  -6   6  -3    2.83    0.65
   6  -6   3    1.75    0.40
   6  -6   3    2.28    0.36
  -7   7  -3    2.25    0.68
  -7   7  -3    2.53    0.48
   7  -7   3    1.64    0.49
   7  -7   3    1.99    0.40
  -8   8  -3    0.55    0.49
  -8   8  -3    0.09    0.57
   8  -8   3    0.31    0.46
   8  -8   3    0.38    0.40
  -9   9  -3   -0.20    0.51
   9  -9   3    0.84    0.50
 -10  10  -3   -0.45    0.54
  -9  10   2   -0.14    0.52
   8  -9  -2   -0.18    0.41
  -8   9   2   -0.47    0.49
   7  -8  -2    1.59    0.41
  -7   8   2    1.51    0.49
   6  -7  -2    0.46    0.32
  -6   7   2    0.46    0.39
   5  -6  -2   -0.22    0.25
  -5   6   2    0.09    0.29
   4  -5  -2    4.89    0.38
   4  -5  -2    4.08    0.58
  -4   5   2    5.13    0.50
   3  -4  -2    0.36    0.41
   3  -4  -2    0.67    0.19
   3  -4  -2    1.18    0.30
   3  -4  -2    0.49    0.24
  -3   4   2    0.63    0.24
  -3   4   2    0.74    0.19
   2  -3  -2    0.04    0.16
   2  -3  -2    0.07    0.18
   2  -3  -2    0.15    0.30
   2  -3  -2    0.08    0.13
  -2   3   2    0.08    0.17
  -2   3   2    0.25    0.13
   1  -2  -2    1.39    0.30
   1  -2  -2    1.38    0.20
   1  -2  -2    1.17    0.18
   1  -2  -2    1.32    0.15
  -1   2   2    1.28    0.14
  -1   2   2    1.21    0.18
   0  -1  -2    2.35    0.24
   0  -1  -2    2.70    0.25
   0  -1  -2    1.84    0.27
   0  -1  -2    2.66    0.31
   0   1   2    2.24    0.21
   0   1   2    2.64    0.28
   0   1   2    2.11    0.30
  -1   0  -2   31.34    0.99
  -1   0  -2   31.98    1.00
  -1   0  -2   29.93    0.74
  -1   0  -2   29.74    0.85
   1   0   2   30.23    0.74
   1   0   2   29.72    0.84
   1   0   2   31.37    0.99
  -2   1  -2   63.03    1.87
  -2   1  -2   59.36    1.58
  -2   1  -2   60.58    1.38
  -2   1  -2   62.22    1.40
   2  -1   2   59.53    1.57
   2  -1   2   61.61    1.86
   2  -1   2   60.36    1.39
   2  -1   2   59.96    1.61
   2  -1   2   61.86    1.86
  -3   2  -2   18.14    0.54
  -3   2  -2   17.89    0.80
  -3   2  -2   17.40    0.61
  -3   2  -2   18.33    0.75
   3  -2   2   17.70    0.64
   3  -2   2   18.68    0.57
   3  -2   2   17.68    0.74
   3  -2   2   18.34    0.73
  -4   3  -2    3.17    0.41
  -4   3  -2    3.60    0.32
  -4   3  -2    3.45    0.43
  -4   3  -2    3.16    0.51
   4  -3   2    3.12    0.43
   4  -3   2    3.09    0.38
   4  -3   2    4.50    0.51
   4  -3   2    2.43    0.42
  -5   4  -2   10.46    0.53
  -5   4  -2   10.48    0.62
  -5   4  -2    9.51    0.91
   5  -4   2   11.12    0.53
   5  -4   2   10.80    0.62
   5  -4   2   10.23    0.68
  -6   5  -2    3.10    0.64
  -6   5  -2    4.21    0.47
   6  -5   2    4.54    0.47
   6  -5   2    4.22    0.59
  -7   6  -2    0.95    0.39
  -7   6  -2    1.58    0.61
   7  -6   2    1.39    0.37
   7  -6   2    1.63    0.42
  -8   7  -2   -0.61    0.57
  -8   7  -2    0.15    0.45
   8  -7   2   -0.11    0.43
   8  -7   2    0.47    0.39
  -9   8  -2   -0.07    0.50
   9  -8   2    0.47    0.42
 -10   9  -2   -0.28    0.53
  -8  10   1   -0.04    0.49
   7  -9  -1    0.66    0.38
  -7   9   1    0.46    0.47
   6  -8  -1    1.18    0.35
  -6   8   1    0.88    0.41
   5  -7  -1    0.03    0.42
   5  -7  -1    0.45    0.28
  -5   7   1    0.87    0.34
   4  -6  -1    0.10    0.22
   4  -6  -1   -0.35    0.31
  -4   6   1    0.17    0.27
   3  -5  -1   12.34    0.61
   3  -5  -1   12.46    0.50
   3  -5  -1   11.80    0.64
  -3   5   1   12.43    0.58
   2  -4  -1   40.52    1.15
   2  -4  -1   41.08    1.01
   2  -4  -1   42.85    1.34
   2  -4  -1   42.00    1.34
  -2   4   1   40.56    1.15
   1  -3  -1   26.41    0.86
   1  -3  -1   25.99    0.87
   1  -3  -1   25.68    0.66
   0  -2  -1   18.14    0.62
   0  -2  -1   17.53    0.61
   0  -2  -1   18.24    0.47
  -1  -1  -1   16.75    0.55
  -1  -1  -1   16.09    0.59
  -1  -1  -1   16.80    0.43
  -1  -1  -1   16.10    0.59
   1   1   1   16.44    0.58
   1   1   1   15.89    0.42
  -2   0  -1    2.58    0.31
  -2   0  -1    3.43    0.24
  -2   0  -1    3.42    0.31
  -2   0  -1    3.75    0.37
   2   0   1    2.92    0.29
   2   0   1    3.30    0.32
   2   0   1    3.23    0.23
  -3   1  -1    2.78    0.26
  -3   1  -1    3.18    0.38
  -3   1  -1    2.81    0.29
  -3   1  -1    2.80    0.40
  -3   1  -1    2.88    0.27
   3  -1   1    3.76    0.40
   3  -1   1    2.83    0.28
   3  -1   1    2.56    0.33
  -4   2  -1   26.97    0.86
  -4   2  -1   26.24    0.74
  -4   2  -1   26.57    0.73
  -4   2  -1   25.68    1.01
   4  -2   1   26.56    1.01
   4  -2   1   23.81    0.85
   4  -2   1   26.21    0.76
   4  -2   1   26.83    1.01
  -5   3  -1    0.65    0.29
  -5   3  -1    0.99    0.27
  -5   3  -1    0.93    0.26
   5  -3   1    0.71    0.26
   5  -3   1    0.79    0.30
   5  -3   1    0.37    0.30
  -6   4  -1   11.01    0.68
  -6   4  -1   10.52    0.58
  -6   4  -1   10.90    0.58
   6  -4   1   10.71    0.56
   6  -4   1   11.48    0.73
  -7   5  -1   -0.26    0.47
  -7   5  -1    0.24    0.38
   7  -5   1    0.33    0.31
   7  -5   1   -0.66    0.36
  -8   6  -1    0.90    0.62
  -8   6  -1    1.12    0.47
   8  -6   1    1.27    0.39
  -9   7  -1   -0.36    0.47
   9  -7   1    0.23    0.41
   9  -7   1    0.30    0.46
 -10   8  -1    0.11    0.54
  -8  11   0   -0.05    0.52
   7 -10   0    0.64    0.38
  -7  10   0   -0.18    0.45
   6  -9   0    0.27    0.35
  -6   9   0    0.82    0.42
   5  -8   0    0.13    0.27
   5  -8   0   -0.15    0.39
  -5   8   0    0.53    0.35
   4  -7   0   -0.13    0.22
   4  -7   0   -0.42    0.29
  -4   7   0   -0.16    0.25
   3  -6   0    1.32    0.31
   3  -6   0    1.87    0.29
   3  -6   0    1.89    0.24
  -3   6   0    1.92    0.28
   2  -5   0    0.28    0.21
   2  -5   0    0.18    0.18
   2  -5   0    0.22    0.15
   2  -5   0    0.13    0.20
  -2   5   0    0.28    0.17
   1  -4   0   18.19    0.64
   1  -4   0   18.08    0.48
   1  -4   0   18.71    0.61
   1  -4   0   17.73    0.63
  -1   4   0   17.65    0.64
   0  -3   0   72.08    1.52
   0  -3   0   68.02    2.03
   0  -3   0   70.84    2.03
   0  -3   0   70.04    1.82
  -1  -2   0   61.34    1.63
  -1  -2   0   62.63    1.83
  -1  -2   0   63.56    1.84
  -1  -2   0   63.51    1.37
   1   2   0   62.07    1.23
  -2  -1   0    0.65    0.13
  -2  -1   0    0.70    0.18
  -2  -1   0    0.68    0.17
  -2  -1   0    1.01    0.26
   2   1   0    0.69    0.12
   2   1   0    0.62    0.17
   2   1   0    0.66    0.18
  -3   0   0    4.69    0.31
  -3   0   0    4.31    0.34
  -3   0   0    5.22    0.37
  -3   0   0    4.32    0.36
  -3   0   0    4.18    0.43
   3   0   0    4.18    0.50
   3   0   0    4.47    0.28
   3   0   0    4.75    0.41
   3   0   0    4.53    0.34
  -4   1   0    9.24    0.44
  -4   1   0    8.55    0.52
  -4   1   0    8.36    0.51
  -4   1   0    8.80    0.47
   4  -1   0    8.80    0.79
   4  -1   0    8.72    0.48
   4  -1   0    9.23    0.42
  -5   2   0    1.61    0.30
  -5   2   0    1.52    0.26
   5  -2   0    1.65    0.27
   5  -2   0    1.76    0.34
   5  -2   0    1.35    0.60
   5  -2   0    1.11    0.30
  -6   3   0   12.29    0.66
  -6   3   0   13.26    0.58
   6  -3   0   13.16    0.70
   6  -3   0   13.16    0.64
  -7   4   0    3.57    0.48
  -7   4   0    3.28    0.38
   7  -4   0    3.96    0.52
   7  -4   0    3.21    0.42
  -8   5   0    0.33    0.42
   8  -5   0   -0.12    0.41
   8  -5   0    0.34    0.36
  -9   6   0    0.20    0.49
  -9   6   0   -0.38    0.64
   9  -6   0    0.74    0.43
 -10   7   0   -0.52    0.51
  10  -7   0    0.17    0.48
 -11   8   0    0.01    0.54
   7 -11   1    0.22    0.39
   6 -10   1    0.92    0.35
   5  -9   1    0.10    0.27
   4  -8   1   -0.23    0.30
   4  -8   1    0.41    0.24
   3  -7   1    0.09    0.23
   3  -7   1   -0.47    0.24
   3  -7   1   -0.07    0.20
   2  -6   1    2.33    0.29
   2  -6   1    1.97    0.20
   2  -6   1    1.67    0.26
   2  -6   1    1.74    0.29
   1  -5   1    3.39    0.25
   1  -5   1    4.04    0.28
   1  -5   1    3.34    0.22
   1  -5   1    3.22    0.30
  -1   5  -1    3.23    0.33
   0  -4   1   11.33    0.38
   0  -4   1   11.30    0.29
   0  -4   1   11.16    0.38
   0  -4   1   11.09    0.46
   0   4  -1   10.41    0.38
  -1  -3   1  111.11    3.21
  -1  -3   1  114.12    2.41
  -1  -3   1  113.23    3.21
  -1  -3   1  105.73    2.82
   1   3  -1  108.01    1.91
  -2  -2   1   30.00    0.89
  -2  -2   1   31.30    0.98
  -2  -2   1   30.02    0.73
  -2  -2   1   31.69    0.99
  -3  -1   1   -0.02    0.15
  -3  -1   1    0.08    0.15
  -3  -1   1    0.05    0.13
  -3  -1   1   -0.24    0.24
  -3  -1   1   -0.15    0.18
  -3  -1   1    0.46    0.18
   3   1  -1    0.02    0.13
   3   1  -1    0.08    0.17
   3   1  -1   -0.16    0.16
   3   1  -1   -0.02    0.29
  -4   0   1    3.79    0.39
  -4   0   1    3.56    0.41
  -4   0   1    3.75    0.33
  -4   0   1    4.21    0.38
   4   0  -1    4.52    0.56
   4   0  -1    4.65    0.38
   4   0  -1    3.80    0.39
   4   0  -1    4.17    0.31
  -5   1   1   -0.14    0.24
  -5   1   1    0.18    0.26
  -5   1   1    0.41    0.24
   5  -1  -1   -0.23    0.26
   5  -1  -1   -0.28    0.47
   5  -1  -1    0.07    0.21
  -6   2   1    2.10    0.36
  -6   2   1    1.83    0.30
   6  -2  -1    1.68    0.44
   6  -2  -1    1.84    0.67
   6  -2  -1    2.11    0.34
  -7   3   1    0.24    0.32
  -7   3   1    0.30    0.36
   7  -3  -1    0.21    0.35
   7  -3  -1    0.33    0.29
   7  -3  -1    0.70    0.69
  -8   4   1    6.75    0.68
   8  -4  -1    6.54    0.64
   8  -4  -1    6.37    0.53
  -9   5   1   -0.32    0.42
   9  -5  -1    0.39    0.47
   9  -5  -1    0.73    0.43
 -10   6   1    0.03    0.51
  10  -6  -1    0.87    0.44
 -11   7   1    0.17    0.56
   7 -12   2   -0.33    0.42
   6 -11   2   -0.30    0.33
   5 -10   2    1.30    0.48
   5 -10   2    1.48    0.34
   4  -9   2   -0.06    0.24
   4  -9   2   -0.62    0.30
   3  -8   2   -0.17    0.25
   3  -8   2    0.05    0.20
   3  -8   2    0.03    0.24
   2  -7   2    3.08    0.34
   2  -7   2    3.69    0.34
   2  -7   2    3.98    0.31
   2  -7   2    2.99    0.41
   1  -6   2   14.75    0.53
   1  -6   2   14.72    0.42
   1  -6   2   15.07    0.52
   1  -6   2   14.37    0.64
  -1   6  -2   14.53    0.59
   0  -5   2    0.50    0.20
  -1  -4   2   11.78    0.29
  -1  -4   2   11.94    0.50
  -1  -4   2   11.99    0.38
  -1  -4   2   11.70    0.28
  -1  -4   2   12.12    0.39
   1   4  -2   11.67    0.35
  -2  -3   2  130.28    3.76
  -2  -3   2  128.03    3.28
  -2  -3   2  130.66    2.85
  -2  -3   2  135.02    3.73
   2   3  -2  115.73    2.35
  -3  -2   2    3.15    0.31
  -3  -2   2    3.13    0.36
  -3  -2   2    3.27    0.33
  -3  -2   2    3.30    0.25
   3   2  -2    3.28    0.26
   3   2  -2    2.75    0.43
  -4  -1   2    1.79    0.27
  -4  -1   2    1.50    0.25
  -4  -1   2    1.40    0.27
  -4  -1   2    1.70    0.20
  -4  -1   2    1.68    0.24
   4   1  -2    1.86    0.46
   4   1  -2    1.24    0.24
   4   1  -2    1.82    0.27
   4   1  -2    1.66    0.21
  -5   0   2    0.09    0.26
  -5   0   2    0.23    0.21
  -5   0   2    0.49    0.27
   5   0  -2   -0.02    0.19
   5   0  -2    0.04    0.49
  -6   1   2    8.91    0.62
  -6   1   2    9.68    0.55
   6  -1  -2    8.20    0.93
   6  -1  -2    9.65    0.53
  -7   2   2    0.01    0.35
   7  -2  -2    0.20    0.61
   7  -2  -2    0.27    0.30
  -8   3   2   -0.81    0.30
  -8   3   2    0.17    0.37
   8  -3  -2   -0.73    0.44
   8  -3  -2    0.39    0.35
  -9   4   2    1.86    0.49
   9  -4  -2    1.22    0.53
   9  -4  -2    1.93    0.46
 -10   5   2    0.84    0.54
  10  -5  -2    1.90    0.49
  10  -5  -2    0.56    0.57
 -11   6   2    0.18    0.55
   6 -12   3    0.83    0.36
   5 -11   3    0.54    0.32
   5 -11   3   -0.08    0.35
   4 -10   3   -0.40    0.35
   4 -10   3    0.05    0.27
   3  -9   3    1.01    0.29
   3  -9   3    1.43    0.25
   3  -9   3    0.62    0.28
   2  -8   3    2.67    0.30
   2  -8   3    2.44    0.31
   2  -8   3    2.34    0.41
   2  -8   3    2.02    0.26
   1  -7   3   22.46    0.57
   1  -7   3   22.90    0.86
   1  -7   3   23.00    0.71
   1  -7   3   22.05    0.71
   0  -6   3    9.04    0.54
  -1  -5   3   26.94    0.88
  -2  -4   3    0.88    0.19
  -2  -4   3    0.82    0.15
  -2  -4   3    0.58    0.14
  -2  -4   3    0.76    0.11
   2   4  -3    0.96    0.27
  -3  -3   3    3.42    0.35
  -3  -3   3    3.49    0.33
  -3  -3   3    2.90    0.27
  -3  -3   3    3.08    0.32
   3   3  -3    3.23    0.45
  -4  -2   3    3.18    0.34
  -4  -2   3    3.56    0.39
  -4  -2   3    3.87    0.42
  -4  -2   3    3.78    0.39
  -4  -2   3    3.24    0.33
   4   2  -3    2.64    0.38
   4   2  -3    2.31    0.51
   4   2  -3    3.59    0.31
  -5  -1   3    0.13    0.21
  -5  -1   3   -0.04    0.24
  -5  -1   3    0.13    0.25
  -5  -1   3    0.35    0.29
   5   1  -3    0.00    0.49
   5   1  -3    0.22    0.21
  -6   0   3    1.17    0.34
  -6   0   3    1.18    0.29
  -6   0   3    1.37    0.36
   6   0  -3    0.81    0.62
   6   0  -3    1.33    0.30
  -7   1   3    2.46    0.36
  -7   1   3    2.38    0.42
   7  -1  -3    2.21    0.72
   7  -1  -3    2.85    0.39
  -8   2   3    0.17    0.40
   8  -2  -3    0.35    0.32
   8  -2  -3    0.81    0.70
  -9   3   3    0.61    0.48
   9  -3  -3    1.06    0.42
   9  -3  -3    1.31    0.55
 -10   4   3    0.31    0.50
  10  -4  -3    0.09    0.52
  10  -4  -3    0.21    0.41
 -11   5   3    0.32    0.54
   5 -12   4    0.60    0.33
   4 -11   4    1.48    0.31
   4 -11   4    1.26    0.29
  -4  11  -4    0.75    0.46
   3 -10   4    0.55    0.23
   3 -10   4    0.53    0.22
   3 -10   4    0.61    0.29
   3 -10   4    0.10    0.27
  -3  10  -4    0.10    0.35
   2  -9   4    1.36    0.23
   2  -9   4    1.64    0.22
   2  -9   4    1.96    0.27
  -2   9  -4    0.79    0.33
   1  -8   4   18.48    0.50
   1  -8   4   19.04    0.58
   1  -8   4   17.08    0.79
  -1   8  -4   17.47    0.60
   0  -7   4    7.62    0.57
  -1  -6   4    2.14    0.30
  -2  -5   4   16.72    0.44
  -2  -5   4   15.65    0.55
  -2  -5   4   15.81    0.56
  -2  -5   4   15.51    0.64
   2   5  -4   13.97    0.62
  -3  -4   4   54.44    1.25
  -3  -4   4   55.19    1.66
  -3  -4   4   52.73    1.66
  -3  -4   4   52.54    1.54
   3   4  -4   53.67    1.43
  -4  -3   4    0.26    0.24
  -4  -3   4    0.82    0.20
  -4  -3   4    0.70    0.25
  -4  -3   4    0.87    0.26
   4   3  -4    0.58    0.44
  -5  -2   4    0.25    0.21
  -5  -2   4    0.26    0.27
  -5  -2   4    0.12    0.23
  -5  -2   4   -0.30    0.26
   5   2  -4    0.04    0.49
  -6  -1   4    3.83    0.47
  -6  -1   4    3.17    0.40
  -6  -1   4    3.71    0.44
   6   1  -4    3.29    0.73
  -7   0   4    3.95    0.48
  -7   0   4    3.36    0.44
  -7   0   4    3.76    0.46
   7   0  -4    3.01    0.83
  -8   1   4    0.52    0.33
  -8   1   4    0.07    0.39
  -8   1   4   -0.48    0.38
   8  -1  -4    0.27    0.66
  -9   2   4    0.44    0.46
   9  -2  -4   -0.70    0.51
   9  -2  -4    0.94    0.84
 -10   3   4   -0.08    0.49
  10  -3  -4    0.43    0.53
 -11   4   4   -0.15    0.53
  -4  12  -5    0.57    0.45
   3 -11   5    2.99    0.29
  -3  11  -5    2.35    0.47
   2 -10   5   -0.12    0.39
  -2  10  -5    0.54    0.32
   1  -9   5    2.80    0.46
  -1   9  -5    2.42    0.32
   0  -8   5    5.13    0.50
  -1  -7   5    3.51    0.19
  -1  -7   5    3.76    0.53
  -2  -6   5    0.38    0.15
  -2  -6   5    0.30    0.14
  -2  -6   5    0.40    0.25
  -2  -6   5    0.25    0.13
   2   6  -5   -0.10    0.30
  -3  -5   5    0.27    0.16
  -3  -5   5   -0.11    0.24
  -3  -5   5   -0.16    0.17
  -3  -5   5   -0.06    0.20
   3   5  -5    0.23    0.39
  -4  -4   5   29.87    1.09
  -4  -4   5   30.45    0.82
  -4  -4   5   29.83    1.08
   4   4  -5   30.70    1.24
  -5  -3   5   13.39    0.67
  -5  -3   5   14.29    0.57
  -5  -3   5   13.03    0.68
   5   3  -5   13.71    1.01
  -6  -2   5    1.81    0.32
  -6  -2   5    1.98    0.36
  -6  -2   5    1.17    0.29
   6   2  -5    1.78    0.66
  -7  -1   5    1.79    0.37
  -7  -1   5    1.57    0.39
  -7  -1   5    1.92    0.35
   7   1  -5    1.52    0.70
  -8   0   5    2.43    0.42
  -8   0   5    3.12    0.48
  -8   0   5    3.23    0.49
   8   0  -5    2.50    0.87
  -9   1   5    0.34    0.36
  -9   1   5    0.08    0.46
   9  -1  -5   -0.65    0.72
 -10   2   5   -0.33    0.49
 -11   3   5    0.09    0.53
   1 -10   6    0.35    0.39
   0  -9   6    2.35    0.44
  -1  -8   6   -0.15    0.30
  -2  -7   6    2.32    0.24
  -2  -7   6    1.32    0.17
  -2  -7   6    1.91    0.22
  -2  -7   6    1.76    0.35
   2   7  -6    1.76    0.38
  -3  -6   6    1.08    0.31
  -3  -6   6    1.04    0.23
  -3  -6   6    1.52    0.21
  -3  -6   6    1.04    0.24
   3   6  -6    1.23    0.43
  -4  -5   6    3.15    0.41
  -4  -5   6    2.45    0.38
  -4  -5   6    2.65    0.37
  -4  -5   6    2.77    0.28
   4   5  -6    0.93    0.50
  -5  -4   6    1.08    0.26
  -5  -4   6    0.56    0.28
  -5  -4   6    0.68    0.31
   5   4  -6    0.71    0.54
  -6  -3   6    8.08    0.58
  -6  -3   6    7.61    0.61
  -6  -3   6    8.31    0.51
   6   3  -6    6.78    0.86
  -7  -2   6    3.46    0.44
  -7  -2   6    3.43    0.51
   7   2  -6    3.71    0.81
  -8  -1   6    0.41    0.39
  -8  -1   6    0.47    0.36
  -8  -1   6    0.77    0.39
   8   1  -6    0.23    0.67
  -9   0   6   -0.13    0.45
  -9   0   6    0.47    0.40
   9   0  -6    0.04    0.78
 -10   1   6    0.62    0.50
 -11   2   6   -0.28    0.52
   1 -11   7   -0.70    0.46
   0 -10   7    0.19    0.37
  -1  -9   7   -0.11    0.32
  -2  -8   7    0.82    0.17
  -2  -8   7    0.39    0.32
   2   8  -7    0.28    0.34
  -3  -7   7    1.57    0.26
  -3  -7   7    2.09    0.38
   3   7  -7    1.77    0.46
  -4  -6   7    3.62    0.37
  -4  -6   7    4.30    0.54
  -4  -6   7    4.63    0.45
  -4  -6   7    4.30    0.44
   4   6  -7    3.49    0.60
  -5  -5   7    1.53    0.29
  -5  -5   7    1.68    0.35
  -5  -5   7    2.04    0.38
   5   5  -7    2.86    0.64
  -6  -4   7    0.21    0.27
  -6  -4   7    0.20    0.32
  -6  -4   7    0.25    0.32
   6   4  -7    0.40    0.53
  -7  -3   7    0.66    0.36
  -7  -3   7    0.33    0.33
   7   3  -7    0.63    0.66
  -8  -2   7    0.52    0.37
   8   2  -7    0.79    0.72
  -9  -1   7    0.38    0.40
   9   1  -7    0.17    0.86
 -10   0   7    0.78    0.41
   0 -11   8    0.83    0.47
  -1 -10   8    0.25    0.38
  -2  -9   8    0.15    0.34
  -3  -8   8    0.00    0.21
  -3  -8   8    0.42    0.20
  -3  -8   8    1.13    0.24
  -3  -8   8    0.88    0.38
   3   8  -8    0.49    0.45
  -4  -7   8    0.39    0.35
  -4  -7   8    0.14    0.23
  -4  -7   8   -0.45    0.22
   4   7  -8    0.05    0.48
  -5  -6   8   -0.06    0.30
  -5  -6   8   -0.37    0.25
  -5  -6   8    0.01    0.33
   5   6  -8    0.07    0.53
  -6  -5   8    0.54    0.35
  -6  -5   8    0.89    0.38
  -6  -5   8   -0.06    0.30
   6   5  -8    0.05    0.57
  -7  -4   8    0.30    0.34
  -7  -4   8    0.65    0.37
   7   4  -8    0.81    0.70
  -8  -3   8    0.77    0.40
   8   3  -8    0.21    0.77
  -9  -2   8   -0.10    0.41
   0 -12   9    1.02    0.61
  -1 -11   9    1.40    0.50
  -2 -10   9    0.98    0.46
  -3  -9   9    1.05    0.21
  -3  -9   9    0.58    0.42
  -3  -9   9    0.83    0.19
   3   9  -9    0.16    0.44
  -4  -8   9    0.01    0.37
  -4  -8   9   -0.07    0.25
  -4  -8   9   -0.45    0.24
   4   8  -9    0.17    0.50
  -5  -7   9    3.70    0.53
  -5  -7   9    3.09    0.45
  -5  -7   9    3.12    0.36
   5   7  -9    3.56    0.72
  -6  -6   9    0.59    0.39
  -6  -6   9    0.60    0.37
  -6  -6   9   -0.11    0.33
   6   6  -9    1.02    0.69
  -7  -5   9    0.15    0.39
  -7  -5   9    0.29    0.37
   7   5  -9   -0.70    0.61
  -8  -4   9    0.62    0.43
  -9  -3   9    0.12    0.39
  -1 -12  10    0.29    0.53
  -2 -11  10    0.41    0.50
  -3 -10  10    1.49    0.53
  -4  -9  10   -0.04    0.28
  -4  -9  10    0.24    0.44
   4   9 -10    0.62    0.55
  -5  -8  10    0.15    0.43
  -5  -8  10   -0.29    0.29
   5   8 -10    0.44    0.61
  -6  -7  10   -0.01    0.33
  -6  -7  10    0.63    0.44
   6   7 -10    0.16    0.65
  -7  -6  10    1.08    0.42
  -8  -5  10    0.44    0.44
  -1 -13  11   -0.18    0.65
  -2 -12  11    0.49    0.55
  -3 -11  11    0.85    0.49
  -4 -10  11    0.54    0.50
  -5  -9  11    0.05    0.46
  -5  -9  11   -0.43    0.30
  -6  -8  11   -0.42    0.34
  -6  -8  11    0.85    0.47
  -7  -7  11   -0.46    0.39
  -3 -12  12    0.41    0.57
  -4 -11  12    1.25    0.55
  -5 -10  12    0.40    0.51
  -4  -6  14   -0.02    0.37
  -3  -7  14    0.12    0.36
  -2  -8  14   -0.25    0.38
  -1  -9  14   -0.35    0.35
  -5  -4  13    0.97    0.40
  -4  -5  13    1.37    0.40
   3   6 -13    0.80    0.70
  -3  -6  13    0.12    0.34
   2   7 -13   -0.18    0.63
  -2  -7  13    0.24    0.33
  -1  -8  13    1.47    0.38
   0  -9  13   -0.36    0.31
   1 -10  13    0.03    0.32
  -7  -1  12   -0.17    0.40
   5   3 -12    0.62    0.75
  -5  -3  12    0.58    0.37
   4   4 -12    0.08    0.62
  -4  -4  12    0.42    0.32
   3   5 -12    2.08    0.76
  -3  -5  12    2.47    0.40
   2   6 -12   -0.24    0.57
  -2  -6  12    0.72    0.33
   1   7 -12    0.48    0.64
  -1  -7  12    0.50    0.31
   0   8 -12    0.61    0.59
   0  -8  12    0.35    0.30
   0  -8  12    0.43    0.35
  -1   9 -12    0.37    0.59
   1  -9  12    0.05    0.32
   2 -10  12   -0.09    0.32
   3 -11  12    0.37    0.35
  -9   2  11   -0.26    0.57
  -8   1  11   -0.65    0.51
   7   0 -11   -0.54    0.85
  -7   0  11    0.01    0.40
  -7   0  11   -0.21    0.48
   6   1 -11   -0.77    0.74
  -6  -1  11   -0.19    0.45
   5   2 -11    0.94    0.73
  -5  -2  11    0.85    0.39
  -5  -2  11    1.46    0.46
   4   3 -11   -0.28    0.61
  -4  -3  11    0.47    0.31
   3   4 -11    0.38    0.60
  -3  -4  11    0.43    0.29
   2   5 -11    0.23    0.53
  -2  -5  11    0.86    0.29
   1   6 -11    1.61    0.61
  -1  -6  11    0.92    0.30
   0   7 -11    0.29    0.52
   0  -7  11    0.12    0.35
   0  -7  11   -0.03    0.25
  -1   8 -11   -0.29    0.52
   1  -8  11   -0.08    0.28
   1  -8  11    0.24    0.40
  -2   9 -11    0.56    0.57
   2  -9  11    0.34    0.38
   2  -9  11    0.25    0.32
   3 -10  11    0.83    0.34
   4 -11  11    0.09    0.33
  -9   3  10    0.16    0.56
  -8   2  10    0.05    0.54
  -7   1  10    0.63    0.51
  -7   1  10    0.41    0.41
   6   0 -10   -0.41    0.69
  -6   0  10    0.76    0.46
  -6   0  10    0.62    0.40
   5   1 -10    0.34    0.67
  -5  -1  10   -0.42    0.34
  -5  -1  10    0.75    0.41
   4   2 -10   -0.21    0.55
  -4  -2  10    0.14    0.28
  -4  -2  10    0.34    0.34
   3   3 -10    1.20    0.60
  -3  -3  10    1.30    0.34
  -3  -3  10    1.05    0.28
   2   4 -10   -0.06    0.48
  -2  -4  10    0.11    0.23
   1   5 -10    2.74    0.61
  -1  -5  10    2.56    0.34
  -1  -5  10    2.76    0.48
   0   6 -10    0.67    0.49
   0  -6  10   -0.17    0.32
   0  -6  10    0.59    0.26
  -1   7 -10   -0.04    0.49
   1  -7  10    0.02    0.25
   1  -7  10   -0.17    0.31
  -2   8 -10   -0.52    0.48
  -2   8 -10    0.70    0.35
   2  -8  10   -0.03    0.26
   2  -8  10   -0.02    0.34
  -3   9 -10    0.08    0.56
   3  -9  10    0.41    0.30
   3  -9  10    0.33    0.39
   4 -10  10    1.65    0.38
   4 -10  10    1.18    0.40
   5 -11  10    0.58    0.37
   5 -11  10    0.64    0.36
  -9   4   9   -0.14    0.55
  -8   3   9    1.22    0.56
  -7   2   9    1.05    0.51
   6  -1  -9    0.41    0.72
  -6   1   9    0.46    0.33
  -6   1   9   -0.15    0.41
   5   0  -9   -0.04    0.59
   5   0  -9    0.45    0.30
  -5   0   9    0.28    0.38
  -5   0   9   -0.16    0.31
   4   1  -9   -0.15    0.56
  -4  -1   9    0.42    0.35
  -4  -1   9    0.55    0.27
   3   2  -9   -0.34    0.53
  -3  -2   9    0.01    0.23
  -3  -2   9    0.12    0.30
   2   3  -9    0.09    0.46
  -2  -3   9    0.05    0.28
  -2  -3   9    0.11    0.22
   1   4  -9   -0.01    0.44
  -1  -4   9    0.43    0.26
  -1  -4   9    0.13    0.34
  -1  -4   9    0.13    0.23
   0   5  -9    3.28    0.60
   0  -5   9    2.14    0.30
   0  -5   9    2.59    0.44
  -1   6  -9    0.17    0.42
   1  -6   9    0.19    0.23
   1  -6   9    0.21    0.32
  -2   7  -9    1.74    0.45
  -2   7  -9    2.99    0.63
   2  -7   9    3.25    0.38
   2  -7   9    2.73    0.43
  -3   8  -9   -0.07    0.36
  -3   8  -9   -0.11    0.48
   3  -8   9    0.39    0.27
   3  -8   9   -0.26    0.34
   3  -8   9    0.00    0.29
  -4   9  -9    0.64    0.61
   4  -9   9    0.67    0.32
   4  -9   9    0.73    0.35
   4  -9   9    0.22    0.40
   5 -10   9    0.38    0.36
   5 -10   9    0.39    0.34
   6 -11   9    0.31    0.38
  -9   5   8    0.12    0.55
   8  -4  -8    0.24    0.39
  -8   4   8    0.30    0.51
   7  -3  -8    0.46    0.37
  -7   3   8    0.23    0.46
   6  -2  -8    2.74    0.47
  -6   2   8    4.62    0.53
  -6   2   8    4.42    0.56
   5  -1  -8   -0.10    0.60
   5  -1  -8    0.47    0.30
  -5   1   8    0.16    0.36
   4   0  -8    0.56    0.30
   4   0  -8    0.10    0.55
  -4   0   8    0.43    0.32
  -4   0   8    0.67    0.26
   3   1  -8    0.49    0.53
   3   1  -8    0.04    0.24
  -3  -1   8    0.06    0.22
  -3  -1   8    0.27    0.28
   2   2  -8    1.15    0.28
   2   2  -8    2.24    0.58
  -2  -2   8    1.77    0.28
  -2  -2   8    1.76    0.33
   1   3  -8    0.43    0.44
  -1  -3   8    0.31    0.21
  -1  -3   8    0.45    0.26
   0   4  -8    1.74    0.51
   0  -4   8    1.64    0.28
   0  -4   8    1.31    0.37
   0  -4   8    1.13    0.24
  -1   5  -8   11.94    0.90
  -1   5  -8   12.38    0.64
   1  -5   8   13.71    0.74
   1  -5   8   10.70    0.52
  -2   6  -8    5.09    0.68
  -2   6  -8    3.54    0.52
   2  -6   8    5.33    0.41
  -3   7  -8    0.44    0.48
  -3   7  -8   -0.44    0.35
   3  -7   8    0.67    0.31
   3  -7   8    0.43    0.26
   3  -7   8    0.52    0.35
  -4   8  -8    3.43    0.51
  -4   8  -8    2.76    0.66
   4  -8   8    2.01    0.45
   4  -8   8    2.85    0.43
   4  -8   8    2.92    0.38
  -5   9  -8    0.56    0.43
  -5   9  -8    0.94    0.61
   5  -9   8    0.42    0.34
   5  -9   8    0.23    0.35
  -6  10  -8   -0.27    0.47
   6 -10   8   -0.44    0.34
   6 -10   8    0.09    0.38
  -9   6   7    0.34    0.56
   8  -5  -7    0.57    0.42
  -8   5   7   -0.16    0.50
   7  -4  -7    0.46    0.39
  -7   4   7    0.02    0.46
   6  -3  -7    1.12    0.41
  -6   3   7    1.85    0.46
   5  -2  -7    0.41    0.30
   5  -2  -7   -0.15    0.58
  -5   2   7    0.02    0.35
  -5   2   7    0.32    0.29
   4  -1  -7    0.84    0.29
   4  -1  -7    0.80    0.58
  -4   1   7    0.50    0.29
  -4   1   7    0.72    0.32
   3   0  -7   -0.23    0.50
   3   0  -7    0.51    0.27
  -3   0   7    0.37    0.29
  -3   0   7   -0.37    0.22
   2   1  -7   12.59    0.92
   2   1  -7   11.77    0.52
  -2  -1   7   12.43    0.62
  -2  -1   7   13.55    0.72
  -2  -1   7   12.96    0.55
   1   2  -7    4.65    0.62
   1   2  -7    4.17    0.41
  -1  -2   7    5.21    0.46
  -1  -2   7    5.12    0.35
  -1  -2   7    5.77    0.54
   0   3  -7   11.40    0.47
   0   3  -7   13.75    0.85
   0  -3   7   12.44    0.56
   0  -3   7   11.78    0.51
   0  -3   7   12.62    0.70
  -1   4  -7    7.45    0.71
  -1   4  -7    7.47    0.51
   1  -4   7    7.02    0.47
   1  -4   7    6.53    0.38
   1  -4   7    7.98    0.58
  -2   5  -7   13.90    0.92
  -2   5  -7   13.88    0.66
   2  -5   7   14.73    0.73
   2  -5   7   13.15    0.56
   2  -5   7   13.31    0.62
   2  -5   7   13.71    0.56
  -3   6  -7    4.24    0.63
  -3   6  -7    5.03    0.48
   3  -6   7    4.31    0.41
   3  -6   7    4.20    0.55
   3  -6   7    4.16    0.49
  -4   7  -7    0.19    0.34
  -4   7  -7   -0.09    0.46
   4  -7   7    0.16    0.27
   4  -7   7    0.14    0.30
   4  -7   7    0.08    0.35
  -5   8  -7    2.83    0.49
  -5   8  -7    2.57    0.65
   5  -8   7    3.54    0.45
   5  -8   7    3.55    0.47
  -6   9  -7    0.63    0.47
  -6   9  -7   -0.08    0.54
   6  -9   7    0.79    0.40
   6  -9   7   -0.06    0.35
  -7  10  -7   -0.35    0.48
   7 -10   7   -0.94    0.35
   7 -10   7    0.08    0.38
  -8  11  -7    0.00    0.52
  -9   7   6    0.17    0.55
   8  -6  -6   -0.02    0.38
  -8   6   6    0.26    0.50
   7  -5  -6    0.46    0.37
  -7   5   6    0.44    0.47
   6  -4  -6    0.42    0.34
  -6   4   6    0.73    0.41
   5  -3  -6    5.06    0.50
  -5   3   6    5.61    0.60
  -5   3   6    5.68    0.44
   4  -2  -6    5.44    0.44
   4  -2  -6    6.45    0.86
  -4   2   6    5.13    0.42
  -4   2   6    5.99    0.59
   3  -1  -6    2.09    0.31
   3  -1  -6    2.41    0.61
  -3   1   6    2.15    0.33
  -3   1   6    2.11    0.29
   2   0  -6   30.52    1.24
   2   0  -6   31.50    0.88
  -2   0   6   31.69    0.88
  -2   0   6   31.20    1.02
  -2   0   6   30.83    1.16
   1   1  -6   29.21    1.07
   1   1  -6   28.83    1.13
   1   1  -6   29.88    0.81
  -1  -1   6   29.82    0.95
  -1  -1   6   28.76    1.10
  -1  -1   6   29.14    1.09
   0   2  -6   36.25    1.25
   0   2  -6   35.13    0.93
   0   2  -6   35.23    1.20
   0  -2   6   36.56    1.08
   0  -2   6   37.22    1.26
   0  -2   6   35.42    0.94
   0  -2   6   35.39    1.26
  -1   3  -6   10.05    0.51
  -1   3  -6    9.20    0.70
  -1   3  -6    9.41    0.43
   1  -3   6    8.81    0.47
   1  -3   6    8.38    0.56
   1  -3   6    8.73    0.42
   1  -3   6    7.93    0.50
  -2   4  -6   37.66    1.32
  -2   4  -6   38.04    1.14
  -2   4  -6   34.85    0.97
   2  -4   6   36.57    1.33
   2  -4   6   38.97    1.13
   2  -4   6   36.41    1.14
   2  -4   6   37.74    1.32
   2  -4   6   36.80    1.01
  -3   5  -6    2.37    0.55
  -3   5  -6    3.03    0.37
   3  -5   6    2.00    0.38
   3  -5   6    2.61    0.31
   3  -5   6    2.59    0.33
   3  -5   6    2.33    0.36
  -4   6  -6    0.18    0.32
  -4   6  -6    0.65    0.47
   4  -6   6    0.05    0.33
   4  -6   6   -0.21    0.23
   4  -6   6    0.03    0.28
  -5   7  -6    0.69    0.52
  -5   7  -6    0.68    0.38
   5  -7   6    0.92    0.35
   5  -7   6    0.83    0.29
  -6   8  -6   -0.41    0.47
  -6   8  -6   -0.03    0.42
   6  -8   6    0.38    0.32
   6  -8   6    0.08    0.34
  -7   9  -6    1.05    0.51
   7  -9   6    1.11    0.44
   7  -9   6    1.43    0.40
  -8  10  -6   -0.19    0.50
   8 -10   6    0.60    0.44
  -9  11  -6   -0.15    0.55
  -9   8   5   -0.32    0.53
   8  -7  -5    0.13    0.38
  -8   7   5    0.09    0.48
   7  -6  -5    0.41    0.39
  -7   6   5    0.19    0.47
   6  -5  -5    0.25    0.29
  -6   5   5    0.41    0.38
   5  -4  -5    2.47    0.37
  -5   4   5    2.28    0.40
   4  -3  -5   29.07    0.92
   4  -3  -5   28.23    1.35
  -4   3   5   27.68    1.00
  -4   3   5   27.96    0.85
   3  -2  -5    6.84    0.79
   3  -2  -5    7.17    0.49
  -3   2   5    6.99    0.54
  -3   2   5    6.92    0.40
   2  -1  -5   13.04    0.87
   2  -1  -5   13.51    0.51
  -2   1   5   13.16    0.61
  -2   1   5   13.40    0.48
   1   0  -5   51.14    1.23
   1   0  -5   52.70    1.47
  -1   0   5   50.31    1.22
  -1   0   5   49.47    1.40
  -1   0   5   49.85    1.63
  -1   0   5   50.42    1.64
   0   1  -5   31.88    0.84
   0   1  -5   32.41    1.08
   0  -1   5   32.43    1.15
   0  -1   5   32.37    1.12
   0  -1   5   34.63    0.99
   0  -1   5   31.93    0.85
  -1   2  -5    2.43    0.31
  -1   2  -5    2.15    0.32
  -1   2  -5    2.77    0.42
  -1   2  -5    2.69    0.30
   1  -2   5    2.35    0.29
   1  -2   5    2.17    0.35
   1  -2   5    2.33    0.35
   1  -2   5    2.74    0.32
  -2   3  -5    3.99    0.53
  -2   3  -5    3.93    0.39
  -2   3  -5    2.70    0.41
  -2   3  -5    4.02    0.30
   2  -3   5    3.71    0.44
   2  -3   5    3.46    0.30
   2  -3   5    3.80    0.38
   2  -3   5    3.09    0.39
   2  -3   5    3.98    0.39
  -3   4  -5   18.43    0.98
  -3   4  -5   16.85    0.70
  -3   4  -5   17.33    0.60
   3  -4   5   16.08    0.67
   3  -4   5   16.60    0.78
   3  -4   5   16.21    0.61
   3  -4   5   16.24    0.69
  -4   5  -5    0.98    0.33
  -4   5  -5    1.02    0.48
   4  -5   5    0.20    0.32
   4  -5   5    0.54    0.31
   4  -5   5    0.52    0.34
   4  -5   5    0.72    0.24
  -5   6  -5    0.01    0.34
  -5   6  -5    0.56    0.46
   5  -6   5    0.04    0.31
   5  -6   5    0.14    0.25
  -6   7  -5    2.22    0.46
  -6   7  -5    1.11    0.56
   6  -7   5    2.32    0.38
   6  -7   5    1.72    0.40
  -7   8  -5   -0.07    0.57
  -7   8  -5    0.42    0.47
   7  -8   5    0.42    0.37
   7  -8   5    0.35    0.40
  -8   9  -5   -0.08    0.50
   8  -9   5    0.59    0.37
   8  -9   5    0.39    0.42
  -9  10  -5    0.03    0.53
  -9   9   4   -0.40    0.55
   8  -8  -4    0.91    0.43
  -8   8   4    0.04    0.52
   7  -7  -4    0.22    0.37
  -7   7   4   -0.01    0.45
   6  -6  -4    0.05    0.29
  -6   6   4   -0.22    0.38
   5  -5  -4    0.16    0.29
  -5   5   4    0.31    0.34
   4  -4  -4    8.72    0.48
  -4   4   4    8.43    0.61
   3  -3  -4    0.23    0.47
   3  -3  -4    0.13    0.26
   3  -3  -4   -0.24    0.21
  -3   3   4    0.01    0.24
   2  -2  -4  106.61    2.37
   2  -2  -4  106.86    2.41
   2  -2  -4  103.54    3.15
   2  -2  -4  104.73    3.15
  -2   2   4  102.32    2.71
  -2   2   4  107.86    3.16
  -2   2   4  101.56    2.34
   1  -1  -4   10.38    0.41
   1  -1  -4   10.19    0.51
   1  -1  -4   11.36    0.69
   1  -1  -4    9.98    0.50
  -1   1   4   10.53    0.40
  -1   1   4   10.37    0.46
   0   0  -4   41.76    1.19
   0   0  -4   42.93    1.37
   0   0  -4   41.65    1.36
   0   0  -4   42.83    1.03
   0   0   4   41.58    1.18
  -1   1  -4    0.56    0.30
  -1   1  -4    0.50    0.16
  -1   1  -4    0.71    0.19
   1  -1   4    0.65    0.19
   1  -1   4    0.15    0.22
   1  -1   4    0.51    0.15
   1  -1   4    0.52    0.21
  -2   2  -4   14.18    0.76
  -2   2  -4   13.65    0.46
  -2   2  -4   13.85    0.64
   2  -2   4   13.42    0.57
   2  -2   4   13.87    0.65
   2  -2   4   13.67    0.47
   2  -2   4   13.59    0.63
   2  -2   4   12.93    0.58
  -3   3  -4   10.82    0.47
  -3   3  -4   10.80    0.75
  -3   3  -4   10.80    0.55
   3  -3   4   10.18    0.62
   3  -3   4   10.34    0.57
   3  -3   4    9.84    0.44
   3  -3   4   10.16    0.53
   3  -3   4    8.53    0.57
  -4   4  -4    4.03    0.61
  -4   4  -4    3.94    0.41
  -4   4  -4    3.47    0.43
   4  -4   4    3.64    0.38
   4  -4   4    3.23    0.48
   4  -4   4    3.15    0.45
  -5   5  -4    1.65    0.37
  -5   5  -4    2.35    0.58
   5  -5   4    1.98    0.36
   5  -5   4    1.53    0.30
  -6   6  -4    0.77    0.36
  -6   6  -4    0.62    0.54
   6  -6   4    0.64    0.31
   6  -6   4    0.51    0.36
  -7   7  -4    1.34    0.44
  -7   7  -4    1.84    0.65
   7  -7   4    2.06    0.39
   7  -7   4    1.65    0.45
  -8   8  -4    0.94    0.51
   8  -8   4    1.18    0.46
   8  -8   4    1.53    0.42
  -9   9  -4   -0.06    0.52
   9  -9   4    0.29    0.41
  -8   9   3   -0.12    0.50
   7  -8  -3    0.35    0.37
  -7   8   3    0.02    0.46
   6  -7  -3    0.42    0.32
  -6   7   3    0.40    0.41
   5  -6  -3   -0.55    0.27
  -5   6   3    0.29    0.34
   4  -5  -3    5.49    0.46
   4  -5  -3    6.87    0.64
  -4   5   3    5.18    0.54
   3  -4  -3    1.16    0.25
   3  -4  -3    1.30    0.33
   3  -4  -3    1.57    0.49
  -3   4   3    1.19    0.29
  -3   4   3    1.31    0.22
   2  -3  -3    5.28    0.57
   2  -3  -3    4.76    0.37
   2  -3  -3    4.37    0.31
  -2   3   3    4.32    0.36
  -2   3   3    4.07    0.31
   1  -2  -3    9.75    0.40
   1  -2  -3   10.38    0.63
   1  -2  -3    9.40    0.49
   1  -2  -3    9.05    0.49
  -1   2   3    9.78    0.43
  -1   2   3    9.79    0.35
  -1   2   3   10.82    0.50
   0  -1  -3   41.15    1.29
   0  -1  -3   39.96    1.30
   0  -1  -3   41.24    0.97
   0  -1  -3   40.02    1.09
   0   1   3   40.26    1.30
   0   1   3   38.71    1.12
   0   1   3   41.19    0.97
  -1   0  -3    8.50    0.46
  -1   0  -3    8.75    0.54
  -1   0  -3    8.15    0.33
  -1   0  -3    7.84    0.42
   1   0   3    8.34    0.32
   1   0   3    8.41    0.43
   1   0   3    7.84    0.43
  -2   1  -3   18.47    0.64
  -2   1  -3   17.80    0.53
  -2   1  -3   18.52    0.79
  -2   1  -3   18.08    0.73
   2  -1   3   18.46    0.55
   2  -1   3   17.80    0.65
   2  -1   3   18.33    0.73
   2  -1   3   18.15    0.68
   2  -1   3   17.94    0.73
  -3   2  -3    2.14    0.23
  -3   2  -3    1.93    0.25
  -3   2  -3    1.48    0.26
  -3   2  -3    1.72    0.40
   3  -2   3    1.41    0.21
   3  -2   3    2.02    0.26
   3  -2   3    1.53    0.29
   3  -2   3    1.50    0.26
  -4   3  -3    2.30    0.26
  -4   3  -3    2.22    0.33
  -4   3  -3    2.17    0.49
   4  -3   3    2.00    0.32
   4  -3   3    2.02    0.28
   4  -3   3    3.29    0.46
   4  -3   3    2.07    0.34
  -5   4  -3    0.38    0.24
  -5   4  -3    0.38    0.46
  -5   4  -3    0.40    0.30
   5  -4   3   -0.06    0.26
   5  -4   3   -0.21    0.34
   5  -4   3    0.43    0.31
  -6   5  -3    1.29    0.57
  -6   5  -3    1.61    0.40
   6  -5   3    0.61    0.33
   6  -5   3    1.77    0.41
   6  -5   3    1.58    0.45
  -7   6  -3    3.03    0.48
  -7   6  -3    3.04    0.75
   7  -6   3    3.91    0.54
   7  -6   3    2.59    0.45
  -8   7  -3   -0.04    0.46
  -8   7  -3    0.90    0.68
   8  -7   3    0.39    0.42
   8  -7   3    0.28    0.41
  -9   8  -3    0.30    0.52
   9  -8   3    0.48    0.39
   9  -8   3    0.66    0.47
 -10   9  -3   -0.25    0.53
  -8  10   2   -0.33    0.50
   7  -9  -2    0.10    0.38
  -7   9   2   -0.23    0.48
   6  -8  -2    0.84    0.36
  -6   8   2    0.82    0.43
   5  -7  -2   -0.19    0.26
  -5   7   2   -0.25    0.32
   4  -6  -2    8.63    0.65
   4  -6  -2    6.06    0.46
  -4   6   2    6.35    0.54
   3  -5  -2    4.18    0.48
   3  -5  -2    2.83    0.41
   3  -5  -2    3.00    0.36
  -3   5   2    2.97    0.33
   2  -4  -2    0.36    0.23
   2  -4  -2    0.37    0.18
   2  -4  -2    0.27    0.18
   2  -4  -2    0.63    0.35
  -2   4   2    0.33    0.22
   1  -3  -2    9.53    0.61
   1  -3  -2    9.72    0.46
   1  -3  -2    9.84    0.47
   1  -3  -2    9.40    0.35
  -1   3   2    9.22    0.44
  -1   3   2    9.96    0.34
   0  -2  -2  114.16    2.49
   0  -2  -2  114.49    2.21
   0  -2  -2  113.92    3.32
   0  -2  -2  111.72    3.32
   0   2   2  115.32    3.33
   0   2   2  116.40    2.48
  -1  -1  -2    2.05    0.31
  -1  -1  -2    1.49    0.21
  -1  -1  -2    1.30    0.16
  -1  -1  -2    1.81    0.30
   1   1   2    1.32    0.14
   1   1   2    1.10    0.20
  -2   0  -2   91.07    1.88
  -2   0  -2   88.78    2.62
  -2   0  -2   86.41    2.62
  -2   0  -2   89.54    1.96
  -2   0  -2   81.83    2.22
   2   0   2   88.97    2.21
   2   0   2   87.69    2.26
   2   0   2   88.82    2.62
   2   0   2   88.91    1.97
  -3   1  -2   -0.03    0.28
  -3   1  -2   -0.05    0.19
  -3   1  -2    0.00    0.18
  -3   1  -2    0.16    0.19
  -3   1  -2    0.02    0.15
   3  -1   2    0.07    0.18
   3  -1   2   -0.09    0.19
   3  -1   2    0.11    0.19
   3  -1   2   -0.25    0.15
  -4   2  -2   12.81    0.50
  -4   2  -2   13.00    0.57
  -4   2  -2   13.34    0.83
   4  -2   2   13.73    0.72
   4  -2   2   13.60    0.66
   4  -2   2   13.16    0.51
  -5   3  -2    5.32    0.46
  -5   3  -2    5.09    0.46
  -5   3  -2    4.47    0.66
   5  -3   2    4.15    0.52
   5  -3   2    4.86    0.43
  -6   4  -2    4.33    0.48
  -6   4  -2    4.78    0.75
  -6   4  -2    4.33    0.42
   6  -4   2    4.72    0.49
   6  -4   2    4.02    0.57
  -7   5  -2   -0.03    0.52
  -7   5  -2   -0.06    0.38
   7  -5   2   -0.30    0.38
   7  -5   2    0.64    0.32
  -8   6  -2    0.07    0.60
  -8   6  -2    0.61    0.46
   8  -6   2   -0.40    0.47
   8  -6   2    1.18    0.39
  -9   7  -2   -0.17    0.46
   9  -7   2   -0.25    0.49
   9  -7   2   -0.86    0.40
 -10   8  -2    0.01    0.55
  -8  11   1   -0.07    0.53
   7 -10  -1    2.33    0.45
  -7  10   1    1.90    0.55
   6  -9  -1    0.53    0.35
  -6   9   1    0.87    0.44
   5  -8  -1   -0.13    0.27
   5  -8  -1    0.10    0.42
  -5   8   1    0.00    0.33
   4  -7  -1    1.04    0.37
   4  -7  -1    0.80    0.28
  -4   7   1    0.44    0.30
   3  -6  -1    0.75    0.31
   3  -6  -1    0.11    0.21
   3  -6  -1   -0.23    0.23
  -3   6   1    0.22    0.26
   2  -5  -1    4.27    0.40
   2  -5  -1    3.23    0.31
   2  -5  -1    4.13    0.35
  -2   5   1    3.23    0.35
   1  -4  -1   14.51    0.51
   1  -4  -1   14.50    0.44
   1  -4  -1   14.87    0.57
   1  -4  -1   14.69    0.58
  -1   4   1   14.29    0.51
   0  -3  -1    4.51    0.29
   0  -3  -1    4.54    0.25
   0  -3  -1    3.96    0.26
   0  -3  -1    4.38    0.28
  -1  -2  -1   34.85    1.09
  -1  -2  -1   32.90    0.94
  -1  -2  -1   34.27    0.81
  -1  -2  -1   33.26    0.87
  -1  -2  -1   34.44    1.08
  -2  -1  -1   66.09    1.97
  -2  -1  -1   64.50    1.44
  -2  -1  -1   64.14    1.47
  -2  -1  -1   63.21    1.97
   2   1   1   66.61    1.48
   2   1   1   65.64    1.97
   2   1   1   65.88    1.67
  -3   0  -1    5.74    0.32
  -3   0  -1    6.13    0.53
  -3   0  -1    5.91    0.41
  -3   0  -1    5.85    0.42
  -3   0  -1    5.64    0.34
   3   0   1    6.15    0.34
   3   0   1    5.90    0.45
   3   0   1    6.01    0.37
  -4   1  -1    2.00    0.31
  -4   1  -1    1.99    0.28
  -4   1  -1    1.79    0.24
  -4   1  -1    1.52    0.44
  -4   1  -1    2.07    0.25
   4  -1   1    2.26    0.29
   4  -1   1    1.56    0.24
  -5   2  -1   15.75    0.95
  -5   2  -1   14.33    0.69
  -5   2  -1   15.63    0.59
  -5   2  -1   15.78    0.59
   5  -2   1   14.92    0.60
   5  -2   1   14.15    0.71
  -6   3  -1    0.77    0.51
  -6   3  -1    0.20    0.26
  -6   3  -1    0.27    0.30
  -6   3  -1    0.76    0.28
   6  -3   1    0.91    0.36
   6  -3   1    0.56    0.29
  -7   4  -1    0.26    0.30
  -7   4  -1    0.16    0.36
  -7   4  -1    0.17    0.54
   7  -4   1    0.61    0.38
   7  -4   1    0.70    0.33
  -8   5  -1    4.94    0.65
  -8   5  -1    4.47    0.82
   8  -5   1    5.62    0.55
   8  -5   1    5.64    0.71
  -9   6  -1   -0.20    0.44
  -9   6  -1   -0.21    0.62
   9  -6   1   -0.91    0.50
   9  -6   1    0.33    0.39
 -10   7  -1   -0.35    0.52
  10  -7   1   -1.30    0.52
 -11   8  -1   -0.94    0.53
   6 -10   0    0.53    0.35
   5  -9   0    2.92    0.38
  -5   9   0    3.16    0.45
   4  -8   0    0.92    0.38
   4  -8   0   -0.06    0.23
   3  -7   0    0.80    0.23
   3  -7   0    0.76    0.25
   3  -7   0    1.61    0.32
  -3   7   0    0.99    0.26
   2  -6   0   -0.08    0.19
   2  -6   0    0.55    0.24
   2  -6   0   -0.39    0.22
   2  -6   0   -0.08    0.17
  -2   6   0    0.02    0.20
   1  -5   0    2.72    0.31
   1  -5   0    2.64    0.28
   1  -5   0    2.32    0.26
   1  -5   0    2.87    0.24
   0  -4   0    5.23    0.29
   0  -4   0    5.48    0.24
   0  -4   0    5.37    0.30
   0  -4   0    4.99    0.32
   0   4   0    4.37    0.38
  -1  -3   0   25.09    0.80
  -1  -3   0   24.63    0.59
  -1  -3   0   24.75    0.80
  -1  -3   0   23.94    0.74
   1   3   0   23.03    0.68
  -2  -2   0   60.51    1.81
  -2  -2   0   58.23    1.61
  -2  -2   0   61.04    1.81
  -2  -2   0   59.67    1.35
  -2  -2   0   60.05    1.30
  -3  -1   0   10.22    0.58
  -3  -1   0   10.38    0.37
  -3  -1   0   10.70    0.50
  -3  -1   0    9.66    0.42
  -3  -1   0    9.98    0.52
   3   1   0   10.22    0.44
   3   1   0   10.64    0.37
   3   1   0   10.12    0.50
  -4   0   0    6.07    0.44
  -4   0   0    6.27    0.45
  -4   0   0    6.66    0.62
  -4   0   0    5.75    0.37
  -4   0   0    5.86    0.35
   4   0   0    6.89    0.52
   4   0   0    5.10    0.39
   4   0   0    5.49    0.48
  -5   1   0   17.63    0.97
  -5   1   0   17.26    0.62
  -5   1   0   18.12    0.85
  -5   1   0   18.05    0.73
   5  -1   0   18.74    0.65
   5  -1   0   17.36    0.74
  -6   2   0   -0.17    0.25
  -6   2   0    0.08    0.29
  -6   2   0   -0.08    0.45
   6  -2   0   -0.01    0.28
   6  -2   0   -0.77    0.32
  -7   3   0    0.20    0.30
  -7   3   0    0.11    0.35
  -7   3   0    0.03    0.49
   7  -3   0    0.08    0.29
  -8   4   0    0.57    0.40
  -8   4   0   -0.25    0.57
   8  -4   0   -0.50    0.40
   8  -4   0    0.36    0.33
  -9   5   0    1.02    0.71
  -9   5   0    0.77    0.49
   9  -5   0    1.38    0.44
   9  -5   0    2.06    0.56
 -10   6   0    0.22    0.54
  10  -6   0   -0.76    0.51
  10  -6   0    0.91    0.43
 -11   7   0   -0.33    0.55
   6 -11   1    0.31    0.33
   5 -10   1    0.61    0.33
   5 -10   1    1.91    0.48
   4  -9   1    0.11    0.24
   4  -9   1    1.58    0.38
   3  -8   1    0.42    0.24
   3  -8   1    0.33    0.22
   2  -7   1    2.53    0.32
   2  -7   1    3.25    0.34
   2  -7   1    1.97    0.36
   1  -6   1   23.77    0.78
   1  -6   1   23.39    0.60
   1  -6   1   23.62    0.82
   1  -6   1   22.80    0.78
   0  -5   1    8.72    0.34
   0  -5   1    8.60    0.28
   0  -5   1    9.05    0.45
   0  -5   1    8.61    0.35
   0   5  -1    8.07    0.41
  -1  -4   1   62.46    1.77
  -1  -4   1   58.72    1.65
  -1  -4   1   61.89    1.33
  -1  -4   1   61.96    1.78
   1   4  -1   58.90    1.19
  -2  -3   1   17.92    0.48
  -2  -3   1   17.47    0.63
  -2  -3   1   17.61    0.64
  -2  -3   1   18.72    0.65
   2   3  -1   17.80    0.60
  -3  -2   1   22.24    0.61
  -3  -2   1   22.34    0.82
  -3  -2   1   21.61    0.76
  -3  -2   1   22.82    0.78
  -3  -2   1   22.44    0.81
   3   2  -1   22.42    0.59
  -4  -1   1   13.81    0.50
  -4  -1   1   13.46    0.72
  -4  -1   1   13.44    0.53
  -4  -1   1   13.26    0.62
  -4  -1   1   13.14    0.62
   4   1  -1   13.29    0.50
   4   1  -1   13.02    0.60
   4   1  -1   13.04    0.84
   4   1  -1   13.10    0.63
  -5   0   1    4.06    0.37
  -5   0   1    3.55    0.56
  -5   0   1    3.68    0.45
  -5   0   1    3.34    0.43
   5   0  -1    3.77    0.36
   5   0  -1    3.70    0.66
   5   0  -1    2.86    0.37
  -6   1   1   16.62    0.68
  -6   1   1   15.42    0.68
   6  -1  -1   15.49    0.76
   6  -1  -1   14.76    1.20
   6  -1  -1   15.38    0.64
  -7   2   1   -0.15    0.33
  -7   2   1    0.61    0.32
   7  -2  -1    0.07    0.39
   7  -2  -1    0.05    0.30
   7  -2  -1   -0.22    0.61
  -8   3   1    0.50    0.32
  -8   3   1    0.12    0.35
   8  -3  -1    0.10    0.31
  -9   4   1   -0.62    0.59
  -9   4   1    0.05    0.44
   9  -4  -1    0.23    0.38
 -10   5   1    0.26    0.51
  10  -5  -1    1.02    0.43
  10  -5  -1    0.76    0.54
 -11   6   1   -0.19    0.54
   6 -12   2    0.29    0.35
   5 -11   2    0.78    0.33
   4 -10   2    0.22    0.26
   4 -10   2    0.80    0.36
   3  -9   2    2.58    0.29
   3  -9   2    2.23    0.38
   2  -8   2    3.09    0.32
   2  -8   2    2.57    0.31
   2  -8   2    2.04    0.39
   1  -7   2   13.75    0.53
   1  -7   2   14.79    0.53
   1  -7   2   15.34    0.69
   1  -7   2   15.16    0.44
   0  -6   2   14.41    0.64
   0  -6   2   14.48    0.37
  -1  -5   2   49.64    1.40
  -1  -5   2   48.50    1.40
  -1  -5   2   49.32    1.40
   1   5  -2   47.47    0.94
  -2  -4   2   25.59    0.83
  -2  -4   2   25.81    0.63
  -2  -4   2   26.04    0.84
  -2  -4   2   26.12    0.85
  -3  -3   2   71.59    2.16
  -3  -3   2   70.29    1.94
  -3  -3   2   71.14    1.62
  -3  -3   2   74.49    2.17
   3   3  -2   70.99    1.69
  -4  -2   2    0.34    0.23
  -4  -2   2    0.47    0.21
  -4  -2   2    0.23    0.32
  -4  -2   2    0.15    0.19
  -4  -2   2    0.22    0.23
  -4  -2   2    0.18    0.17
   4   2  -2    0.11    0.38
   4   2  -2    0.12    0.16
  -5  -1   2    1.14    0.31
  -5  -1   2    1.66    0.29
  -5  -1   2    1.36    0.25
  -5  -1   2    1.90    0.34
   5   1  -2    1.32    0.24
   5   1  -2    1.26    0.54
   5   1  -2    0.71    0.29
  -6   0   2    6.86    0.52
  -6   0   2    5.84    0.53
   6   0  -2    6.62    0.62
   6   0  -2    5.17    0.80
   6   0  -2    6.12    0.50
  -7   1   2    0.14    0.34
  -7   1   2   -0.08    0.29
   7  -1  -2    0.01    0.29
   7  -1  -2   -0.10    0.60
   7  -1  -2    0.36    0.36
  -8   2   2    2.57    0.47
  -8   2   2    2.45    0.41
   8  -2  -2    2.77    0.50
   8  -2  -2    3.03    0.42
   8  -2  -2    2.01    0.79
  -9   3   2   -0.15    0.43
  -9   3   2    0.35    0.36
   9  -3  -2    0.50    0.40
 -10   4   2    1.35    0.55
  10  -4  -2    2.44    0.50
 -11   5   2   -0.13    0.53
  11  -5  -2   -0.52    0.57
   5 -12   3    0.60    0.33
   4 -11   3    0.56    0.27
   4 -11   3    0.11    0.29
   3 -10   3    4.66    0.38
   3 -10   3    3.56    0.38
   2  -9   3    0.54    0.19
   2  -9   3    0.92    0.20
   2  -9   3   -0.29    0.35
   1  -8   3    6.59    0.30
   1  -8   3    7.12    0.53
   0  -7   3    9.06    0.59
  -1  -6   3    3.20    0.43
  -2  -5   3   34.12    1.07
  -2  -5   3   36.09    0.81
  -2  -5   3   35.35    1.11
  -2  -5   3   34.67    1.06
   2   5  -3   33.90    0.92
  -3  -4   3   11.36    0.52
  -3  -4   3   11.62    0.40
  -3  -4   3   11.25    0.54
  -3  -4   3   11.11    0.57
   3   4  -3   10.49    0.75
  -4  -3   3   17.79    0.57
  -4  -3   3   17.95    0.74
  -4  -3   3   18.26    0.74
  -4  -3   3   18.46    0.77
   4   3  -3   16.38    0.98
  -5  -2   3    1.65    0.33
  -5  -2   3    1.51    0.31
  -5  -2   3    1.93    0.27
  -5  -2   3    1.92    0.29
   5   2  -3    2.14    0.60
  -6  -1   3    2.44    0.38
  -6  -1   3    2.81    0.33
  -6  -1   3    2.75    0.36
   6   1  -3    3.47    0.72
  -7   0   3    1.06    0.37
  -7   0   3    1.17    0.30
  -7   0   3    1.40    0.36
   7   0  -3    2.06    0.42
   7   0  -3    1.16    0.31
   7   0  -3    1.57    0.71
  -8   1   3    0.69    0.37
  -8   1   3    0.64    0.44
   8  -1  -3    0.78    0.44
   8  -1  -3    0.85    0.68
  -9   2   3   -0.48    0.42
  -9   2   3    0.45    0.45
  -9   2   3    0.80    0.53
   9  -2  -3    0.99    0.49
   9  -2  -3    0.37    0.77
 -10   3   3    0.20    0.50
 -11   4   3   -0.08    0.55
  -4  12  -4    0.52    0.44
   3 -11   4    0.62    0.19
  -3  11  -4    0.41    0.37
   2 -10   4   -0.40    0.39
  -2  10  -4    0.66    0.31
   1  -9   4   17.93    0.86
   0  -8   4    5.34    0.56
  -1  -7   4    3.57    0.45
  -2  -6   4   -0.16    0.11
  -2  -6   4    0.08    0.12
  -2  -6   4    0.16    0.11
  -2  -6   4    0.03    0.23
   2   6  -4    0.20    0.29
  -3  -5   4    0.53    0.19
  -3  -5   4    0.27    0.23
  -3  -5   4    0.47    0.20
  -3  -5   4    0.48    0.16
   3   5  -4    0.58    0.40
  -4  -4   4    6.39    0.44
  -4  -4   4    6.64    0.47
  -4  -4   4    6.91    0.50
  -4  -4   4    7.09    0.41
   4   4  -4    6.12    0.70
  -5  -3   4    3.45    0.45
  -5  -3   4    3.95    0.39
  -5  -3   4    4.17    0.50
   5   3  -4    4.32    0.70
  -6  -2   4    9.91    0.59
  -6  -2   4    8.85    0.66
  -6  -2   4   10.07    0.53
  -6  -2   4    9.97    0.56
   6   2  -4    9.46    1.00
  -7  -1   4    1.50    0.31
  -7  -1   4    1.55    0.36
  -7  -1   4    1.52    0.40
   7   1  -4    1.19    0.72
  -8   0   4    0.87    0.44
  -8   0   4    1.32    0.34
  -8   0   4    1.40    0.41
   8   0  -4    1.82    0.75
  -9   1   4    0.07    0.44
  -9   1   4   -0.53    0.47
   9  -1  -4   -0.48    0.77
 -10   2   4   -0.33    0.49
 -10   2   4   -1.10    0.43
 -11   3   4   -0.17    0.53
   1 -10   5    0.27    0.35
   0  -9   5    1.88    0.39
  -1  -8   5    3.79    0.54
  -2  -7   5   -0.24    0.12
  -2  -7   5   -0.13    0.26
   2   7  -5   -0.20    0.29
  -3  -6   5    0.93    0.18
  -3  -6   5    1.05    0.22
  -3  -6   5    0.57    0.19
  -3  -6   5    1.05    0.32
   3   6  -5    1.16    0.41
  -4  -5   5    0.16    0.19
  -4  -5   5   -0.08    0.27
  -4  -5   5    0.34    0.24
  -4  -5   5   -0.37    0.22
   4   5  -5    0.40    0.46
  -5  -4   5    0.61    0.24
  -5  -4   5    0.52    0.31
  -5  -4   5    0.33    0.28
   5   4  -5    0.31    0.50
  -6  -3   5    0.00    0.25
  -6  -3   5    0.38    0.32
  -6  -3   5    0.71    0.32
   6   3  -5    0.10    0.57
  -7  -2   5   -0.02    0.33
  -7  -2   5   -0.38    0.25
   7   2  -5    0.46    0.67
  -8  -1   5    1.12    0.39
  -8  -1   5    1.72    0.38
  -8  -1   5    1.24    0.42
   8   1  -5    1.29    0.76
  -9   0   5   -1.02    0.36
  -9   0   5   -0.09    0.42
  -9   0   5   -0.06    0.46
   9   0  -5   -0.21    0.71
 -10   1   5   -0.41    0.47
 -10   1   5   -0.17    0.43
 -11   2   5    0.04    0.53
   0 -10   6    0.30    0.39
  -1  -9   6    0.71    0.34
  -2  -8   6    0.02    0.32
  -3  -7   6   -0.30    0.16
  -3  -7   6    0.15    0.18
  -3  -7   6    0.08    0.29
  -3  -7   6   -0.24    0.16
   3   7  -6    0.23    0.37
  -4  -6   6    1.61    0.28
  -4  -6   6    1.01    0.26
  -4  -6   6    1.15    0.32
  -4  -6   6    1.01    0.23
   4   6  -6    2.01    0.52
  -5  -5   6    0.58    0.28
  -5  -5   6    1.03    0.34
  -5  -5   6    0.91    0.26
   5   5  -6    0.58    0.50
  -6  -4   6    0.40    0.30
  -6  -4   6    0.09    0.27
  -6  -4   6   -0.23    0.28
   6   4  -6   -0.24    0.52
  -7  -3   6    2.68    0.44
  -7  -3   6    2.62    0.38
   7   3  -6    2.18    0.74
  -8  -2   6    0.07    0.37
  -8  -2   6    0.45    0.36
   8   2  -6    0.49    0.69
  -9  -1   6    0.69    0.38
   9   1  -6    0.47    0.73
   0 -11   7    0.07    0.40
  -1 -10   7    1.58    0.44
  -2  -9   7    0.28    0.37
  -3  -8   7    0.10    0.18
  -3  -8   7    0.62    0.15
  -3  -8   7    0.72    0.17
  -3  -8   7    0.56    0.33
   3   8  -7    0.31    0.39
  -4  -7   7    0.03    0.33
  -4  -7   7    0.39    0.24
  -4  -7   7   -0.24    0.20
  -4  -7   7    0.45    0.24
   4   7  -7    0.08    0.44
  -5  -6   7    0.65    0.29
  -5  -6   7    0.01    0.32
  -5  -6   7   -0.22    0.24
   5   6  -7    0.94    0.55
  -6  -5   7    0.91    0.30
  -6  -5   7    0.70    0.33
  -6  -5   7    0.78    0.36
   6   5  -7    0.36    0.61
  -7  -4   7   -0.21    0.34
  -7  -4   7   -0.41    0.29
   7   4  -7    0.43    0.64
  -8  -3   7    0.66    0.41
  -8  -3   7    1.08    0.39
   8   3  -7    1.52    0.82
  -9  -2   7    1.19    0.43
   9   2  -7    0.35    0.83
 -10  -1   7   -0.31    0.43
   0 -12   8    0.31    0.50
  -1 -11   8    0.43    0.43
  -2 -10   8    0.24    0.38
  -3  -9   8    1.23    0.40
  -4  -8   8    0.22    0.23
  -4  -8   8    0.91    0.25
  -4  -8   8    0.85    0.41
  -4  -8   8    1.27    0.26
   4   8  -8    1.03    0.48
  -5  -7   8   -0.04    0.28
  -5  -7   8   -0.15    0.25
  -5  -7   8    0.24    0.34
   5   7  -8    0.65    0.56
  -6  -6   8    0.26    0.37
  -6  -6   8    0.11    0.31
  -6  -6   8    0.86    0.37
   6   6  -8    0.22    0.60
  -7  -5   8   -0.13    0.37
  -7  -5   8    0.49    0.36
   7   5  -8    0.10    0.70
  -8  -4   8    0.07    0.41
  -8  -4   8   -0.38    0.37
   8   4  -8    0.64    0.80
  -9  -3   8    0.08    0.41
  -1 -12   9    0.34    0.48
  -2 -11   9    1.58    0.54
  -3 -10   9    0.01    0.41
  -4  -9   9    0.39    0.43
   4   9  -9    0.01    0.48
  -5  -8   9    0.70    0.41
  -5  -8   9   -0.01    0.28
   5   8  -9    1.08    0.60
  -6  -7   9    0.67    0.35
  -6  -7   9    0.57    0.44
   6   7  -9   -0.66    0.59
  -7  -6   9    0.20    0.39
  -7  -6   9    0.05    0.43
   7   6  -9   -0.40    0.61
  -8  -5   9   -0.64    0.37
  -9  -4   9   -0.08    0.42
  -1 -13  10   -0.25    0.56
  -2 -12  10    0.15    0.52
  -3 -11  10    0.61    0.51
  -4 -10  10    1.31    0.48
  -5  -9  10    0.60    0.47
  -5  -9  10   -0.64    0.27
   5   9 -10   -0.24    0.56
  -6  -8  10    0.15    0.45
  -6  -8  10    0.11    0.35
   6   8 -10    0.11    0.65
  -7  -7  10    0.79    0.47
  -7  -7  10    0.50    0.40
  -8  -6  10   -0.91    0.37
  -2 -13  11    0.23    0.55
  -3 -12  11    1.35    0.56
  -4 -11  11    0.47    0.51
  -5 -10  11    0.83    0.51
  -6  -9  11    0.51    0.48
  -6  -9  11   -0.34    0.36
  -7  -8  11    0.81    0.49
  -5 -11  12    0.34    0.52
  -6 -10  12    0.87    0.53
  -4  -5  14   -0.02    0.37
  -3  -6  14    0.08    0.37
  -2  -7  14   -0.29    0.38
  -1  -8  14   -0.54    0.37
   0  -9  14    0.00    0.35
  -5  -3  13    0.22    0.38
   4   4 -13    0.72    0.76
  -4  -4  13    0.42    0.37
   3   5 -13    0.57    0.73
  -3  -5  13   -0.05    0.33
   2   6 -13   -0.46    0.61
  -2  -6  13    0.16    0.34
   1   7 -13    0.71    0.68
  -1  -7  13    0.85    0.37
   0  -8  13    1.32    0.39
   1  -9  13    0.11    0.34
   2 -10  13    0.03    0.34
  -8   1  12   -0.24    0.57
  -7   0  12    0.15    0.52
  -7   0  12   -0.03    0.42
  -6  -1  12   -0.02    0.49
   5   2 -12   -0.09    0.72
  -5  -2  12    0.05    0.39
   4   3 -12    2.05    0.80
  -4  -3  12    1.44    0.39
   3   4 -12    0.83    0.65
  -3  -4  12    1.15    0.35
   2   5 -12    0.56    0.64
  -2  -5  12    1.18    0.34
   1   6 -12    0.18    0.57
  -1  -6  12    0.13    0.31
   0   7 -12   -0.04    0.54
   0  -7  12    0.09    0.30
  -1   8 -12    0.08    0.60
   1  -8  12    0.08    0.32
   2  -9  12    0.42    0.35
   3 -10  12    0.17    0.35
  -8   2  11   -0.11    0.53
  -7   1  11    0.32    0.53
   6   0 -11    0.58    0.79
  -6   0  11    0.74    0.51
  -6   0  11   -0.73    0.42
   5   1 -11   -0.49    0.67
  -5  -1  11   -0.10    0.43
  -5  -1  11   -0.89    0.37
   4   2 -11    3.02    0.85
  -4  -2  11    3.74    0.50
  -4  -2  11    3.41    0.43
   3   3 -11    0.05    0.63
  -3  -3  11    0.78    0.31
   2   4 -11    0.08    0.57
  -2  -4  11    0.49    0.28
   1   5 -11    1.31    0.63
  -1  -5  11    1.11    0.29
   0   6 -11    1.61    0.62
   0  -6  11    1.08    0.30
  -1   7 -11   -0.24    0.49
   1  -7  11    0.10    0.28
  -2   8 -11    1.27    0.59
   2  -8  11    0.54    0.33
  -3   9 -11    1.40    0.67
  -3   9 -11    2.38    0.50
   3  -9  11    1.38    0.37
   4 -10  11    0.44    0.36
  -9   4  10   -0.43    0.55
  -8   3  10    0.13    0.54
  -7   2  10    0.18    0.52
  -6   1  10   -0.29    0.45
  -6   1  10    0.23    0.37
   5   0 -10    1.43    0.78
  -5   0  10    0.84    0.39
  -5   0  10    1.64    0.46
   4   1 -10   -0.14    0.59
  -4  -1  10    0.21    0.38
  -4  -1  10    0.01    0.30
   3   2 -10    0.96    0.61
  -3  -2  10    1.29    0.38
  -3  -2  10    0.94    0.29
   2   3 -10    0.19    0.53
  -2  -3  10    0.08    0.25
  -2  -3  10   -0.01    0.30
   1   4 -10    0.56    0.52
  -1  -4  10    0.43    0.26
   0   5 -10   -0.26    0.49
   0  -5  10    0.42    0.26
  -1   6 -10    3.99    0.70
   1  -6  10    3.33    0.41
  -2   7 -10   -0.08    0.48
  -2   7 -10    0.84    0.38
   2  -7  10   -0.04    0.26
  -3   8 -10    0.57    0.59
   3  -8  10    0.12    0.31
  -4   9 -10   -0.57    0.45
  -4   9 -10    0.71    0.65
   4  -9  10    0.59    0.34
  -5  10 -10    2.39    0.52
   5 -10  10    1.96    0.42
   5 -10  10    1.41    0.42
  -9   5   9   -0.45    0.56
   8  -4  -9    0.77    0.44
  -8   4   9   -0.25    0.50
   7  -3  -9    0.90    0.44
  -7   3   9    1.22    0.53
  -6   2   9    0.19    0.45
  -6   2   9    0.50    0.37
   5  -1  -9    1.31    0.76
   5  -1  -9    1.60    0.39
  -5   1   9    0.36    0.33
  -5   1   9    1.25    0.41
   4   0  -9   -0.08    0.59
   4   0  -9    0.03    0.29
  -4   0   9    0.16    0.29
  -4   0   9    0.15    0.36
   3   1  -9    5.02    0.80
   3   1  -9    4.84    0.51
  -3  -1   9    4.28    0.45
  -3  -1   9    5.24    0.57
   2   2  -9    2.27    0.64
   2   2  -9    2.52    0.35
  -2  -2   9    3.01    0.39
  -2  -2   9    2.40    0.32
   1   3  -9    0.16    0.47
  -1  -3   9    0.21    0.28
  -1  -3   9    0.13    0.23
   0   4  -9    0.39    0.50
   0  -4   9    0.29    0.22
   0  -4   9    0.44    0.29
  -1   5  -9    0.76    0.49
   1  -5   9    0.37    0.25
   1  -5   9    1.20    0.39
  -2   6  -9    1.58    0.36
  -2   6  -9    1.10    0.54
   2  -6   9    1.57    0.38
   2  -6   9    0.77    0.26
  -3   7  -9    1.10    0.44
  -3   7  -9    1.59    0.59
   3  -7   9    2.10    0.34
  -4   8  -9    2.11    0.65
  -4   8  -9    2.38    0.47
   4  -8   9    2.57    0.39
   4  -8   9    1.99    0.42
  -5   9  -9    0.05    0.62
   5  -9   9    0.81    0.35
   5  -9   9    0.67    0.39
   6 -10   9    0.02    0.37
   6 -10   9    0.13    0.36
  -7  11  -9   -0.22    0.49
  -9   6   8   -0.18    0.57
   8  -5  -8    0.28    0.42
  -8   5   8   -0.26    0.51
   7  -4  -8    1.19    0.44
  -7   4   8    0.85    0.51
   6  -3  -8   -0.34    0.42
  -6   3   8    0.86    0.46
   5  -2  -8    3.67    0.44
  -5   2   8    2.47    0.42
  -5   2   8    3.53    0.51
   4  -1  -8    0.30    0.30
   4  -1  -8   -0.19    0.55
  -4   1   8    0.77    0.30
  -4   1   8   -0.04    0.33
   3   0  -8    0.38    0.56
   3   0  -8    0.46    0.29
  -3   0   8    0.53    0.34
  -3   0   8   -0.12    0.25
   2   1  -8    6.16    0.45
   2   1  -8    5.71    0.79
  -2  -1   8    5.90    0.46
  -2  -1   8    5.83    0.55
   1   2  -8    2.07    0.57
   1   2  -8    1.71    0.28
  -1  -2   8    1.70    0.34
  -1  -2   8    1.52    0.28
   0   3  -8    0.48    0.24
   0   3  -8    0.19    0.45
   0  -3   8    0.59    0.34
   0  -3   8    0.35    0.23
   0  -3   8    0.35    0.29
  -1   4  -8    6.30    0.72
   1  -4   8    5.78    0.39
   1  -4   8    6.29    0.52
  -2   5  -8   12.54    0.70
  -2   5  -8   12.37    0.92
   2  -5   8   11.99    0.76
   2  -5   8   12.32    0.54
  -3   6  -8    0.26    0.46
  -3   6  -8    0.39    0.35
   3  -6   8    0.09    0.28
   3  -6   8    0.08    0.33
   3  -6   8    0.53    0.25
  -4   7  -8    1.28    0.54
   4  -7   8    0.65    0.34
   4  -7   8    0.67    0.30
  -5   8  -8    2.49    0.69
  -5   8  -8    2.30    0.47
   5  -8   8    1.81    0.43
   5  -8   8    2.26    0.40
  -6   9  -8    1.47    0.49
   6  -9   8    0.76    0.40
   6  -9   8    0.88    0.43
  -7  10  -8    0.58    0.51
   7 -10   8    0.19    0.40
  -8  11  -8    0.48    0.51
  -9   7   7   -0.08    0.56
   8  -6  -7    0.42    0.40
  -8   6   7   -0.35    0.50
   7  -5  -7    0.87    0.43
  -7   5   7    0.13    0.48
  -6   4   7    0.04    0.41
   5  -3  -7    0.79    0.33
  -5   3   7    0.80    0.40
   4  -2  -7    4.17    0.79
   4  -2  -7    3.77    0.42
  -4   2   7    3.30    0.39
  -4   2   7    4.09    0.49
   3  -1  -7    0.83    0.57
   3  -1  -7    0.81    0.30
  -3   1   7    0.62    0.27
  -3   1   7    0.63    0.31
   2   0  -7    4.20    0.41
   2   0  -7    3.37    0.64
  -2   0   7    3.23    0.43
  -2   0   7    4.34    0.45
   1   1  -7    3.84    0.62
   1   1  -7    3.45    0.43
  -1  -1   7    3.35    0.34
  -1  -1   7    3.17    0.42
   0   2  -7   31.05    0.89
   0   2  -7   30.53    1.23
   0  -2   7   29.65    0.97
   0  -2   7   30.46    1.17
   0  -2   7   29.43    0.88
  -1   3  -7    5.60    0.42
  -1   3  -7    4.83    0.63
   1  -3   7    4.31    0.48
   1  -3   7    5.37    0.45
   1  -3   7    4.68    0.40
  -2   4  -7   32.08    1.10
  -2   4  -7   32.59    1.28
   2  -4   7   31.17    0.94
   2  -4   7   34.59    1.06
   2  -4   7   31.78    1.26
  -3   5  -7    6.69    0.58
  -3   5  -7    7.72    0.80
   3  -5   7    6.86    0.52
   3  -5   7    7.87    0.65
   3  -5   7    7.23    0.50
   3  -5   7    7.36    0.48
  -4   6  -7    4.15    0.52
  -4   6  -7    2.26    0.60
   4  -6   7    2.96    0.37
   4  -6   7    2.64    0.40
  -5   7  -7    0.32    0.38
  -5   7  -7    0.42    0.52
   5  -7   7    0.40    0.33
   5  -7   7    0.29    0.30
  -6   8  -7    0.51    0.46
  -6   8  -7    0.40    0.59
   6  -8   7    1.05    0.37
   6  -8   7    0.59    0.40
  -7   9  -7   -0.04    0.47
   7  -9   7    0.05    0.38
   7  -9   7    0.10    0.40
  -8  10  -7   -0.27    0.51
  -9   8   6   -0.60    0.54
  -8   7   6    0.35    0.53
   7  -6  -6    0.33    0.37
  -7   6   6   -0.16    0.47
  -6   5   6    0.03    0.42
   5  -4  -6    0.21    0.29
  -5   4   6   -0.20    0.36
   4  -3  -6    0.58    0.28
  -4   3   6    0.28    0.34
  -4   3   6   -0.44    0.28
   3  -2  -6    1.42    0.59
   3  -2  -6    1.14    0.28
  -3   2   6    1.35    0.27
  -3   2   6    1.24    0.35
   2  -1  -6   31.45    1.30
   2  -1  -6   31.40    0.93
  -2   1   6   31.25    1.07
  -2   1   6   31.73    0.91
   1   0  -6   16.88    0.96
   1   0  -6   16.98    0.60
   1   0  -6   16.78    0.76
  -1   0   6   16.91    0.78
  -1   0   6   16.70    0.58
  -1   0   6   17.01    0.68
   0   1  -6   15.23    0.55
   0   1  -6   15.33    0.88
   0  -1   6   16.11    0.78
   0  -1   6   14.73    0.62
  -1   2  -6    1.44    0.44
  -1   2  -6    1.26    0.23
   1  -2   6    0.97    0.21
   1  -2   6    1.12    0.28
   1  -2   6    1.11    0.30
  -2   3  -6   30.63    1.21
  -2   3  -6   31.74    0.87
  -2   3  -6   31.13    1.05
   2  -3   6   31.36    1.02
   2  -3   6   31.24    0.91
   2  -3   6   33.46    1.04
  -3   4  -6    6.82    0.74
  -3   4  -6    4.89    0.54
  -3   4  -6    6.82    0.45
   3  -4   6    6.28    0.56
   3  -4   6    5.82    0.50
   3  -4   6    6.39    0.45
   3  -4   6    7.23    0.62
  -4   5  -6    0.61    0.48
  -4   5  -6    0.92    0.32
   4  -5   6    0.42    0.26
   4  -5   6    0.17    0.33
   4  -5   6    0.75    0.32
  -5   6  -6    2.10    0.43
  -5   6  -6    1.28    0.59
   5  -6   6    2.35    0.42
   5  -6   6    1.62    0.32
  -6   7  -6    1.32    0.59
  -6   7  -6    1.31    0.45
   6  -7   6    1.40    0.40
   6  -7   6    1.37    0.37
  -7   8  -6    0.00    0.46
  -7   8  -6    0.09    0.61
   7  -8   6    0.81    0.37
   7  -8   6    0.39    0.41
  -8   9  -6   -0.04    0.51
   8  -9   6    0.61    0.39
   8  -9   6    0.51    0.44
  -9  10  -6   -0.16    0.52
  -8   8   5    0.23    0.53
   7  -7  -5   -0.03    0.36
  -7   7   5   -0.28    0.48
   6  -6  -5    0.37    0.32
  -6   6   5    0.10    0.42
   5  -5  -5    0.48    0.31
  -5   5   5    0.29    0.37
   4  -4  -5    0.85    0.28
  -4   4   5    1.17    0.37
   3  -3  -5    0.91    0.28
   3  -3  -5    0.94    0.56
  -3   3   5    0.81    0.32
  -3   3   5    0.30    0.24
   2  -2  -5    6.73    0.73
   2  -2  -5    6.33    0.40
   2  -2  -5    5.33    0.46
  -2   2   5    6.45    0.52
  -2   2   5    4.91    0.36
   1  -1  -5    6.34    0.38
   1  -1  -5    6.12    0.45
   1  -1  -5    6.41    0.65
  -1   1   5    6.97    0.39
  -1   1   5    6.58    0.49
   0   0  -5   69.37    1.63
   0   0  -5   68.73    1.76
   0   0  -5   70.10    2.16
   0   0   5   66.75    1.61
   0   0   5   69.96    2.17
  -1   1  -5    0.00    0.33
  -1   1  -5    0.21    0.19
   1  -1   5    0.45    0.18
   1  -1   5    0.04    0.20
   1  -1   5    0.24    0.24
   1  -1   5    0.20    0.24
  -2   2  -5    0.03    0.22
  -2   2  -5    0.37    0.37
  -2   2  -5    0.13    0.18
  -2   2  -5   -0.49    0.24
   2  -2   5    0.05    0.21
   2  -2   5    0.13    0.17
   2  -2   5    0.06    0.21
   2  -2   5   -0.19    0.24
   2  -2   5   -0.28    0.26
  -3   3  -5    3.00    0.36
  -3   3  -5    4.07    0.41
  -3   3  -5    4.45    0.60
   3  -3   5    3.92    0.48
   3  -3   5    3.76    0.51
   3  -3   5    3.29    0.34
   3  -3   5    3.72    0.42
  -4   4  -5    0.04    0.25
  -4   4  -5   -0.20    0.43
  -4   4  -5    0.34    0.32
   4  -4   5    0.11    0.30
   4  -4   5   -0.01    0.24
   4  -4   5   -0.29    0.34
   4  -4   5    0.11    0.28
  -5   5  -5    0.67    0.36
  -5   5  -5   -0.06    0.44
   5  -5   5    0.91    0.29
   5  -5   5    0.84    0.35
  -6   6  -5    0.30    0.36
  -6   6  -5   -0.07    0.48
   6  -6   5    0.17    0.27
   6  -6   5    0.25    0.33
  -7   7  -5    3.86    0.56
  -7   7  -5    3.64    0.81
   7  -7   5    3.94    0.54
   7  -7   5    4.16    0.47
  -8   8  -5    0.07    0.49
   8  -8   5    0.60    0.43
   8  -8   5    0.40    0.37
  -9   9  -5   -0.36    0.52
  -8   9   4   -0.19    0.52
   7  -8  -4    1.48    0.43
  -7   8   4    0.92    0.52
   6  -7  -4    0.25    0.34
  -6   7   4   -0.26    0.38
   5  -6  -4    2.77    0.39
  -5   6   4    2.23    0.42
   4  -5  -4    1.62    0.32
  -4   5   4    1.40    0.37
   3  -4  -4    7.37    0.57
   3  -4  -4    7.82    0.44
  -3   4   4    8.34    0.57
   2  -3  -4    9.28    0.48
   2  -3  -4    8.89    0.81
   2  -3  -4    8.42    0.53
  -2   3   4    9.48    0.51
  -2   3   4    9.77    0.43
   1  -2  -4   12.88    0.60
   1  -2  -4   12.07    0.82
   1  -2  -4   13.03    0.62
   1  -2  -4   12.94    0.47
  -1   2   4   11.81    0.47
  -1   2   4   12.57    0.62
  -1   2   4   12.26    0.58
   0  -1  -4    6.08    0.37
   0  -1  -4    7.40    0.42
   0  -1  -4    6.22    0.42
   0  -1  -4    6.19    0.58
   0   1   4    6.60    0.44
   0   1   4    5.72    0.46
   0   1   4    6.69    0.32
  -1   0  -4    2.56    0.26
  -1   0  -4    2.96    0.34
  -1   0  -4    1.86    0.33
  -1   0  -4    3.15    0.44
   1   0   4    2.22    0.33
   1   0   4    2.66    0.28
  -2   1  -4    0.48    0.34
  -2   1  -4    1.11    0.26
  -2   1  -4    0.41    0.19
   2  -1   4   -0.07    0.25
   2  -1   4    0.33    0.19
   2  -1   4    0.43    0.17
   2  -1   4    0.43    0.20
   2  -1   4    0.16    0.22
  -3   2  -4    0.57    0.41
  -3   2  -4    0.10    0.22
  -3   2  -4    0.24    0.20
   3  -2   4   -0.45    0.28
   3  -2   4    0.19    0.19
   3  -2   4    0.38    0.25
   3  -2   4    0.43    0.26
  -4   3  -4    0.00    0.42
  -4   3  -4    0.23    0.29
  -4   3  -4    0.06    0.24
   4  -3   4   -0.01    0.26
   4  -3   4   -0.16    0.22
   4  -3   4    0.10    0.28
  -5   4  -4   -0.25    0.43
  -5   4  -4    0.16    0.25
  -5   4  -4   -0.15    0.29
   5  -4   4   -0.10    0.28
   5  -4   4    0.09    0.25
  -6   5  -4    0.02    0.36
  -6   5  -4    0.13    0.48
   6  -5   4    0.03    0.32
   6  -5   4   -0.15    0.29
  -7   6  -4    0.30    0.57
  -7   6  -4    0.14    0.38
   7  -6   4    0.57    0.35
   7  -6   4    0.09    0.35
  -8   7  -4    0.32    0.49
  -8   7  -4    0.62    0.66
   8  -7   4    0.22    0.40
   8  -7   4    0.65    0.44
  -9   8  -4   -0.08    0.52
   9  -8   4    0.33    0.42
   9  -8   4    0.69    0.46
 -10   9  -4   -0.16    0.54
  -8  10   3   -0.07    0.51
   7  -9  -3    0.84    0.41
  -7   9   3    0.82    0.51
   6  -8  -3    0.04    0.35
  -6   8   3    0.33    0.44
   5  -7  -3    1.98    0.38
  -5   7   3    1.06    0.39
   4  -6  -3    2.94    0.36
  -4   6   3    2.44    0.39
   3  -5  -3    7.78    0.48
  -3   5   3    8.20    0.55
   2  -4  -3    4.67    0.59
   2  -4  -3    4.57    0.44
   2  -4  -3    3.88    0.37
   2  -4  -3    4.58    0.42
  -2   4   3    3.71    0.44
  -2   4   3    3.47    0.28
   1  -3  -3    0.47    0.33
   1  -3  -3    0.66    0.18
   1  -3  -3    0.67    0.20
   1  -3  -3    0.95    0.24
  -1   3   3    0.56    0.23
  -1   3   3    0.30    0.16
   0  -2  -3  109.20    3.20
   0  -2  -3  105.59    2.39
   0  -2  -3  107.90    2.24
   0  -2  -3  106.73    3.19
   0   2   3  106.77    2.75
   0   2   3  107.66    2.38
   0   2   3  111.52    3.21
  -1  -1  -3    0.99    0.32
  -1  -1  -3    0.85    0.20
  -1  -1  -3    0.67    0.16
  -1  -1  -3    0.62    0.20
   1   1   3    0.72    0.16
   1   1   3    0.75    0.23
   1   1   3    0.99    0.24
  -2   0  -3   70.89    1.65
  -2   0  -3   73.39    2.22
  -2   0  -3   70.68    1.87
  -2   0  -3   70.88    1.72
   2   0   3   69.56    1.86
   2   0   3   72.48    1.92
   2   0   3   73.34    1.66
  -3   1  -3    5.28    0.35
  -3   1  -3    5.50    0.45
  -3   1  -3    5.07    0.56
  -3   1  -3    5.99    0.39
   3  -1   3    5.22    0.45
   3  -1   3    5.06    0.34
   3  -1   3    5.40    0.43
  -4   2  -3    1.31    0.46
  -4   2  -3    2.32    0.33
  -4   2  -3    1.96    0.26
   4  -2   3    1.65    0.33
   4  -2   3    2.10    0.33
   4  -2   3    1.55    0.25
   4  -2   3    2.41    0.41
  -5   3  -3    2.81    0.40
  -5   3  -3    2.73    0.33
  -5   3  -3    2.97    0.61
   5  -3   3    2.65    0.35
   5  -3   3    2.37    0.47
   5  -3   3    3.23    0.43
  -6   4  -3    0.45    0.34
  -6   4  -3    0.05    0.28
  -6   4  -3    0.16    0.48
   6  -4   3    0.23    0.35
   6  -4   3   -0.81    0.37
   6  -4   3    0.40    0.30
  -7   5  -3    2.26    0.47
  -7   5  -3    2.19    0.68
   7  -5   3    2.46    0.39
   7  -5   3    2.17    0.52
   7  -5   3    2.85    0.50
  -8   6  -3    2.07    0.52
  -8   6  -3    0.90    0.72
   8  -6   3    1.53    0.43
   8  -6   3    2.25    0.50
  -9   7  -3   -0.11    0.50
   9  -7   3    0.75    0.43
   9  -7   3    0.35    0.45
 -10   8  -3   -0.40    0.53
  -8  11   2   -0.56    0.50
  -7  10   2   -0.30    0.47
   6  -9  -2   -0.21    0.34
  -6   9   2   -0.01    0.43
   5  -8  -2    0.07    0.30
  -5   8   2    0.09    0.35
   4  -7  -2    0.87    0.29
  -4   7   2    0.84    0.34
   3  -6  -2    0.74    0.25
  -3   6   2    0.92    0.29
   2  -5  -2    6.48    0.40
   2  -5  -2    6.26    0.45
   2  -5  -2    6.32    0.45
  -2   5   2    5.81    0.45
   1  -4  -2   16.45    0.69
   1  -4  -2   16.16    0.77
   1  -4  -2   17.72    0.69
   1  -4  -2   16.86    0.55
  -1   4   2   16.63    0.63
   0  -3  -2    1.08    0.16
   0  -3  -2    0.94    0.21
   0  -3  -2    1.20    0.30
   0  -3  -2    1.21    0.19
   0   3   2    0.80    0.15
   0   3   2    1.28    0.22
  -1  -2  -2    7.77    0.34
  -1  -2  -2    7.02    0.42
  -1  -2  -2    7.37    0.50
  -1  -2  -2    8.05    0.44
  -1  -2  -2    8.07    0.37
   1   2   2    7.28    0.38
   1   2   2    7.79    0.31
  -2  -1  -2   57.83    1.58
  -2  -1  -2   60.23    1.87
  -2  -1  -2   60.77    1.46
  -2  -1  -2   60.77    1.40
  -2  -1  -2   59.91    1.87
   2   1   2   62.52    1.89
   2   1   2   62.13    1.40
   2   1   2   59.58    1.57
   2   1   2   58.69    1.63
  -3   0  -2    1.94    0.40
  -3   0  -2    1.76    0.22
  -3   0  -2    1.32    0.25
  -3   0  -2    1.60    0.28
   3   0   2    1.66    0.21
   3   0   2    1.81    0.25
   3   0   2    1.16    0.25
  -4   1  -2    0.21    0.25
  -4   1  -2    0.34    0.21
  -4   1  -2    0.20    0.38
  -4   1  -2   -0.05    0.25
   4  -1   2    0.01    0.20
   4  -1   2    0.20    0.25
  -5   2  -2    8.99    0.86
  -5   2  -2    9.43    0.49
  -5   2  -2   10.25    0.62
   5  -2   2   10.21    0.66
   5  -2   2    9.43    0.51
  -6   3  -2   -0.21    0.46
  -6   3  -2    0.08    0.28
  -6   3  -2    0.06    0.34
   6  -3   2    0.15    0.34
   6  -3   2    0.06    0.26
  -7   4  -2    1.54    0.42
  -7   4  -2    0.86    0.60
  -7   4  -2    1.01    0.35
   7  -4   2    1.76    0.45
   7  -4   2    1.19    0.37
  -8   5  -2    0.88    0.46
  -8   5  -2    0.54    0.65
   8  -5   2    0.17    0.38
   8  -5   2    0.83    0.46
  -9   6  -2    0.70    0.53
  -9   6  -2    1.34    0.76
   9  -6   2    1.17    0.51
   9  -6   2    1.75    0.47
 -10   7  -2   -0.14    0.53
  10  -7   2    0.97    0.54
   6 -10  -1    0.60    0.38
  -6  10   1    0.63    0.47
   5  -9  -1    1.97    0.50
   5  -9  -1    0.54    0.32
  -5   9   1    0.54    0.38
   4  -8  -1    1.31    0.32
   4  -8  -1    2.27    0.44
  -4   8   1    0.96    0.35
   3  -7  -1    0.14    0.28
   3  -7  -1    0.06    0.22
  -3   7   1    0.13    0.26
   2  -6  -1    4.48    0.38
   2  -6  -1    3.99    0.41
   2  -6  -1    4.86    0.39
  -2   6   1    4.45    0.43
   1  -5  -1    5.95    0.42
   1  -5  -1    7.12    0.41
   1  -5  -1    6.23    0.35
   1  -5  -1    6.88    0.37
  -1   5   1    6.72    0.39
   0  -4  -1    1.82    0.24
   0  -4  -1    1.60    0.20
   0  -4  -1    1.73    0.23
   0  -4  -1    1.71    0.17
   0   4   1    2.04    0.23
  -1  -3  -1    0.33    0.15
  -1  -3  -1    0.11    0.15
  -1  -3  -1    0.25    0.13
  -1  -3  -1    0.21    0.17
  -2  -2  -1   23.97    0.80
  -2  -2  -1   23.75    0.85
  -2  -2  -1   24.20    0.85
  -2  -2  -1   22.93    0.63
  -2  -2  -1   22.70    0.75
   2   2   1   24.25    0.63
   2   2   1   23.24    0.71
  -3  -1  -1    0.77    0.21
  -3  -1  -1    0.80    0.24
  -3  -1  -1    0.83    0.19
  -3  -1  -1    0.84    0.34
  -3  -1  -1    0.72    0.22
   3   1   1    1.19    0.23
   3   1   1    0.81    0.18
   3   1   1    0.65    0.23
  -4   0  -1   29.10    1.10
  -4   0  -1   29.99    0.94
  -4   0  -1   29.53    1.10
  -4   0  -1   28.99    0.82
   4   0   1   29.41    1.12
   4   0   1   29.78    0.84
   4   0   1   29.12    0.94
  -5   1  -1   25.26    0.89
  -5   1  -1   26.39    0.81
  -5   1  -1   25.23    0.80
  -5   1  -1   26.19    1.17
   5  -1   1   26.40    0.84
   5  -1   1   27.18    0.95
  -6   2  -1    3.01    0.43
  -6   2  -1    2.55    0.67
  -6   2  -1    2.87    0.35
  -6   2  -1    2.85    0.35
   6  -2   1    2.82    0.44
   6  -2   1    2.93    0.37
  -7   3  -1   -0.13    0.31
  -7   3  -1    0.48    0.38
  -7   3  -1    0.68    0.55
   7  -3   1   -0.02    0.33
   7  -3   1   -0.62    0.37
  -8   4  -1    0.43    0.60
  -8   4  -1    0.61    0.40
   8  -4   1    0.16    0.38
   8  -4   1   -0.48    0.44
  -9   5  -1    0.00    0.47
  -9   5  -1   -0.16    0.65
   9  -5   1   -0.95    0.40
   9  -5   1   -0.60    0.48
 -10   6  -1    0.31    0.54
  10  -6   1    0.35    0.49
  10  -6   1    0.78    0.42
 -11   7  -1    0.01    0.55
   6 -11   0    0.33    0.36
   5 -10   0    1.83    0.38
   4  -9   0    0.78    0.29
   3  -8   0    1.04    0.28
   3  -8   0    0.64    0.25
   2  -7   0    6.70    0.46
   2  -7   0    7.02    0.46
   2  -7   0    7.04    0.39
   1  -6   0    0.67    0.18
   1  -6   0    0.25    0.19
   1  -6   0    0.53    0.23
   1  -6   0    0.63    0.22
   0  -5   0   -0.02    0.16
   0  -5   0   -0.07    0.14
   0  -5   0    0.25    0.18
   0  -5   0    0.10    0.13
  -1  -4   0   19.69    0.51
  -1  -4   0   19.00    0.65
  -1  -4   0   19.00    0.68
  -1  -4   0   19.37    0.67
  -2  -3   0   18.43    0.69
  -2  -3   0   18.02    0.65
  -2  -3   0   19.13    0.69
  -2  -3   0   18.58    0.52
  -3  -2   0   48.81    1.19
  -3  -2   0   51.14    1.33
  -3  -2   0   49.20    1.59
  -3  -2   0   50.65    1.60
  -3  -2   0   49.01    1.28
  -3  -2   0   47.83    1.42
  -3  -2   0   49.24    1.19
   3   2   0   51.98    1.18
  -4  -1   0   29.99    1.08
  -4  -1   0   28.81    0.82
  -4  -1   0   28.30    0.90
  -4  -1   0   28.47    1.09
  -4  -1   0   29.82    1.10
   4   1   0   29.64    0.80
   4   1   0   29.52    0.92
   4   1   0   29.36    1.08
  -5   0   0   22.22    0.83
  -5   0   0   21.54    0.72
  -5   0   0   23.84    1.09
   5   0   0   23.24    0.85
   5   0   0   23.34    0.73
  -6   1   0    7.74    0.48
  -6   1   0    7.60    0.60
  -6   1   0    7.63    0.82
   6  -1   0    6.95    0.55
   6  -1   0    7.54    0.62
  -7   2   0    0.81    0.33
  -7   2   0    0.93    0.59
  -7   2   0    1.13    0.38
  -7   2   0    0.81    0.34
   7  -2   0    0.79    0.43
   7  -2   0    1.08    0.34
  -8   3   0    1.31    0.36
  -8   3   0    1.29    0.41
  -8   3   0    1.77    0.38
  -8   3   0    0.64    0.61
   8  -3   0    1.70    0.39
   8  -3   0    1.42    0.52
  -9   4   0   -0.01    0.66
  -9   4   0    0.18    0.47
   9  -4   0   -0.86    0.50
   9  -4   0    0.67    0.42
 -10   5   0    0.82    0.51
  10  -5   0   -0.83    0.45
  10  -5   0   -1.34    0.57
 -11   6   0   -0.20    0.55
   5 -11   1    0.71    0.34
   4 -10   1    0.71    0.28
   3  -9   1    5.31    0.44
   3  -9   1    5.78    0.40
   2  -8   1    2.24    0.33
   2  -8   1    1.75    0.23
   2  -8   1    2.19    0.32
   1  -7   1    4.12    0.31
   1  -7   1    3.79    0.45
   1  -7   1    3.54    0.30
   1  -7   1    4.31    0.31
   0  -6   1    3.64    0.26
   0  -6   1    3.44    0.26
   0  -6   1    3.86    0.26
   0  -6   1    3.71    0.35
  -1  -5   1   17.23    0.59
  -1  -5   1   17.13    0.61
  -1  -5   1   17.57    0.66
  -1  -5   1   17.64    0.46
   1   5  -1   16.91    0.59
  -2  -4   1   46.27    1.40
  -2  -4   1   43.43    1.29
  -2  -4   1   45.82    1.05
  -2  -4   1   44.93    1.40
  -3  -3   1   79.92    2.35
  -3  -3   1   78.22    1.75
  -3  -3   1   75.41    2.09
  -3  -3   1   76.59    2.34
  -4  -2   1   21.05    0.84
  -4  -2   1   19.07    0.68
  -4  -2   1   20.89    0.81
  -4  -2   1   19.74    0.88
  -4  -2   1   19.70    0.64
  -4  -2   1   20.75    0.85
   4   2  -1   22.24    0.62
   4   2  -1   21.16    0.73
  -5  -1   1   25.98    1.13
  -5  -1   1   24.59    0.76
  -5  -1   1   25.03    0.86
  -5  -1   1   24.98    1.01
   5   1  -1   26.42    0.77
   5   1  -1   25.34    0.88
  -6   0   1    0.08    0.45
  -6   0   1    0.73    0.32
  -6   0   1    0.54    0.28
   6   0  -1    0.14    0.33
   6   0  -1    0.05    0.25
  -7   1   1    1.10    0.35
  -7   1   1    1.33    0.32
  -7   1   1    1.24    0.56
   7  -1  -1    1.51    0.34
   7  -1  -1    1.58    0.41
  -8   2   1   -0.05    0.38
  -8   2   1    0.09    0.32
   8  -2  -1    0.42    0.32
   8  -2  -1    0.19    0.39
  -9   3   1    0.02    0.39
  -9   3   1    0.49    0.39
  -9   3   1   -0.01    0.41
   9  -3  -1    0.18    0.48
   9  -3  -1    1.19    0.42
 -10   4   1    0.35    0.52
  10  -4  -1   -0.48    0.59
  10  -4  -1    0.69    0.46
 -11   5   1   -0.34    0.53
   5 -12   2    0.64    0.32
   4 -11   2    0.32    0.29
   3 -10   2    0.05    0.24
   3 -10   2    0.57    0.24
   3 -10   2    0.39    0.23
   2  -9   2   -0.46    0.34
   2  -9   2    0.73    0.21
   2  -9   2    0.35    0.20
   2  -9   2    0.48    0.21
   1  -8   2   23.95    0.63
   1  -8   2   22.53    0.76
   1  -8   2   24.75    0.93
   1  -8   2   23.27    0.76
   0  -7   2    3.68    0.46
   0  -7   2    3.29    0.23
  -1  -6   2   13.81    0.46
  -1  -6   2   14.83    0.39
  -1  -6   2   15.12    0.66
  -2  -5   2    7.49    0.38
  -2  -5   2    8.64    0.39
  -2  -5   2    8.05    0.31
  -2  -5   2    7.54    0.45
  -3  -4   2   35.69    1.17
  -3  -4   2   35.49    1.17
  -3  -4   2   35.32    1.12
  -3  -4   2   34.72    0.88
  -4  -3   2    9.53    0.43
  -4  -3   2    8.98    0.55
  -4  -3   2    9.46    0.57
  -4  -3   2    8.66    0.52
   4   3  -2    9.54    0.84
  -5  -2   2    2.12    0.36
  -5  -2   2    1.80    0.26
  -5  -2   2    2.16    0.29
  -5  -2   2    1.49    0.31
   5   2  -2    2.31    0.59
  -6  -1   2   23.57    0.81
  -6  -1   2   24.43    0.98
  -7   0   2    2.48    0.44
  -7   0   2    1.76    0.38
  -7   0   2    0.90    0.32
   7   0  -2    2.29    0.41
   7   0  -2    1.65    0.75
  -8   1   2    0.52    0.34
  -8   1   2    0.15    0.38
   8  -1  -2   -0.13    0.41
  -9   2   2    0.18    0.44
  -9   2   2    0.36    0.39
   9  -2  -2    0.79    0.48
 -10   3   2   -0.01    0.49
  10  -3  -2   -0.95    0.50
 -11   4   2   -0.07    0.54
   3 -11   3    0.53    0.20
   2 -10   3    0.39    0.14
   1  -9   3    1.43    0.36
   0  -8   3    6.42    0.56
  -1  -7   3   12.83    0.64
  -2  -6   3    0.51    0.13
  -2  -6   3    1.09    0.15
  -2  -6   3    0.82    0.28
  -2  -6   3    0.87    0.14
  -3  -5   3   18.30    0.71
  -3  -5   3   19.25    0.55
  -3  -5   3   18.27    0.74
  -3  -5   3   18.59    0.70
  -4  -4   3    0.00    0.22
  -4  -4   3    0.05    0.23
  -4  -4   3   -0.03    0.18
  -4  -4   3    0.08    0.24
   4   4  -3    0.10    0.45
  -5  -3   3    0.08    0.29
  -5  -3   3    0.53    0.30
  -5  -3   3   -0.13    0.22
   5   3  -3   -0.65    0.46
  -6  -2   3    0.30    0.32
  -6  -2   3   -0.05    0.27
  -6  -2   3    0.17    0.22
  -6  -2   3    0.03    0.32
   6   2  -3   -0.39    0.50
  -7  -1   3   -0.46    0.32
  -7  -1   3    0.16    0.32
   7   1  -3   -0.31    0.61
  -8   0   3    4.63    0.58
  -8   0   3    5.34    0.48
  -8   0   3    4.11    0.58
   8   0  -3    3.65    0.86
  -9   1   3   -0.43    0.41
  -9   1   3    0.06    0.44
  -9   1   3   -0.40    0.46
   9  -1  -3    0.76    0.79
 -10   2   3    1.81    0.47
 -10   2   3    0.47    0.51
 -10   2   3   -0.12    0.54
 -11   3   3   -0.09    0.53
   1 -10   4    2.23    0.45
   0  -9   4    1.63    0.38
  -1  -8   4    2.54    0.39
  -2  -7   4   -0.10    0.26
  -2  -7   4    0.09    0.13
  -3  -6   4    0.53    0.18
  -3  -6   4    0.35    0.17
  -3  -6   4    0.28    0.26
  -3  -6   4    0.14    0.20
   3   6  -4    0.33    0.39
  -4  -5   4    1.75    0.34
  -4  -5   4    1.55    0.23
  -4  -5   4    1.05    0.26
  -4  -5   4    1.56    0.29
   4   5  -4    1.83    0.52
  -5  -4   4   -0.27    0.27
  -5  -4   4    0.11    0.29
  -5  -4   4   -0.03    0.22
   5   4  -4    0.01    0.48
  -6  -3   4    0.10    0.31
  -6  -3   4    0.15    0.25
  -6  -3   4   -0.06    0.30
   6   3  -4    0.52    0.57
  -7  -2   4    0.77    0.27
  -7  -2   4    0.51    0.37
   7   2  -4    0.18    0.62
  -8  -1   4    0.30    0.40
  -8  -1   4    0.20    0.36
   8   1  -4   -0.29    0.61
  -9   0   4    0.29    0.46
  -9   0   4    0.03    0.45
  -9   0   4    0.12    0.35
   9   0  -4    1.70    0.84
 -10   1   4    0.32    0.51
 -10   1   4   -0.64    0.43
 -10   1   4   -1.11    0.49
 -11   2   4    0.03    0.54
   1 -11   5    0.87    0.42
   0 -10   5    0.58    0.40
  -1  -9   5    9.62    0.69
  -2  -8   5    0.70    0.35
  -3  -7   5    3.20    0.26
  -3  -7   5    3.11    0.29
  -3  -7   5    3.33    0.28
  -3  -7   5    3.41    0.44
   3   7  -5    3.39    0.47
  -4  -6   5    0.25    0.24
  -4  -6   5   -0.29    0.20
  -4  -6   5    0.02    0.27
  -4  -6   5   -0.11    0.20
   4   6  -5    0.15    0.43
  -5  -5   5    1.35    0.30
  -5  -5   5    1.21    0.35
  -5  -5   5    1.14    0.31
  -5  -5   5    1.01    0.25
   5   5  -5    1.21    0.54
  -6  -4   5    1.17    0.29
  -6  -4   5    1.30    0.37
  -6  -4   5    2.01    0.39
   6   4  -5    0.46    0.58
  -7  -3   5   -0.17    0.29
  -7  -3   5    0.08    0.34
   7   3  -5   -0.77    0.57
  -8  -2   5    1.57    0.35
  -8  -2   5    1.30    0.43
   8   2  -5    1.53    0.72
  -9  -1   5    0.31    0.44
   9   1  -5    0.61    0.74
 -10   0   5   -1.12    0.40
   0 -11   6    0.57    0.41
  -1 -10   6    0.84    0.41
  -2  -9   6    0.27    0.35
  -3  -8   6    4.30    0.58
   3   8  -6    3.85    0.48
  -4  -7   6   -0.16    0.31
  -4  -7   6    0.30    0.22
  -4  -7   6    0.12    0.21
  -4  -7   6    0.07    0.21
   4   7  -6    0.45    0.45
  -5  -6   6   -0.14    0.23
  -5  -6   6   -0.18    0.24
  -5  -6   6    0.12    0.33
  -5  -6   6    0.40    0.26
   5   6  -6    0.79    0.56
  -6  -5   6   -0.15    0.32
  -6  -5   6   -0.18    0.25
  -6  -5   6   -0.37    0.28
   6   5  -6    0.74    0.59
  -7  -4   6   -0.01    0.30
  -7  -4   6    0.34    0.33
   7   4  -6   -0.16    0.62
  -8  -3   6    0.93    0.39
  -8  -3   6    1.47    0.39
   8   3  -6    1.61    0.78
  -9  -2   6   -0.15    0.42
  -9  -2   6   -0.29    0.38
   9   2  -6   -0.78    0.69
   0 -12   7    0.83    0.50
  -1 -11   7    0.32    0.43
  -2 -10   7    0.52    0.41
  -3  -9   7    0.95    0.38
  -4  -8   7    0.67    0.23
  -4  -8   7    0.94    0.40
  -4  -8   7    0.77    0.22
   4   8  -7    0.53    0.48
  -5  -7   7    3.96    0.45
  -5  -7   7    3.96    0.42
  -5  -7   7    2.85    0.34
  -5  -7   7    3.30    0.50
   5   7  -7    2.71    0.66
  -6  -6   7    0.63    0.37
  -6  -6   7    0.24    0.30
  -6  -6   7    0.36    0.30
   6   6  -7    0.72    0.65
  -7  -5   7    0.66    0.35
  -7  -5   7    0.84    0.41
   7   5  -7    0.72    0.67
  -8  -4   7   -0.07    0.39
  -8  -4   7   -0.59    0.35
   8   4  -7    1.12    0.77
  -9  -3   7    0.29    0.38
  -9  -3   7   -0.12    0.44
  -1 -12   8    0.74    0.52
  -2 -11   8    0.60    0.49
  -3 -10   8    0.15    0.39
  -4  -9   8    0.65    0.44
  -5  -8   8    0.49    0.41
  -5  -8   8    0.72    0.28
  -5  -8   8    0.82    0.31
   5   8  -8    0.89    0.59
  -6  -7   8    0.88    0.44
  -6  -7   8    0.26    0.33
   6   7  -8    0.96    0.69
  -7  -6   8   -0.10    0.35
  -7  -6   8    0.35    0.41
  -7  -6   8   -0.31    0.32
   7   6  -8    0.66    0.68
  -8  -5   8    0.10    0.38
  -8  -5   8    0.72    0.45
  -9  -4   8   -0.12    0.40
  -9  -4   8    0.00    0.44
  -1 -13   9    0.60    0.55
  -2 -12   9    0.03    0.46
  -3 -11   9    1.03    0.53
  -4 -10   9    0.74    0.48
  -5  -9   9    1.37    0.50
   5   9  -9    0.37    0.59
  -6  -8   9    0.32    0.45
  -6  -8   9   -0.22    0.32
   6   8  -9    0.72    0.67
  -7  -7   9   -0.24    0.35
  -7  -7   9    0.21    0.43
  -8  -6   9    0.14    0.43
  -8  -6   9   -0.34    0.37
  -2 -13  10    0.55    0.53
  -3 -12  10    0.47    0.51
  -4 -11  10    0.23    0.50
  -5 -10  10    0.69    0.49
  -6  -9  10   -0.76    0.32
  -6  -9  10    0.20    0.47
  -7  -8  10    0.17    0.37
  -7  -8  10    0.89    0.49
  -8  -7  10    0.75    0.48
  -4 -12  11    1.24    0.56
  -5 -11  11    0.48    0.52
  -6 -10  11    0.65    0.51
  -7  -9  11    0.82    0.51
  -4  -4  14    0.45    0.38
  -3  -5  14    0.09    0.34
  -2  -6  14   -0.40    0.38
  -1  -7  14    1.19    0.43
   0  -8  14   -0.19    0.35
  -5  -2  13   -0.36    0.41
  -4  -3  13    0.02    0.34
   3   4 -13   -0.04    0.70
  -3  -4  13    0.64    0.37
   2   5 -13   -0.40    0.61
  -2  -5  13    0.60    0.37
   1   6 -13    0.77    0.70
  -1  -6  13    0.64    0.38
   0   7 -13    0.08    0.65
   0  -7  13    0.45    0.35
   1  -8  13    1.70    0.40
   2  -9  13    0.57    0.37
  -8   2  12   -0.32    0.56
  -7   1  12   -0.15    0.53
  -6   0  12    0.16    0.49
  -6   0  12    2.78    0.59
   5   1 -12    0.80    0.85
  -5  -1  12    1.26    0.51
   4   2 -12   -0.27    0.74
  -4  -2  12    0.95    0.46
  -4  -2  12    1.02    0.39
   3   3 -12   -0.04    0.68
  -3  -3  12    0.45    0.32
   2   4 -12   -0.22    0.58
  -2  -4  12   -0.12    0.29
   1   5 -12    0.36    0.62
  -1  -5  12    0.78    0.34
   0   6 -12   -0.21    0.52
   0  -6  12    0.26    0.32
  -1   7 -12    0.12    0.58
   1  -7  12   -0.04    0.31
  -2   8 -12   -0.08    0.59
   2  -8  12    0.10    0.35
   3  -9  12    0.56    0.36
  -4  10 -12    1.63    0.53
  -8   3  11   -0.01    0.55
  -7   2  11   -0.17    0.52
  -6   1  11    2.82    0.61
  -6   1  11    2.84    0.47
   5   0 -11   -0.94    0.74
  -5   0  11    0.75    0.49
  -5   0  11    0.16    0.37
   4   1 -11   -0.08    0.66
  -4  -1  11    1.10    0.37
  -4  -1  11    0.96    0.46
   3   2 -11    5.74    0.95
  -3  -2  11    5.93    0.52
  -3  -2  11    5.95    0.62
   2   3 -11    0.69    0.65
  -2  -3  11    0.95    0.33
  -2  -3  11    1.12    0.38
   1   4 -11   -0.32    0.50
  -1  -4  11    0.40    0.29
   0   5 -11   -0.06    0.52
   0  -5  11   -0.14    0.24
  -1   6 -11   -0.32    0.53
   1  -6  11    0.07    0.29
  -2   7 -11    0.12    0.54
   2  -7  11    0.22    0.31
  -3   8 -11    1.10    0.48
  -3   8 -11    0.38    0.61
   3  -8  11    0.61    0.35
  -4   9 -11    0.50    0.53
   4  -9  11    1.38    0.40
  -8   4  10   -0.07    0.54
  -7   3  10   -0.34    0.50
  -6   2  10    0.23    0.48
   5  -1 -10    0.88    0.40
  -5   1  10   -0.53    0.33
  -5   1  10    0.24    0.42
   4   0 -10   16.54    0.76
  -4   0  10   16.25    0.72
  -4   0  10   18.91    0.93
   3   1 -10    0.77    0.66
  -3  -1  10    0.48    0.38
  -3  -1  10    0.88    0.29
   2   2 -10    1.93    0.69
  -2  -2  10    1.51    0.39
  -2  -2  10    1.29    0.30
   1   3 -10    0.61    0.55
  -1  -3  10    0.48    0.33
  -1  -3  10    0.49    0.28
   0   4 -10    0.60    0.52
   0  -4  10    2.04    0.37
   0  -4  10    1.64    0.32
  -1   5 -10    1.16    0.57
   1  -5  10    1.06    0.31
  -2   6 -10    0.16    0.52
   2  -6  10    0.51    0.29
  -3   7 -10   -0.57    0.48
  -3   7 -10    0.81    0.42
   3  -7  10   -0.07    0.27
  -4   8 -10   -0.96    0.49
  -4   8 -10    0.07    0.55
   4  -8  10    0.28    0.32
  -5   9 -10    0.51    0.50
   5  -9  10    1.19    0.39
   5  -9  10    0.32    0.40
  -6  10 -10    1.56    0.53
   6 -10  10    0.80    0.43
  -7  11 -10    0.75    0.53
  -8   5   9    0.16    0.55
   7  -4  -9    0.46    0.42
  -7   4   9   -0.38    0.50
   6  -3  -9    1.37    0.41
  -6   3   9    1.01    0.51
   5  -2  -9    0.10    0.38
  -5   2   9    0.37    0.43
   4  -1  -9    0.31    0.66
   4  -1  -9    0.74    0.33
  -4   1   9    0.26    0.37
  -4   1   9    0.78    0.32
   3   0  -9    1.90    0.66
   3   0  -9    0.84    0.31
  -3   0   9    1.20    0.40
   2   1  -9   14.39    1.13
   2   1  -9   15.96    0.69
  -2  -1   9   15.40    0.68
  -2  -1   9   15.93    0.78
   1   2  -9    0.31    0.28
   1   2  -9    0.72    0.56
  -1  -2   9    0.48    0.33
  -1  -2   9    0.51    0.27
   0   3  -9    0.20    0.45
   0  -3   9    0.19    0.23
   0  -3   9    0.10    0.30
  -1   4  -9    1.07    0.51
   1  -4   9    1.91    0.30
   1  -4   9    2.02    0.37
  -2   5  -9    6.50    0.81
   2  -5   9    5.99    0.43
  -3   6  -9    1.06    0.46
  -3   6  -9    1.78    0.59
   3  -6   9    2.35    0.36
  -4   7  -9    1.44    0.45
  -4   7  -9    1.27    0.60
   4  -7   9    1.67    0.39
   4  -7   9    1.27    0.34
  -5   8  -9    1.64    0.71
  -5   8  -9    1.19    0.51
   5  -8   9    1.65    0.44
   5  -8   9    2.04    0.41
   6  -9   9    0.51    0.41
   6  -9   9    0.34    0.37
  -8   6   8    0.00    0.54
   7  -5  -8    0.82    0.40
  -7   5   8   -0.12    0.50
   6  -4  -8    0.04    0.40
  -6   4   8    0.29    0.45
   5  -3  -8    0.32    0.37
  -5   3   8    0.64    0.43
   4  -2  -8    0.13    0.30
  -4   2   8   -0.06    0.37
   3  -1  -8    0.50    0.31
   3  -1  -8    0.21    0.57
  -3   1   8   -0.01    0.27
  -3   1   8    0.09    0.34
   2   0  -8   12.36    0.62
   2   0  -8   11.99    0.97
  -2   0   8   10.63    0.59
  -2   0   8   11.46    0.64
   1   1  -8    5.51    0.50
   1   1  -8    5.43    0.75
  -1  -1   8    4.90    0.41
  -1  -1   8    4.46    0.56
   0   2  -8    0.58    0.49
   0   2  -8    0.36    0.26
   0  -2   8    0.35    0.32
   0  -2   8    0.12    0.22
  -1   3  -8    1.61    0.31
  -1   3  -8    1.48    0.53
   1  -3   8    1.89    0.28
   1  -3   8    1.80    0.36
  -2   4  -8    5.51    0.51
  -2   4  -8    4.81    0.71
   2  -4   8    4.89    0.40
   2  -4   8    5.16    0.46
  -3   5  -8    2.50    0.63
  -3   5  -8    2.72    0.47
   3  -5   8    2.81    0.38
   3  -5   8    1.99    0.37
   3  -5   8    2.63    0.35
  -4   6  -8    1.01    0.56
  -4   6  -8    1.29    0.40
   4  -6   8    1.41    0.33
   4  -6   8    0.89    0.35
  -5   7  -8    2.70    0.71
   5  -7   8    3.21    0.42
   5  -7   8    3.27    0.48
  -6   8  -8    1.88    0.49
  -6   8  -8    2.00    0.73
   6  -8   8    2.06    0.43
   6  -8   8    1.67    0.46
  -7   9  -8    0.48    0.48
   7  -9   8    0.22    0.39
   7  -9   8    0.38    0.38
  -8  10  -8    0.91    0.51
  -8   7   7   -0.06    0.53
   7  -6  -7    0.50    0.39
  -7   6   7   -0.42    0.49
   6  -5  -7   -0.70    0.36
  -6   5   7    0.18    0.46
   5  -4  -7    1.75    0.39
  -5   4   7    2.20    0.48
   4  -3  -7    0.23    0.29
  -4   3   7    0.21    0.37
   3  -2  -7    0.89    0.29
   3  -2  -7    1.53    0.63
  -3   2   7    1.12    0.37
  -3   2   7    1.26    0.30
   2  -1  -7    0.15    0.51
   2  -1  -7    0.53    0.26
  -2   1   7    0.37    0.25
  -2   1   7    0.20    0.30
   1   0  -7    8.48    0.48
   1   0  -7    9.42    0.90
  -1   0   7    7.90    0.46
  -1   0   7    8.23    0.61
   0   1  -7    8.07    0.79
   0   1  -7    7.55    0.52
   0  -1   7    7.40    0.59
  -1   2  -7    8.54    0.81
  -1   2  -7    8.28    0.52
   1  -2   7    7.52    0.56
   1  -2   7    8.42    0.48
  -2   3  -7    4.42    0.40
  -2   3  -7    4.37    0.47
  -2   3  -7    3.37    0.61
   2  -3   7    3.49    0.37
   2  -3   7    3.69    0.48
  -3   4  -7    7.04    0.80
  -3   4  -7    5.60    0.61
   3  -4   7    6.29    0.51
   3  -4   7    6.66    0.44
   3  -4   7    7.18    0.54
  -4   5  -7    0.56    0.51
   4  -5   7    0.20    0.32
   4  -5   7    0.24    0.27
   4  -5   7   -0.06    0.32
  -5   6  -7    0.40    0.37
  -5   6  -7   -0.53    0.45
   5  -6   7    0.21    0.29
   5  -6   7   -0.01    0.31
  -6   7  -7    0.73    0.45
  -6   7  -7    0.75    0.62
   6  -7   7    0.24    0.36
   6  -7   7    0.32    0.38
  -7   8  -7    0.53    0.48
   7  -8   7    0.43    0.44
   7  -8   7    0.44    0.37
  -8   9  -7    0.05    0.51
   8  -9   7    0.06    0.43
  -9  10  -7    0.60    0.54
  -8   8   6    0.57    0.56
   7  -7  -6    5.23    0.59
  -7   7   6    4.74    0.68
  -6   6   6    0.78    0.48
   5  -5  -6    1.53    0.37
  -5   5   6    1.15    0.42
   4  -4  -6    0.20    0.30
  -4   4   6    0.09    0.35
   3  -3  -6    2.10    0.32
  -3   3   6    2.14    0.37
  -3   3   6    2.36    0.33
   2  -2  -6   -0.01    0.23
   2  -2  -6   -0.05    0.49
  -2   2   6   -0.15    0.21
  -2   2   6    0.21    0.30
   1  -1  -6   13.91    0.56
   1  -1  -6   11.75    0.90
  -1   1   6   13.44    0.56
  -1   1   6   12.98    0.68
   0   0  -6   34.13    1.29
   0   0  -6   35.17    0.96
   0   0   6   33.85    1.11
   0   0   6   34.01    0.94
  -1   1  -6   -0.11    0.39
  -1   1  -6    0.08    0.21
   1  -1   6   -0.12    0.30
   1  -1   6    0.17    0.19
   1  -1   6    0.19    0.29
  -2   2  -6   12.84    0.53
  -2   2  -6   13.50    0.61
  -2   2  -6   12.65    0.86
   2  -2   6   12.69    0.74
   2  -2   6   13.07    0.67
   2  -2   6   12.15    0.52
  -3   3  -6    6.59    0.44
  -3   3  -6    6.12    0.73
  -3   3  -6    5.86    0.58
   3  -3   6    6.16    0.55
   3  -3   6    5.98    0.56
   3  -3   6    6.36    0.43
  -4   4  -6    1.47    0.55
  -4   4  -6    1.02    0.38
   4  -4   6    2.11    0.33
   4  -4   6    1.81    0.40
   4  -4   6    1.99    0.37
  -5   5  -6   -0.01    0.50
  -5   5  -6    0.63    0.37
   5  -5   6   -0.53    0.34
   5  -5   6    0.24    0.33
   5  -5   6    0.16    0.28
  -6   6  -6    0.53    0.57
  -6   6  -6    0.94    0.43
   6  -6   6    0.29    0.31
   6  -6   6    0.58    0.36
  -7   7  -6    0.95    0.67
  -7   7  -6   -0.08    0.46
   7  -7   6    0.66    0.42
   7  -7   6   -0.10    0.38
  -8   8  -6    0.30    0.51
   8  -8   6    0.66    0.44
   8  -8   6   -0.51    0.37
  -9   9  -6   -0.40    0.53
  -8   9   5   -0.66    0.52
   7  -8  -5    1.45    0.42
  -7   8   5    1.22    0.53
   6  -7  -5    0.45    0.38
  -6   7   5    0.75    0.47
   5  -6  -5    2.73    0.41
  -5   6   5    1.70    0.47
   4  -5  -5    0.25    0.26
  -4   5   5    0.01    0.32
   3  -4  -5    0.55    0.27
  -3   4   5    0.45    0.33
   2  -3  -5    0.55    0.24
   2  -3  -5    1.34    0.36
   2  -3  -5    0.36    0.49
  -2   3   5    0.61    0.32
  -2   3   5    0.66    0.22
   1  -2  -5    3.28    0.31
   1  -2  -5    2.62    0.39
   1  -2  -5    2.99    0.57
  -1   2   5    2.99    0.29
  -1   2   5    3.34    0.38
   0  -1  -5   41.96    1.09
   0  -1  -5   44.19    1.38
   0  -1  -5   41.55    1.44
   0   1   5   40.95    1.25
   0   1   5   42.14    1.47
   0   1   5   42.50    1.09
  -1   0  -5    0.20    0.37
  -1   0  -5   -0.09    0.20
  -1   0  -5    0.32    0.24
   1   0   5    0.15    0.19
   1   0   5   -0.40    0.26
  -2   1  -5   20.68    0.99
  -2   1  -5   19.64    0.75
  -2   1  -5   21.12    0.69
   2  -1   5   21.08    0.83
   2  -1   5   20.10    0.88
   2  -1   5   20.40    0.66
  -3   2  -5    0.23    0.25
  -3   2  -5    0.32    0.27
  -3   2  -5    0.66    0.45
   3  -2   5   -0.14    0.34
   3  -2   5    0.37    0.26
   3  -2   5    0.37    0.23
  -4   3  -5   15.36    1.00
  -4   3  -5   15.01    0.73
  -4   3  -5   16.47    0.65
   4  -3   5   15.64    0.63
   4  -3   5   16.52    0.74
   4  -3   5   14.28    0.77
  -5   4  -5    1.07    0.28
  -5   4  -5    1.35    0.38
  -5   4  -5    0.89    0.54
   5  -4   5    0.08    0.40
   5  -4   5    1.00    0.34
   5  -4   5    0.85    0.30
  -6   5  -5    1.06    0.59
  -6   5  -5    0.15    0.36
   6  -5   5   -0.01    0.29
   6  -5   5    0.66    0.38
   6  -5   5   -0.63    0.40
  -7   6  -5    1.87    0.46
  -7   6  -5    1.49    0.68
   7  -6   5    1.56    0.43
   7  -6   5    2.17    0.39
  -8   7  -5   -0.27    0.62
  -8   7  -5    0.48    0.50
   8  -7   5    1.54    0.43
   8  -7   5    0.88    0.46
  -9   8  -5   -0.28    0.48
   9  -8   5    0.35    0.43
 -10   9  -5   -0.03    0.55
  -8  10   4   -0.10    0.54
  -7   9   4    0.00    0.52
   6  -8  -4    0.35    0.38
  -6   8   4    0.37    0.47
   5  -7  -4    7.85    0.57
  -5   7   4    8.07    0.67
   4  -6  -4    2.85    0.38
  -4   6   4    2.85    0.44
   3  -5  -4    0.61    0.26
  -3   5   4    0.45    0.31
   2  -4  -4    0.32    0.23
   2  -4  -4    0.29    0.30
  -2   4   4    0.59    0.30
   1  -3  -4    1.53    0.30
   1  -3  -4    1.58    0.30
   1  -3  -4    2.34    0.51
   1  -3  -4    1.67    0.24
  -1   3   4    2.12    0.23
  -1   3   4    2.26    0.33
   0  -2  -4   16.05    0.84
   0  -2  -4   17.16    0.72
   0  -2  -4   15.24    0.54
   0  -2  -4   16.11    0.73
   0   2   4   17.14    0.78
   0   2   4   15.73    0.63
   0   2   4   15.84    0.52
  -1  -1  -4    2.34    0.43
  -1  -1  -4    1.92    0.28
  -1  -1  -4    2.47    0.35
  -1  -1  -4    2.37    0.25
   1   1   4    2.76    0.33
   1   1   4    2.66    0.46
   1   1   4    2.51    0.30
  -2   0  -4    0.31    0.19
  -2   0  -4    0.48    0.36
  -2   0  -4    0.46    0.25
   2   0   4    0.59    0.28
   2   0   4    0.54    0.18
  -3   1  -4    3.50    0.50
  -3   1  -4    1.93    0.32
  -3   1  -4    2.63    0.52
  -3   1  -4    2.64    0.28
   3  -1   4    1.99    0.33
   3  -1   4    2.01    0.37
   3  -1   4    2.64    0.28
   3  -1   4    2.34    0.32
  -4   2  -4    1.73    0.51
  -4   2  -4    2.06    0.31
  -4   2  -4    1.38    0.32
   4  -2   4    1.75    0.35
   4  -2   4    1.37    0.27
  -5   3  -4    0.41    0.29
  -5   3  -4    0.19    0.31
  -5   3  -4    0.38    0.48
   5  -3   4    0.22    0.31
   5  -3   4    0.04    0.26
  -6   4  -4    0.05    0.27
  -6   4  -4    0.34    0.35
  -6   4  -4    0.05    0.50
   6  -4   4    0.19    0.27
   6  -4   4   -0.01    0.32
  -7   5  -4    0.97    0.44
  -7   5  -4    0.41    0.60
   7  -5   4    1.53    0.44
   7  -5   4    1.21    0.35
  -8   6  -4    0.87    0.69
  -8   6  -4    0.42    0.45
   8  -6   4    0.76    0.41
   8  -6   4    0.50    0.41
  -9   7  -4    1.47    0.57
   9  -7   4    1.25    0.42
   9  -7   4    0.94    0.49
 -10   8  -4    0.09    0.54
  -7  10   3   -0.03    0.48
   6  -9  -3    0.68    0.38
  -6   9   3    0.77    0.50
   5  -8  -3    4.11    0.53
  -5   8   3    3.08    0.50
   4  -7  -3    0.31    0.29
  -4   7   3    0.31    0.34
   3  -6  -3    0.77    0.33
   3  -6  -3   -0.02    0.24
  -3   6   3   -0.05    0.29
   2  -5  -3    3.98    0.45
   2  -5  -3    4.29    0.39
  -2   5   3    4.47    0.47
   1  -4  -3   -0.24    0.21
   1  -4  -3    0.02    0.24
   1  -4  -3    0.02    0.19
  -1   4   3    0.02    0.25
   0  -3  -3    4.99    0.40
   0  -3  -3    5.39    0.53
   0  -3  -3    4.36    0.42
   0  -3  -3    4.49    0.35
   0   3   3    4.96    0.42
   0   3   3    4.82    0.30
  -1  -2  -3    0.06    0.15
  -1  -2  -3   -0.20    0.30
  -1  -2  -3    0.20    0.20
  -1  -2  -3   -0.02    0.18
   1   2   3    0.17    0.13
   1   2   3    0.36    0.23
  -2  -1  -3   15.42    0.69
  -2  -1  -3   17.14    0.81
  -2  -1  -3   15.99    0.71
  -2  -1  -3   16.18    0.56
   2   1   3   17.06    0.65
   2   1   3   16.25    0.54
   2   1   3   15.80    0.71
  -3   0  -3   10.91    0.61
  -3   0  -3   11.63    0.48
  -3   0  -3   12.82    0.56
  -3   0  -3   12.02    0.78
   3   0   3   11.18    0.59
   3   0   3   11.60    0.55
   3   0   3   11.41    0.47
  -4   1  -3    0.10    0.26
  -4   1  -3    0.45    0.24
  -4   1  -3    0.66    0.44
   4  -1   3    1.04    0.38
   4  -1   3    0.50    0.22
   4  -1   3    0.20    0.28
  -5   2  -3    4.22    0.67
  -5   2  -3    4.76    0.49
  -5   2  -3    4.46    0.47
   5  -2   3    4.41    0.55
   5  -2   3    5.32    0.52
   5  -2   3    4.89    0.42
  -6   3  -3    3.18    0.45
  -6   3  -3    3.23    0.38
  -6   3  -3    3.38    0.67
   6  -3   3    3.12    0.41
   6  -3   3    3.51    0.48
   6  -3   3    2.37    0.53
  -7   4  -3    1.36    0.41
  -7   4  -3    0.97    0.61
   7  -4   3    1.61    0.38
   7  -4   3    0.13    0.49
   7  -4   3    1.29    0.43
  -8   5  -3    0.15    0.42
  -8   5  -3    1.30    0.71
   8  -5   3    0.88    0.44
   8  -5   3   -0.49    0.49
   8  -5   3    0.37    0.36
  -9   6  -3    0.96    0.73
  -9   6  -3    0.40    0.51
   9  -6   3    0.85    0.49
   9  -6   3    0.53    0.43
 -10   7  -3   -0.06    0.55
  10  -7   3    0.69    0.48
   6 -10  -2    0.19    0.37
  -6  10   2   -0.39    0.44
   5  -9  -2    0.57    0.34
  -5   9   2    0.97    0.42
   4  -8  -2    2.23    0.40
   4  -8  -2    2.46    0.36
  -4   8   2    2.56    0.43
   3  -7  -2   31.36    1.19
   3  -7  -2   31.24    0.93
  -3   7   2   30.24    1.04
   2  -6  -2    2.36    0.28
   2  -6  -2    2.07    0.34
   2  -6  -2    2.33    0.38
  -2   6   2    2.58    0.35
   1  -5  -2    1.24    0.22
   1  -5  -2    1.50    0.28
   1  -5  -2    1.58    0.26
  -1   5   2    1.50    0.28
   0  -4  -2    2.50    0.34
   0  -4  -2    2.28    0.23
   0  -4  -2    2.27    0.28
   0   4   2    2.85    0.30
  -1  -3  -2   13.82    0.60
  -1  -3  -2   13.81    0.52
  -1  -3  -2   13.33    0.47
  -1  -3  -2   14.01    0.61
  -1  -3  -2   14.12    0.68
   1   3   2   14.19    0.56
  -2  -2  -2    8.75    0.52
  -2  -2  -2    8.51    0.50
  -2  -2  -2    8.71    0.62
  -2  -2  -2    8.38    0.39
  -2  -2  -2    8.51    0.44
   2   2   2    8.74    0.36
   2   2   2    7.30    0.49
  -3  -1  -2    0.71    0.26
  -3  -1  -2    1.08    0.37
  -3  -1  -2    0.46    0.22
  -3  -1  -2    0.54    0.20
  -3  -1  -2    1.30    0.28
   3   1   2    0.78    0.23
   3   1   2    0.48    0.23
   3   1   2    0.59    0.18
  -4   0  -2    3.18    0.54
  -4   0  -2    5.22    0.48
  -4   0  -2    4.37    0.52
  -4   0  -2    4.04    0.42
   4   0   2    3.59    0.34
   4   0   2    4.07    0.45
  -5   1  -2    9.36    0.84
  -5   1  -2   10.16    0.57
  -5   1  -2    9.40    0.50
   5  -1   2   10.27    0.66
   5  -1   2   10.01    0.54
  -6   2  -2    2.02    0.40
  -6   2  -2    2.36    0.63
  -6   2  -2    2.05    0.34
   6  -2   2    2.45    0.35
   6  -2   2    1.99    0.40
  -7   3  -2    2.34    0.45
  -7   3  -2    2.85    0.71
  -7   3  -2    2.29    0.39
   7  -3   2    2.63    0.41
   7  -3   2    2.64    0.47
  -8   4  -2   -0.04    0.58
  -8   4  -2   -0.17    0.41
   8  -4   2    0.40    0.41
   8  -4   2    0.10    0.36
  -9   5  -2    0.21    0.49
  -9   5  -2    1.31    0.80
   9  -5   2    0.95    0.50
   9  -5   2    1.17    0.42
 -10   6  -2   -0.20    0.52
  10  -6   2    0.53    0.42
  10  -6   2    0.26    0.46
 -11   7  -2    0.22    0.58
   5 -10  -1    1.35    0.38
   4  -9  -1    0.22    0.29
   4  -9  -1    0.35    0.31
   3  -8  -1    0.50    0.27
   2  -7  -1   13.00    0.63
   2  -7  -1   12.26    0.50
   2  -7  -1   11.85    0.62
   1  -6  -1   17.29    0.58
   1  -6  -1   17.26    0.72
   1  -6  -1   17.74    0.71
  -1   6   1   17.08    0.64
   0  -5  -1    3.13    0.31
   0  -5  -1    3.62    0.34
   0  -5  -1    3.62    0.36
   0  -5  -1    3.68    0.36
   0   5   1    3.78    0.39
  -1  -4  -1    5.57    0.38
  -1  -4  -1    5.27    0.40
  -1  -4  -1    5.77    0.33
  -1  -4  -1    5.97    0.37
   1   4   1    6.28    0.38
  -2  -3  -1   29.45    0.92
  -2  -3  -1   30.78    1.05
  -2  -3  -1   30.13    1.06
  -2  -3  -1   29.55    0.79
  -2  -3  -1   29.88    0.93
   2   3   1   31.11    0.94
  -3  -2  -1   11.22    0.59
  -3  -2  -1   11.51    0.57
  -3  -2  -1   11.23    0.46
  -3  -2  -1    9.33    0.50
  -3  -2  -1   11.37    0.56
  -3  -2  -1   11.06    0.71
   3   2   1   11.89    0.52
   3   2   1   11.44    0.42
  -4  -1  -1   36.65    0.99
  -4  -1  -1   34.89    1.31
  -4  -1  -1   38.69    1.13
  -4  -1  -1   38.57    1.35
  -4  -1  -1   36.94    1.25
   4   1   1   37.22    1.00
   4   1   1   39.72    1.16
  -5   0  -1   31.74    1.02
  -5   0  -1   31.80    0.92
  -5   0  -1   30.94    1.25
   5   0   1   32.24    1.06
   5   0   1   31.79    0.92
  -6   1  -1    1.32    0.31
  -6   1  -1    1.76    0.61
  -6   1  -1    1.43    0.37
   6  -1   1    1.67    0.38
   6  -1   1    1.91    0.32
  -7   2  -1    1.96    0.64
  -7   2  -1    1.53    0.39
  -7   2  -1    1.42    0.36
   7  -2   1    1.58    0.42
   7  -2   1    1.58    0.35
  -8   3  -1    1.80    0.70
  -8   3  -1    1.72    0.40
  -8   3  -1    1.90    0.47
   8  -3   1    2.15    0.49
   8  -3   1    2.32    0.40
  -9   4  -1    1.15    0.74
  -9   4  -1    0.66    0.49
   9  -4   1    1.03    0.40
   9  -4   1    1.44    0.52
 -10   5  -1    0.21    0.52
  10  -5   1    0.58    0.55
  10  -5   1    0.52    0.41
 -11   6  -1   -0.07    0.54
   5 -11   0    0.56    0.35
   4 -10   0   -0.06    0.29
   3  -9   0   -0.10    0.22
   3  -9   0    0.18    0.26
   2  -8   0    1.04    0.24
   2  -8   0    0.96    0.29
   2  -8   0    0.81    0.23
   1  -7   0    2.47    0.33
   1  -7   0    2.02    0.31
   1  -7   0    2.11    0.31
   1  -7   0    2.53    0.32
   0  -6   0    6.43    0.32
   0  -6   0    6.70    0.45
   0  -6   0    6.51    0.40
   0  -6   0    6.65    0.38
  -1  -5   0    1.57    0.26
  -1  -5   0    0.92    0.20
  -1  -5   0    1.08    0.23
  -1  -5   0    1.05    0.18
  -2  -4   0   38.97    1.27
  -2  -4   0   37.43    1.14
  -2  -4   0   39.17    0.95
  -2  -4   0   39.13    1.26
  -3  -3   0   12.33    0.46
  -3  -3   0   12.73    0.59
  -3  -3   0   11.29    0.59
  -3  -3   0   12.90    0.61
  -3  -3   0   11.62    0.65
  -4  -2   0    6.50    0.52
  -4  -2   0    7.26    0.49
  -4  -2   0    7.05    0.43
  -4  -2   0    7.12    0.43
  -4  -2   0    7.85    0.68
  -4  -2   0    6.74    0.55
  -4  -2   0    7.41    0.48
   4   2   0    6.86    0.39
  -5  -1   0    9.53    0.55
  -5  -1   0    8.91    0.76
  -5  -1   0    9.24    0.48
  -5  -1   0    9.78    0.65
  -5  -1   0   10.07    0.49
   5   1   0   10.43    0.61
   5   1   0    9.84    0.49
  -6   0   0   38.09    1.52
  -6   0   0   37.57    1.21
  -6   0   0   37.16    1.09
  -6   0   0   37.52    1.09
   6   0   0   37.97    1.24
   6   0   0   36.90    1.10
  -7   1   0    4.91    0.58
  -7   1   0    4.63    0.51
  -7   1   0    4.78    0.77
  -7   1   0    5.42    0.54
   7  -1   0    5.08    0.46
   7  -1   0    5.76    0.59
  -8   2   0   -0.05    0.32
  -8   2   0   -0.52    0.37
  -8   2   0    0.05    0.32
   8  -2   0    0.30    0.40
   8  -2   0    0.20    0.33
  -9   3   0   -0.24    0.39
  -9   3   0   -0.10    0.45
   9  -3   0    0.25    0.49
   9  -3   0    0.52    0.39
 -10   4   0    0.17    0.52
  10  -4   0    1.72    0.60
 -11   5   0   -0.15    0.53
   5 -12   1    0.34    0.33
   4 -11   1    0.69    0.32
   3 -10   1   -0.16    0.25
   3 -10   1    0.26    0.25
   3 -10   1    0.06    0.25
   2  -9   1    1.87    0.25
   2  -9   1    1.45    0.26
   1  -8   1    0.36    0.18
   1  -8   1   -0.07    0.19
   1  -8   1    0.07    0.18
   1  -8   1    0.31    0.28
   0  -7   1    1.18    0.19
   0  -7   1    1.38    0.31
   0  -7   1    1.63    0.25
   0  -7   1    1.35    0.18
  -1  -6   1    2.36    0.27
  -1  -6   1    2.95    0.35
  -1  -6   1    2.33    0.25
  -1  -6   1    2.77    0.25
  -2  -5   1    8.06    0.46
  -2  -5   1    7.93    0.43
  -2  -5   1    7.29    0.41
  -2  -5   1    7.93    0.35
  -3  -4   1   12.92    0.58
  -3  -4   1   13.78    0.48
  -3  -4   1   13.44    0.63
  -3  -4   1   12.03    0.61
  -4  -3   1    3.32    0.42
  -4  -3   1    3.31    0.35
  -4  -3   1    2.65    0.43
  -4  -3   1    3.57    0.40
  -5  -2   1    4.59    0.50
  -5  -2   1    3.58    0.41
  -5  -2   1    3.49    0.35
  -5  -2   1    4.08    0.48
  -6  -1   1    0.49    0.27
  -6  -1   1    0.56    0.36
  -6  -1   1    0.35    0.31
  -7   0   1    0.73    0.32
  -7   0   1    0.64    0.36
   7   0  -1    1.00    0.39
  -8   1   1    2.71    0.43
  -8   1   1    2.86    0.48
   8  -1  -1    2.18    0.50
  -9   2   1    0.22    0.40
  -9   2   1    0.38    0.46
  -9   2   1   -0.09    0.36
   9  -2  -1   -0.15    0.48
 -10   3   1    0.18    0.50
  10  -3  -1   -0.02    0.50
 -11   4   1   -0.22    0.53
   3 -11   2   -0.01    0.25
   2 -10   2    0.09    0.19
   2 -10   2    0.13    0.21
   2 -10   2    0.51    0.19
   1  -9   2    1.67    0.20
   1  -9   2    1.22    0.17
   1  -9   2    1.79    0.38
   0  -8   2    3.79    0.26
   0  -8   2    4.44    0.50
  -1  -7   2    1.27    0.15
  -1  -7   2    1.22    0.32
  -2  -6   2    0.92    0.17
  -2  -6   2    0.87    0.17
  -2  -6   2    0.98    0.19
  -2  -6   2    0.77    0.28
  -3  -5   2   10.30    0.40
  -3  -5   2    8.54    0.50
  -3  -5   2    9.62    0.54
  -3  -5   2   10.29    0.48
  -4  -4   2    0.02    0.20
  -4  -4   2   -0.26    0.23
  -4  -4   2   -0.20    0.23
  -4  -4   2    0.03    0.25
  -5  -3   2    1.68    0.36
  -5  -3   2    1.47    0.34
  -5  -3   2    1.64    0.28
  -6  -2   2    0.43    0.34
  -6  -2   2    1.01    0.37
  -6  -2   2    0.20    0.29
  -6  -2   2    0.44    0.27
  -7  -1   2    2.28    0.45
  -7  -1   2    2.59    0.40
  -7  -1   2    3.99    0.44
  -8   0   2    4.40    0.58
  -8   0   2    3.92    0.57
  -8   0   2    4.92    0.53
  -9   1   2    0.18    0.44
  -9   1   2   -0.37    0.48
  -9   1   2    0.03    0.36
 -10   2   2   -0.04    0.44
 -10   2   2   -0.56    0.54
 -10   2   2    1.18    0.46
 -10   2   2    0.42    0.50
 -11   3   2   -0.31    0.50
   1 -10   3    1.24    0.41
   0  -9   3    1.05    0.37
  -1  -8   3   10.05    0.60
  -2  -7   3    0.10    0.26
  -2  -7   3    0.03    0.14
  -3  -6   3    6.03    0.48
  -3  -6   3    5.77    0.35
  -3  -6   3    5.47    0.38
  -3  -6   3    5.81    0.37
  -4  -5   3    0.58    0.30
  -4  -5   3    0.60    0.22
  -4  -5   3    0.27    0.25
  -4  -5   3    0.18    0.24
  -5  -4   3    0.73    0.30
  -5  -4   3    0.36    0.28
  -5  -4   3    0.85    0.26
   5   4  -3    0.77    0.55
  -6  -3   3    0.24    0.33
  -6  -3   3    1.16    0.36
  -6  -3   3    0.55    0.28
   6   3  -3    0.20    0.53
  -7  -2   3    0.63    0.28
  -7  -2   3    0.66    0.38
   7   2  -3    0.62    0.65
  -8  -1   3    1.02    0.46
  -8  -1   3    1.56    0.41
  -8  -1   3    1.12    0.39
  -9   0   3   -0.63    0.46
  -9   0   3    0.05    0.43
  -9   0   3    0.75    0.40
 -10   1   3    0.26    0.48
 -10   1   3   -0.30    0.51
 -10   1   3    0.97    0.44
 -11   2   3   -0.34    0.52
   1 -11   4    0.82    0.41
   0 -10   4    0.77    0.36
  -1  -9   4    0.49    0.36
  -2  -8   4    0.22    0.30
  -3  -7   4    3.57    0.29
  -3  -7   4    3.35    0.30
  -3  -7   4    3.80    0.52
  -3  -7   4    3.67    0.26
  -4  -6   4   -0.06    0.21
  -4  -6   4    0.03    0.26
  -4  -6   4   -0.32    0.21
  -5  -5   4    0.23    0.24
  -5  -5   4    0.21    0.28
  -5  -5   4    0.26    0.26
  -5  -5   4    0.25    0.29
   5   5  -4    0.95    0.56
  -6  -4   4   -0.10    0.32
  -6  -4   4    0.23    0.33
  -6  -4   4   -0.15    0.25
   6   4  -4    0.03    0.53
  -7  -3   4   -0.13    0.34
  -7  -3   4    0.25    0.32
   7   3  -4   -0.77    0.57
  -8  -2   4    0.78    0.36
  -8  -2   4    1.05    0.43
   8   2  -4    0.75    0.73
  -9  -1   4   -0.10    0.44
  -9  -1   4   -0.99    0.39
   9   1  -4    0.63    0.81
 -10   0   4    0.95    0.54
 -10   0   4    2.38    0.49
   0 -11   5    0.69    0.44
  -1 -10   5    0.38    0.40
  -2  -9   5    0.40    0.34
  -3  -8   5    3.95    0.57
  -4  -7   5   -0.21    0.20
  -4  -7   5   -0.04    0.31
  -4  -7   5   -0.27    0.21
  -4  -7   5   -0.38    0.18
  -5  -6   5    0.48    0.31
  -5  -6   5    0.33    0.24
  -5  -6   5    0.96    0.29
  -5  -6   5    0.29    0.27
   5   6  -5    0.77    0.52
  -6  -5   5   -0.28    0.31
  -6  -5   5   -0.18    0.27
  -6  -5   5   -0.24    0.29
   6   5  -5   -0.18    0.51
  -7  -4   5   -0.12    0.35
  -7  -4   5   -0.18    0.28
   7   4  -5    0.06    0.58
  -8  -3   5    0.32    0.41
  -8  -3   5    0.08    0.39
   8   3  -5   -0.46    0.63
  -9  -2   5   -0.29    0.43
  -9  -2   5   -0.34    0.39
   9   2  -5   -0.87    0.73
 -10  -1   5   -0.69    0.48
 -10  -1   5   -1.10    0.41
   0 -12   6    0.76    0.50
  -1 -11   6    0.36    0.45
  -2 -10   6    0.82    0.38
  -3  -9   6    0.22    0.34
  -4  -8   6    0.20    0.19
  -4  -8   6    0.01    0.35
  -4  -8   6    0.35    0.18
  -4  -8   6   -0.20    0.21
  -5  -7   6    1.44    0.31
  -5  -7   6    0.79    0.38
  -5  -7   6    0.95    0.27
  -5  -7   6    1.09    0.27
   5   7  -6    1.12    0.55
  -6  -6   6    0.91    0.39
  -6  -6   6    0.60    0.30
  -6  -6   6    0.39    0.29
   6   6  -6    0.75    0.59
  -7  -5   6    0.61    0.38
  -7  -5   6   -0.33    0.30
  -7  -5   6   -0.20    0.36
   7   5  -6    0.26    0.60
  -8  -4   6    0.10    0.41
  -8  -4   6   -0.29    0.37
   8   4  -6    0.74    0.72
  -9  -3   6   -0.07    0.43
 -10  -2   6   -0.43    0.44
 -10  -2   6   -0.66    0.43
   0 -13   7    1.55    0.53
  -1 -12   7    1.66    0.55
  -2 -11   7    0.47    0.47
  -3 -10   7    0.91    0.44
  -4  -9   7    0.58    0.41
  -5  -8   7    4.97    0.41
  -5  -8   7    4.16    0.43
  -5  -8   7    5.28    0.60
  -5  -8   7    3.54    0.42
   5   8  -7    4.25    0.70
  -6  -7   7    0.58    0.32
  -6  -7   7    0.58    0.38
  -6  -7   7    0.59    0.31
   6   7  -7    1.31    0.61
  -7  -6   7    0.10    0.32
  -7  -6   7   -0.41    0.31
  -7  -6   7    0.03    0.37
   7   6  -7    0.61    0.69
  -8  -5   7    0.25    0.38
  -8  -5   7    0.58    0.44
   8   5  -7    1.09    0.74
  -9  -4   7    0.14    0.44
  -9  -4   7   -0.02    0.46
 -10  -3   7   -0.19    0.46
  -1 -13   8    0.75    0.56
  -2 -12   8    2.11    0.58
  -3 -11   8    1.33    0.50
  -4 -10   8    0.62    0.47
  -5  -9   8    0.80    0.47
  -6  -8   8    0.93    0.46
  -6  -8   8    0.05    0.32
   6   8  -8   -0.14    0.61
  -7  -7   8    2.95    0.55
  -7  -7   8    3.62    0.45
   7   7  -8    3.09    0.83
  -8  -6   8   -0.57    0.35
  -8  -6   8    0.06    0.42
  -9  -5   8    0.26    0.47
  -9  -5   8    0.14    0.43
  -2 -13   9    0.55    0.54
  -3 -12   9    0.10    0.52
  -4 -11   9    0.69    0.51
  -5 -10   9    0.46    0.45
  -6  -9   9    0.53    0.47
  -7  -8   9    0.45    0.47
  -7  -8   9   -0.55    0.34
  -8  -7   9   -0.42    0.36
  -8  -7   9    0.45    0.48
  -9  -6   9    0.58    0.49
  -3 -13  10    0.64    0.52
  -4 -12  10    0.52    0.54
  -5 -11  10    0.72    0.51
  -6 -10  10    0.34    0.50
  -7  -9  10    0.41    0.49
  -8  -8  10    0.24    0.48
  -4  -3  14   -0.20    0.36
  -3  -4  14   -0.01    0.37
  -2  -5  14   -0.65    0.39
  -1  -6  14   -0.43    0.36
   0  -7  14    0.18    0.37
  -7   1  13   -0.68    0.55
  -6   0  13    0.58    0.54
  -5  -1  13   -0.06    0.49
  -4  -2  13    0.24    0.37
   3   3 -13    0.46    0.76
  -3  -3  13   -0.03    0.36
   2   4 -13    1.67    0.76
  -2  -4  13    1.24    0.43
   1   5 -13    0.71    0.66
  -1  -5  13   -0.47    0.36
   0   6 -13    1.85    0.79
   0  -6  13    2.20    0.42
   1  -7  13    0.11    0.35
   2  -8  13    0.58    0.38
  -7   2  12   -0.13    0.55
  -6   1  12   -0.16    0.51
  -5   0  12   -0.46    0.38
  -5   0  12    0.18    0.50
   4   1 -12    5.79    1.06
  -4  -1  12    7.73    0.78
  -4  -1  12    7.27    0.58
   3   2 -12    0.57    0.72
  -3  -2  12   -0.35    0.41
  -3  -2  12    0.05    0.34
   2   3 -12   -0.05    0.66
  -2  -3  12    0.20    0.40
  -2  -3  12    0.33    0.37
   1   4 -12    1.33    0.65
  -1  -4  12    0.62    0.36
   0   5 -12    1.67    0.72
   0  -5  12    2.74    0.43
  -1   6 -12    0.29    0.61
   1  -6  12    0.85    0.34
  -2   7 -12   -0.22    0.61
   2  -7  12    0.20    0.35
   3  -8  12    2.14    0.43
   4  -9  12    0.67    0.39
  -7   3  11   -0.05    0.52
  -6   2  11   -0.23    0.50
  -5   1  11   -0.16    0.48
  -5   1  11   -0.73    0.38
   4   0 -11    2.05    0.80
  -4   0  11    1.51    0.51
  -4   0  11    1.32    0.39
   3   1 -11    1.07    0.72
  -3  -1  11    1.47    0.46
  -3  -1  11    0.73    0.36
   2   2 -11   10.34    1.13
  -2  -2  11   11.99    0.73
  -2  -2  11   10.04    0.63
   1   3 -11    0.53    0.62
  -1  -3  11    0.12    0.34
  -1  -3  11    0.12    0.30
   0   4 -11   -0.15    0.50
   0  -4  11    0.06    0.28
  -1   5 -11    1.76    0.65
   1  -5  11    1.57    0.34
  -2   6 -11   -0.29    0.49
   2  -6  11    0.08    0.31
  -3   7 -11   -0.02    0.58
   3  -7  11   -0.02    0.33
  -4   8 -11    1.35    0.49
   4  -8  11    0.50    0.36
  -5   9 -11    0.53    0.62
   5  -9  11    3.38    0.49
  -8   5  10   -0.52    0.53
  -7   4  10   -0.09    0.52
   6  -3 -10    1.19    0.45
  -6   3  10    0.22    0.49
   5  -2 -10    1.53    0.44
  -5   2  10    1.58    0.53
   4  -1 -10    1.01    0.40
  -4   1  10    1.06    0.46
  -4   1  10    1.40    0.38
   3   0 -10    3.75    0.47
   3   0 -10    3.37    0.83
  -3   0  10    3.10    0.50
  -3   0  10    1.88    0.39
   2   1 -10    9.13    0.62
   2   1 -10    9.31    1.07
  -2  -1  10    8.27    0.59
  -2  -1  10   10.42    0.70
   1   2 -10    4.33    0.79
  -1  -2  10    4.76    0.58
  -1  -2  10    3.80    0.41
   0   3 -10    0.87    0.59
   0  -3  10    1.05    0.39
   0  -3  10    0.85    0.31
  -1   4 -10    0.26    0.56
   1  -4  10    0.96    0.36
   1  -4  10    0.92    0.31
  -2   5 -10    0.24    0.53
   2  -5  10    0.54    0.30
  -3   6 -10    0.94    0.44
  -3   6 -10    0.01    0.52
   3  -6  10   -0.03    0.30
  -4   7 -10   -0.96    0.46
  -4   7 -10   -0.01    0.55
   4  -7  10    0.23    0.34
   5  -8  10    0.27    0.36
   5  -8  10    0.37    0.38
  -6   9 -10    0.28    0.52
   6  -9  10    0.79    0.44
  -7  10 -10    0.80    0.54
  -8   6   9   -0.20    0.55
  -7   5   9   -0.20    0.52
   6  -4  -9    0.79    0.43
  -6   4   9    0.49    0.47
   5  -3  -9    1.99    0.47
  -5   3   9    1.22    0.51
   4  -2  -9    1.97    0.42
  -4   2   9    1.35    0.43
  -4   2   9    0.92    0.36
   3  -1  -9    3.89    0.45
   3  -1  -9    2.55    0.77
  -3   1   9    3.99    0.51
  -3   1   9    3.38    0.42
   2   0  -9   16.88    1.21
   2   0  -9   16.43    0.69
  -2   0   9   15.40    0.68
  -2   0   9   17.04    0.85
   1   1  -9    1.88    0.35
   1   1  -9    1.92    0.65
  -1  -1   9    1.62    0.32
  -1  -1   9    1.55    0.40
   0   2  -9   20.49    0.78
   0   2  -9   18.60    1.14
   0  -2   9   21.02    0.88
   0  -2   9   19.29    0.75
  -1   3  -9    3.51    0.67
   1  -3   9    3.73    0.52
   1  -3   9    3.35    0.38
  -2   4  -9    5.43    0.79
   2  -4   9    4.30    0.44
   2  -4   9    4.21    0.49
  -3   5  -9    0.73    0.37
  -3   5  -9    0.34    0.51
   3  -5   9    0.49    0.28
   3  -5   9    0.29    0.32
  -4   6  -9    0.24    0.51
   4  -6   9    0.09    0.28
   4  -6   9   -0.04    0.33
  -5   7  -9    0.66    0.62
  -5   7  -9    0.51    0.48
   5  -7   9    0.51    0.39
   5  -7   9    0.83    0.36
  -6   8  -9    1.20    0.52
   6  -8   9    1.64    0.43
   6  -8   9    1.36    0.46
   7  -9   9    0.64    0.45
  -8   7   8    0.34    0.56
  -7   6   8    0.58    0.55
   6  -5  -8    0.73    0.42
  -6   5   8   -0.13    0.46
   5  -4  -8    0.58    0.41
  -5   4   8    0.26    0.45
   4  -3  -8    0.80    0.34
  -4   3   8    0.75    0.43
   3  -2  -8   -0.12    0.32
  -3   2   8    0.18    0.36
  -3   2   8    0.58    0.29
   2  -1  -8    0.20    0.53
   2  -1  -8    0.47    0.29
  -2   1   8    0.11    0.36
  -2   1   8    0.47    0.25
   1   0  -8    1.03    0.30
   1   0  -8    1.13    0.58
  -1   0   8    0.79    0.35
  -1   0   8    0.81    0.29
   0   1  -8   39.58    1.10
   0   1  -8   36.98    1.50
   0  -1   8   36.60    1.09
   0  -1   8   40.61    1.30
  -1   2  -8    0.56    0.50
  -1   2  -8    0.32    0.25
   1  -2   8    0.51    0.26
   1  -2   8    0.16    0.31
  -2   3  -8    0.38    0.28
  -2   3  -8   -0.17    0.49
   2  -3   8    0.46    0.34
   2  -3   8    0.46    0.26
  -3   4  -8    5.70    0.60
  -3   4  -8    4.45    0.74
   3  -4   8    4.39    0.45
   3  -4   8    4.27    0.49
  -4   5  -8    5.02    0.78
  -4   5  -8    4.44    0.57
   4  -5   8    4.89    0.49
   4  -5   8    5.54    0.44
  -5   6  -8    0.86    0.44
  -5   6  -8   -0.26    0.50
   5  -6   8    0.58    0.38
   5  -6   8    0.53    0.34
  -6   7  -8    1.18    0.65
   6  -7   8    2.14    0.43
   6  -7   8    1.77    0.48
  -7   8  -8   -1.19    0.49
   7  -8   8    0.74    0.45
   7  -8   8    0.28    0.39
  -8   9  -8    0.01    0.52
  -8   8   7   -0.10    0.56
  -7   7   7    1.43    0.57
   6  -6  -7    0.40    0.42
  -6   6   7    1.32    0.50
   5  -5  -7    0.94    0.40
  -5   5   7    0.46    0.46
   4  -4  -7    0.06    0.33
  -4   4   7    0.01    0.36
   3  -3  -7    0.06    0.30
  -3   3   7    0.55    0.36
   2  -2  -7    0.89    0.28
   2  -2  -7    0.79    0.57
  -2   2   7    0.35    0.26
  -2   2   7    0.72    0.36
   1  -1  -7   -0.04    0.25
   1  -1  -7    0.70    0.52
  -1   1   7    0.14    0.23
  -1   1   7    0.00    0.33
   0   0  -7    9.96    0.53
   0   0  -7   10.11    0.89
   0   0   7    9.99    0.53
   0   0   7   10.79    0.65
  -1   1  -7    0.36    0.51
  -1   1  -7    0.50    0.26
   1  -1   7    0.02    0.34
   1  -1   7    0.27    0.25
  -2   2  -7   53.95    1.39
  -2   2  -7   49.57    1.73
   2  -2   7   52.35    1.39
   2  -2   7   53.49    1.61
  -3   3  -7    2.15    0.32
  -3   3  -7    2.47    0.42
  -3   3  -7    1.45    0.56
   3  -3   7    2.18    0.38
   3  -3   7    1.68    0.30
   3  -3   7    2.10    0.42
  -4   4  -7    1.21    0.38
  -4   4  -7    1.46    0.58
   4  -4   7    0.72    0.39
   4  -4   7    1.43    0.36
   4  -4   7    1.31    0.32
  -5   5  -7    0.90    0.54
   5  -5   7    0.14    0.34
   5  -5   7   -0.33    0.36
   5  -5   7    0.61    0.32
  -6   6  -7    2.82    0.52
  -6   6  -7    1.91    0.70
   6  -6   7    3.07    0.44
   6  -6   7    3.07    0.51
  -7   7  -7   -0.02    0.67
  -7   7  -7    1.77    0.51
   7  -7   7    0.06    0.40
   7  -7   7    0.79    0.46
  -8   8  -7    0.62    0.51
   8  -8   7   -0.36    0.39
   8  -8   7    0.38    0.43
  -9   9  -7    1.18    0.54
  -7   8   6    0.30    0.53
  -6   7   6   -0.10    0.46
   5  -6  -6    4.76    0.54
  -5   6   6    5.34    0.67
   4  -5  -6    2.13    0.39
  -4   5   6    1.61    0.42
   3  -4  -6   -0.20    0.28
  -3   4   6    0.15    0.32
   2  -3  -6    3.88    0.40
  -2   3   6    3.72    0.46
  -2   3   6    4.10    0.41
   1  -2  -6    2.07    0.58
   1  -2  -6    1.91    0.32
  -1   2   6    1.30    0.26
  -1   2   6    1.90    0.37
   0  -1  -6    0.41    0.25
   0  -1  -6    0.33    0.44
   0   1   6    0.68    0.24
   0   1   6    0.73    0.33
  -1   0  -6    1.55    0.50
  -1   0  -6    1.28    0.26
   1   0   6    1.28    0.25
   1   0   6    1.34    0.35
  -2   1  -6   41.23    1.47
  -2   1  -6   40.59    1.13
   2  -1   6   39.78    1.11
   2  -1   6   42.21    1.33
  -3   2  -6    9.10    0.55
  -3   2  -6    9.17    0.86
  -3   2  -6    8.06    0.65
   3  -2   6    9.50    0.65
   3  -2   6    8.81    0.48
   3  -2   6    7.98    0.64
  -4   3  -6    9.53    0.93
  -4   3  -6   11.45    0.69
  -4   3  -6   11.65    0.55
   4  -3   6   10.38    0.58
   4  -3   6   10.16    0.63
   4  -3   6   10.75    0.66
  -5   4  -6    0.16    0.52
   5  -4   6   -0.37    0.39
   5  -4   6    0.26    0.27
   5  -4   6    0.37    0.34
  -6   5  -6    0.59    0.61
  -6   5  -6    0.46    0.39
   6  -5   6   -0.52    0.38
   6  -5   6   -0.10    0.30
   6  -5   6    0.12    0.38
  -7   6  -6    0.68    0.46
  -7   6  -6    0.46    0.62
   7  -6   6    0.57    0.38
   7  -6   6    0.18    0.40
  -8   7  -6    0.52    0.51
   8  -7   6    0.33    0.44
   8  -7   6    0.19    0.40
  -9   8  -6    0.35    0.53
  -7   9   5   -0.08    0.51
   6  -8  -5    0.78    0.36
  -6   8   5   -0.17    0.47
   5  -7  -5    8.55    0.60
  -5   7   5    8.29    0.74
   4  -6  -5    1.81    0.36
  -4   6   5    1.81    0.45
   3  -5  -5    0.00    0.27
  -3   5   5    0.50    0.33
   2  -4  -5    0.00    0.22
  -2   4   5   -0.05    0.31
   1  -3  -5    8.05    0.59
   1  -3  -5    6.85    0.47
  -1   3   5    7.41    0.44
  -1   3   5    6.57    0.51
   0  -2  -5    2.55    0.53
   0  -2  -5    1.97    0.27
   0  -2  -5    1.85    0.33
   0   2   5    2.67    0.29
   0   2   5    2.50    0.38
  -1  -1  -5   14.36    0.59
  -1  -1  -5   14.25    0.73
  -1  -1  -5   14.32    0.89
   1   1   5   13.94    0.55
   1   1   5   13.98    0.70
  -2   0  -5    9.39    0.80
  -2   0  -5    8.45    0.46
   2   0   5    8.70    0.61
   2   0   5    8.56    0.44
  -3   1  -5    2.02    0.55
  -3   1  -5    2.15    0.30
  -3   1  -5    1.54    0.35
   3  -1   5    1.79    0.42
   3  -1   5    2.66    0.38
   3  -1   5    1.63    0.29
  -4   2  -5   12.64    0.95
  -4   2  -5   12.16    0.57
  -4   2  -5   12.63    0.67
   4  -2   5   11.32    0.76
   4  -2   5   12.29    0.69
   4  -2   5   12.10    0.57
  -5   3  -5    0.51    0.33
  -5   3  -5   -0.08    0.50
  -5   3  -5    0.23    0.29
   5  -3   5   -0.86    0.37
   5  -3   5    0.25    0.36
   5  -3   5    0.10    0.29
  -6   4  -5    0.31    0.38
  -6   4  -5    0.10    0.52
   6  -4   5    0.31    0.31
   6  -4   5   -0.44    0.42
   6  -4   5    0.12    0.36
  -7   5  -5    0.06    0.43
  -7   5  -5    0.32    0.62
   7  -5   5    0.88    0.43
   7  -5   5    0.43    0.34
   7  -5   5    0.23    0.39
  -8   6  -5   -0.30    0.66
  -8   6  -5    0.10    0.49
   8  -6   5   -0.02    0.42
   8  -6   5   -0.55    0.38
  -9   7  -5   -0.08    0.52
   9  -7   5    0.45    0.45
   9  -7   5   -0.12    0.43
 -10   8  -5   -0.16    0.53
  -7  10   4   -0.14    0.51
   6  -9  -4    0.31    0.40
  -6   9   4   -0.11    0.47
   5  -8  -4    0.41    0.37
  -5   8   4   -0.07    0.42
   4  -7  -4    1.02    0.34
  -4   7   4    1.25    0.41
   3  -6  -4   42.91    1.22
  -3   6   4   43.69    1.39
   2  -5  -4    1.56    0.29
   2  -5  -4    1.86    0.35
  -2   5   4    1.72    0.36
   1  -4  -4    4.34    0.37
  -1   4   4    4.25    0.51
   0  -3  -4   17.45    0.79
   0  -3  -4   16.34    0.61
   0  -3  -4   17.32    0.97
   0   3   4   17.29    0.73
   0   3   4   17.11    0.57
  -1  -2  -4   22.97    1.01
  -1  -2  -4   21.00    0.70
  -1  -2  -4   22.03    0.90
  -1  -2  -4   21.28    0.88
   1   2   4   22.20    0.84
   1   2   4   21.93    0.67
  -2  -1  -4    5.81    0.48
  -2  -1  -4    6.26    0.67
  -2  -1  -4    6.01    0.43
   2   1   4    5.53    0.39
   2   1   4    5.49    0.54
  -3   0  -4   -0.03    0.24
  -3   0  -4   -0.58    0.28
  -3   0  -4    0.01    0.41
  -3   0  -4   -0.05    0.26
   3   0   4   -0.05    0.24
   3   0   4   -0.03    0.19
   3   0   4    0.30    0.34
  -4   1  -4   61.03    1.79
  -4   1  -4   59.98    1.55
  -4   1  -4   63.89    1.88
   4  -1   4   66.60    1.87
   4  -1   4   62.19    1.78
   4  -1   4   60.93    1.58
  -5   2  -4    0.27    0.30
  -5   2  -4    0.39    0.34
  -5   2  -4    0.09    0.48
   5  -2   4   -0.31    0.25
   5  -2   4   -0.13    0.33
  -6   3  -4    0.96    0.62
  -6   3  -4    0.94    0.37
  -6   3  -4    1.31    0.35
   6  -3   4    1.21    0.39
   6  -3   4    0.95    0.32
  -7   4  -4    0.47    0.39
  -7   4  -4    0.30    0.58
   7  -4   4   -0.92    0.41
   7  -4   4    0.06    0.33
   7  -4   4    0.49    0.39
  -8   5  -4    1.86    0.76
  -8   5  -4    1.41    0.51
   8  -5   4    1.53    0.40
   8  -5   4   -0.02    0.51
   8  -5   4    1.24    0.46
  -9   6  -4    0.04    0.47
   9  -6   4    0.39    0.38
   9  -6   4    0.44    0.46
 -10   7  -4    0.01    0.53
  -6  10   3   -0.32    0.46
   5  -9  -3   -0.11    0.37
  -5   9   3    0.17    0.41
   4  -8  -3    0.24    0.31
  -4   8   3    0.44    0.38
   3  -7  -3    3.67    0.48
   3  -7  -3    3.37    0.42
  -3   7   3    3.51    0.49
   2  -6  -3   19.74    0.88
   2  -6  -3   19.06    0.69
  -2   6   3   19.62    0.80
   1  -5  -3   30.78    0.88
   1  -5  -3   31.29    1.15
  -1   5   3   30.15    1.00
   0  -4  -3    4.43    0.38
   0  -4  -3    4.77    0.44
   0  -4  -3    3.86    0.42
   0   4   3    4.34    0.44
  -1  -3  -3    4.61    0.37
  -1  -3  -3    3.80    0.44
  -1  -3  -3    5.45    0.46
  -1  -3  -3    6.23    0.60
   1   3   3    5.45    0.33
   1   3   3    5.54    0.48
  -2  -2  -3   31.99    1.02
  -2  -2  -3   31.68    0.90
  -2  -2  -3   32.02    1.17
  -2  -2  -3   33.33    1.18
  -2  -2  -3   33.33    1.18
   2   2   3   33.51    1.08
   2   2   3   33.05    0.88
  -3  -1  -3    1.45    0.45
  -3  -1  -3    1.65    0.27
  -3  -1  -3    1.32    0.32
   3   1   3    1.45    0.24
   3   1   3    1.65    0.28
   3   1   3    1.18    0.34
  -4   0  -3    6.86    0.76
  -4   0  -3    7.70    0.52
  -4   0  -3    7.34    0.49
   4   0   3    6.84    0.65
   4   0   3    7.68    0.48
   4   0   3    8.27    0.60
  -5   1  -3    1.71    0.60
  -5   1  -3    1.62    0.32
  -5   1  -3    1.75    0.38
   5  -1   3    1.64    0.30
   5  -1   3    2.10    0.39
   5  -1   3    0.99    0.47
  -6   2  -3   26.32    1.31
  -6   2  -3   26.33    1.03
  -6   2  -3   27.91    0.90
   6  -2   3   26.24    1.13
   6  -2   3   26.05    0.92
   6  -2   3   26.47    1.03
  -7   3  -3    0.02    0.51
  -7   3  -3    0.35    0.31
  -7   3  -3    0.30    0.39
   7  -3   3   -0.12    0.44
   7  -3   3    0.32    0.37
   7  -3   3    0.17    0.31
  -8   4  -3    1.88    0.47
  -8   4  -3    2.55    0.77
   8  -4   3    2.09    0.41
   8  -4   3    2.34    0.57
   8  -4   3    2.67    0.53
  -9   5  -3    0.87    0.52
  -9   5  -3    0.14    0.72
   9  -5   3    1.13    0.43
   9  -5   3    1.38    0.51
 -10   6  -3   -0.02    0.53
  10  -6   3    0.72    0.49
 -11   7  -3   -0.20    0.56
   5 -10  -2    0.43    0.36
   4  -9  -2    0.74    0.35
   4  -9  -2    0.77    0.33
   3  -8  -2    2.63    0.34
   3  -8  -2    2.23    0.39
  -3   8   2    2.66    0.39
   2  -7  -2    1.28    0.32
   2  -7  -2    0.51    0.24
   1  -6  -2   28.91    1.05
   1  -6  -2   27.25    1.03
   1  -6  -2   26.67    0.79
  -1   6   2   26.92    0.94
   0  -5  -2   26.54    0.76
   0  -5  -2   26.77    0.98
   0  -5  -2   27.36    1.01
   0   5   2   26.33    0.88
  -1  -4  -2    4.66    0.35
  -1  -4  -2    5.62    0.47
  -1  -4  -2    5.40    0.38
   1   4   2    5.67    0.44
  -2  -3  -2   15.04    0.54
  -2  -3  -2   14.90    0.77
  -2  -3  -2   14.99    0.69
  -2  -3  -2   15.28    0.61
  -2  -3  -2   15.57    0.69
   2   3   2   13.67    0.65
  -3  -2  -2    4.73    0.57
  -3  -2  -2    4.03    0.45
  -3  -2  -2    3.53    0.39
  -3  -2  -2    4.19    0.46
  -3  -2  -2    3.34    0.46
   3   2   2    3.83    0.51
   3   2   2    3.84    0.43
   3   2   2    4.09    0.33
  -4  -1  -2    6.80    0.58
  -4  -1  -2    6.61    0.42
  -4  -1  -2    7.17    0.72
   4   1   2    7.83    0.56
   4   1   2    7.24    0.44
  -5   0  -2    3.02    0.61
  -5   0  -2    2.80    0.34
   5   0   2    3.25    0.38
   5   0   2    3.07    0.40
  -6   1  -2    0.45    0.51
  -6   1  -2   -0.07    0.34
  -6   1  -2    0.07    0.28
   6  -1   2    0.11    0.28
   6  -1   2    0.44    0.34
  -7   2  -2    1.70    0.38
  -7   2  -2    2.08    0.44
  -7   2  -2    1.91    0.64
   7  -2   2    2.13    0.36
   7  -2   2    2.67    0.46
  -8   3  -2    2.23    0.47
  -8   3  -2    2.01    0.43
  -8   3  -2    2.49    0.74
   8  -3   2    2.77    0.50
   8  -3   2    2.46    0.41
  -9   4  -2    0.92    0.51
  -9   4  -2    1.00    0.78
   9  -4   2    1.49    0.50
   9  -4   2    1.66    0.45
 -10   5  -2   -0.21    0.52
  10  -5   2    0.84    0.42
  10  -5   2    0.02    0.56
  10  -5   2    0.88    0.52
 -11   6  -2   -0.43    0.54
   5 -11  -1    0.76    0.37
   4 -10  -1    0.67    0.35
   3  -9  -1    1.06    0.37
   3  -9  -1    0.81    0.29
   2  -8  -1    7.72    0.54
   2  -8  -1    8.61    0.56
   2  -8  -1    9.00    0.48
   1  -7  -1   31.09    1.11
   1  -7  -1   30.85    0.84
   1  -7  -1   30.07    1.09
   0  -6  -1    1.71    0.27
   0  -6  -1    1.65    0.28
   0  -6  -1    1.96    0.24
  -1  -5  -1   23.98    0.87
  -1  -5  -1   23.54    0.80
  -1  -5  -1   23.03    0.88
  -1  -5  -1   23.56    0.68
   1   5   1   23.63    0.79
  -2  -4  -1   19.73    0.61
  -2  -4  -1   20.59    0.81
  -2  -4  -1   20.30    0.73
  -2  -4  -1   20.85    0.80
   2   4   1   19.12    0.76
  -3  -3  -1    3.08    0.35
  -3  -3  -1    2.73    0.43
  -3  -3  -1    2.56    0.42
  -3  -3  -1    3.51    0.44
  -4  -2  -1    0.10    0.29
  -4  -2  -1    0.47    0.30
  -4  -2  -1    0.14    0.21
  -4  -2  -1   -0.18    0.27
  -5  -1  -1    4.72    0.57
  -5  -1  -1    5.16    0.69
  -5  -1  -1    3.37    0.45
   5   1   1    4.25    0.43
   5   1   1    4.79    0.55
  -6   0  -1    2.24    0.40
  -6   0  -1    2.00    0.32
  -6   0  -1    2.15    0.61
   6   0   1    2.52    0.40
   6   0   1    2.08    0.34
  -7   1  -1    2.25    0.43
  -7   1  -1    1.83    0.37
   7  -1   1    2.54    0.47
   7  -1   1    2.38    0.36
  -8   2  -1    2.21    0.48
  -8   2  -1    2.34    0.42
   8  -2   1    3.50    0.55
   8  -2   1    2.34    0.40
  -9   3  -1    1.68    0.45
  -9   3  -1    1.98    0.54
   9  -3   1    1.67    0.42
   9  -3   1    2.06    0.53
 -10   4  -1   -0.11    0.52
  10  -4   1    0.75    0.52
 -11   5  -1   -0.26    0.55
  11  -5   1   -0.39    0.60
   4 -11   0    0.70    0.34
   3 -10   0    1.91    0.32
   3 -10   0    2.74    0.44
   2  -9   0    0.02    0.24
   2  -9   0    0.39    0.25
   2  -9   0    0.29    0.23
   1  -8   0    1.62    0.25
   1  -8   0    1.65    0.27
   1  -8   0    2.00    0.33
   0  -7   0    7.65    0.39
   0  -7   0    7.82    0.43
   0  -7   0    8.47    0.56
   0  -7   0    7.91    0.45
  -1  -6   0   52.61    1.49
  -1  -6   0   50.87    1.20
  -1  -6   0   49.48    1.57
  -1  -6   0   48.76    1.58
  -2  -5   0    0.17    0.23
  -2  -5   0    0.45    0.23
  -2  -5   0    0.29    0.18
  -2  -5   0    0.45    0.21
  -3  -4   0    1.26    0.29
  -3  -4   0    0.94    0.28
  -3  -4   0    0.99    0.28
  -3  -4   0    1.28    0.22
  -4  -3   0    1.47    0.32
  -4  -3   0    2.08    0.27
  -4  -3   0    2.54    0.38
  -4  -3   0    1.86    0.32
  -5  -2   0    9.01    0.63
  -5  -2   0    8.39    0.58
  -5  -2   0    8.35    0.50
  -5  -2   0    7.45    0.56
  -6  -1   0    1.27    0.30
  -6  -1   0    0.89    0.34
  -6  -1   0    1.56    0.30
  -7   0   0    4.30    0.55
  -7   0   0    4.17    0.45
  -7   0   0    4.44    0.46
   7   0   0    5.26    0.62
  -8   1   0    0.08    0.32
  -8   1   0    0.15    0.39
   8  -1   0    0.26    0.42
  -9   2   0    0.12    0.46
  -9   2   0   -0.27    0.36
   9  -2   0    0.60    0.49
 -10   3   0    0.12    0.47
  10  -3   0    0.28    0.49
 -11   4   0   -0.31    0.52
   4 -12   1    0.45    0.32
   3 -11   1   -0.03    0.27
   2 -10   1   -0.11    0.20
   2 -10   1    0.04    0.22
   2 -10   1    0.27    0.24
   1  -9   1    1.16    0.22
   1  -9   1    1.17    0.22
   1  -9   1    0.92    0.21
   1  -9   1    1.55    0.36
   0  -8   1    0.44    0.29
   0  -8   1    0.02    0.16
   0  -8   1   -0.06    0.16
   0  -8   1    0.30    0.17
  -1  -7   1    7.80    0.35
  -1  -7   1    7.93    0.54
  -1  -7   1    6.83    0.36
  -1  -7   1    6.59    0.38
  -2  -6   1   12.69    0.64
  -2  -6   1   11.22    0.53
  -2  -6   1   11.98    0.52
  -2  -6   1   12.15    0.44
  -3  -5   1   47.00    1.42
  -3  -5   1   47.64    1.15
  -3  -5   1   46.47    1.52
  -3  -5   1   45.28    1.51
  -4  -4   1    1.00    0.25
  -4  -4   1    1.02    0.29
  -4  -4   1    1.13    0.33
  -4  -4   1    1.09    0.30
  -5  -3   1    1.24    0.36
  -5  -3   1    0.93    0.25
  -5  -3   1    1.18    0.26
  -5  -3   1    1.44    0.35
  -6  -2   1    2.44    0.43
  -6  -2   1    2.09    0.33
  -6  -2   1    1.92    0.32
  -7  -1   1    2.82    0.42
  -7  -1   1    2.97    0.39
  -7  -1   1    3.11    0.39
  -7  -1   1    2.45    0.47
  -8   0   1    0.81    0.36
  -8   0   1    0.14    0.40
  -8   0   1    0.08    0.34
  -8   0   1    0.40    0.45
  -9   1   1    0.66    0.41
  -9   1   1   -0.20    0.39
  -9   1   1    0.53    0.45
 -10   2   1    0.54    0.45
 -10   2   1    0.39    0.51
 -11   3   1   -0.13    0.53
 -11   3   1   -1.16    0.64
   1 -10   2    1.21    0.39
   0  -9   2    0.85    0.35
  -1  -8   2    0.50    0.32
  -1  -8   2    0.74    0.16
  -2  -7   2    0.65    0.18
  -2  -7   2    1.08    0.18
  -2  -7   2    0.92    0.30
  -3  -6   2   16.77    0.77
  -3  -6   2   15.34    0.67
  -3  -6   2   16.93    0.53
  -3  -6   2   16.84    0.66
  -4  -5   2    8.92    0.55
  -4  -5   2    9.07    0.46
  -4  -5   2    8.82    0.46
  -4  -5   2    8.49    0.54
  -4  -5   2    9.68    0.58
  -5  -4   2    1.35    0.27
  -5  -4   2    1.17    0.32
  -5  -4   2    1.74    0.36
  -6  -3   2    0.47    0.32
  -6  -3   2    0.31    0.27
  -6  -3   2   -0.09    0.30
  -7  -2   2   -0.22    0.36
  -7  -2   2    0.41    0.30
  -8  -1   2    0.31    0.32
  -8  -1   2   -0.12    0.40
  -8  -1   2    0.09    0.38
  -9   0   2   -0.08    0.35
  -9   0   2    0.01    0.44
  -9   0   2   -0.66    0.46
  -9   0   2   -0.16    0.36
 -10   1   2   -0.12    0.54
 -10   1   2    0.65    0.49
 -10   1   2    0.98    0.45
 -10   1   2    0.47    0.44
 -11   2   2   -1.19    0.58
 -11   2   2   -0.43    0.53
   1 -11   3    0.48    0.42
   0 -10   3    0.78    0.39
  -1  -9   3    0.60    0.36
  -2  -8   3    1.23    0.34
  -3  -7   3    0.99    0.20
  -3  -7   3    0.61    0.18
  -3  -7   3    0.81    0.20
  -3  -7   3    0.96    0.32
  -4  -6   3    0.85    0.23
  -4  -6   3    0.13    0.25
  -4  -6   3    0.38    0.25
  -4  -6   3    0.76    0.31
  -5  -5   3    7.54    0.55
  -5  -5   3    8.54    0.45
  -5  -5   3    7.11    0.60
  -5  -5   3    8.50    0.62
  -6  -4   3   -0.17    0.31
  -6  -4   3    0.17    0.33
  -6  -4   3   -0.22    0.27
  -7  -3   3   -0.22    0.30
  -7  -3   3   -0.01    0.35
  -8  -2   3   -0.13    0.32
  -8  -2   3    0.04    0.36
  -9  -1   3   -0.25    0.38
  -9  -1   3   -0.14    0.46
 -10   0   3   -0.04    0.41
 -10   0   3   -0.44    0.49
 -11   1   3   -0.82    0.52
   0 -11   4    0.98    0.44
  -1 -10   4    1.23    0.41
  -2  -9   4    0.46    0.34
  -3  -8   4    0.36    0.35
  -4  -7   4    1.21    0.24
  -4  -7   4    0.91    0.23
  -4  -7   4    0.96    0.25
  -4  -7   4    1.23    0.35
  -5  -6   4    5.89    0.53
  -5  -6   4    6.70    0.45
  -5  -6   4    7.19    0.52
  -5  -6   4    7.61    0.64
  -6  -5   4    1.87    0.39
  -6  -5   4    1.18    0.32
  -6  -5   4    1.75    0.39
  -7  -4   4    0.31    0.37
  -7  -4   4   -0.02    0.31
  -8  -3   4   -0.11    0.37
  -8  -3   4   -0.06    0.39
  -9  -2   4    0.26    0.36
  -9  -2   4   -0.22    0.44
 -10  -1   4   -0.73    0.47
 -10  -1   4    0.59    0.43
 -11   0   4   -0.49    0.52
   1 -13   5   -1.14    0.59
   0 -12   5    3.00    0.59
  -1 -11   5    1.88    0.50
  -2 -10   5    0.67    0.39
  -3  -9   5    3.86    0.58
  -4  -8   5   -0.42    0.20
  -4  -8   5   -0.18    0.31
  -4  -8   5   -0.02    0.14
  -5  -7   5    2.75    0.44
  -5  -7   5    3.52    0.40
  -5  -7   5    2.90    0.33
  -5  -7   5    3.21    0.43
  -6  -6   5    1.30    0.33
  -6  -6   5    1.18    0.41
  -6  -6   5    1.15    0.36
  -7  -5   5    4.29    0.64
  -7  -5   5    4.05    0.52
  -7  -5   5    4.87    0.57
  -8  -4   5   -0.29    0.37
  -8  -4   5    0.34    0.42
  -9  -3   5   -0.63    0.42
  -9  -3   5    0.28    0.46
 -10  -2   5   -0.32    0.46
 -10  -2   5    0.74    0.43
 -11  -1   5   -0.66    0.48
   0 -13   6    1.57    0.57
  -1 -12   6    2.15    0.53
  -2 -11   6    0.98    0.49
  -3 -10   6    1.50    0.46
  -4  -9   6    0.47    0.40
  -5  -8   6    2.15    0.37
  -5  -8   6    1.23    0.30
  -5  -8   6    1.01    0.25
  -5  -8   6    1.27    0.41
  -6  -7   6    0.01    0.26
  -6  -7   6    0.14    0.35
  -6  -7   6    0.21    0.33
  -7  -6   6    0.80    0.37
  -7  -6   6    0.43    0.37
  -7  -6   6    0.29    0.39
   7   6  -6   -0.05    0.62
  -8  -5   6    1.22    0.43
  -8  -5   6    1.51    0.49
   8   5  -6    1.98    0.87
  -9  -4   6    0.69    0.48
  -9  -4   6    0.58    0.44
 -10  -3   6   -0.07    0.47
  -1 -13   7    0.87    0.56
  -2 -12   7    0.29    0.50
  -3 -11   7    0.40    0.47
  -4 -10   7    0.14    0.41
  -5  -9   7    0.50    0.45
  -6  -8   7    1.21    0.37
  -6  -8   7    0.91    0.43
  -7  -7   7    0.00    0.41
  -7  -7   7    0.22    0.38
  -8  -6   7    0.23    0.43
  -8  -6   7    0.12    0.43
  -9  -5   7    0.27    0.43
  -9  -5   7   -0.12    0.45
 -10  -4   7    0.27    0.48
  -1 -14   8    1.28    0.59
  -2 -13   8    2.37    0.62
  -3 -12   8    0.66    0.53
  -4 -11   8    0.44    0.46
  -5 -10   8    0.04    0.46
  -6  -9   8    0.50    0.47
  -7  -8   8   -0.02    0.41
  -7  -8   8   -0.14    0.41
  -8  -7   8    0.04    0.46
  -8  -7   8    0.44    0.46
  -9  -6   8    0.51    0.48
 -10  -5   8   -0.01    0.49
  -3 -13   9    1.67    0.60
  -4 -12   9    1.14    0.54
  -5 -11   9    0.05    0.49
  -6 -10   9    0.36    0.49
  -7  -9   9    0.26    0.48
  -8  -8   9    0.32    0.49
  -9  -7   9    0.57    0.51
  -4  -2  14    0.28    0.40
  -2  -4  14   -0.92    0.40
  -1  -5  14   -0.32    0.34
   0  -6  14    0.34    0.39
   1  -7  14    0.39    0.40
  -6   1  13   -0.33    0.53
  -5   0  13   -0.09    0.51
  -4  -1  13   -0.33    0.51
  -4  -1  13    0.42    0.40
   3   2 -13   -0.84    0.65
  -3  -2  13   -0.11    0.46
  -3  -2  13   -0.88    0.35
   2   3 -13    0.33    0.71
  -2  -3  13   -0.92    0.38
   1   4 -13    0.72    0.73
  -1  -4  13    0.80    0.40
   0   5 -13    0.03    0.67
   0  -5  13    1.06    0.41
   1  -6  13    0.30    0.35
   2  -7  13    0.05    0.34
   3  -8  13   -0.18    0.37
  -7   3  12   -0.16    0.55
  -6   2  12    0.08    0.54
  -5   1  12    0.27    0.51
  -4   0  12    0.28    0.36
  -4   0  12    0.26    0.50
   3   1 -12    0.97    0.80
  -3  -1  12    0.89    0.49
  -3  -1  12   -0.38    0.39
   2   2 -12    0.44    0.68
  -2  -2  12    0.64    0.47
  -2  -2  12   -0.22    0.38
   1   3 -12    0.13    0.64
  -1  -3  12    0.37    0.36
  -1  -3  12    0.58    0.42
   0   4 -12    1.76    0.71
   0  -4  12    1.61    0.40
  -1   5 -12    1.38    0.67
   1  -5  12    1.68    0.38
  -2   6 -12    0.67    0.68
   2  -6  12    1.28    0.41
   3  -7  12    0.13    0.36
   4  -8  12    0.11    0.37
  -5   9 -12    1.76    0.55
  -7   4  11   -0.06    0.54
  -6   3  11   -0.16    0.50
  -5   2  11   -0.06    0.47
  -4   1  11    1.98    0.54
   3   0 -11    1.71    0.80
  -3   0  11    1.48    0.50
   2   1 -11    8.08    1.07
  -2  -1  11    8.81    0.72
  -2  -1  11    6.45    0.56
   1   2 -11    0.81    0.66
  -1  -2  11    0.72    0.33
  -1  -2  11    1.17    0.42
   0   3 -11    1.67    0.65
   0  -3  11    1.37    0.43
   0  -3  11    1.22    0.36
  -1   4 -11    1.62    0.64
   1  -4  11    0.92    0.41
   1  -4  11    0.59    0.33
  -2   5 -11    1.35    0.67
   2  -5  11    1.18    0.37
  -3   6 -11    0.03    0.56
   3  -6  11    0.02    0.32
  -4   7 -11    2.16    0.55
   4  -7  11    1.28    0.39
  -5   8 -11    1.37    0.52
   5  -8  11    0.52    0.39
  -7   5  10   -0.26    0.52
   6  -4 -10    1.81    0.48
  -6   4  10    0.52    0.53
   5  -3 -10   -0.23    0.38
  -5   3  10    0.15    0.51
   4  -2 -10    0.31    0.41
  -4   2  10    0.27    0.43
   3  -1 -10    0.39    0.36
  -3   1  10    0.07    0.29
  -3   1  10   -0.24    0.40
   2   0 -10    5.66    0.95
   2   0 -10    5.92    0.51
  -2   0  10    4.73    0.53
  -2   0  10    6.03    0.66
   1   1 -10    0.11    0.60
   1   1 -10    0.49    0.30
  -1  -1  10    0.53    0.29
  -1  -1  10    0.40    0.40
   0   2 -10    8.00    0.96
   0  -2  10    8.84    0.68
   0  -2  10    7.85    0.55
  -1   3 -10    0.03    0.52
   1  -3  10    0.29    0.37
   1  -3  10    0.13    0.28
  -2   4 -10    0.02    0.51
   2  -4  10    0.12    0.36
   2  -4  10    0.37    0.31
  -3   5 -10    0.32    0.53
   3  -5  10    0.52    0.33
  -4   6 -10    0.59    0.46
  -4   6 -10    0.85    0.63
   4  -6  10    0.35    0.33
  -5   7 -10   -0.99    0.53
  -5   7 -10    0.48    0.64
   5  -7  10    1.29    0.41
   6  -8  10    0.57    0.42
   6  -8  10    1.21    0.42
  -7   9 -10    0.11    0.58
  -7   6   9   -0.19    0.52
   6  -5  -9    0.90    0.42
  -6   5   9    0.23    0.51
   5  -4  -9    0.10    0.39
  -5   4   9   -0.50    0.47
   4  -3  -9    1.98    0.43
  -4   3   9    2.49    0.54
   3  -2  -9   -0.26    0.35
  -3   2   9    0.25    0.40
   2  -1  -9    0.27    0.30
   2  -1  -9   -0.07    0.55
  -2   1   9    0.29    0.29
  -2   1   9    0.11    0.38
   1   0  -9    1.07    0.58
   1   0  -9    0.27    0.31
  -1   0   9    0.20    0.27
  -1   0   9   -0.02    0.37
   0   1  -9    5.82    0.53
   0   1  -9    5.27    0.80
   0  -1   9    4.98    0.45
   0  -1   9    5.98    0.63
  -1   2  -9    0.10    0.50
  -1   2  -9    0.16    0.29
   1  -2   9   -0.19    0.35
   1  -2   9    0.05    0.25
  -2   3  -9    2.46    0.63
   2  -3   9    2.98    0.44
   2  -3   9    2.86    0.39
  -3   4  -9    0.25    0.52
   3  -4   9    0.88    0.33
   3  -4   9    0.46    0.36
  -4   5  -9    1.54    0.46
  -4   5  -9    0.58    0.55
   4  -5   9    0.43    0.37
   4  -5   9    0.76    0.34
  -5   6  -9    1.17    0.62
  -5   6  -9   -0.77    0.50
   5  -6   9    0.85    0.38
   5  -6   9    0.88    0.43
  -6   7  -9    0.30    0.51
   6  -7   9    0.26    0.42
   6  -7   9    0.38    0.38
  -7   8  -9    0.77    0.53
   7  -8   9    0.46    0.44
  -8   9  -9    0.39    0.54
  -7   7   8   -0.04    0.54
   6  -6  -8    0.49    0.39
  -6   6   8    0.75    0.53
   5  -5  -8    1.00    0.44
  -5   5   8    0.30    0.51
   4  -4  -8    0.14    0.35
  -4   4   8    0.19    0.44
   3  -3  -8   -0.53    0.31
  -3   3   8   -0.09    0.35
   2  -2  -8    0.69    0.31
  -2   2   8    0.59    0.39
  -2   2   8    0.13    0.29
   1  -1  -8    4.71    0.51
   1  -1  -8    5.51    0.81
  -1   1   8    4.33    0.46
  -1   1   8    4.61    0.61
   0   0  -8    3.99    0.50
   0   0  -8    4.40    0.72
   0   0   8    3.42    0.46
   0   0   8    3.71    0.44
  -1   1  -8   -0.21    0.47
  -1   1  -8   -0.02    0.28
   1  -1   8   -0.17    0.25
   1  -1   8    0.01    0.32
  -2   2  -8   21.60    1.19
  -2   2  -8   21.92    0.77
   2  -2   8   21.01    0.79
   2  -2   8   21.48    0.91
  -3   3  -8    4.98    0.56
  -3   3  -8    5.29    0.81
   3  -3   8    5.58    0.56
   3  -3   8    5.27    0.44
  -4   4  -8    0.43    0.56
  -4   4  -8    0.46    0.43
   4  -4   8    0.74    0.38
   4  -4   8    0.68    0.30
   4  -4   8    0.36    0.37
  -5   5  -8   -0.72    0.40
  -5   5  -8    0.44    0.59
   5  -5   8   -0.07    0.39
   5  -5   8    0.25    0.39
   5  -5   8    0.08    0.30
  -6   6  -8    0.88    0.68
  -6   6  -8    1.03    0.48
   6  -6   8    0.50    0.41
   6  -6   8    0.47    0.38
   7  -7   8    0.21    0.43
   7  -7   8    0.61    0.38
   8  -8   8    0.55    0.46
  -7   8   7   -0.01    0.54
  -6   7   7   -0.46    0.47
   5  -6  -7    1.54    0.45
  -5   6   7    1.50    0.55
   4  -5  -7    0.95    0.39
  -4   5   7    0.77    0.46
   3  -4  -7    0.43    0.33
  -3   4   7    0.73    0.38
   2  -3  -7    0.43    0.28
  -2   3   7    0.73    0.40
   1  -2  -7    0.32    0.27
  -1   2   7   -0.09    0.32
  -1   2   7   -0.26    0.26
   0  -1  -7    2.30    0.33
   0  -1  -7    1.99    0.63
   0   1   7    2.57    0.34
   0   1   7    2.60    0.44
  -1   0  -7    4.19    0.44
  -1   0  -7    3.42    0.69
   1   0   7    4.49    0.51
   1   0   7    3.97    0.38
  -2   1  -7    6.96    0.81
  -2   1  -7    6.82    0.54
   2  -1   7    5.74    0.48
   2  -1   7    6.07    0.63
  -3   2  -7    4.96    0.45
  -3   2  -7    4.57    0.72
   3  -2   7    4.57    0.53
   3  -2   7    5.29    0.43
  -4   3  -7    3.55    0.40
  -4   3  -7    2.58    0.66
  -4   3  -7    2.63    0.50
   4  -3   7    3.09    0.47
   4  -3   7    3.55    0.41
   4  -3   7    3.91    0.49
  -5   4  -7    0.79    0.57
  -5   4  -7    0.67    0.43
   5  -4   7    0.17    0.40
   5  -4   7    0.79    0.38
   5  -4   7    0.85    0.34
  -6   5  -7    1.43    0.49
  -6   5  -7    3.42    0.74
   6  -5   7    3.02    0.45
   6  -5   7    2.72    0.50
   6  -5   7    3.01    0.50
  -7   6  -7    0.13    0.67
   7  -6   7    0.55    0.37
   7  -6   7    0.34    0.45
  -8   7  -7   -0.14    0.51
   8  -7   7    0.50    0.46
   8  -7   7    0.77    0.43
  -9   8  -7   -0.04    0.52
  -7   9   6   -0.21    0.51
  -6   8   6   -0.09    0.48
   5  -7  -6    0.18    0.38
  -5   7   6   -0.09    0.49
   4  -6  -6    0.20    0.32
  -4   6   6    0.22    0.43
   3  -5  -6    0.72    0.33
  -3   5   6    0.86    0.40
   2  -4  -6    0.12    0.27
  -2   4   6    0.01    0.35
   1  -3  -6    0.73    0.27
  -1   3   6    0.96    0.37
   0  -2  -6    0.29    0.25
   0  -2  -6    0.45    0.52
   0   2   6    0.23    0.32
   0   2   6    0.12    0.23
  -1  -1  -6    0.22    0.51
  -1  -1  -6    0.64    0.26
   1   1   6    0.49    0.23
   1   1   6    0.53    0.34
  -2   0  -6    4.56    0.47
  -2   0  -6    5.41    0.72
   2   0   6    5.21    0.45
   2   0   6    4.30    0.59
  -3   1  -6    6.66    0.47
  -3   1  -6    6.79    0.80
   3  -1   6    6.49    0.45
   3  -1   6    5.82    0.57
  -4   2  -6   63.90    1.66
  -4   2  -6   63.16    2.04
  -4   2  -6   70.75    1.97
   4  -2   6   65.80    1.96
   4  -2   6   65.75    1.91
   4  -2   6   62.50    1.68
  -5   3  -6   -0.03    0.29
  -5   3  -6    0.25    0.54
  -5   3  -6    0.32    0.44
   5  -3   6   -0.51    0.41
   5  -3   6   -0.01    0.36
   5  -3   6    0.03    0.27
  -6   4  -6   -0.04    0.55
  -6   4  -6   -0.90    0.42
   6  -4   6    0.35    0.37
   6  -4   6    0.11    0.40
   6  -4   6    0.34    0.31
  -7   5  -6    0.34    0.45
  -7   5  -6    0.99    0.67
   7  -5   6   -0.01    0.38
   7  -5   6    1.02    0.46
   7  -5   6    0.50    0.46
  -8   6  -6    2.23    0.55
   8  -6   6    1.76    0.48
   8  -6   6    1.40    0.51
  -9   7  -6    0.96    0.52
   9  -7   6    0.47    0.49
 -10   8  -6    1.16    0.55
  -7  10   5   -0.46    0.50
  -6   9   5   -0.02    0.47
   5  -8  -5    0.58    0.40
  -5   8   5    1.09    0.52
   4  -7  -5    0.10    0.34
  -4   7   5    0.57    0.44
   3  -6  -5    1.92    0.36
  -3   6   5    2.22    0.44
   2  -5  -5    0.28    0.26
  -2   5   5    1.33    0.37
   1  -4  -5    0.30    0.32
   1  -4  -5    0.59    0.25
  -1   4   5    0.52    0.34
   0  -3  -5    3.59    0.36
   0  -3  -5    3.33    0.45
   0   3   5    3.69    0.50
  -1  -2  -5   15.26    0.77
  -1  -2  -5   16.85    0.99
  -1  -2  -5   15.08    0.63
   1   2   5   16.02    0.60
   1   2   5   15.36    0.71
  -2  -1  -5    0.54    0.26
  -2  -1  -5    0.96    0.48
   2   1   5    0.26    0.24
   2   1   5    0.37    0.33
  -3   0  -5   -0.08    0.27
  -3   0  -5   -0.03    0.46
   3   0   5    0.12    0.25
   3   0   5    0.31    0.36
  -4   1  -5    1.43    0.56
  -4   1  -5    1.72    0.34
   4  -1   5    0.87    0.43
   4  -1   5    2.01    0.40
   4  -1   5    1.80    0.32
  -5   2  -5    1.31    0.58
  -5   2  -5    1.58    0.42
  -5   2  -5    0.92    0.33
   5  -2   5    1.01    0.37
   5  -2   5   -0.04    0.46
   5  -2   5    1.25    0.34
  -6   3  -5   20.99    0.79
  -6   3  -5   22.15    0.98
   6  -3   5   21.41    1.01
   6  -3   5   19.97    0.83
   6  -3   5   20.37    0.94
  -7   4  -5   -0.46    0.41
  -7   4  -5    0.19    0.62
   7  -4   5    0.17    0.33
   7  -4   5   -0.24    0.43
   7  -4   5   -0.06    0.38
  -8   5  -5    0.24    0.71
  -8   5  -5    0.32    0.49
   8  -5   5    0.09    0.44
   8  -5   5    1.05    0.50
   8  -5   5    0.56    0.37
  -9   6  -5    0.87    0.52
   9  -6   5    0.61    0.50
   9  -6   5    0.04    0.43
 -10   7  -5    0.72    0.54
  -6  10   4    0.19    0.49
   5  -9  -4    1.16    0.41
  -5   9   4   -0.52    0.42
   4  -8  -4    0.39    0.35
  -4   8   4    0.27    0.42
   3  -7  -4    0.76    0.31
  -3   7   4    0.92    0.38
   2  -6  -4    0.40    0.33
   2  -6  -4    0.69    0.29
  -2   6   4    0.91    0.37
   1  -5  -4    0.72    0.26
   1  -5  -4    0.26    0.30
  -1   5   4    0.87    0.34
   0  -4  -4    7.34    0.43
   0  -4  -4    6.94    0.52
   0   4   4    6.40    0.52
  -1  -3  -4   17.49    0.65
  -1  -3  -4   17.54    0.83
   1   3   4   17.82    0.77
  -2  -2  -4    6.89    0.53
  -2  -2  -4    6.45    0.46
  -2  -2  -4    7.67    0.74
   2   2   4    7.48    0.59
   2   2   4    7.83    0.44
  -3  -1  -4    6.46    0.72
  -3  -1  -4    6.17    0.48
   3   1   4    6.97    0.41
   3   1   4    7.21    0.63
  -4   0  -4    1.56    0.58
  -4   0  -4    1.31    0.31
  -4   0  -4    1.09    0.39
   4   0   4    1.29    0.45
   4   0   4    1.27    0.34
   4   0   4    1.48    0.28
  -5   1  -4    1.80    0.44
  -5   1  -4    2.16    0.63
  -5   1  -4    1.45    0.32
   5  -1   4    1.73    0.38
   5  -1   4    1.55    0.33
  -6   2  -4   15.00    0.71
  -6   2  -4   17.67    0.85
  -6   2  -4   14.80    1.13
   6  -2   4   13.09    0.67
   6  -2   4   18.93    0.98
   6  -2   4   15.89    0.83
  -7   3  -4    0.38    0.36
  -7   3  -4   -0.06    0.40
  -7   3  -4    0.73    0.65
   7  -3   4    0.57    0.32
   7  -3   4   -0.28    0.48
   7  -3   4    0.44    0.42
  -8   4  -4    3.80    0.59
  -8   4  -4    3.98    0.90
   8  -4   4    5.22    0.68
   8  -4   4    2.87    0.63
   8  -4   4    3.41    0.49
  -9   5  -4   -0.11    0.68
  -9   5  -4   -0.16    0.50
   9  -5   4    0.68    0.49
   9  -5   4   -0.48    0.42
 -10   6  -4    0.25    0.54
  10  -6   4    0.21    0.49
   5 -10  -3    0.01    0.35
   4  -9  -3   -0.32    0.32
  -4   9   3   -0.32    0.41
   3  -8  -3    7.39    0.63
   3  -8  -3    5.97    0.52
  -3   8   3    6.43    0.57
   2  -7  -3    2.21    0.32
   2  -7  -3    2.22    0.38
  -2   7   3    2.51    0.41
   1  -6  -3   35.79    1.35
   1  -6  -3   38.19    1.04
  -1   6   3   37.96    1.20
   0  -5  -3    0.31    0.22
   0  -5  -3    0.19    0.28
   0   5   3   -0.24    0.28
  -1  -4  -3    9.75    0.61
  -1  -4  -3   10.33    0.49
   1   4   3    9.44    0.58
  -2  -3  -3   11.92    0.65
  -2  -3  -3   12.59    0.56
  -2  -3  -3   11.84    0.54
   2   3   3   13.18    0.65
  -3  -2  -3    2.14    0.36
  -3  -2  -3    2.36    0.30
  -3  -2  -3    2.55    0.34
   3   2   3    2.72    0.29
   3   2   3    1.77    0.41
  -4  -1  -3    3.55    0.40
  -4  -1  -3    3.08    0.39
  -4  -1  -3    3.76    0.66
   4   1   3    3.37    0.49
   4   1   3    4.12    0.53
   4   1   3    3.81    0.37
  -5   0  -3    6.58    0.81
  -5   0  -3    4.86    0.44
   5   0   3    6.48    0.62
   5   0   3    5.75    0.48
   5   0   3    5.65    0.60
  -6   1  -3    7.44    0.53
  -6   1  -3    6.90    0.88
   6  -1   3    7.30    0.67
   6  -1   3    6.20    0.51
   6  -1   3    5.59    0.74
  -7   2  -3   -0.05    0.33
  -7   2  -3   -0.28    0.38
  -7   2  -3   -0.32    0.54
   7  -2   3    0.32    0.38
   7  -2   3    0.74    0.49
   7  -2   3   -0.18    0.30
  -8   3  -3    4.73    0.91
  -8   3  -3    6.71    0.73
  -8   3  -3    6.08    0.57
   8  -3   3    5.88    0.75
   8  -3   3    5.76    0.59
   8  -3   3    7.10    0.71
  -9   4  -3    0.51    0.47
   9  -4   3    0.82    0.44
   9  -4   3    1.32    0.53
   9  -4   3   -1.00    0.58
 -10   5  -3   -0.06    0.52
  10  -5   3    0.52    0.48
  10  -5   3    0.54    0.44
 -11   6  -3   -0.15    0.56
   4 -10  -2    0.90    0.36
   3  -9  -2    1.15    0.32
   3  -9  -2    0.77    0.34
   2  -8  -2    1.16    0.34
   2  -8  -2    1.21    0.29
   1  -7  -2    7.53    0.44
   1  -7  -2    7.54    0.55
   0  -6  -2    4.77    0.38
   0  -6  -2    3.38    0.42
   0  -6  -2    4.35    0.46
   0   6   2    4.05    0.44
  -1  -5  -2   59.43    1.88
  -1  -5  -2   58.09    1.89
  -1  -5  -2   58.94    1.42
   1   5   2   57.60    1.65
  -2  -4  -2    1.63    0.28
  -2  -4  -2    1.00    0.28
  -2  -4  -2    1.21    0.24
  -2  -4  -2    1.21    0.30
   2   4   2    1.50    0.34
  -3  -3  -2    0.60    0.30
  -3  -3  -2    1.16    0.28
  -3  -3  -2    1.04    0.25
   3   3   2    0.53    0.37
  -4  -2  -2    4.76    0.46
  -4  -2  -2    3.78    0.42
  -4  -2  -2    3.66    0.53
   4   2   2    4.87    0.58
  -5  -1  -2    0.64    0.29
   5   1   2    0.59    0.33
  -6   0  -2    8.25    0.54
   6   0   2    8.05    0.51
   6   0   2    7.91    0.61
  -7   1  -2    0.42    0.34
  -7   1  -2   -0.09    0.39
   7  -1   2    0.09    0.30
   7  -1   2    0.99    0.42
  -8   2  -2   11.36    0.64
   8  -2   2   12.34    0.77
   8  -2   2   11.68    0.69
  -9   3  -2    0.63    0.50
   9  -3   2    0.51    0.37
   9  -3   2    0.48    0.46
 -10   4  -2    0.28    0.52
  10  -4   2    1.41    0.52
  10  -4   2    0.45    0.60
 -11   5  -2   -0.04    0.56
   4 -11  -1   -0.22    0.31
   3 -10  -1    0.20    0.31
   2  -9  -1    0.41    0.26
   2  -9  -1    0.33    0.29
   1  -8  -1   -0.21    0.25
   1  -8  -1    0.66    0.23
   1  -8  -1    0.00    0.25
   0  -7  -1    0.48    0.22
   0  -7  -1    0.11    0.20
   0  -7  -1   -0.14    0.24
  -1  -6  -1   17.92    0.75
  -1  -6  -1   18.70    0.73
  -1  -6  -1   17.59    0.76
  -1  -6  -1   19.47    0.62
  -2  -5  -1   19.10    0.77
  -2  -5  -1   17.46    0.78
  -2  -5  -1   18.00    0.73
  -2  -5  -1   18.23    0.62
   2   5   1   16.73    0.73
  -3  -4  -1    9.36    0.46
  -3  -4  -1    9.93    0.61
  -3  -4  -1    9.32    0.60
  -3  -4  -1    9.23    0.57
   3   4   1   10.70    0.64
  -4  -3  -1    0.56    0.25
  -4  -3  -1    1.32    0.36
  -4  -3  -1    0.64    0.32
  -5  -2  -1    0.19    0.25
  -5  -2  -1    1.62    0.38
  -5  -2  -1    0.57    0.32
  -5  -2  -1    0.07    0.30
  -6  -1  -1    7.49    0.49
  -6  -1  -1    9.32    0.63
  -7   0  -1    0.09    0.30
  -7   0  -1   -0.49    0.36
  -8   1  -1    0.15    0.36
  -8   1  -1    0.22    0.41
  -9   2  -1    0.36    0.41
  -9   2  -1    0.22    0.47
 -10   3  -1    5.40    0.80
 -11   4  -1    0.04    0.55
   4 -12   0    0.64    0.33
   3 -11   0    0.46    0.35
   2 -10   0   -0.02    0.24
   2 -10   0    0.46    0.26
   1  -9   0    0.39    0.23
   1  -9   0   -0.05    0.21
   0  -8   0    0.68    0.24
   0  -8   0    0.59    0.22
   0  -8   0    1.29    0.32
   0  -8   0    0.92    0.22
  -1  -7   0    3.42    0.44
  -1  -7   0    2.34    0.33
  -1  -7   0    2.32    0.33
  -1  -7   0    3.25    0.34
  -2  -6   0    0.65    0.26
  -2  -6   0    0.87    0.22
  -2  -6   0    0.91    0.29
  -2  -6   0    0.46    0.23
  -3  -5   0   49.05    1.67
  -3  -5   0   53.38    1.55
  -3  -5   0   50.19    1.25
  -3  -5   0   50.78    1.68
  -4  -4   0    9.67    0.57
  -4  -4   0    9.92    0.62
  -4  -4   0    9.94    0.49
  -5  -3   0   -0.30    0.29
  -5  -3   0    0.04    0.25
  -5  -3   0   -0.01    0.30
  -6  -2   0    1.02    0.38
  -6  -2   0    0.26    0.26
  -6  -2   0    0.46    0.34
  -7  -1   0    0.51    0.36
  -7  -1   0    0.09    0.28
  -7  -1   0    0.03    0.36
  -8   0   0    0.08    0.34
  -8   0   0    0.10    0.39
  -9   1   0   -0.18    0.39
  -9   1   0    0.24    0.46
 -10   2   0    1.16    0.54
 -10   2   0    0.76    0.46
 -11   3   0    0.04    0.54
   1 -10   1   -0.02    0.17
   1 -10   1    0.09    0.19
   1 -10   1    0.07    0.21
   0  -9   1    0.17    0.19
   0  -9   1    0.25    0.33
   0  -9   1    0.22    0.18
   0  -9   1   -0.12    0.16
  -1  -8   1    0.22    0.30
  -1  -8   1    0.09    0.20
  -1  -8   1    0.42    0.17
  -1  -8   1    0.12    0.18
  -2  -7   1    0.48    0.20
  -2  -7   1    0.68    0.24
  -2  -7   1    0.23    0.29
  -3  -6   1   11.37    0.48
  -3  -6   1   12.13    0.66
  -3  -6   1   11.83    0.58
  -3  -6   1   11.17    0.59
  -4  -5   1    2.85    0.38
  -4  -5   1    4.05    0.45
  -4  -5   1    3.11    0.43
  -4  -5   1    3.02    0.35
  -5  -4   1   15.11    0.77
  -5  -4   1   15.17    0.60
  -6  -3   1    0.65    0.29
  -6  -3   1    0.60    0.37
  -6  -3   1    0.57    0.35
  -7  -2   1    1.42    0.41
  -7  -2   1    1.53    0.35
  -7  -2   1    1.14    0.31
  -8  -1   1    0.31    0.35
  -8  -1   1    0.44    0.36
  -8  -1   1   -0.11    0.37
  -8  -1   1    0.15    0.44
  -9   0   1    0.23    0.46
  -9   0   1   -0.29    0.49
  -9   0   1    0.14    0.37
 -10   1   1   -1.09    0.51
 -10   1   1   -0.14    0.48
 -10   1   1   -0.40    0.38
 -11   2   1    0.27    0.52
 -11   2   1   -0.88    0.57
   1 -11   2    0.60    0.41
   0 -10   2    0.91    0.38
  -1  -9   2    1.60    0.39
  -2  -8   2   -0.16    0.13
  -2  -8   2    0.14    0.32
  -2  -8   2    0.13    0.17
  -2  -8   2   -0.12    0.14
  -3  -7   2    1.24    0.22
  -3  -7   2    1.34    0.24
  -3  -7   2    1.23    0.36
  -3  -7   2    1.72    0.29
  -4  -6   2    4.84    0.38
  -4  -6   2    4.16    0.41
  -4  -6   2    5.02    0.54
  -4  -6   2    4.08    0.43
  -5  -5   2   37.62    1.05
  -5  -5   2   39.25    1.32
  -5  -5   2   36.36    1.36
  -6  -4   2    3.50    0.43
  -6  -4   2    3.93    0.56
  -6  -4   2    3.25    0.50
  -6  -4   2    3.73    0.43
  -7  -3   2   -0.02    0.29
  -7  -3   2    0.12    0.30
  -7  -3   2   -0.01    0.36
  -8  -2   2    0.34    0.34
  -8  -2   2    0.19    0.39
  -8  -2   2    0.23    0.35
  -9  -1   2    0.07    0.49
  -9  -1   2    0.48    0.42
  -9  -1   2    0.18    0.40
 -10   0   2   -0.28    0.43
 -10   0   2    0.22    0.43
   1 -12   3   -0.19    0.48
   0 -11   3    0.27    0.42
  -1 -10   3    1.16    0.41
  -2  -9   3    0.87    0.39
  -3  -8   3    1.45    0.21
  -3  -8   3    1.58    0.22
  -3  -8   3    1.18    0.21
  -3  -8   3    1.49    0.40
  -4  -7   3    0.64    0.33
  -4  -7   3    0.84    0.22
  -4  -7   3    0.11    0.24
  -4  -7   3    0.23    0.23
  -5  -6   3    0.46    0.27
  -5  -6   3    0.03    0.27
  -5  -6   3    0.51    0.25
  -5  -6   3    0.34    0.34
  -6  -5   3    5.37    0.61
  -6  -5   3    5.31    0.45
  -6  -5   3    5.50    0.56
  -7  -4   3   15.98    0.88
  -8  -3   3    0.09    0.41
  -8  -3   3    0.08    0.36
  -9  -2   3   -0.50    0.44
  -9  -2   3    0.15    0.39
 -10  -1   3    0.43    0.44
 -10  -1   3   -0.28    0.42
 -10  -1   3    0.31    0.47
 -11   0   3   -0.53    0.53
   0 -12   4    1.61    0.53
  -1 -11   4    0.90    0.44
  -2 -10   4    1.05    0.44
  -3  -9   4   -0.08    0.34
  -4  -8   4    1.83    0.25
  -4  -8   4    1.30    0.22
  -4  -8   4    1.52    0.40
  -4  -8   4    1.88    0.27
  -5  -7   4    0.84    0.26
  -5  -7   4    0.55    0.29
  -5  -7   4    0.83    0.27
  -5  -7   4    0.57    0.27
  -5  -7   4    1.42    0.40
  -6  -6   4    0.09    0.36
  -6  -6   4   -0.14    0.29
  -6  -6   4    0.58    0.33
  -7  -5   4    6.11    0.61
  -7  -5   4    5.20    0.50
  -8  -4   4    4.09    0.51
  -8  -4   4    4.52    0.69
  -9  -3   4    1.51    0.44
  -9  -3   4    1.82    0.53
 -10  -2   4    0.90    0.44
 -10  -2   4   -0.18    0.48
 -11  -1   4   -0.58    0.50
   0 -13   5    3.00    0.63
  -1 -12   5    1.07    0.51
  -2 -11   5    0.65    0.44
  -3 -10   5    0.94    0.43
  -4  -9   5    0.89    0.44
  -5  -8   5   -0.24    0.20
  -5  -8   5    0.19    0.38
  -5  -8   5    0.55    0.24
  -5  -8   5   -0.19    0.26
  -6  -7   5    0.78    0.31
  -6  -7   5    0.73    0.42
  -6  -7   5    0.67    0.32
  -7  -6   5    1.41    0.46
  -7  -6   5    1.57    0.39
  -7  -6   5    1.21    0.43
  -8  -5   5    0.43    0.41
  -8  -5   5   -0.19    0.36
  -9  -4   5    1.15    0.50
  -9  -4   5    1.05    0.44
 -10  -3   5    0.38    0.50
 -11  -2   5   -0.49    0.47
  -1 -13   6    2.17    0.60
  -2 -12   6    5.05    0.71
  -3 -11   6    0.71    0.46
  -4 -10   6    0.56    0.44
  -5  -9   6    1.17    0.48
  -6  -8   6   -0.16    0.31
  -6  -8   6    0.10    0.42
  -7  -7   6   -0.03    0.36
  -7  -7   6    0.02    0.43
  -8  -6   6   -0.32    0.41
  -8  -6   6    0.12    0.44
  -9  -5   6    2.96    0.58
  -9  -5   6    2.14    0.49
 -10  -4   6    0.02    0.47
  -1 -14   7    0.97    0.58
  -2 -13   7    1.33    0.55
  -3 -12   7    3.38    0.66
  -4 -11   7    0.86    0.49
  -5 -10   7    0.66    0.45
  -6  -9   7   -0.19    0.45
  -7  -8   7    0.11    0.38
  -7  -8   7    1.24    0.50
  -8  -7   7   -0.08    0.40
  -8  -7   7   -0.98    0.39
  -9  -6   7    0.09    0.47
 -10  -5   7    0.26    0.52
  -3 -13   8    0.56    0.51
  -4 -12   8    1.63    0.58
  -5 -11   8    1.16    0.52
  -6 -10   8    0.38    0.49
  -7  -9   8   -0.17    0.43
  -8  -8   8    0.20    0.48
  -9  -7   8    0.41    0.49
  -5   0  14   -0.10    0.54
  -4  -1  14    0.04    0.55
  -2  -3  14    0.33    0.43
  -1  -4  14   -0.17    0.39
   0  -5  14   -0.12    0.37
   1  -6  14    0.58    0.42
  -6   2  13    0.13    0.59
  -5   1  13   -0.29    0.52
  -4   0  13   -0.07    0.52
  -3  -1  13   -0.02    0.48
   2   2 -13   -0.81    0.72
  -2  -2  13    0.12    0.48
  -2  -2  13   -0.23    0.39
   1   3 -13   -0.19    0.72
  -1  -3  13    0.27    0.36
   0   4 -13    3.99    0.96
   0  -4  13    3.62    0.52
   1  -5  13   -0.06    0.35
   2  -6  13   -0.14    0.36
   3  -7  13    0.32    0.40
  -6   3  12    0.06    0.54
  -5   2  12   -0.34    0.51
  -4   1  12    0.06    0.49
  -3   0  12    0.10    0.49
  -3   0  12   -0.73    0.36
   2   1 -12    0.07    0.68
  -2  -1  12    0.14    0.34
  -2  -1  12    0.34    0.47
   1   2 -12    0.45    0.68
  -1  -2  12    0.33    0.44
  -1  -2  12    0.22    0.36
   0   3 -12    0.23    0.63
   0  -3  12    0.34    0.34
   0  -3  12   -0.05    0.42
  -1   4 -12    2.98    0.86
   1  -4  12    3.04    0.48
  -2   5 -12    2.09    0.77
   2  -5  12    1.52    0.42
   3  -6  12    0.17    0.36
   4  -7  12    0.29    0.38
  -6   9 -12    1.14    0.55
  -6   4  11   -0.18    0.48
   5  -3 -11    0.48    0.46
  -5   3  11    0.00    0.52
   4  -2 -11    0.49    0.42
  -4   2  11    0.37    0.51
   3  -1 -11    0.82    0.43
  -3   1  11    0.38    0.47
   2   0 -11    1.12    0.38
  -2   0  11    1.19    0.45
  -2   0  11    1.34    0.37
   1   1 -11    0.95    0.67
  -1  -1  11    0.63    0.33
  -1  -1  11    1.46    0.48
   0   2 -11    0.43    0.63
   0  -2  11    1.05    0.45
   0  -2  11    0.79    0.36
  -1   3 -11    1.53    0.69
   1  -3  11    0.70    0.35
   1  -3  11    0.87    0.42
  -2   4 -11   -0.07    0.59
   2  -4  11    0.92    0.44
   2  -4  11    0.56    0.33
  -3   5 -11    0.45    0.64
   3  -5  11    0.79    0.38
  -4   6 -11   -0.31    0.64
   4  -6  11    0.09    0.38
  -5   7 -11    0.83    0.53
   5  -7  11    0.64    0.40
  -6   8 -11    1.05    0.53
  -6   5  10    0.06    0.53
   5  -4 -10    1.90    0.48
  -5   4  10    1.50    0.59
   4  -3 -10    0.70    0.44
  -4   3  10    0.12    0.48
   3  -2 -10    1.48    0.43
  -3   2  10    0.41    0.46
   2  -1 -10    3.20    0.46
  -2   1  10    3.10    0.42
  -2   1  10    2.78    0.50
   1   0 -10    2.79    0.43
   1   0 -10    2.01    0.72
  -1   0  10    1.72    0.35
  -1   0  10    1.55    0.49
   0   1 -10   -0.14    0.55
   0   1 -10    0.52    0.32
   0  -1  10    0.51    0.30
   0  -1  10    0.52    0.40
  -1   2 -10    0.72    0.61
   1  -2  10    0.39    0.40
   1  -2  10    0.09    0.28
  -2   3 -10    1.60    0.64
   2  -3  10    2.36    0.38
   2  -3  10    1.94    0.42
  -3   4 -10   -0.21    0.52
   3  -4  10    0.13    0.37
   3  -4  10   -0.09    0.30
  -4   5 -10    0.28    0.60
   4  -5  10    0.40    0.34
  -5   6 -10    0.58    0.67
  -5   6 -10    1.19    0.52
   5  -6  10    0.35    0.39
  -6   7 -10   -1.11    0.57
   6  -7  10    1.12    0.40
   6  -7  10    0.83    0.44
  -6   6   9    0.06    0.52
   5  -5  -9    0.20    0.43
  -5   5   9    0.18    0.53
   4  -4  -9    2.25    0.46
  -4   4   9    2.13    0.53
   3  -3  -9    1.40    0.44
  -3   3   9    1.27    0.44
   2  -2  -9    0.62    0.33
  -2   2   9    0.37    0.41
   1  -1  -9    0.42    0.33
  -1   1   9    0.16    0.29
  -1   1   9    0.38    0.40
   0   0  -9    3.59    0.45
   0   0  -9    2.58    0.72
   0   0   9    3.27    0.40
   0   0   9    3.00    0.47
  -1   1  -9    0.41    0.29
  -1   1  -9   -0.55    0.48
   1  -1   9   -0.26    0.36
   1  -1   9    0.09    0.29
  -2   2  -9    0.16    0.51
  -2   2  -9    0.62    0.30
   2  -2   9    0.37    0.31
   2  -2   9    0.23    0.39
  -3   3  -9    0.47    0.56
   3  -3   9    0.97    0.33
   3  -3   9    0.40    0.39
  -4   4  -9    1.39    0.64
  -4   4  -9    1.91    0.47
   4  -4   9    1.42    0.44
   4  -4   9    1.22    0.35
  -5   5  -9   -0.11    0.48
  -5   5  -9    0.68    0.67
   5  -5   9    0.23    0.42
   5  -5   9    0.04    0.33
  -6   6  -9   -0.91    0.55
  -6   6  -9   -0.10    0.67
   6  -6   9    0.77    0.43
   6  -6   9    0.63    0.40
  -7   7  -9   -0.17    0.56
   7  -7   9    0.70    0.42
   7  -7   9    0.60    0.47
  -8   8  -9    0.53    0.56
  -6   7   8    0.10    0.53
   5  -6  -8   -0.05    0.38
  -5   6   8    0.12    0.52
   4  -5  -8    0.49    0.41
  -4   5   8    0.49    0.50
   3  -4  -8    0.41    0.39
  -3   4   8    1.21    0.46
   2  -3  -8    4.47    0.47
  -2   3   8    4.33    0.56
   1  -2  -8   -0.01    0.28
  -1   2   8   -0.16    0.35
   0  -1  -8    0.12    0.53
   0  -1  -8   -0.05    0.30
   0   1   8   -0.07    0.39
   0   1   8    0.02    0.26
  -1   0  -8    2.25    0.36
  -1   0  -8    2.66    0.66
   1   0   8    2.47    0.47
   1   0   8    2.17    0.35
  -2   1  -8    0.34    0.58
  -2   1  -8    0.44    0.30
   2  -1   8    0.53    0.41
   2  -1   8    0.59    0.31
  -3   2  -8    1.02    0.58
  -3   2  -8   -0.17    0.34
   3  -2   8    0.89    0.31
   3  -2   8    0.90    0.43
  -4   3  -8    0.34    0.42
  -4   3  -8    0.11    0.53
   4  -3   8    0.87    0.33
   4  -3   8    0.55    0.42
  -5   4  -8   -0.53    0.43
  -5   4  -8    0.98    0.61
   5  -4   8    0.58    0.40
   5  -4   8    0.79    0.42
   5  -4   8    0.74    0.34
  -6   5  -8    1.05    0.66
  -6   5  -8    0.08    0.53
   6  -5   8    1.64    0.48
   6  -5   8    0.96    0.45
   6  -5   8    1.62    0.42
  -7   6  -8    0.79    0.54
   7  -6   8    0.99    0.40
   7  -6   8    0.71    0.47
  -8   7  -8    0.48    0.53
   8  -7   8    0.50    0.48
  -9   8  -8   -0.15    0.58
  -6   8   7   -0.01    0.51
   5  -7  -7    0.63    0.41
  -5   7   7   -0.02    0.52
   4  -6  -7    2.19    0.45
  -4   6   7    2.29    0.56
   3  -5  -7    1.07    0.38
  -3   5   7    0.47    0.44
   2  -4  -7    0.70    0.31
  -2   4   7    0.77    0.42
   1  -3  -7    2.43    0.35
  -1   3   7    2.20    0.43
   0  -2  -7    2.29    0.34
   0   2   7    2.17    0.31
   0   2   7    2.28    0.45
  -1  -1  -7    0.72    0.29
  -1  -1  -7    0.38    0.52
   1   1   7    0.31    0.25
   1   1   7    0.77    0.40
  -2   0  -7    5.46    0.81
  -2   0  -7    4.67    0.44
   2   0   7    4.36    0.62
   2   0   7    5.00    0.43
  -3   1  -7    1.94    0.33
  -3   1  -7    2.12    0.63
   3  -1   7    1.06    0.44
   3  -1   7    1.70    0.34
  -4   2  -7    0.47    0.53
  -4   2  -7    0.45    0.30
  -4   2  -7   -0.41    0.39
   4  -2   7    0.47    0.31
   4  -2   7   -0.48    0.41
  -5   3  -7    1.64    0.36
  -5   3  -7    1.98    0.67
   5  -3   7    1.36    0.36
   5  -3   7    1.81    0.48
   5  -3   7    1.77    0.44
  -6   4  -7   -0.86    0.43
  -6   4  -7    0.26    0.57
   6  -4   7    0.28    0.42
   6  -4   7    0.21    0.35
   6  -4   7    0.27    0.42
  -7   5  -7    1.76    0.73
  -7   5  -7    2.23    0.56
   7  -5   7    1.49    0.52
   7  -5   7    1.55    0.49
   7  -5   7    1.54    0.44
   8  -6   7    0.37    0.42
   8  -6   7    0.22    0.47
  -6   9   6   -0.28    0.48
   5  -8  -6    0.78    0.40
  -5   8   6   -0.13    0.51
   4  -7  -6    0.58    0.37
  -4   7   6   -0.12    0.46
   3  -6  -6    0.63    0.34
  -3   6   6    0.24    0.43
   2  -5  -6    1.86    0.35
  -2   5   6    1.73    0.42
   1  -4  -6    4.17    0.45
  -1   4   6    4.00    0.58
   0  -3  -6    0.30    0.27
   0   3   6    0.29    0.33
  -1  -2  -6    3.11    0.40
   1   2   6    2.95    0.36
   1   2   6    2.71    0.43
  -2  -1  -6    1.69    0.56
  -2  -1  -6    1.37    0.31
   2   1   6    1.33    0.40
   2   1   6    1.66    0.29
  -3   0  -6   16.57    1.08
  -3   0  -6   14.20    0.62
   3   0   6   15.09    0.84
   3   0   6   15.34    0.63
  -4   1  -6   -0.08    0.28
  -4   1  -6   -0.87    0.39
  -4   1  -6   -0.01    0.52
   4  -1   6    0.17    0.27
   4  -1   6   -0.60    0.42
  -5   2  -6    3.71    0.42
  -5   2  -6    2.90    0.71
   5  -2   6    3.82    0.55
   5  -2   6    3.66    0.43
   5  -2   6    3.32    0.58
  -6   3  -6    1.07    0.62
  -6   3  -6    1.38    0.38
   6  -3   6    1.63    0.37
   6  -3   6    1.28    0.43
   6  -3   6    1.11    0.47
  -7   4  -6    0.73    0.67
  -7   4  -6    2.50    0.57
   7  -4   6    1.07    0.40
   7  -4   6    0.99    0.48
   7  -4   6    0.77    0.45
  -8   5  -6   -0.08    0.68
  -8   5  -6    2.37    0.62
   8  -5   6    0.38    0.39
   8  -5   6    0.81    0.51
   8  -5   6    0.58    0.48
  -9   6  -6    0.18    0.58
   9  -6   6    0.93    0.52
   9  -6   6    0.70    0.42
 -10   7  -6   -1.34    0.55
  -6  10   5   -0.06    0.52
  -5   9   5   -0.12    0.47
   4  -8  -5    0.17    0.36
  -4   8   5    0.27    0.46
   3  -7  -5    1.69    0.38
  -3   7   5    2.05    0.47
   2  -6  -5   -0.45    0.27
  -2   6   5   -0.15    0.34
   1  -5  -5    0.38    0.28
  -1   5   5    0.74    0.38
   0  -4  -5    5.68    0.46
   0   4   5    5.26    0.53
  -1  -3  -5   29.12    0.90
   1   3   5   30.77    1.10
  -2  -2  -5    1.00    0.26
   2   2   5    0.84    0.39
  -3  -1  -5    5.95    0.45
  -3  -1  -5    5.23    0.75
   3   1   5    6.00    0.47
   3   1   5    6.52    0.65
  -4   0  -5   17.17    1.11
  -4   0  -5   16.85    0.67
   4   0   5   17.36    0.84
   4   0   5   16.90    0.69
  -5   1  -5    9.98    0.55
  -5   1  -5    9.64    1.00
   5  -1   5   10.64    0.60
   5  -1   5    7.45    0.79
  -6   2  -5    2.21    0.70
  -6   2  -5    1.82    0.39
   6  -2   5    3.13    0.42
   6  -2   5    2.61    0.55
   6  -2   5    3.07    0.52
  -7   3  -5   -0.12    0.33
  -7   3  -5   -0.09    0.55
   7  -3   5   -0.37    0.48
   7  -3   5   -0.09    0.41
   7  -3   5    0.58    0.36
  -8   4  -5    0.10    0.68
  -8   4  -5   -0.33    0.50
   8  -4   5    0.09    0.51
   8  -4   5    0.15    0.49
   8  -4   5   -0.35    0.38
  -9   5  -5   -0.13    0.47
   9  -5   5    0.89    0.52
   9  -5   5    0.85    0.54
   9  -5   5   -0.61    0.40
 -10   6  -5    0.38    0.54
   4  -9  -4    0.40    0.37
  -4   9   4    0.05    0.44
   3  -8  -4    0.00    0.33
  -3   8   4    0.00    0.39
   2  -7  -4    2.43    0.44
   2  -7  -4    1.57    0.34
  -2   7   4    1.78    0.42
   1  -6  -4    2.89    0.49
   1  -6  -4    2.87    0.35
  -1   6   4    3.57    0.51
   0  -5  -4   -0.08    0.29
   0  -5  -4    0.19    0.25
   0   5   4    0.30    0.33
  -1  -4  -4    6.00    0.52
  -1  -4  -4    5.69    0.45
   1   4   4    6.02    0.50
  -2  -3  -4   13.01    0.58
  -2  -3  -4   13.68    0.76
   2   3   4   14.42    0.69
  -3  -2  -4   12.39    0.63
  -3  -2  -4   11.91    0.57
   3   2   4   12.39    0.73
  -4  -1  -4    2.03    0.34
   4   1   4    2.37    0.33
   4   1   4    2.22    0.47
  -5   0  -4    1.26    0.45
  -5   0  -4    0.47    0.31
   5   0   4    0.73    0.37
   5   0   4    0.71    0.30
   5   0   4   -0.15    0.41
  -6   1  -4   10.13    0.70
  -6   1  -4   10.33    0.62
   6  -1   4   11.70    0.78
   6  -1   4   10.47    0.59
   6  -1   4   12.20    0.87
  -7   2  -4    0.24    0.34
   7  -2   4    0.35    0.42
   7  -2   4   -0.82    0.44
   7  -2   4    0.23    0.34
  -8   3  -4    5.89    0.67
   8  -3   4    7.62    0.77
   8  -3   4    6.09    0.62
   8  -3   4    5.47    0.75
  -9   4  -4   -0.62    0.48
   9  -4   4    0.27    0.38
   9  -4   4    0.73    0.52
 -10   5  -4   -0.28    0.51
  10  -5   4    0.12    0.49
   4 -10  -3    0.01    0.35
   3  -9  -3    0.16    0.33
   2  -8  -3    0.74    0.33
   2  -8  -3    1.52    0.33
   1  -7  -3    0.31    0.26
   1  -7  -3    0.05    0.28
  -1   7   3    0.41    0.35
   0  -6  -3    3.54    0.39
   0  -6  -3    3.97    0.51
   0   6   3    3.98    0.44
  -1  -5  -3    2.58    0.30
  -1  -5  -3    2.84    0.48
   1   5   3    2.80    0.40
  -2  -4  -3    1.94    0.37
  -2  -4  -3    1.92    0.29
   2   4   3    2.79    0.42
  -3  -3  -3    0.09    0.27
  -3  -3  -3    0.01    0.25
  -3  -3  -3   -0.08    0.30
   3   3   3    0.41    0.37
  -4  -2  -3    1.78    0.38
  -4  -2  -3    1.61    0.30
   4   2   3    1.32    0.45
  -5  -1  -3    0.38    0.37
  -5  -1  -3    1.48    0.33
   5   1   3    0.91    0.48
  -6   0  -3    1.36    0.46
  -6   0  -3   -0.01    0.28
   6   0   3   -0.03    0.44
   6   0   3    0.08    0.33
  -7   1  -3    0.69    0.36
   7  -1   3    0.60    0.51
   7  -1   3    0.93    0.43
  -8   2  -3   -0.70    0.44
  -8   2  -3   -0.02    0.35
   8  -2   3    0.38    0.44
   8  -2   3    0.05    0.55
  -9   3  -3    0.06    0.49
   9  -3   3    0.44    0.51
   9  -3   3   -1.29    0.59
 -10   4  -3    1.09    0.55
  10  -4   3   -0.10    0.63
  10  -4   3    2.56    0.59
 -11   5  -3    0.29    0.55
   4 -11  -2    0.05    0.41
   3 -10  -2    0.18    0.33
   2  -9  -2    0.46    0.30
   2  -9  -2    0.71    0.33
   1  -8  -2    3.22    0.45
   0  -7  -2    0.21    0.24
   0  -7  -2    0.08    0.27
  -1  -6  -2    0.20    0.26
  -1  -6  -2    0.16    0.22
  -2  -5  -2    1.71    0.34
  -2  -5  -2    2.05    0.28
   2   5   2    2.38    0.38
  -3  -4  -2    0.08    0.23
  -3  -4  -2   -0.09    0.29
  -3  -4  -2    0.20    0.28
   3   4   2   -0.81    0.36
  -4  -3  -2    0.76    0.27
  -4  -3  -2    0.67    0.33
  -4  -3  -2    0.54    0.34
   4   3   2    0.21    0.41
  -5  -2  -2    1.25    0.36
  -5  -2  -2    0.32    0.35
  -5  -2  -2    1.34    0.31
   5   2   2    1.30    0.46
  -6  -1  -2    4.76    0.63
  -7   0  -2    1.39    0.48
  -7   0  -2    0.50    0.31
  -8   1  -2    0.51    0.38
  -8   1  -2   -0.62    0.42
  -9   2  -2   -0.34    0.43
  -9   2  -2    0.26    0.41
 -10   3  -2    1.45    0.55
  10  -3   2    1.31    0.65
 -11   4  -2   -0.38    0.52
   3 -11  -1    1.71    0.36
   2 -10  -1    0.96    0.31
   1  -9  -1    0.98    0.27
   1  -9  -1    0.88    0.29
   0  -8  -1    0.43    0.22
   0  -8  -1   -0.07    0.21
   0  -8  -1    0.13    0.25
  -1  -7  -1    8.72    0.51
  -1  -7  -1    7.68    0.44
  -1  -7  -1    7.89    0.51
  -2  -6  -1    1.15    0.31
  -2  -6  -1    1.30    0.31
  -2  -6  -1    1.22    0.28
  -2  -6  -1    1.44    0.25
  -3  -5  -1    3.38    0.47
  -3  -5  -1    3.10    0.38
  -3  -5  -1    3.42    0.45
   3   5   1    2.44    0.44
  -4  -4  -1    0.15    0.31
  -4  -4  -1    0.40    0.25
  -4  -4  -1    1.06    0.35
   4   4   1    0.52    0.38
  -5  -3  -1    0.21    0.32
  -5  -3  -1   -0.07    0.34
  -5  -3  -1    0.03    0.25
  -6  -2  -1    0.34    0.38
  -6  -2  -1    0.15    0.27
  -6  -2  -1    1.27    0.42
  -7  -1  -1    0.00    0.41
  -7  -1  -1    0.09    0.30
  -7  -1  -1   -0.33    0.40
  -8   0  -1    0.41    0.37
  -8   0  -1    1.00    0.46
  -9   1  -1   -0.12    0.46
  -9   1  -1    0.23    0.41
 -10   2  -1    0.15    0.50
 -10   2  -1   -0.15    0.39
 -11   3  -1    0.26    0.54
   2 -11   0    0.41    0.30
   1 -10   0    3.74    0.42
   1 -10   0    2.63    0.36
   0  -9   0    0.23    0.22
   0  -9   0    0.17    0.21
   0  -9   0    0.16    0.22
  -1  -8   0    0.05    0.30
  -1  -8   0    0.37    0.20
  -1  -8   0   -0.23    0.20
  -1  -8   0   -0.23    0.21
  -2  -7   0   -0.01    0.20
  -2  -7   0    0.08    0.27
  -2  -7   0    0.18    0.30
  -3  -6   0    3.36    0.40
  -3  -6   0    2.73    0.35
  -3  -6   0    2.14    0.35
  -3  -6   0    2.93    0.41
  -4  -5   0    0.47    0.32
  -4  -5   0    0.31    0.29
  -4  -5   0    0.09    0.23
  -5  -4   0    2.70    0.34
  -5  -4   0    3.66    0.53
  -5  -4   0    3.30    0.46
  -6  -3   0    0.28    0.38
  -6  -3   0    0.32    0.29
  -7  -2   0    0.43    0.39
  -7  -2   0    0.71    0.33
  -8  -1   0    0.40    0.46
  -8  -1   0    0.70    0.34
  -9   0   0   -0.05    0.39
  -9   0   0   -0.10    0.43
  -9   0   0   -0.20    0.45
 -10   1   0    0.62    0.50
 -10   1   0    0.19    0.44
 -10   1   0    0.15    0.56
 -11   2   0    0.64    0.52
   0 -10   1    0.40    0.15
  -1  -9   1    0.20    0.20
  -1  -9   1   -0.33    0.16
  -1  -9   1    0.08    0.18
  -1  -9   1    0.47    0.35
  -2  -8   1    0.16    0.18
  -2  -8   1    0.11    0.32
  -2  -8   1    0.17    0.21
  -2  -8   1   -0.09    0.19
  -3  -7   1    3.55    0.36
  -3  -7   1    3.36    0.40
  -3  -7   1    3.79    0.37
  -3  -7   1    3.93    0.51
  -4  -6   1    4.15    0.47
  -4  -6   1    4.20    0.37
  -4  -6   1    2.55    0.39
  -4  -6   1    3.49    0.44
  -5  -5   1    1.29    0.37
  -5  -5   1    1.72    0.31
  -5  -5   1    1.84    0.38
  -6  -4   1    3.66    0.56
  -6  -4   1    3.28    0.53
  -6  -4   1    3.61    0.43
  -7  -3   1    1.93    0.45
  -7  -3   1    1.90    0.36
  -8  -2   1    0.70    0.34
  -8  -2   1    0.54    0.46
  -9  -1   1   -0.33    0.38
  -9  -1   1   -0.83    0.48
 -10   0   1    0.21    0.39
 -10   0   1   -0.35    0.47
 -11   1   1   -0.91    0.56
   0 -11   2    1.15    0.44
  -1 -10   2    0.57    0.40
  -2  -9   2    0.56    0.38
  -3  -8   2   -0.11    0.19
  -3  -8   2    0.23    0.20
  -3  -8   2    0.09    0.34
  -4  -7   2    1.87    0.32
  -4  -7   2    2.08    0.36
  -4  -7   2    2.77    0.45
  -4  -7   2    2.57    0.29
  -5  -6   2   -0.01    0.28
  -5  -6   2    0.27    0.36
  -5  -6   2    0.33    0.26
  -6  -5   2    1.45    0.39
  -6  -5   2    1.25    0.32
  -6  -5   2    1.13    0.37
  -7  -4   2    3.01    0.39
  -7  -4   2    2.87    0.49
  -8  -3   2    1.76    0.49
  -8  -3   2    1.32    0.36
  -9  -2   2    0.08    0.39
  -9  -2   2    0.17    0.45
 -10  -1   2   -0.49    0.38
 -10  -1   2   -0.73    0.48
 -11   0   2   -0.60    0.54
   0 -12   3    1.88    0.52
  -1 -11   3    1.92    0.50
  -2 -10   3    3.65    0.55
  -3  -9   3    0.76    0.42
  -4  -8   3    1.34    0.26
  -4  -8   3    1.85    0.44
  -4  -8   3    1.89    0.26
  -5  -7   3    4.95    0.54
  -5  -7   3    4.80    0.41
  -5  -7   3    5.03    0.47
  -6  -6   3    0.47    0.29
  -6  -6   3    0.43    0.35
  -6  -6   3    0.21    0.38
  -7  -5   3    2.71    0.48
  -7  -5   3    3.16    0.43
  -7  -5   3    3.28    0.41
  -8  -4   3    0.20    0.38
  -8  -4   3   -0.09    0.33
  -8  -4   3    0.07    0.39
  -9  -3   3   -0.17    0.37
  -9  -3   3    0.05    0.46
  -9  -3   3    0.32    0.41
 -10  -2   3   -0.10    0.50
 -10  -2   3   -0.87    0.40
 -10  -2   3   -0.34    0.41
 -11  -1   3   -0.65    0.52
   0 -13   4    0.96    0.52
  -1 -12   4    0.76    0.48
  -2 -11   4    2.23    0.54
  -3 -10   4    2.85    0.55
  -4  -9   4    2.14    0.48
  -5  -8   4    2.32    0.32
  -5  -8   4    1.34    0.32
  -5  -8   4    2.35    0.47
  -6  -7   4    0.38    0.30
  -6  -7   4    0.71    0.43
  -6  -7   4    0.47    0.30
  -7  -6   4    2.34    0.39
  -7  -6   4    2.74    0.43
  -7  -6   4    2.89    0.53
  -7  -6   4    3.73    0.56
  -8  -5   4    0.11    0.40
  -8  -5   4    0.05    0.33
  -8  -5   4   -0.13    0.38
  -9  -4   4    4.95    0.58
  -9  -4   4    4.87    0.66
  -9  -4   4    5.22    0.58
 -10  -3   4   -0.08    0.49
 -11  -2   4   -0.25    0.51
   0 -14   5   -0.85    0.55
  -1 -13   5    1.68    0.57
  -2 -12   5    0.45    0.49
  -3 -11   5    1.21    0.52
  -4 -10   5    0.06    0.45
  -5  -9   5    1.20    0.49
  -6  -8   5    0.81    0.46
  -6  -8   5    0.25    0.30
  -7  -7   5    0.19    0.44
  -7  -7   5   -0.14    0.35
  -7  -7   5   -0.22    0.31
  -8  -6   5    0.18    0.42
  -8  -6   5    0.15    0.39
  -9  -5   5   -0.38    0.38
  -9  -5   5   -0.17    0.46
 -10  -4   5    0.18    0.49
  -1 -14   6    1.24    0.56
  -2 -13   6    0.64    0.52
  -3 -12   6    0.38    0.50
  -4 -11   6    0.22    0.50
  -5 -10   6    0.11    0.45
  -6  -9   6    0.12    0.45
  -7  -8   6   -0.18    0.34
  -7  -8   6   -0.44    0.30
  -7  -8   6    0.13    0.42
  -8  -7   6   -0.23    0.44
  -8  -7   6   -0.38    0.37
  -9  -6   6   -0.27    0.46
 -10  -5   6    0.03    0.50
  -3 -13   7    1.02    0.57
  -4 -12   7    1.32    0.55
  -5 -11   7    0.74    0.52
  -6 -10   7    0.03    0.50
  -7  -9   7   -0.01    0.49
  -8  -8   7    0.05    0.48
  -9  -7   7   -0.02    0.47
  -5   1  14   -0.29    0.57
  -4   0  14   -0.26    0.56
  -3  -1  14    0.43    0.40
  -3  -1  14    0.12    0.53
  -2  -2  14    0.45    0.40
  -1  -3  14    0.15    0.41
   0  -4  14   -0.66    0.38
   1  -5  14    0.65    0.43
  -5   2  13    0.01    0.56
  -4   1  13   -0.06    0.53
  -3   0  13    0.13    0.53
  -2  -1  13    0.83    0.53
  -2  -1  13    1.21    0.40
   1   2 -13    0.04    0.71
  -1  -2  13    0.41    0.47
  -1  -2  13    0.35    0.40
   0   3 -13    0.07    0.70
   0  -3  13    0.42    0.46
   0  -3  13    0.88    0.41
   1  -4  13    0.33    0.41
   2  -5  13    0.53    0.37
   3  -6  13    1.07    0.44
  -5   3  12    0.36    0.57
  -4   2  12    0.45    0.54
  -3   1  12    0.19    0.52
  -2   0  12    0.29    0.37
  -2   0  12    0.06    0.47
  -1  -1  12    0.02    0.38
  -1  -1  12    0.20    0.47
   0   2 -12    1.69    0.84
   0  -2  12    2.39    0.54
   0  -2  12    2.67    0.47
  -1   3 -12    1.29    0.75
   1  -3  12    1.23    0.42
   1  -3  12    1.15    0.48
  -2   4 -12    3.12    0.87
   2  -4  12    4.03    0.52
   3  -5  12    0.11    0.39
   4  -6  12    0.26    0.40
  -6   5  11    0.16    0.54
  -5   4  11    0.05    0.57
   4  -3 -11    0.48    0.42
  -4   3  11   -0.19    0.51
   3  -2 -11    0.53    0.43
  -3   2  11   -0.11    0.44
   2  -1 -11    0.54    0.38
  -2   1  11   -0.25    0.45
   1   0 -11    0.94    0.45
  -1   0  11    1.80    0.49
  -1   0  11    1.65    0.43
   0   1 -11    0.02    0.64
   0  -1  11    0.33    0.34
   0  -1  11    0.12    0.44
  -1   2 -11    0.59    0.64
   1  -2  11    0.07    0.43
   1  -2  11    0.06    0.33
  -2   3 -11    1.19    0.69
   2  -3  11    1.10    0.47
   2  -3  11    1.12    0.40
  -3   4 -11    0.74    0.69
   3  -4  11    0.48    0.43
   3  -4  11    0.58    0.37
  -4   5 -11    1.01    0.74
   4  -5  11    1.48    0.44
   5  -6  11    0.40    0.38
  -6   7 -11    0.82    0.55
  -7   8 -11    1.44    0.55
  -6   6  10    0.07    0.54
  -5   5  10   -0.23    0.55
   4  -4 -10    0.25    0.44
  -4   4  10    0.00    0.52
   3  -3 -10    0.31    0.42
  -3   3  10    0.11    0.44
   2  -2 -10    2.60    0.47
  -2   2  10    2.47    0.56
   1  -1 -10    0.95    0.39
  -1   1  10    0.80    0.44
   0   0 -10    2.35    0.41
   0   0  10    1.82    0.39
   0   0  10    2.30    0.47
  -1   1 -10    1.07    0.37
  -1   1 -10    0.50    0.60
   1  -1  10    0.80    0.45
   1  -1  10    0.99    0.34
  -2   2 -10   -0.55    0.58
   2  -2  10    0.35    0.41
   2  -2  10    0.00    0.30
  -3   3 -10   -0.01    0.58
   3  -3  10    0.01    0.40
   3  -3  10   -0.01    0.34
  -4   4 -10    0.95    0.71
   4  -4  10    1.55    0.46
   4  -4  10    1.45    0.42
  -5   5 -10    0.35    0.67
   5  -5  10    0.62    0.41
  -6   6 -10    1.54    0.55
   6  -6  10    0.71    0.40
  -6   7   9    0.17    0.54
  -5   6   9    0.80    0.53
   4  -5  -9    0.49    0.43
  -4   5   9    0.55    0.53
   3  -4  -9    1.53    0.42
  -3   4   9    1.06    0.51
   2  -3  -9    0.38    0.37
  -2   3   9   -0.15    0.44
   1  -2  -9    0.11    0.32
  -1   2   9   -0.09    0.41
   0  -1  -9    2.53    0.42
   0   1   9    2.44    0.50
   0   1   9    1.65    0.38
  -1   0  -9   -0.19    0.55
  -1   0  -9    0.69    0.35
   1   0   9    0.21    0.40
   1   0   9    0.27    0.29
  -2   1  -9    1.36    0.37
  -2   1  -9    1.76    0.66
   2  -1   9    0.96    0.32
   2  -1   9    1.05    0.44
  -3   2  -9    0.82    0.59
  -3   2  -9    1.30    0.35
   3  -2   9    0.89    0.33
   3  -2   9    0.90    0.43
  -4   3  -9    0.20    0.63
   4  -3   9    0.12    0.41
   4  -3   9    0.04    0.32
  -5   4  -9    0.24    0.64
  -5   4  -9    0.01    0.50
   5  -4   9   -0.20    0.42
   5  -4   9   -0.08    0.36
  -6   5  -9    1.54    0.80
  -6   5  -9    0.95    0.54
   6  -5   9    0.64    0.41
   6  -5   9    0.55    0.45
   6  -5   9    0.99    0.49
   7  -6   9    1.21    0.50
   7  -6   9    1.04    0.45
  -6   8   8   -0.51    0.50
  -5   7   8   -0.05    0.48
   4  -6  -8    0.81    0.43
  -4   6   8    0.16    0.48
   3  -5  -8    1.69    0.43
  -3   5   8    1.42    0.52
   2  -4  -8    1.23    0.37
  -2   4   8    1.22    0.48
   1  -3  -8    3.99    0.50
  -1   3   8    4.04    0.56
   0  -2  -8    0.49    0.33
   0   2   8    0.10    0.40
  -1  -1  -8   -0.25    0.30
   1   1   8    0.12    0.29
   1   1   8    0.06    0.40
  -2   0  -8    0.04    0.56
  -2   0  -8    0.32    0.31
   2   0   8   -0.34    0.40
   2   0   8   -0.23    0.28
  -3   1  -8    0.40    0.60
   3  -1   8    0.09    0.30
   3  -1   8    0.20    0.39
  -4   2  -8    2.76    0.73
  -4   2  -8    2.25    0.39
   4  -2   8    1.47    0.37
   4  -2   8    1.84    0.46
  -5   3  -8    0.15    0.49
  -5   3  -8    0.35    0.60
   5  -3   8    0.73    0.36
   5  -3   8    0.91    0.46
  -6   4  -8    0.94    0.74
  -6   4  -8    3.31    0.65
   6  -4   8    1.82    0.51
   6  -4   8    1.07    0.50
   6  -4   8    1.75    0.44
  -7   5  -8    0.98    0.64
   7  -5   8    0.66    0.48
   7  -5   8    0.62    0.47
   7  -5   8    0.54    0.41
  -8   6  -8   -0.41    0.56
   8  -6   8    0.32    0.39
   8  -6   8    0.17    0.48
  -9   7  -8   -0.02    0.55
  -6   9   7    0.12    0.53
  -5   8   7    0.00    0.49
   4  -7  -7    0.68    0.41
  -4   7   7    0.42    0.53
   3  -6  -7    0.41    0.35
  -3   6   7    0.37    0.45
   2  -5  -7    0.83    0.35
  -2   5   7    0.64    0.46
   1  -4  -7    0.46    0.31
  -1   4   7    0.33    0.41
   0  -3  -7    5.54    0.52
   0   3   7    6.08    0.61
  -1  -2  -7    2.78    0.39
   1   2   7    2.96    0.49
  -2  -1  -7    0.41    0.29
   2   1   7    0.36    0.38
   2   1   7   -0.05    0.24
  -3   0  -7    2.92    0.39
   3   0   7    2.14    0.36
   3   0   7    1.89    0.50
  -4   1  -7    3.08    0.76
  -4   1  -7    2.51    0.39
   4  -1   7    3.38    0.43
   4  -1   7    2.97    0.53
  -5   2  -7    2.50    0.70
  -5   2  -7    0.44    0.44
  -5   2  -7    1.53    0.37
   5  -2   7    1.32    0.35
   5  -2   7    1.78    0.50
   5  -2   7    1.52    0.44
  -6   3  -7    0.67    0.64
   6  -3   7    0.48    0.35
   6  -3   7    1.24    0.50
   6  -3   7    0.90    0.47
  -7   4  -7    1.79    0.64
  -7   4  -7    0.40    0.73
   7  -4   7    0.91    0.49
   7  -4   7    1.35    0.51
   7  -4   7    1.56    0.44
   8  -5   7    2.75    0.58
   8  -5   7    2.10    0.47
   8  -5   7    2.70    0.60
  -9   6  -7   -0.29    0.54
  -5   9   6   -0.11    0.49
   4  -8  -6    0.15    0.39
  -4   8   6    0.26    0.51
   3  -7  -6    0.47    0.38
  -3   7   6    1.20    0.50
   2  -6  -6    0.63    0.33
  -2   6   6    0.97    0.46
   1  -5  -6    0.22    0.29
  -1   5   6    0.65    0.41
   0  -4  -6    0.57    0.29
   0   4   6    0.25    0.38
  -1  -3  -6    0.57    0.28
   1   3   6    0.91    0.41
  -2  -2  -6    4.22    0.50
  -3  -1  -6    3.15    0.41
   3   1   6    3.06    0.51
  -4   0  -6    1.80    0.35
   4   0   6    1.66    0.50
   4   0   6    1.74    0.34
  -5   1  -6    4.28    0.58
  -5   1  -6    3.86    0.50
   5  -1   6    4.25    0.59
   5  -1   6    4.67    0.51
   5  -1   6    4.04    0.56
  -6   2  -6    0.39    0.61
  -6   2  -6    0.77    0.38
   6  -2   6    0.59    0.34
   6  -2   6    0.83    0.42
   6  -2   6    0.88    0.48
  -7   3  -6   -0.29    0.55
   7  -3   6    0.61    0.39
   7  -3   6    1.04    0.52
   7  -3   6    0.59    0.46
  -8   4  -6   -0.76    0.54
   8  -4   6    0.27    0.39
   8  -4   6    0.65    0.53
   8  -4   6    0.83    0.52
  -9   5  -6    0.39    0.62
   9  -5   6    0.74    0.51
   9  -5   6    0.97    0.51
   9  -5   6    0.98    0.45
 -10   6  -6   -1.16    0.62
  -5  10   5    0.28    0.52
   4  -9  -5    0.57    0.39
  -4   9   5   -0.19    0.50
   3  -8  -5   -0.35    0.34
  -3   8   5    0.23    0.45
   2  -7  -5    0.18    0.33
  -2   7   5    0.63    0.44
   1  -6  -5    0.13    0.29
  -1   6   5    0.61    0.40
   0  -5  -5    1.30    0.32
   0   5   5    1.49    0.40
  -1  -4  -5    4.96    0.42
   1   4   5    5.08    0.50
  -2  -3  -5   -0.30    0.27
   2   3   5    0.20    0.36
  -3  -2  -5    0.21    0.26
   3   2   5    0.34    0.41
  -4  -1  -5    3.30    0.40
   4   1   5    3.05    0.49
  -5   0  -5    4.63    0.57
  -5   0  -5    4.68    0.50
   5   0   5    5.83    0.58
   5   0   5    5.18    0.46
   5   0   5    6.21    0.72
  -6   1  -5   -0.04    0.30
   6  -1   5    0.32    0.32
   6  -1   5    0.30    0.47
   6  -1   5    0.36    0.39
  -7   2  -5    0.44    0.38
  -7   2  -5   -1.03    0.50
   7  -2   5    0.42    0.46
   7  -2   5    0.69    0.37
   7  -2   5    0.06    0.51
  -8   3  -5   -0.35    0.51
   8  -3   5    0.30    0.40
   8  -3   5   -0.06    0.53
   8  -3   5    0.05    0.49
  -9   4  -5    0.81    0.64
   9  -4   5    0.68    0.54
   9  -4   5    0.35    0.51
 -10   5  -5    0.19    0.66
  10  -5   5    1.50    0.56
   3  -9  -4    0.13    0.34
  -2   8   4    0.91    0.46
   1  -7  -4    0.00    0.27
   1  -7  -4    0.19    0.32
  -1   7   4    0.26    0.37
   0  -6  -4    0.00    0.31
   0  -6  -4    0.04    0.26
   0   6   4    0.34    0.34
  -1  -5  -4    3.09    0.51
  -1  -5  -4    3.17    0.36
   1   5   4    3.12    0.45
  -2  -4  -4    4.45    0.51
  -2  -4  -4    4.29    0.44
   2   4   4    4.81    0.55
  -3  -3  -4   16.03    0.67
   3   3   4   16.90    0.82
  -4  -2  -4    1.77    0.39
  -4  -2  -4    1.57    0.32
   4   2   4    2.67    0.50
  -5  -1  -4    1.72    0.35
   5   1   4    0.60    0.47
  -6   0  -4    0.80    0.33
  -6   0  -4    2.20    0.51
   6   0   4   -0.14    0.50
  -7   1  -4   -0.26    0.50
  -7   1  -4    0.32    0.35
   7  -1   4   -0.47    0.48
   7  -1   4    0.45    0.44
  -8   2  -4   -0.38    0.36
  -8   2  -4    0.50    0.52
   8  -2   4    0.36    0.47
   8  -2   4   -0.83    0.51
   9  -3   4    0.88    0.53
 -10   4  -4   -0.24    0.62
   3 -10  -3    0.85    0.37
   2  -9  -3    0.27    0.31
   1  -8  -3    1.62    0.32
   1  -8  -3    0.35    0.33
   0  -7  -3    0.26    0.25
   0  -7  -3    0.33    0.30
   0   7   3    0.33    0.33
  -1  -6  -3    1.60    0.30
  -1  -6  -3    1.46    0.36
   1   6   3    2.06    0.41
  -2  -5  -3    0.07    0.24
  -2  -5  -3   -0.05    0.29
   2   5   3    0.27    0.36
  -3  -4  -3    1.20    0.37
  -3  -4  -3    1.21    0.32
  -3  -4  -3    0.88    0.28
   3   4   3    1.40    0.41
  -4  -3  -3    1.04    0.35
  -4  -3  -3    1.00    0.28
   4   3   3    0.29    0.43
  -5  -2  -3    6.98    0.62
  -5  -2  -3    6.13    0.46
   5   2   3    4.73    0.67
  -6  -1  -3   -0.12    0.28
   6   1   3   -0.76    0.48
  -7   0  -3    0.16    0.33
  -7   0  -3    0.60    0.51
   7   0   3   -0.79    0.48
  -8   1  -3    0.80    0.39
  -8   1  -3    0.41    0.50
   8  -1   3    0.08    0.60
 -10   3  -3    0.83    0.63
 -11   4  -3   -0.87    0.58
   3 -11  -2    0.23    0.34
   2 -10  -2    0.25    0.31
   1  -9  -2    1.39    0.34
   1  -9  -2    1.52    0.33
   0  -8  -2    0.07    0.29
   0  -8  -2   -0.02    0.25
  -1  -7  -2    0.20    0.28
  -1  -7  -2    0.39    0.25
  -2  -6  -2    0.19    0.30
  -2  -6  -2    0.35    0.24
  -3  -5  -2    1.24    0.36
  -3  -5  -2    1.56    0.28
  -3  -5  -2    1.51    0.34
   3   5   2    2.02    0.43
  -4  -4  -2    1.51    0.37
  -4  -4  -2    1.18    0.29
  -4  -4  -2    0.98    0.37
   4   4   2    0.43    0.43
  -5  -3  -2    2.62    0.34
  -5  -3  -2    2.41    0.44
   5   3   2    1.90    0.51
  -6  -2  -2    3.59    0.52
  -6  -2  -2    3.93    0.47
   6   2   2    3.67    0.58
  -7  -1  -2    0.87    0.33
  -7  -1  -2    1.70    0.54
  -7  -1  -2    0.37    0.45
  -8   0  -2    0.07    0.35
  -9   1  -2    0.51    0.57
  -9   1  -2    0.12    0.40
   9  -1   2    0.31    0.58
 -10   2  -2    2.24    0.65
  10  -2   2    2.03    0.68
 -11   3  -2   -1.07    0.56
   2 -11  -1    0.68    0.33
   1 -10  -1    1.33    0.33
   0  -9  -1   -0.04    0.24
   0  -9  -1   -0.01    0.26
  -1  -8  -1    0.31    0.23
  -1  -8  -1    0.28    0.24
  -1  -8  -1    0.10    0.26
  -2  -7  -1   -0.09    0.26
  -2  -7  -1   -0.21    0.22
  -2  -7  -1    0.03    0.30
  -3  -6  -1    0.79    0.35
  -3  -6  -1    0.38    0.25
  -3  -6  -1    0.37    0.32
  -4  -5  -1    1.17    0.36
  -4  -5  -1    0.84    0.27
  -4  -5  -1    2.06    0.40
   4   5   1   -0.04    0.42
  -5  -4  -1    0.22    0.35
  -5  -4  -1    0.01    0.27
  -5  -4  -1    0.84    0.40
  -6  -3  -1   -0.19    0.34
  -6  -3  -1   -0.01    0.28
  -7  -2  -1    0.73    0.45
  -7  -2  -1    0.94    0.33
  -8  -1  -1    1.63    0.42
  -8  -1  -1    1.46    0.52
  -9   0  -1   -0.33    0.52
  -9   0  -1    0.14    0.41
  -9   0  -1    0.83    0.53
 -10   1  -1   -0.18    0.60
 -10   1  -1   -0.10    0.42
 -10   1  -1   -0.58    0.56
 -11   2  -1   -1.26    0.55
  11  -2   1    0.05    0.66
   0 -10   0    2.31    0.31
  -1  -9   0    0.10    0.23
  -1  -9   0    0.05    0.25
  -1  -9   0    0.57    0.21
  -2  -8   0    0.20    0.32
  -2  -8   0    0.66    0.25
  -2  -8   0    0.12    0.21
  -2  -8   0   -0.14    0.26
  -3  -7   0    0.11    0.28
  -3  -7   0    0.92    0.35
  -3  -7   0    1.75    0.35
  -3  -7   0    0.74    0.25
  -4  -6   0    0.02    0.33
  -4  -6   0    0.24    0.33
  -4  -6   0    0.08    0.24
  -5  -5   0    0.26    0.27
  -5  -5   0    0.14    0.34
  -5  -5   0    0.88    0.36
  -6  -4   0    1.45    0.33
  -6  -4   0    2.10    0.45
  -7  -3   0    1.37    0.36
  -7  -3   0    1.42    0.46
  -8  -2   0   -0.10    0.36
  -8  -2   0   -0.24    0.41
  -9  -1   0   -0.19    0.39
  -9  -1   0   -0.82    0.48
 -10   0   0   -0.54    0.53
 -10   0   0   -0.23    0.42
 -11   1   0   -0.51    0.54
  -1 -10   1    5.64    0.60
  -2  -9   1    0.85    0.25
  -2  -9   1    0.67    0.23
  -2  -9   1    1.41    0.41
  -3  -8   1    0.80    0.25
  -3  -8   1    1.01    0.28
  -3  -8   1    0.90    0.39
  -4  -7   1    1.07    0.39
  -4  -7   1    1.01    0.26
  -4  -7   1    0.62    0.30
  -5  -6   1    5.97    0.60
  -5  -6   1    5.87    0.42
  -5  -6   1    6.37    0.58
  -6  -5   1    0.11    0.28
  -6  -5   1   -0.11    0.33
  -6  -5   1    0.04    0.33
  -7  -4   1    0.64    0.42
  -7  -4   1    0.92    0.35
  -8  -3   1    1.69    0.51
  -8  -3   1    1.63    0.40
  -9  -2   1    0.68    0.42
  -9  -2   1    0.81    0.48
 -10  -1   1   -0.61    0.50
 -10  -1   1   -0.33    0.42
 -11   0   1   -0.63    0.55
  -1 -11   2    0.60    0.44
  -2 -10   2    0.32    0.41
  -3  -9   2    5.14    0.61
  -3  -9   2    4.11    0.31
  -4  -8   2    1.16    0.28
  -4  -8   2    2.15    0.47
  -4  -8   2    1.79    0.28
  -5  -7   2    1.29    0.40
  -5  -7   2    0.73    0.32
  -5  -7   2    1.18    0.29
  -6  -6   2    1.89    0.41
  -6  -6   2    2.19    0.36
  -6  -6   2    2.01    0.48
  -7  -5   2    2.76    0.49
  -7  -5   2    2.43    0.39
  -8  -4   2    0.17    0.45
  -8  -4   2    0.23    0.35
  -9  -3   2    0.29    0.49
  -9  -3   2    0.38    0.39
 -10  -2   2    0.04    0.51
 -10  -2   2   -0.38    0.37
  -1 -12   3    2.13    0.56
  -2 -11   3    0.72    0.47
  -3 -10   3    0.57    0.46
  -4  -9   3    0.81    0.42
  -5  -8   3    1.13    0.46
  -5  -8   3    1.13    0.28
  -5  -8   3    1.16    0.29
  -6  -7   3    1.51    0.48
  -6  -7   3    1.75    0.35
  -7  -6   3    0.36    0.33
  -7  -6   3    0.28    0.40
  -8  -5   3    1.33    0.38
  -8  -5   3    1.17    0.49
  -9  -4   3    0.05    0.44
  -9  -4   3   -0.44    0.36
 -10  -3   3   -0.26    0.48
  -2 -12   4    1.02    0.53
  -3 -11   4    1.12    0.52
  -4 -10   4    0.81    0.49
  -5  -9   4    0.79    0.47
  -6  -8   4    0.28    0.42
  -6  -8   4   -0.08    0.29
  -7  -7   4    0.19    0.46
  -7  -7   4   -0.30    0.31
  -8  -6   4   -0.22    0.43
  -8  -6   4   -0.16    0.33
  -9  -5   4    0.46    0.48
  -9  -5   4   -0.07    0.36
 -10  -4   4    0.05    0.45
  -2 -13   5    2.03    0.59
  -3 -12   5    0.78    0.51
  -4 -11   5    0.40    0.48
  -5 -10   5    0.82    0.52
  -6  -9   5    0.62    0.50
  -7  -8   5   -0.34    0.31
  -7  -8   5   -0.04    0.45
  -8  -7   5   -0.33    0.34
  -8  -7   5   -0.16    0.46
  -9  -6   5   -0.12    0.46
  -3 -13   6    1.08    0.57
  -4 -12   6    0.86    0.54
  -5 -11   6    0.51    0.53
  -6 -10   6    0.13    0.51
  -7  -9   6    0.82    0.53
  -8  -8   6    0.32    0.49
  -9  -7   6   -0.33    0.48
  -4   1  14   -0.03    0.56
  -3   0  14    0.13    0.57
  -2  -1  14    0.38    0.55
  -1  -2  14    0.22    0.51
   0  -3  14    0.19    0.41
   1  -4  14    0.21    0.40
  -4   2  13   -0.02    0.56
  -3   1  13    0.09    0.56
  -2   0  13    0.26    0.51
  -1  -1  13   -0.18    0.48
  -1  -1  13   -0.94    0.39
   0  -2  13    0.15    0.48
   0  -2  13    0.05    0.37
   1  -3  13    0.26    0.38
   1  -3  13    0.53    0.51
   2  -4  13   -0.27    0.39
   3  -5  13    0.13    0.40
  -5   4  12   -0.10    0.59
  -4   3  12   -0.09    0.56
   3  -2 -12    0.62    0.46
  -3   2  12    0.17    0.54
  -2   1  12    0.37    0.50
  -1   0  12    0.14    0.50
   0  -1  12    0.34    0.50
   0  -1  12    0.68    0.38
  -1   2 -12    1.51    0.84
   1  -2  12    1.06    0.51
   1  -2  12    1.49    0.44
  -2   3 -12    0.31    0.70
   2  -3  12    0.50    0.48
   2  -3  12   -0.11    0.38
   3  -4  12    0.23    0.46
   3  -4  12    0.25    0.41
   4  -5  12    0.02    0.41
  -5   5  11   -0.12    0.51
  -4   4  11   -0.13    0.54
   3  -3 -11    0.51    0.43
  -3   3  11    0.01    0.51
   2  -2 -11    0.54    0.40
  -2   2  11   -0.17    0.49
   1  -1 -11   -1.00    0.40
  -1   1  11    0.46    0.51
   0   0 -11    2.03    0.45
   0   0  11    1.15    0.50
   1  -1  11    0.05    0.46
   1  -1  11    0.14    0.38
  -2   2 -11    4.09    0.94
   2  -2  11    4.01    0.62
   2  -2  11    3.31    0.47
  -3   3 -11    1.20    0.73
   3  -3  11    0.72    0.41
   3  -3  11    0.62    0.45
  -4   4 -11    1.52    0.72
   4  -4  11    0.43    0.41
   4  -4  11    0.18    0.43
   5  -5  11   -0.21    0.37
  -7   7 -11    1.36    0.58
  -5   6  10   -0.05    0.51
  -4   5  10    0.03    0.55
   3  -4 -10    1.48    0.47
  -3   4  10    0.93    0.55
   2  -3 -10    1.08    0.42
  -2   3  10    0.04    0.51
   1  -2 -10    1.79    0.43
  -1   2  10    1.85    0.51
   0  -1 -10    0.38    0.39
   0   1  10   -0.04    0.46
  -1   0 -10    0.86    0.38
   1   0  10    0.26    0.33
   1   0  10    0.62    0.44
  -2   1 -10   -0.37    0.38
   2  -1  10    0.06    0.32
   2  -1  10    0.10    0.42
  -3   2 -10   -0.52    0.64
   3  -2  10   -0.01    0.44
   3  -2  10   -0.32    0.34
  -4   3 -10    2.74    0.84
   4  -3  10    2.22    0.46
   4  -3  10    1.89    0.52
  -5   4 -10    0.39    0.69
   5  -4  10    0.09    0.37
   5  -4  10    0.12    0.45
   6  -5  10    0.68    0.40
  -7   6 -10    1.33    0.56
  -8   7 -10    0.84    0.54
  -5   7   9   -0.40    0.49
  -4   6   9   -0.13    0.48
   3  -5  -9    0.31    0.38
  -3   5   9    0.11    0.52
   2  -4  -9    1.17    0.43
  -2   4   9    1.18    0.51
   1  -3  -9    1.56    0.40
  -1   3   9    1.28    0.51
   0  -2  -9    3.19    0.47
   0   2   9    2.93    0.55
  -1  -1  -9    1.43    0.40
   1   1   9    0.77    0.46
  -2   0  -9    0.13    0.32
   2   0   9    0.13    0.32
   2   0   9    0.38    0.44
  -3   1  -9    2.15    0.42
   3  -1   9    1.51    0.40
   3  -1   9    1.48    0.47
  -4   2  -9    0.00    0.61
   4  -2   9    0.32    0.36
   4  -2   9    0.49    0.46
  -5   3  -9    0.04    0.64
   5  -3   9    0.50    0.48
   5  -3   9    0.01    0.37
  -6   4  -9   -0.03    0.70
  -6   4  -9   -0.23    0.56
   6  -4   9    0.57    0.49
   6  -4   9    0.59    0.42
  -7   5  -9    0.01    0.55
   7  -5   9    0.45    0.40
   7  -5   9    0.86    0.51
  -8   6  -9    0.94    0.68
  -5   8   8    0.50    0.53
  -4   7   8    0.02    0.48
   3  -6  -8    1.21    0.43
  -3   6   8    1.23    0.51
   2  -5  -8    0.54    0.39
  -2   5   8    0.14    0.46
   1  -4  -8    0.49    0.36
  -1   4   8    0.45    0.47
   0  -3  -8    1.65    0.37
   0   3   8    2.47    0.54
  -1  -2  -8   -0.51    0.33
   1   2   8   -0.07    0.41
  -2  -1  -8    3.67    0.46
   2   1   8    2.69    0.50
   3   0   8    0.08    0.30
   3   0   8    0.28    0.45
  -4   1  -8    2.82    0.42
   4  -1   8    2.17    0.40
   4  -1   8    2.42    0.53
  -5   2  -8    1.87    0.42
   5  -2   8    1.19    0.38
   5  -2   8    1.50    0.49
  -6   3  -8   -0.41    0.53
   6  -3   8    0.69    0.38
   6  -3   8    1.34    0.51
  -7   4  -8    0.58    0.60
   7  -4   8    0.81    0.52
   7  -4   8    0.22    0.39
   7  -4   8    1.47    0.54
  -8   5  -8    0.89    0.69
   8  -5   8    0.03    0.48
   8  -5   8    0.56    0.43
  -9   6  -8   -1.45    0.63
  -5   9   7   -0.45    0.49
  -4   8   7    0.11    0.48
   3  -7  -7    0.95    0.40
  -3   7   7    1.17    0.54
   2  -6  -7    0.63    0.36
  -2   6   7    0.08    0.49
   1  -5  -7    1.25    0.38
  -1   5   7    1.56    0.47
   0  -4  -7    0.91    0.35
   0   4   7    0.19    0.41
  -1  -3  -7    0.21    0.32
   1   3   7    0.39    0.42
  -2  -2  -7    0.10    0.30
   2   2   7    0.32    0.43
  -3  -1  -7   -0.37    0.33
   3   1   7    0.02    0.43
  -4   0  -7    2.81    0.42
   4   0   7    2.94    0.56
  -5   1  -7    0.02    0.35
   5  -1   7    0.41    0.35
   5  -1   7    0.87    0.47
  -6   2  -7    1.65    0.44
  -6   2  -7    0.67    0.55
   6  -2   7    2.16    0.42
   6  -2   7    1.71    0.52
   6  -2   7    1.76    0.55
  -7   3  -7    3.64    0.69
   7  -3   7    1.85    0.56
   7  -3   7    1.34    0.44
   7  -3   7    1.29    0.51
  -8   4  -7    1.37    0.68
   8  -4   7    0.80    0.51
   8  -4   7    0.27    0.41
   8  -4   7    0.23    0.50
  -9   5  -7   -0.92    0.65
  -5  10   6    0.03    0.50
  -4   9   6    0.04    0.48
   3  -8  -6    0.87    0.41
  -3   8   6    0.26    0.49
   2  -7  -6    0.42    0.38
  -2   7   6    1.25    0.51
   1  -6  -6    0.04    0.33
  -1   6   6    0.32    0.45
   0  -5  -6    0.70    0.31
   0   5   6    0.90    0.42
  -1  -4  -6    1.82    0.35
   1   4   6    1.34    0.45
  -2  -3  -6    0.90    0.30
   2   3   6    1.15    0.46
  -3  -2  -6    2.01    0.36
   3   2   6    3.06    0.53
  -4  -1  -6    0.03    0.31
   4   1   6    0.60    0.46
  -5   0  -6    2.81    0.43
   5   0   6    3.68    0.58
  -6   1  -6   -0.53    0.48
  -6   1  -6    0.29    0.37
   6  -1   6    0.49    0.41
   6  -1   6    0.48    0.51
  -7   2  -6    1.74    0.62
  -7   2  -6    0.32    0.38
   7  -2   6    0.54    0.54
   7  -2   6    0.71    0.49
  -9   4  -6   -0.93    0.58
   9  -4   6    0.51    0.54
   9  -4   6    0.92    0.55
 -10   5  -6   -0.34    0.57
   3  -9  -5    0.41    0.38
  -3   9   5    0.91    0.50
   2  -8  -5    0.59    0.37
  -2   8   5   -0.14    0.45
   1  -7  -5    0.35    0.33
  -1   7   5    0.30    0.44
   0  -6  -5    0.70    0.32
   0   6   5    0.56    0.39
  -1  -5  -5    0.80    0.31
   1   5   5    1.22    0.42
  -2  -4  -5    2.44    0.37
   2   4   5    2.25    0.47
  -3  -3  -5    0.40    0.28
   3   3   5    0.26    0.42
  -4  -2  -5    1.56    0.41
  -4  -2  -5    1.76    0.36
   4   2   5    1.81    0.49
  -5  -1  -5    4.12    0.45
   5   1   5    5.66    0.71
  -6   0  -5    0.50    0.36
   6   0   5    0.43    0.50
  -7   1  -5    0.38    0.37
  -7   1  -5    1.77    0.58
   7  -1   5    1.32    0.57
  -8   2  -5    2.24    0.67
  -8   2  -5   -0.07    0.37
   8  -2   5    0.35    0.56
  -9   3  -5   -1.35    0.55
   9  -3   5    0.29    0.55
 -10   4  -5   -0.51    0.59
  10  -4   5    1.45    0.58
   3 -10  -4    0.33    0.36
   2  -9  -4    0.29    0.36
   1  -8  -4    0.97    0.39
   1  -8  -4    1.16    0.36
  -1   8   4    1.76    0.48
   0  -7  -4    0.02    0.28
   0  -7  -4    0.74    0.40
   0   7   4    0.02    0.36
  -1  -6  -4    0.72    0.30
  -1  -6  -4    0.16    0.33
   1   6   4    0.81    0.39
  -2  -5  -4    0.42    0.30
   2   5   4    0.40    0.39
  -3  -4  -4   -0.05    0.27
   3   4   4    0.12    0.40
  -4  -3  -4    0.09    0.32
  -4  -3  -4    0.11    0.26
   4   3   4    0.36    0.44
  -5  -2  -4   -0.03    0.38
  -5  -2  -4   -0.01    0.29
   5   2   4    0.53    0.48
  -6  -1  -4    1.79    0.37
  -6  -1  -4    0.50    0.47
   6   1   4    1.05    0.57
  -7   0  -4   -0.21    0.50
  -7   0  -4    0.43    0.38
   7   0   4   -1.09    0.55
  -8   1  -4    1.46    0.60
  -8   1  -4    0.18    0.38
   8  -1   4   -0.87    0.56
  -9   2  -4    0.21    0.44
   9  -2   4   -1.33    0.62
 -10   3  -4   -0.15    0.56
   2 -10  -3    0.16    0.34
   1  -9  -3    0.07    0.31
   0  -8  -3    0.54    0.31
   0  -8  -3    0.36    0.34
  -1  -7  -3    1.01    0.30
  -1  -7  -3    0.64    0.34
  -2  -6  -3    0.46    0.29
  -2  -6  -3    0.13    0.33
   2   6   3    0.50    0.40
  -3  -5  -3    4.16    0.43
  -3  -5  -3    4.31    0.55
  -3  -5  -3    4.28    0.47
   3   5   3    4.69    0.54
  -4  -4  -3    0.11    0.32
  -4  -4  -3    0.43    0.28
   4   4   3    0.71    0.43
  -5  -3  -3    0.62    0.38
  -5  -3  -3    0.67    0.31
   5   3   3   -0.36    0.48
  -6  -2  -3    0.27    0.32
  -6  -2  -3    0.48    0.40
   6   2   3   -0.17    0.48
  -7  -1  -3   -0.39    0.45
  -7  -1  -3    0.49    0.35
  -7  -1  -3    0.04    0.43
   7   1   3   -0.65    0.51
  -8   0  -3    1.72    0.60
  -8   0  -3    0.18    0.40
   8   0   3   -1.17    0.59
  -9   1  -3   -0.17    0.39
  -9   1  -3   -0.91    0.54
   9  -1   3   -1.17    0.57
 -10   2  -3   -0.19    0.55
 -11   3  -3    0.86    0.60
   2 -11  -2    0.48    0.33
   1 -10  -2    0.76    0.33
   0  -9  -2    0.68    0.30
  -1  -8  -2    0.45    0.30
  -1  -8  -2    0.72    0.29
  -2  -7  -2    0.23    0.27
  -2  -7  -2    0.20    0.31
  -3  -6  -2    0.63    0.27
  -3  -6  -2    0.61    0.34
  -3  -6  -2    0.58    0.38
   3   6   2    1.20    0.39
  -4  -5  -2    0.13    0.33
  -4  -5  -2    0.02    0.26
  -4  -5  -2   -0.10    0.33
   4   5   2   -0.15    0.43
  -5  -4  -2    2.08    0.34
  -5  -4  -2    2.16    0.44
   5   4   2    0.81    0.50
  -6  -3  -2    0.34    0.30
  -6  -3  -2   -0.02    0.39
  -7  -2  -2    2.37    0.55
  -7  -2  -2    3.06    0.44
   7   2   2    2.94    0.60
  -8  -1  -2    0.19    0.36
  -8  -1  -2    0.23    0.49
   8   1   2    1.34    0.62
  -9   0  -2   -0.15    0.41
  -9   0  -2   -0.44    0.53
   9   0   2   -0.07    0.61
 -10   1  -2   -0.98    0.56
 -10   1  -2    0.06    0.40
  10  -1   2   -1.09    0.61
   1 -11  -1    0.91    0.31
   0 -10  -1    0.85    0.31
  -1  -9  -1    2.64    0.34
  -2  -8  -1    0.18    0.26
  -2  -8  -1    0.43    0.33
  -3  -7  -1    0.64    0.27
  -3  -7  -1    1.08    0.37
  -3  -7  -1    0.73    0.32
  -4  -6  -1    0.92    0.39
  -4  -6  -1    0.12    0.27
  -4  -6  -1    0.50    0.35
  -5  -5  -1    0.17    0.33
  -5  -5  -1    0.09    0.28
  -5  -5  -1   -0.03    0.36
  -6  -4  -1    0.47    0.32
  -6  -4  -1    0.29    0.40
   6   4   1    0.86    0.50
  -7  -3  -1    0.68    0.33
  -7  -3  -1    0.64    0.45
  -8  -2  -1    1.39    0.54
  -8  -2  -1    1.66    0.40
  -9  -1  -1    0.51    0.42
  -9  -1  -1    0.42    0.54
 -10   0  -1   -0.54    0.49
 -10   0  -1    0.04    0.42
  11  -1   1   -0.15    0.66
  -2  -9   0    0.36    0.23
  -2  -9   0   -0.01    0.25
  -3  -8   0    3.72    0.39
  -3  -8   0    2.96    0.47
  -3  -8   0    4.24    0.55
  -4  -7   0    0.03    0.32
  -4  -7   0    0.81    0.29
  -4  -7   0    0.66    0.39
  -5  -6   0    1.65    0.32
  -5  -6   0    1.67    0.44
  -5  -6   0    1.34    0.39
  -6  -5   0    0.46    0.41
  -6  -5   0    0.48    0.31
  -7  -4   0    0.19    0.42
  -7  -4   0    0.02    0.31
  -8  -3   0    0.72    0.38
  -8  -3   0    0.83    0.48
  -9  -2   0   -0.17    0.49
  -9  -2   0    0.01    0.40
 -10  -1   0    0.83    0.57
  -2 -10   1    0.88    0.46
  -3  -9   1   -0.10    0.40
  -3  -9   1    0.03    0.24
  -3  -9   1    0.13    0.21
  -4  -8   1    0.73    0.39
  -4  -8   1    0.61    0.29
  -5  -7   1    1.69    0.41
  -5  -7   1    1.51    0.47
  -5  -7   1    1.18    0.32
  -6  -6   1    0.98    0.40
  -6  -6   1    1.00    0.33
  -6  -6   1    0.74    0.44
  -7  -5   1    0.39    0.32
  -7  -5   1    0.41    0.41
  -8  -4   1    1.25    0.50
  -8  -4   1    0.79    0.39
  -9  -3   1   -0.45    0.46
  -9  -3   1    0.16    0.39
 -10  -2   1   -0.38    0.50
  -2 -11   2    1.13    0.47
  -3 -10   2    0.56    0.46
  -4  -9   2    1.36    0.48
  -4  -9   2    1.15    0.29
  -5  -8   2   -0.19    0.37
  -5  -8   2    0.21    0.29
  -6  -7   2    0.57    0.46
  -6  -7   2    0.54    0.29
  -7  -6   2    0.29    0.44
  -7  -6   2    0.23    0.32
  -8  -5   2    0.25    0.36
  -8  -5   2    0.10    0.45
  -9  -4   2    0.04    0.38
  -9  -4   2    0.22    0.45
 -10  -3   2   -0.39    0.48
  -2 -12   3    1.14    0.51
  -3 -11   3    0.44    0.48
  -4 -10   3    0.34    0.48
  -5  -9   3    1.50    0.52
  -6  -8   3    0.44    0.30
  -6  -8   3    0.77    0.45
  -7  -7   3   -0.15    0.33
  -7  -7   3    0.08    0.47
  -8  -6   3    0.00    0.43
  -8  -6   3    0.25    0.36
  -9  -5   3   -0.23    0.45
 -10  -4   3   -0.48    0.47
  -2 -13   4    1.36    0.53
  -3 -12   4    0.93    0.52
  -4 -11   4    0.56    0.51
  -5 -10   4    0.30    0.50
  -6  -9   4   -0.09    0.47
  -7  -8   4    0.49    0.46
  -7  -8   4    0.46    0.34
  -8  -7   4   -0.13    0.49
  -8  -7   4   -0.29    0.35
  -9  -6   4    0.23    0.50
  -3 -13   5    1.13    0.54
  -4 -12   5    0.39    0.53
  -5 -11   5    0.41    0.52
  -6 -10   5   -0.05    0.49
  -7  -9   5    0.16    0.49
  -8  -8   5    0.21    0.50
  -3   1  14   -0.33    0.55
  -2   0  14    0.25    0.55
  -1  -1  14    0.01    0.51
   0  -2  14   -0.11    0.49
  -3   2  13   -0.20    0.56
  -2   1  13    0.17    0.53
  -1   0  13    0.06    0.52
   0  -1  13   -0.02    0.51
   1  -2  13    0.40    0.52
   1  -2  13   -0.17    0.37
   2  -3  13    0.00    0.48
   2  -3  13   -0.38    0.40
   3  -4  13    0.47    0.40
  -4   4  12    0.14    0.59
  -3   3  12    0.30    0.57
   2  -2 -12    0.46    0.41
  -2   2  12   -0.01    0.52
  -1   1  12    0.44    0.54
   0   0  12    0.82    0.50
   1  -1  12    0.43    0.51
   2  -2  12    0.85    0.53
   2  -2  12    1.08    0.42
   3  -3  12    0.44    0.50
   3  -3  12    0.34    0.39
   4  -4  12    0.10    0.43
  -4   5  11   -0.16    0.50
  -3   4  11    0.39    0.52
   2  -3 -11    0.30    0.41
  -2   3  11   -0.11    0.53
   1  -2 -11   -0.05    0.45
  -1   2  11    0.68    0.55
   0  -1 -11    1.23    0.45
   0   1  11    1.05    0.54
  -1   0 -11    1.10    0.44
   1   0  11    1.19    0.54
   2  -1  11    0.13    0.47
   3  -2  11    0.82    0.40
   3  -2  11    0.77    0.48
   4  -3  11    0.29    0.42
   4  -3  11    0.84    0.48
   5  -4  11    0.24    0.46
   5  -4  11   -0.05    0.41
  -4   6  10   -0.04    0.50
  -3   5  10    0.04    0.51
   2  -4 -10    0.14    0.41
  -2   4  10    0.03    0.53
   1  -3 -10   -0.29    0.43
  -1   3  10    0.24    0.53
   0  -2 -10    1.04    0.43
   0   2  10    1.00    0.50
  -1  -1 -10    0.64    0.40
   1   1  10    0.89    0.52
  -2   0 -10    4.17    0.56
   2   0  10    4.76    0.64
  -3   1 -10    1.02    0.43
   3  -1  10    0.37    0.49
   4  -2  10    0.51    0.41
   4  -2  10    0.44    0.49
   5  -3  10    0.22    0.38
   5  -3  10    0.27    0.48
   6  -4  10    0.57    0.49
   6  -4  10    0.49    0.43
  -8   6 -10    0.80    0.59
  -4   7   9   -0.04    0.49
  -3   6   9    0.33    0.51
   2  -5  -9    0.89    0.41
  -2   5   9   -0.44    0.47
   1  -4  -9   -0.01    0.42
  -1   4   9    0.05    0.51
   0  -3  -9    0.70    0.39
   0   3   9    1.02    0.52
  -1  -2  -9    0.21    0.37
   1   2   9    0.28    0.47
  -2  -1  -9    0.13    0.38
   2   1   9    0.53    0.48
  -3   0  -9    0.81    0.39
   3   0   9    0.17    0.49
  -4   1  -9    2.55    0.52
   4  -1   9    3.88    0.64
   5  -2   9    0.25    0.37
   5  -2   9    0.31    0.51
   6  -3   9    0.34    0.51
   6  -3   9    0.41    0.41
   7  -4   9    0.83    0.51
   7  -4   9    0.34    0.42
  -8   5  -9    0.13    0.55
  -4   8   8    0.09    0.51
  -3   7   8   -0.14    0.47
   2  -6  -8    1.14    0.42
  -2   6   8    0.80    0.56
   1  -5  -8    0.96    0.42
  -1   5   8    1.61    0.57
   0  -4  -8    0.98    0.37
   0   4   8    0.69    0.50
  -1  -3  -8    1.34    0.41
   1   3   8    0.69    0.47
  -2  -2  -8    0.60    0.38
   2   2   8    0.31    0.46
  -3  -1  -8    0.62    0.36
   3   1   8    0.49    0.49
  -4   0  -8    0.05    0.36
   4   0   8    0.56    0.47
  -5   1  -8    0.55    0.36
   5  -1   8    0.42    0.52
   6  -2   8    1.21    0.55
  -7   3  -8   -0.28    0.57
   7  -3   8    0.56    0.52
  -8   4  -8    0.85    0.54
   8  -4   8    1.00    0.53
   8  -4   8    0.82    0.55
  -9   5  -8   -0.95    0.62
  -4   9   7   -0.03    0.49
  -3   8   7    2.50    0.60
   2  -7  -7    0.46    0.40
  -2   7   7    0.01    0.52
   1  -6  -7   -0.64    0.36
  -1   6   7   -0.04    0.48
   0  -5  -7    0.73    0.37
   0   5   7    0.76    0.51
  -1  -4  -7    0.78    0.37
   1   4   7    0.36    0.45
  -2  -3  -7    1.64    0.39
   2   3   7    1.34    0.50
   3   2   7   -0.01    0.42
  -4  -1  -7    1.52    0.36
   4   1   7    1.69    0.51
  -5   0  -7    0.85    0.40
   5   0   7    0.82    0.53
  -6   1  -7    0.41    0.38
   6  -1   7    0.26    0.54
  -7   2  -7    0.02    0.56
   7  -2   7    0.51    0.51
  -8   3  -7    0.06    0.56
   8  -3   7    0.82    0.55
   8  -3   7    0.41    0.52
  -9   4  -7    0.01    0.68
   9  -4   7    0.97    0.55
  -3   9   6   -0.16    0.44
   2  -8  -6    0.23    0.42
  -2   8   6   -0.08    0.49
   1  -7  -6    4.16    0.51
  -1   7   6    3.49    0.59
   0  -6  -6    0.15    0.34
   0   6   6    0.64    0.49
  -1  -5  -6    0.58    0.34
   1   5   6    0.25    0.39
  -2  -4  -6    0.99    0.35
   2   4   6    0.39    0.41
  -3  -3  -6   -0.38    0.34
   3   3   6    0.31    0.43
  -4  -2  -6    1.44    0.37
   4   2   6    1.25    0.52
  -5  -1  -6    0.34    0.34
  -5  -1  -6   -0.54    0.41
   5   1   6    0.58    0.49
  -6   0  -6    2.44    0.47
   6   0   6    2.65    0.59
  -7   1  -6    0.60    0.40
  -7   1  -6   -0.45    0.53
   7  -1   6    0.71    0.57
  -8   2  -6   -0.49    0.54
   8  -2   6    1.15    0.59
  -9   3  -6   -0.12    0.69
   9  -3   6    0.99    0.56
  10  -4   6    1.18    0.57
   2  -9  -5    0.25    0.37
   1  -8  -5    1.23    0.38
  -1   8   5    1.63    0.53
   0  -7  -5    0.29    0.35
   0   7   5    0.55    0.48
  -1  -6  -5    1.33    0.36
   1   6   5    1.14    0.44
  -2  -5  -5    0.18    0.32
   2   5   5    0.33    0.43
  -3  -4  -5    0.23    0.27
   3   4   5    0.08    0.44
  -4  -3  -5    0.34    0.30
   4   3   5    0.34    0.43
  -5  -2  -5   -0.18    0.39
  -5  -2  -5    0.51    0.35
   5   2   5    0.53    0.49
  -6  -1  -5   -0.29    0.46
  -6  -1  -5    0.15    0.35
   6   1   5    0.42    0.53
  -7   0  -5   -0.13    0.39
   7   0   5    0.17    0.56
  -8   1  -5    0.70    0.43
  -8   1  -5    0.22    0.53
   8  -1   5    0.96    0.58
  -9   2  -5   -1.41    0.63
   9  -2   5    1.32    0.62
  10  -3   5    1.21    0.60
   1  -9  -4    0.03    0.34
   0  -8  -4    0.21    0.33
  -1  -7  -4    3.99    0.48
   1   7   4    4.06    0.54
  -2  -6  -4    2.18    0.38
   2   6   4    2.41    0.50
  -3  -5  -4    0.41    0.29
   3   5   4    0.68    0.46
  -4  -4  -4    0.64    0.30
   4   4   4    1.02    0.44
  -5  -3  -4    1.22    0.42
  -5  -3  -4    1.19    0.36
   5   3   4    1.64    0.52
  -6  -2  -4   -0.02    0.35
  -6  -2  -4   -0.79    0.41
   6   2   4    0.57    0.49
  -7  -1  -4    0.42    0.36
  -7  -1  -4    0.18    0.46
   7   1   4   -0.69    0.59
  -8   0  -4    0.38    0.53
  -8   0  -4    0.83    0.43
   8   0   4   -1.08    0.63
  -9   1  -4   -0.40    0.61
  -9   1  -4    0.03    0.42
   1 -10  -3    1.23    0.37
   0  -9  -3    0.68    0.33
  -1  -8  -3    1.98    0.37
  -2  -7  -3    0.47    0.33
  -2  -7  -3    0.31    0.34
  -3  -6  -3    0.02    0.28
  -3  -6  -3    0.19    0.37
   3   6   3    0.74    0.43
  -4  -5  -3    1.20    0.39
  -4  -5  -3    1.42    0.34
   4   5   3    1.80    0.49
  -5  -4  -3   -0.06    0.37
  -5  -4  -3    0.39    0.32
   5   4   3    0.56    0.47
  -6  -3  -3    0.69    0.36
  -6  -3  -3    0.95    0.42
   6   3   3   -0.79    0.54
  -7  -2  -3   -0.36    0.47
  -7  -2  -3    1.16    0.40
   7   2   3    0.13    0.60
  -8  -1  -3    0.18    0.37
  -8  -1  -3   -0.06    0.46
  -9   0  -3    0.18    0.42
  -9   0  -3    0.03    0.51
 -10   1  -3   -1.11    0.52
   1 -11  -2    0.47    0.33
   0 -10  -2   -0.26    0.31
  -1  -9  -2    0.61    0.32
  -2  -8  -2    0.87    0.31
  -3  -7  -2    8.41    0.74
  -3  -7  -2    8.02    0.53
  -4  -6  -2    0.23    0.30
  -4  -6  -2    0.29    0.36
  -4  -6  -2    0.19    0.37
   4   6   2    0.66    0.43
  -5  -5  -2    1.03    0.42
  -5  -5  -2    1.07    0.34
   5   5   2   -0.72    0.50
  -6  -4  -2   -0.18    0.40
  -6  -4  -2    0.04    0.32
  -7  -3  -2    0.00    0.45
  -7  -3  -2    0.47    0.37
  -8  -2  -2    0.68    0.41
  -8  -2  -2    0.34    0.46
   8   2   2   -1.23    0.58
  -9  -1  -2   -0.16    0.40
  -9  -1  -2   -0.99    0.52
   9   1   2   -1.27    0.64
 -10   0  -2    0.17    0.53
  -1 -10  -1    0.01    0.28
  -2  -9  -1    0.15    0.28
  -3  -8  -1    0.33    0.29
  -4  -7  -1    1.04    0.43
  -4  -7  -1    1.07    0.38
  -4  -7  -1    1.07    0.32
  -5  -6  -1    4.74    0.50
  -5  -6  -1    4.10    0.59
  -5  -6  -1    4.73    0.58
  -6  -5  -1    0.15    0.41
  -6  -5  -1    0.13    0.31
  -7  -4  -1    2.02    0.42
  -7  -4  -1    2.20    0.52
   7   4   1    1.75    0.62
  -8  -3  -1   -0.11    0.37
  -8  -3  -1   -0.10    0.46
   8   3   1    0.42    0.62
  -9  -2  -1    0.23    0.51
  -9  -2  -1    0.04    0.40
   9   2   1    0.03    0.66
 -10  -1  -1   -0.46    0.53
  10   1   1   -0.27    0.63
  11   0   1   -0.94    0.70
  -3  -9   0    0.71    0.34
  -4  -8   0    0.31    0.40
  -4  -8   0    0.29    0.28
  -5  -7   0    0.08    0.30
  -5  -7   0    0.02    0.41
  -6  -6   0    0.43    0.43
  -6  -6   0    0.49    0.32
  -7  -5   0    0.34    0.46
  -7  -5   0    0.23    0.33
  -8  -4   0    0.61    0.36
  -8  -4   0    0.21    0.47
  -9  -3   0   -0.33    0.48
  -9  -3   0    0.99    0.42
 -10  -2   0   -0.53    0.49
  -3 -10   1    1.91    0.51
  -4  -9   1    0.39    0.28
  -4  -9   1    0.28    0.44
  -5  -8   1    1.22    0.33
  -5  -8   1    1.38    0.49
  -6  -7   1    0.06    0.31
  -6  -7   1   -0.04    0.41
  -7  -6   1   -0.22    0.43
  -7  -6   1    0.19    0.32
  -8  -5   1   -0.21    0.33
  -8  -5   1    0.02    0.46
  -9  -4   1   -0.29    0.47
 -10  -3   1   -0.19    0.50
  -3 -11   2    0.19    0.46
  -4 -10   2    0.16    0.46
  -5  -9   2    0.90    0.31
  -5  -9   2    0.57    0.49
  -6  -8   2    0.20    0.31
  -6  -8   2    0.03    0.47
  -7  -7   2    1.13    0.53
  -7  -7   2    1.04    0.36
  -8  -6   2    0.25    0.49
  -8  -6   2    0.05    0.33
  -9  -5   2   -0.23    0.47
  -3 -12   3    1.33    0.52
  -4 -11   3    0.83    0.53
  -5 -10   3    0.62    0.51
  -6  -9   3   -0.11    0.48
  -6  -9   3    0.05    0.30
  -7  -8   3    0.00    0.31
  -7  -8   3    0.14    0.48
  -8  -7   3   -0.06    0.50
  -9  -6   3    0.25    0.52
  -4 -12   4    0.79    0.52
  -5 -11   4    0.64    0.53
  -6 -10   4    0.14    0.51
  -7  -9   4    0.10    0.49
  -8  -8   4    0.25    0.52
  -2   1  14    0.03    0.57
  -1   0  14   -0.15    0.54
   0  -1  14   -0.29    0.51
   1  -2  14    0.44    0.56
  -2   2  13    0.17    0.56
  -1   1  13   -0.05    0.53
   0   0  13    0.22    0.54
   1  -1  13    0.44    0.53
   2  -2  13   -0.17    0.49
   3  -3  13    0.35    0.52
  -3   4  12   -0.25    0.58
  -2   3  12   -0.21    0.54
   1  -2 -12    0.49    0.42
  -1   2  12    0.28    0.57
   0   1  12    0.04    0.50
   1   0  12   -0.17    0.51
   2  -1  12    0.39    0.52
   3  -2  12    0.53    0.54
   4  -3  12    0.78    0.49
  -3   5  11    0.17    0.50
  -2   4  11    0.36    0.59
   1  -3 -11    0.13    0.42
  -1   3  11    0.02    0.56
   0  -2 -11    1.02    0.46
   0   2  11    0.04    0.54
  -1  -1 -11    0.77    0.45
   1   1  11    0.38    0.53
  -2   0 -11    0.40    0.43
   2   0  11    0.45    0.54
   3  -1  11    0.91    0.49
   4  -2  11    0.24    0.49
   5  -3  11    0.58    0.51
   6  -4  11    0.88    0.52
  -3   6  10    0.88    0.60
  -2   5  10    0.01    0.51
   1  -4 -10    0.56    0.44
  -1   4  10    1.11    0.60
   0  -3 -10    0.60    0.41
   0   3  10    0.34    0.51
  -1  -2 -10    2.11    0.50
   1   2  10    2.02    0.57
  -2  -1 -10    0.95    0.45
   2   1  10    0.55    0.52
  -3   0 -10    2.05    0.49
   3   0  10    0.96    0.51
   4  -1  10    0.10    0.51
   5  -2  10    0.52    0.53
   6  -3  10    0.87    0.53
   7  -4  10    1.04    0.55
  -3   7   9    0.18    0.50
  -2   6   9    0.02    0.49
   1  -5  -9    1.01    0.47
  -1   5   9    1.89    0.62
   0  -4  -9    0.95    0.40
   0   4   9   -0.29    0.52
  -1  -3  -9    1.91    0.45
   1   3   9    1.98    0.58
  -2  -2  -9   -0.63    0.43
   2   2   9    0.57    0.51
  -3  -1  -9    1.35    0.46
   3   1   9    1.79    0.58
  -4   0  -9    2.26    0.46
   4   0   9    1.61    0.58
   5  -1   9    0.69    0.51
   6  -2   9   -0.13    0.50
   7  -3   9    0.77    0.53
   8  -4   9    1.26    0.55
  -3   8   8   -0.09    0.48
  -2   7   8    0.02    0.49
   1  -6  -8   -0.18    0.41
  -1   6   8   -0.22    0.48
   0  -5  -8    1.24    0.42
   0   5   8    0.04    0.52
  -1  -4  -8    0.29    0.37
   1   4   8    0.21    0.49
  -2  -3  -8    0.52    0.40
   2   3   8    0.15    0.46
  -3  -2  -8    0.59    0.42
   3   2   8    0.08    0.50
   4   1   8    0.78    0.54
  -5   0  -8    0.39    0.38
   5   0   8    0.57    0.54
  -6   1  -8    3.50    0.51
   6  -1   8    2.49    0.63
   7  -2   8    0.97    0.57
   8  -3   8    0.66    0.53
  -9   4  -8    1.46    0.61
   9  -4   8    0.99    0.54
  -3   9   7   -0.04    0.49
  -2   8   7    0.51    0.48
   1  -7  -7    0.21    0.38
  -1   7   7   -0.01    0.53
   0  -6  -7    0.28    0.37
   0   6   7    0.24    0.51
  -1  -5  -7    0.18    0.37
   1   5   7   -0.05    0.42
  -2  -4  -7    0.99    0.41
   2   4   7    0.69    0.49
  -3  -3  -7    1.11    0.41
   3   3   7    0.36    0.52
  -4  -2  -7    0.02    0.37
   4   2   7    0.34    0.49
  -5  -1  -7    0.49    0.39
   5   1   7    0.42    0.53
  -6   0  -7    0.46    0.39
   6   0   7    0.40    0.55
  -7   1  -7    0.20    0.43
   7  -1   7    0.67    0.55
   8  -2   7    1.42    0.60
  -9   3  -7    0.57    0.57
   9  -3   7    0.96    0.57
  -2   9   6    0.39    0.49
   1  -8  -6    0.33    0.37
  -1   8   6    0.39    0.52
   0  -7  -6    0.05    0.37
   0   7   6    0.43    0.51
  -1  -6  -6   -0.10    0.36
   1   6   6    0.00    0.44
  -2  -5  -6    0.03    0.36
   2   5   6    0.66    0.48
  -3  -4  -6   -0.03    0.33
   3   4   6   -0.06    0.47
  -4  -3  -6    0.46    0.36
   4   3   6    0.07    0.47
  -5  -2  -6    0.05    0.35
   5   2   6    0.88    0.55
  -6  -1  -6   -0.21    0.47
  -6  -1  -6    0.11    0.37
   6   1   6    0.12    0.51
  -7   0  -6    0.52    0.40
   7   0   6    0.41    0.57
  -8   1  -6    0.74    0.45
   8  -1   6    1.28    0.62
  -9   2  -6    0.63    0.55
   9  -2   6    0.70    0.59
   0  -8  -5    0.09    0.36
   0   8   5    0.04    0.50
  -1  -7  -5    1.49    0.41
   1   7   5    1.43    0.49
  -2  -6  -5   -0.07    0.35
   2   6   5    0.05    0.45
  -3  -5  -5   -0.12    0.37
   3   5   5    0.09    0.47
  -4  -4  -5    0.64    0.34
   4   4   5    0.49    0.51
  -5  -3  -5    0.97    0.36
   5   3   5    1.51    0.53
  -6  -2  -5    1.31    0.42
   6   2   5    1.23    0.58
  -7  -1  -5    0.11    0.52
  -7  -1  -5    0.58    0.39
   7   1   5    1.22    0.61
  -8   0  -5    0.21    0.40
  -8   0  -5   -0.32    0.55
   8   0   5    1.04    0.64
  -9   1  -5    1.37    0.57
   9  -1   5    1.05    0.63
 -10   2  -5    1.27    0.56
  10  -2   5    1.05    0.61
   0  -9  -4    0.58    0.36
  -1  -8  -4    0.05    0.33
  -2  -7  -4    0.05    0.35
   2   7   4    0.22    0.47
  -3  -6  -4    3.54    0.47
   3   6   4    3.20    0.57
  -4  -5  -4    0.30    0.33
   4   5   4    0.66    0.49
  -5  -4  -4    0.20    0.32
  -5  -4  -4    0.07    0.39
   5   4   4    0.56    0.51
  -6  -3  -4    0.70    0.36
  -6  -3  -4    0.31    0.45
   6   3   4    1.50    0.55
  -7  -2  -4    0.79    0.41
  -7  -2  -4   -0.17    0.51
   7   2   4    1.67    0.62
  -8  -1  -4    0.05    0.38
  -8  -1  -4    0.26    0.49
   8   1   4   -0.25    0.64
  -9   0  -4   -0.78    0.53
   9   0   4   -1.35    0.65
  10  -1   4   -0.49    0.67
   0 -10  -3   -0.05    0.35
  -1  -9  -3    0.20    0.33
  -2  -8  -3    0.53    0.33
  -3  -7  -3    0.51    0.38
  -4  -6  -3    1.42    0.37
   4   6   3    2.09    0.55
  -5  -5  -3    1.49    0.38
  -5  -5  -3    1.71    0.46
   5   5   3    3.08    0.58
  -6  -4  -3   -0.25    0.42
  -6  -4  -3    0.16    0.33
   6   4   3    0.97    0.55
  -7  -3  -3    0.29    0.35
  -7  -3  -3   -0.10    0.47
  -8  -2  -3   -0.13    0.39
  -8  -2  -3    0.02    0.51
  -1 -10  -2    0.80    0.33
  -2  -9  -2    2.13    0.39
  -3  -8  -2    0.24    0.34
  -4  -7  -2    0.94    0.34
  -5  -6  -2    0.78    0.44
  -5  -6  -2    0.29    0.32
   5   6   2    1.67    0.53
  -6  -5  -2    1.00    0.46
  -6  -5  -2    0.87    0.36
   6   5   2   -0.61    0.59
  -7  -4  -2    0.87    0.49
  -7  -4  -2    0.79    0.37
   7   4   2   -1.08    0.58
  -8  -3  -2    0.08    0.49
  -8  -3  -2   -0.25    0.36
  -9  -2  -2   -0.29    0.51
  -2 -10  -1    0.68    0.32
  -3  -9  -1    1.35    0.35
  -4  -8  -1    1.10    0.34
  -5  -7  -1    2.66    0.39
  -5  -7  -1    2.92    0.55
  -6  -6  -1    0.39    0.33
  -6  -6  -1    0.38    0.44
  -7  -5  -1    0.32    0.35
  -7  -5  -1    0.22    0.42
  -8  -4  -1   -0.34    0.46
  -8  -4  -1    0.03    0.37
  -9  -3  -1   -0.72    0.48
  -4  -9   0   -0.10    0.29
  -5  -8   0    0.58    0.47
  -5  -8   0    0.50    0.32
  -6  -7   0    0.00    0.32
  -6  -7   0   -0.21    0.44
  -7  -6   0    2.28    0.54
  -7  -6   0    2.63    0.43
  -8  -5   0   -0.28    0.46
  -8  -5   0    0.24    0.36
   8   5   0   -0.39    0.63
  -9  -4   0   -0.55    0.45
   9   4   0    0.23    0.65
  10   3   0   -0.34    0.67
  -4 -10   1    0.77    0.49
  -5  -9   1    0.45    0.49
  -5  -9   1    0.26    0.31
  -6  -8   1    0.26    0.32
  -6  -8   1    0.06    0.47
  -7  -7   1    0.20    0.34
  -7  -7   1    0.32    0.50
  -8  -6   1    0.16    0.48
  -9  -5   1    0.56    0.50
  -4 -11   2    1.02    0.53
  -5 -10   2    0.60    0.51
  -6  -9   2    0.15    0.30
  -6  -9   2    0.20    0.49
  -7  -8   2    0.10    0.50
  -8  -7   2   -0.67    0.43
  -5 -11   3    1.13    0.52
  -6 -10   3    0.34    0.50
  -7  -9   3    0.38    0.52
   0   0  14    0.03    0.56
   1  -1  14   -0.03    0.55
   2  -2  14    0.72    0.57
  -1   2  13    0.11    0.58
   0   1  13    0.04    0.56
   1   0  13    0.49    0.56
   2  -1  13    0.05    0.52
   3  -2  13    0.22    0.53
   4  -3  13    0.68    0.55
  -2   4  12    0.09    0.51
  -1   3  12    0.42    0.59
   0   2  12    0.69    0.60
  -1  -1 -12    0.75    0.42
   1   1  12    0.57    0.57
   2   0  12    0.57    0.55
   3  -1  12    1.06    0.59
   4  -2  12    1.38    0.55
   5  -3  12    0.38    0.49
  -2   5  11    1.08    0.61
  -1   4  11    1.08    0.62
   0   3  11   -0.10    0.57
  -1  -2 -11    0.40    0.41
   1   2  11    0.55    0.58
  -2  -1 -11    0.81    0.46
   2   1  11    0.44    0.56
   3   0  11    0.72    0.55
   4  -1  11    0.62    0.52
   5  -2  11    0.40    0.53
   6  -3  11    0.89    0.53
  -2   6  10    0.07    0.50
  -1   5  10    2.08    0.62
   0   4  10    2.89    0.68
  -1  -3 -10    1.22    0.47
   1   3  10    0.25    0.58
  -2  -2 -10    0.52    0.46
   2   2  10   -0.03    0.51
  -3  -1 -10    0.61    0.42
   3   1  10    0.42    0.51
  -4   0 -10    1.52    0.48
   4   0  10    0.61    0.55
   5  -1  10    0.63    0.54
   6  -2  10    0.25    0.52
   7  -3  10    0.44    0.54
  -2   7   9    0.41    0.52
  -1   6   9    0.99    0.61
   0   5   9    0.25    0.51
  -1  -4  -9    1.14    0.45
   1   4   9    1.18    0.61
  -2  -3  -9    1.60    0.47
   2   3   9    1.84    0.59
  -3  -2  -9    1.05    0.43
   3   2   9    0.76    0.52
  -4  -1  -9    0.81    0.42
   4   1   9    0.12    0.56
   5   0   9   -0.21    0.51
   6  -1   9    0.36    0.56
   7  -2   9    0.35    0.53
   8  -3   9    0.23    0.53
  -2   8   8   -0.21    0.48
  -1   7   8    0.08    0.49
   0   6   8    0.55    0.51
  -1  -5  -8    6.25    0.61
   1   5   8    6.32    0.74
  -2  -4  -8    0.55    0.45
   2   4   8    0.83    0.54
  -3  -3  -8    0.66    0.40
   3   3   8    0.57    0.54
  -4  -2  -8    0.69    0.43
   4   2   8    0.25    0.54
  -5  -1  -8   -0.02    0.40
   5   1   8    0.41    0.56
  -6   0  -8    0.84    0.42
   6   0   8    0.47    0.58
   7  -1   8    0.51    0.59
   8  -2   8    0.36    0.55
  -2   9   7    0.14    0.49
  -1   8   7    0.29    0.51
   0   7   7    0.13    0.48
  -1  -6  -7    0.41    0.40
   1   6   7    0.42    0.50
  -2  -5  -7   -0.26    0.40
   2   5   7    1.11    0.54
  -3  -4  -7    4.82    0.57
   3   4   7    3.83    0.63
  -4  -3  -7   -1.15    0.45
   4   3   7    0.74    0.56
  -5  -2  -7    0.59    0.39
   5   2   7    0.30    0.53
  -6  -1  -7    0.79    0.43
   6   1   7    0.73    0.59
  -7   0  -7    0.33    0.42
   7   0   7    0.51    0.61
   8  -1   7    0.70    0.61
   9  -2   7    0.65    0.57
   0   8   6    0.17    0.54
  -1  -7  -6    0.50    0.38
   1   7   6    0.18    0.47
  -2  -6  -6    1.14    0.44
   2   6   6    0.38    0.49
  -3  -5  -6    1.74    0.42
   3   5   6    1.46    0.55
  -4  -4  -6   -0.32    0.41
   4   4   6    1.59    0.58
  -5  -3  -6    0.99    0.40
   5   3   6    0.31    0.52
  -6  -2  -6    0.44    0.38
   6   2   6    1.02    0.60
  -7  -1  -6    0.26    0.41
  -7  -1  -6   -0.28    0.51
   7   1   6    0.32    0.59
  -8   0  -6   -0.82    0.54
   8   0   6    1.03    0.63
   9  -1   6    1.01    0.61
  -1  -8  -5    0.18    0.36
  -2  -7  -5    0.52    0.42
   2   7   5    0.79    0.48
  -3  -6  -5    0.36    0.38
   3   6   5    0.85    0.53
  -4  -5  -5    0.25    0.36
   4   5   5    0.66    0.53
  -5  -4  -5    1.28    0.41
   5   4   5    1.97    0.61
  -6  -3  -5    1.54    0.44
   6   3   5    2.46    0.64
  -7  -2  -5    0.12    0.40
  -7  -2  -5   -0.51    0.50
   7   2   5    0.98    0.62
   8   1   5    1.07    0.64
   9   0   5    1.30    0.65
  -1  -9  -4    0.59    0.35
  -2  -8  -4    0.97    0.40
  -3  -7  -4    0.10    0.35
   3   7   4    0.72    0.51
  -4  -6  -4    2.00    0.41
   4   6   4    2.54    0.58
  -5  -5  -4    1.35    0.40
   5   5   4    1.80    0.58
  -6  -4  -4    0.14    0.35
   6   4   4    0.83    0.58
  -7  -3  -4   -0.46    0.46
  -7  -3  -4   -0.30    0.35
   7   3   4    0.99    0.61
  -8  -2  -4   -0.44    0.50
   8   2   4    0.82    0.64
   9   1   4    1.55    0.67
  10   0   4    1.04    0.67
  -2  -9  -3    0.45    0.36
  -3  -8  -3    0.88    0.37
  -4  -7  -3    0.84    0.36
  -5  -6  -3    0.95    0.36
   5   6   3    2.06    0.56
  -6  -5  -3    0.64    0.46
  -6  -5  -3    1.01    0.38
   6   5   3    1.53    0.59
  -7  -4  -3    1.54    0.43
  -7  -4  -3    1.20    0.52
   7   4   3    2.47    0.65
  -8  -3  -3   -0.79    0.48
  -9  -2  -3   -0.07    0.52
  -2 -10  -2    0.40    0.32
  -3  -9  -2    0.15    0.33
  -4  -8  -2    0.17    0.38
  -5  -7  -2    0.49    0.33
  -6  -6  -2    0.06    0.46
  -6  -6  -2    0.22    0.36
   6   6   2    0.77    0.55
  -7  -5  -2    0.07    0.46
  -7  -5  -2    0.25    0.36
  -8  -4  -2   -0.41    0.46
  -9  -3  -2   -0.38    0.50
  -3 -10  -1    0.04    0.32
  -4  -9  -1   -0.18    0.39
  -5  -8  -1    0.36    0.33
  -6  -7  -1   -0.15    0.32
  -6  -7  -1   -0.19    0.47
  -7  -6  -1   -0.12    0.45
  -8  -5  -1   -0.69    0.43
  -9  -4  -1   -0.54    0.48
  -5  -9   0    0.09    0.31
  -6  -8   0    0.40    0.49
  -7  -7   0   -0.14    0.49
  -8  -6   0   -0.56    0.44
  -5 -10   1    1.29    0.50
  -6  -9   1    0.04    0.48
  -7  -8   1    0.22    0.51
  -8  -7   1    0.25    0.53
   1   1  13    0.02    0.59
   2   0  13    0.34    0.58
   3  -1  13    0.17    0.54
   0   3  12    0.98    0.64
   1   2  12    0.10    0.59
   2   1  12    0.51    0.57
   3   0  12    0.23    0.56
   4  -1  12    0.58    0.53
   5  -2  12    0.23    0.51
  -1   5  11    1.03    0.62
   0   4  11   -0.13    0.52
   1   3  11    0.51    0.60
   2   2  11    0.45    0.57
   3   1  11    0.24    0.56
   4   0  11    0.26    0.52
   5  -1  11    0.48    0.53
   6  -2  11    0.57    0.55
  -1   6  10    0.18    0.55
   0   5  10   -0.03    0.52
   1   4  10    3.70    0.73
   2   3  10    0.43    0.56
   3   2  10    0.35    0.56
   4   1  10    0.53    0.57
   5   0  10    0.75    0.57
   6  -1  10    0.25    0.55
   7  -2  10    0.54    0.56
  -1   7   9    0.47    0.54
   0   6   9    0.13    0.52
   1   5   9    1.07    0.62
   2   4   9    1.25    0.59
  -3  -3  -9    1.96    0.53
   3   3   9    1.68    0.58
  -4  -2  -9    1.04    0.47
   4   2   9    0.46    0.57
  -5  -1  -9    0.80    0.43
   5   1   9    0.37    0.58
   6   0   9    0.36    0.57
   7  -1   9    0.67    0.57
  -1   8   8    0.33    0.52
   0   7   8    0.22    0.51
   1   6   8    0.17    0.52
   2   5   8    0.26    0.52
  -3  -4  -8    2.60    0.51
   3   4   8    2.32    0.62
  -4  -3  -8    2.30    0.51
   4   3   8    2.08    0.65
   5   2   8    1.04    0.61
   6   1   8    0.11    0.56
   7   0   8    0.79    0.59
   8  -1   8    0.87    0.61
   0   8   7    0.43    0.52
   1   7   7    1.32    0.63
   2   6   7    0.82    0.54
  -3  -5  -7    2.60    0.48
   3   5   7    1.49    0.57
  -4  -4  -7    0.86    0.41
   4   4   7    0.77    0.59
  -5  -3  -7   -0.25    0.49
   5   3   7    1.61    0.64
   6   2   7    1.32    0.62
   7   1   7    1.10    0.64
   8   0   7    0.62    0.60
   1   8   6    0.58    0.52
   2   7   6    0.50    0.52
  -3  -6  -6    1.30    0.43
   3   6   6    1.62    0.57
  -4  -5  -6    1.29    0.41
   4   5   6    0.76    0.57
   5   4   6    6.83    0.85
   6   3   6    0.64    0.60
   7   2   6    0.45    0.60
   8   1   6    1.12    0.65
   9   0   6    1.09    0.66
   3   7   5    0.80    0.51
  -4  -6  -5    0.26    0.39
   4   6   5    0.68    0.55
  -5  -5  -5    0.03    0.35
   5   5   5    0.37    0.55
   6   4   5    2.86    0.68
   7   3   5    3.98    0.74
  -8  -2  -5   -0.67    0.50
   8   2   5    0.86    0.62
   9   1   5    0.99    0.63
   4   7   4    1.04    0.53
  -5  -6  -4    0.56    0.37
   5   6   4    0.19    0.54
   6   5   4    0.82    0.58
   7   4   4    1.72    0.64
  -8  -3  -4    0.81    0.55
   8   3   4    2.53    0.70
   9   2   4    1.76    0.67
   6   6   3    1.03    0.56
  -7  -5  -3   -0.37    0.48
   7   5   3    0.92    0.59
  -8  -4  -3   -0.63    0.46
   8   4   3    1.49    0.64
   9   3   3    2.07    0.69
  -7  -6  -2    0.15    0.49
   7   6   2    1.04    0.57
  -8  -5  -2   -0.34    0.47
   8   5   2    0.35    0.63
  -7  -7  -1   -0.21    0.48
   2   2  12    0.09    0.61
   3   1  12    0.42    0.64
   1   4  11    0.36    0.55
   2   3  11    0.65    0.57
   3   2  11    0.51    0.57
   4   1  11    0.37    0.56
   5   0  11    0.38    0.58
   1   5  10    0.97    0.63
   2   4  10    0.24    0.55
   3   3  10    0.58    0.58
   4   2  10    0.59    0.58
   5   1  10    0.29    0.58
   6   0  10    0.29    0.57
   1   6   9    1.27    0.64
   2   5   9    0.45    0.56
   3   4   9    0.63    0.58
   4   3   9    0.40    0.58
   5   2   9    0.69    0.60
   6   1   9    0.54    0.61
   7   0   9    1.55    0.64
   1   7   8    0.13    0.52
   2   6   8    0.27    0.53
   3   5   8    1.26    0.59
   4   4   8    0.45    0.58
   5   3   8    1.26    0.62
   6   2   8    0.85    0.61
   7   1   8    0.85    0.62
   1   8   7    0.36    0.51
   2   7   7    0.61    0.56
   3   6   7    0.25    0.54
   4   5   7    0.34    0.57
   5   4   7   -0.31    0.57
   6   3   7    1.10    0.64
   7   2   7    1.12    0.64
   8   1   7    1.04    0.64
   3   7   6    0.67    0.53
   4   6   6    0.76    0.59
   5   5   6    0.74    0.59
   6   4   6    0.78    0.62
   7   3   6    1.61    0.65
   8   2   6    0.95    0.64
   4   7   5    0.46    0.56
   5   6   5    1.69    0.63
   6   5   5    0.83    0.60
   7   4   5    1.06    0.63
   8   3   5    0.99    0.63
   6   6   4    0.39    0.57
   7   5   4    1.34    0.63
   8   4   4    0.95    0.62
   7   6   3    1.20    0.61
   8   5   3    1.21    0.62
   4   4   9    0.69    0.59
   5   3   9    0.80    0.60
   3   6   8    0.07    0.52
   4   5   8    0.50    0.57
   5   4   8    0.79    0.60
   6   3   8    0.59    0.61
   4   6   7    0.99    0.59
   5   5   7    0.84    0.60
   6   4   7    0.17    0.60
   4   7   6    1.34    0.60
   5   6   6    1.20    0.62
   6   5   6    0.46    0.59
   5   7   5    0.63    0.58
   6   6   5    0.64    0.60
   0   0   0    0.00    0.00
;
_shelx_hkl_checksum              33796
loop_
_space_group_symop_operation_xyz
'x, y, z'
'-x, -y, -z'
loop_
_atom_site_label
_atom_site_type_symbol
_atom_site_fract_x
_atom_site_fract_y
_atom_site_fract_z
_atom_site_U_iso_or_equiv
_atom_site_adp_type
_atom_site_occupancy
_atom_site_site_symmetry_order
_atom_site_calc_flag
_atom_site_refinement_flags_posn
_atom_site_refinement_flags_adp
_atom_site_refinement_flags_occupancy
_atom_site_disorder_assembly
_atom_site_disorder_group
F3 F 0.5107(4) 0.4217(3) 0.8119(3) 0.0620(7) Uani 1 1 d . . . . .
O1S O 0.9156(4) 0.3454(4) 0.7936(4) 0.0668(9) Uani 1 1 d . . . . .
H1O H 1.0231 0.4126 0.8500 0.100 Uiso 1 1 d R U . . .
H2O H 0.8419 0.3708 0.8508 0.100 Uiso 1 1 d R U . . .
F1 F 0.6705(4) 0.4012(3) 1.0310(3) 0.0633(7) Uani 1 1 d . . . . .
F2 F 0.6764(4) 0.6719(3) 1.0541(3) 0.0697(8) Uani 1 1 d . . . . .
N3 N 0.8678(4) 0.6139(4) 0.6454(4) 0.0428(7) Uani 1 1 d . . . . .
Si1 Si 0.5000 0.5000 1.0000 0.0349(4) Uani 1 2 d S . P . .
C9 C 1.0346(5) 0.9089(5) 0.7979(5) 0.0453(9) Uani 1 1 d . . . . .
H9 H 1.1161 1.0009 0.8926 0.054 Uiso 1 1 calc R U . . .
C4 C 0.5305(5) 0.0000(5) 0.3038(4) 0.0401(8) Uani 1 1 d . . . . .
H4 H 0.5033 -0.1116 0.2859 0.048 Uiso 1 1 calc R U . . .
C5 C 0.6460(5) 0.1295(5) 0.4447(4) 0.0396(8) Uani 1 1 d . . . . .
H5 H 0.6963 0.1071 0.5250 0.048 Uiso 1 1 calc R U . . .
C6 C 0.7962(5) 0.6381(4) 0.5246(4) 0.0353(7) Uani 1 1 d . . . . .
C7 C 0.8380(5) 0.7948(5) 0.5344(4) 0.0415(8) Uani 1 1 d . . . . .
H7 H 0.7856 0.8080 0.4486 0.050 Uiso 1 1 calc R U . . .
N1 N 0.6724(5) 0.4922(5) 0.3935(4) 0.0550(9) Uani 1 1 d . . . . .
H1N H 0.6192 0.5109 0.3196 0.066 Uiso 1 1 calc R U . . .
C10 C 0.9897(6) 0.7513(5) 0.7817(4) 0.0448(9) Uani 1 1 d . . . . .
H10 H 1.0432 0.7357 0.8658 0.054 Uiso 1 1 calc R U . . .
C8 C 0.9585(6) 0.9325(5) 0.6729(5) 0.0461(9) Uani 1 1 d . . . . .
H8 H 0.9884 1.0403 0.6822 0.055 Uiso 1 1 calc R U . . .
C1 C 0.6168(5) 0.3289(4) 0.3561(4) 0.0337(7) Uani 1 1 d . . . . .
C2 C 0.4943(5) 0.1980(5) 0.2106(4) 0.0378(8) Uani 1 1 d . . . . .
H2 H 0.4418 0.2218 0.1318 0.045 Uiso 1 1 calc R U . . .
C3 C 0.4523(5) 0.0352(5) 0.1851(4) 0.0392(8) Uani 1 1 d . . . . .
H3 H 0.3710 -0.0531 0.0882 0.047 Uiso 1 1 calc R U . . .
N2 N 0.6894(4) 0.2915(4) 0.4704(3) 0.0386(7) Uani 1 1 d . . . . .
H2N H 0.7988 0.4436 0.5935 0.058 Uiso 1 1 d R U . . .
loop_
_atom_site_aniso_label
_atom_site_aniso_U_11
_atom_site_aniso_U_22
_atom_site_aniso_U_33
_atom_site_aniso_U_23
_atom_site_aniso_U_13
_atom_site_aniso_U_12
F3 0.0838(18) 0.0687(16) 0.0375(13) 0.0265(12) 0.0178(12) 0.0287(14)
O1S 0.0479(17) 0.067(2) 0.0556(19) 0.0106(15) 0.0044(14) 0.0128(15)
F1 0.0654(16) 0.0736(17) 0.0656(16) 0.0416(14) 0.0142(12) 0.0392(14)
F2 0.0610(16) 0.0517(15) 0.0771(19) 0.0270(14) 0.0085(13) -0.0102(12)
N3 0.0404(16) 0.0376(16) 0.0450(17) 0.0169(14) 0.0102(13) 0.0090(13)
Si1 0.0350(7) 0.0342(7) 0.0317(7) 0.0155(6) 0.0040(5) 0.0079(5)
C9 0.0362(18) 0.040(2) 0.040(2) 0.0072(16) 0.0073(15) 0.0048(15)
C4 0.0397(18) 0.0330(17) 0.044(2) 0.0164(15) 0.0133(15) 0.0067(14)
C5 0.0389(18) 0.0410(19) 0.0410(19) 0.0210(16) 0.0123(15) 0.0116(15)
C6 0.0312(16) 0.0333(16) 0.0350(17) 0.0105(14) 0.0115(13) 0.0101(13)
C7 0.0401(19) 0.045(2) 0.045(2) 0.0250(17) 0.0115(15) 0.0142(15)
N1 0.059(2) 0.056(2) 0.052(2) 0.0309(18) 0.0092(17) 0.0165(17)
C10 0.0410(19) 0.049(2) 0.0359(19) 0.0168(17) 0.0045(15) 0.0109(16)
C8 0.045(2) 0.0335(18) 0.061(2) 0.0203(17) 0.0234(18) 0.0131(15)
C1 0.0350(17) 0.0296(16) 0.0391(18) 0.0154(14) 0.0191(14) 0.0102(13)
C2 0.0360(17) 0.0422(19) 0.0334(17) 0.0172(15) 0.0100(14) 0.0097(14)
C3 0.0366(17) 0.0398(19) 0.0325(17) 0.0124(15) 0.0090(14) 0.0048(14)
N2 0.0320(14) 0.0417(16) 0.0335(15) 0.0122(13) 0.0094(12) 0.0070(12)
loop_
_atom_type_symbol
_atom_type_description
_atom_type_scat_dispersion_real
_atom_type_scat_dispersion_imag
_atom_type_scat_source
C C 0.0033 0.0016 'International Tables Vol C Tables 4.2.6.8 and 6.1.1.4'
H H 0.0000 0.0000 'International Tables Vol C Tables 4.2.6.8 and 6.1.1.4'
F F 0.0171 0.0103 'International Tables Vol C Tables 4.2.6.8 and 6.1.1.4'
N N 0.0061 0.0033 'International Tables Vol C Tables 4.2.6.8 and 6.1.1.4'
O O 0.0106 0.0060 'International Tables Vol C Tables 4.2.6.8 and 6.1.1.4'
Si Si 0.0817 0.0704 'International Tables Vol C Tables 4.2.6.8 and 6.1.1.4'
loop_
_geom_angle_atom_site_label_1
_geom_angle_atom_site_label_2
_geom_angle_atom_site_label_3
_geom_angle
_geom_angle_site_symmetry_1
_geom_angle_site_symmetry_3
_geom_angle_publ_flag
H1O O1S H2O 104.6 . . ?
C6 N3 C10 118.1(3) . . ?
C6 N3 H2N 106.4 . . ?
C10 N3 H2N 135.4 . . ?
F2 Si1 F2 180.0 . 2_667 ?
F2 Si1 F3 89.73(14) . . ?
F2 Si1 F3 90.27(14) 2_667 . ?
F2 Si1 F3 90.27(14) . 2_667 ?
F2 Si1 F3 89.73(14) 2_667 2_667 ?
F3 Si1 F3 180.0(2) . 2_667 ?
F2 Si1 F1 90.14(14) . 2_667 ?
F2 Si1 F1 89.86(14) 2_667 2_667 ?
F3 Si1 F1 90.86(13) . 2_667 ?
F3 Si1 F1 89.14(13) 2_667 2_667 ?
F2 Si1 F1 89.86(14) . . ?
F2 Si1 F1 90.14(14) 2_667 . ?
F3 Si1 F1 89.14(13) . . ?
F3 Si1 F1 90.86(13) 2_667 . ?
F1 Si1 F1 180.0 2_667 . ?
C10 C9 C8 119.4(3) . . ?
C10 C9 H9 120.3 . . ?
C8 C9 H9 120.3 . . ?
C5 C4 C3 119.3(3) . . ?
C5 C4 H4 120.3 . . ?
C3 C4 H4 120.3 . . ?
C4 C5 N2 120.7(3) . . ?
C4 C5 H5 119.7 . . ?
N2 C5 H5 119.7 . . ?
N3 C6 C7 122.3(3) . . ?
N3 C6 N1 113.6(3) . . ?
C7 C6 N1 124.0(3) . . ?
C6 C7 C8 119.0(4) . . ?
C6 C7 H7 120.5 . . ?
C8 C7 H7 120.5 . . ?
C1 N1 C6 134.2(3) . . yes
C1 N1 H1N 112.9 . . ?
C6 N1 H1N 112.9 . . ?
C9 C10 N3 121.9(4) . . ?
C9 C10 H10 119.1 . . ?
N3 C10 H10 119.1 . . ?
C7 C8 C9 119.2(3) . . ?
C7 C8 H8 120.4 . . ?
C9 C8 H8 120.4 . . ?
N1 C1 N2 116.0(3) . . ?
N1 C1 C2 124.7(3) . . ?
N2 C1 C2 119.4(3) . . ?
C3 C2 C1 119.2(3) . . ?
C3 C2 H2 120.4 . . ?
C1 C2 H2 120.4 . . ?
C2 C3 C4 120.3(3) . . ?
C2 C3 H3 119.8 . . ?
C4 C3 H3 119.8 . . ?
C5 N2 C1 121.2(3) . . ?
C5 N2 H2N 134.7 . . ?
C1 N2 H2N 104.2 . . ?
loop_
_geom_bond_atom_site_label_1
_geom_bond_atom_site_label_2
_geom_bond_distance
_geom_bond_site_symmetry_2
_geom_bond_publ_flag
F3 Si1 1.680(2) . ?
O1S H1O 0.8222 . ?
O1S H2O 0.8214 . ?
F1 Si1 1.681(2) . ?
F2 Si1 1.657(2) . ?
N3 C6 1.336(5) . ?
N3 C10 1.365(5) . ?
N3 H2N 1.3661 . ?
Si1 F2 1.657(2) 2_667 ?
Si1 F3 1.680(2) 2_667 ?
Si1 F1 1.681(2) 2_667 ?
C9 C10 1.348(6) . ?
C9 C8 1.378(6) . ?
C9 H9 0.9300 . ?
C4 C5 1.349(5) . ?
C4 C3 1.395(5) . ?
C4 H4 0.9300 . ?
C5 N2 1.351(5) . yes
C5 H5 0.9300 . ?
C6 C7 1.366(5) . ?
C6 N1 1.380(5) . ?
C7 C8 1.373(5) . ?
C7 H7 0.9300 . ?
N1 C1 1.332(5) . yes
N1 H1N 0.8600 . ?
C10 H10 0.9300 . ?
C8 H8 0.9300 . ?
C1 N2 1.360(5) . ?
C1 C2 1.392(5) . ?
C2 C3 1.359(5) . ?
C2 H2 0.9300 . ?
C3 H3 0.9300 . ?
N2 H2N 1.3475 . yes
loop_
_geom_hbond_atom_site_label_D
_geom_hbond_atom_site_label_H
_geom_hbond_atom_site_label_A
_geom_hbond_distance_DH
_geom_hbond_distance_HA
_geom_hbond_distance_DA
_geom_hbond_angle_DHA
_geom_hbond_site_symmetry_A
_geom_hbond_publ_flag
N1 H1N F3 0.86 1.84 2.689(4) 169.9 2_666 yes
N2 H2N N3 1.35 1.37 2.591(4) 145.5 . yes
