#------------------------------------------------------------------------------
#$Date: 2019-09-05 11:48:39 +0300 (Thu, 05 Sep 2019) $
#$Revision: 218011 $
#$URL: file:///home/coder/svn-repositories/cod/cif/7/23/36/7233674.cif $
#------------------------------------------------------------------------------
#
# This file is available in the Crystallography Open Database (COD),
# http://www.crystallography.net/
#
# All data on this site have been placed in the public domain by the
# contributors.
#
data_7233674
loop_
_publ_author_name
'Robert C. Lennox'
'Mark C. Price'
'William Jamieson'
'Marek Jura'
'Aziz Daoud-Aladine'
'Claire A. Murray'
'Chiu Tang'
'Donna C. Arnold'
_publ_section_title
;
 Strain driven structural phase transformations in dysprosium doped BiFeO3
 ceramics
;
_journal_name_full               'Journal of Materials Chemistry C'
_journal_page_first              3345
_journal_page_last               3360
_journal_paper_doi               10.1039/C3TC32345E
_journal_volume                  2
_journal_year                    2014
_chemical_formula_sum            'Bi0.94 Dy0.06 Fe O3'
_chemical_formula_weight         310.04
_space_group_IT_number           9
_space_group_name_Hall           'C -2yc'
_space_group_name_H-M_alt        'C 1 c 1'
_symmetry_cell_setting           monoclinic
_symmetry_space_group_name_H-M   'C 1 c 1'
_cell_angle_alpha                90.0
_cell_angle_beta                 124.9747(15)
_cell_angle_gamma                90.0
_cell_formula_units_Z            4
_cell_length_a                   9.64469(28)
_cell_length_b                   5.57677(17)
_cell_length_c                   5.63227(16)
_cell_volume                     248.229(13)
_computing_structure_refinement  GSAS
_diffrn_radiation_probe          neutron
_exptl_absorpt_correction_T_max  1.06794
_exptl_absorpt_correction_T_min  1.01762
_exptl_absorpt_process_details
;   GSAS Absorption/surface roughness correction: function number 1
 Linear absorption correction
Term =    -0.13747E-01
Correction is refined.
;
_pd_calc_method                  'Rietveld Refinement'
_pd_instr_location               ' ?'
_pd_meas_2theta_fixed            168.33
_pd_meas_number_of_points        4610
_pd_phase_name                   'from D:/Work/Dy-BFO-HRPD/6 %/RT/BFO-R3c.cif'
_pd_proc_info_datetime           2014-01-02T15:39:08
_pd_proc_info_excluded_regions   ' ?'
_pd_proc_ls_background_function
;   GSAS Background function number 1 with 18 terms.
 Shifted Chebyshev function of 1st kind
      1:   0.513698     2:   4.095950E-02 3:   1.180060E-02 4:  -6.149140E-02
      5:  -2.913460E-02 6:  -4.738190E-02 7:  -3.270920E-03 8:  -2.538290E-02
      9:   5.099920E-0310:  -1.143180E-0211:   1.979530E-0212:  -2.615310E-03
     13:  -4.720370E-0414:  -3.209870E-0215:  -2.438260E-0216:  -3.814980E-02
     17:  -2.487720E-0218:  -3.112370E-02
;
_pd_proc_ls_peak_cutoff          0.00100
_pd_proc_ls_profile_function
;
 TOF Profile function number 3 with  21 terms
 Profile coefficients for exponential pseudovoigt
  convolution Von Dreele, 1990 (unpublished)
 #1 (alp  ) =   0.1739 #2 (bet-0) = 0.024909 #3 (bet-1) = 0.007585
 #4 (sig-0) =      0.0 #5 (sig-1) =   1616.3 #6 (sig-2) =    217.7
 #7 (gam-0) =     0.00 #8 (gam-1) =     0.00 #9 (gam-2) =     0.00
 #10(gsf  ) =     0.00 #11(g1ec ) =     0.00 #12(g2ec ) =     0.00
 #13(rstr ) =    0.000 #14(rsta ) =    0.000 #15(rsca ) =    0.000
 #16(L11)   =    1.602 #17(L22)   =    1.293 #18(L33)   =    4.446
 #19(L12)   =    0.335 #20(L13)   =    2.422 #21(L23)   =   -1.111
 Peak tails are ignored  where the intensity is below 0.0010 times the peak
   Aniso. broadening axis   0.0   0.0   1.0
;
_pd_proc_ls_prof_R_factor        0.0800
_pd_proc_ls_prof_wR_expected     0.0279
_pd_proc_ls_prof_wR_factor       0.0703
_pd_proc_number_of_points        4610
_pd_spec_mounting                ' ?'
_refine_ls_goodness_of_fit_all   2.53
_refine_ls_matrix_type           full
_refine_ls_number_parameters     51
_refine_ls_number_restraints     0
_refine_ls_R_Fsqd_factor         0.04131
_refine_ls_shift/su_max          0.05
_refine_ls_shift/su_mean         0.01
_reflns_d_resolution_high        0.650
_reflns_d_resolution_low         2.404
_reflns_limit_h_max              15
_reflns_limit_h_min              0
_reflns_limit_k_max              8
_reflns_limit_k_min              0
_reflns_limit_l_max              7
_reflns_limit_l_min              -8
_reflns_number_total             473
_cod_data_source_file            J-Mater-Chem-C-2014-2-3345-1.cif
_cod_data_source_block           6PCRT-CC-FULL-2_publ
_cod_depositor_comments
;
The following automatic conversions were performed:

data item '_geom_angle_publ_flag' value 'N' was changed to 'n' in
accordance with the built-in table derived from the CIF Core
dictionary named 'cif_core.dic' version 2.4.5 last updated on
2014-11-21 (90 times).

data item '_geom_bond_publ_flag' value 'N' was changed to 'n' in
accordance with the built-in table derived from the CIF Core
dictionary named 'cif_core.dic' version 2.4.5 last updated on
2014-11-21 (52 times).

Automatic conversion script
Id: cif_fix_values 6909 2019-04-08 15:41:33Z antanas 
;
_cod_original_cell_volume        248.229(11)
_cod_original_sg_symbol_H-M      'C c'
_cod_database_code               7233674
_gsas_exptl_extinct_corr_t_min   0.83868
_gsas_exptl_extinct_corr_t_max   0.99999
loop_
_symmetry_equiv_pos_site_id
_symmetry_equiv_pos_as_xyz
1 +x,+y,+z
2 +x,-y,+z+1/2
101 +x+1/2,+y+1/2,+z
102 +x+1/2,-y+1/2,+z+1/2
loop_
_atom_site_type_symbol
_atom_site_label
_atom_site_fract_x
_atom_site_fract_y
_atom_site_fract_z
_atom_site_occupancy
_atom_site_thermal_displace_type
_atom_site_U_iso_or_equiv
_atom_site_symmetry_multiplicity
Bi BI1 0.0 0.25 0.0 0.94 Uiso 0.0078(4) 4
Fe FE1 0.2229(4) 0.2611(5) 0.66646(25) 1.0 Uiso 0.0036(4) 4
O O3_1 -0.0340(7) 0.1782(10) 0.3596(11) 1.0 Uiso 0.0055(9) 4
O O3_2 0.1640(7) 0.4767(11) -0.1486(10) 1.0 Uiso 0.0082(11) 4
O O3_3 0.2373(8) -0.0379(9) -0.1234(10) 1.0 Uiso 0.0074(11) 4
Dy Dy1 0.0 0.25 0.0 0.06 Uiso 0.0078(4) 4
loop_
_atom_type_symbol
_atom_type_number_in_cell
_atom_type_scat_length_neutron
_atom_type_scat_source
Bi 3.76 0.8532 International_Tables_Vol_C
Fe 4.0 0.9450 International_Tables_Vol_C
O 12.0 0.5803 International_Tables_Vol_C
Dy 0.24 1.6900 International_Tables_Vol_C
loop_
_geom_angle_atom_site_label_1
_geom_angle_atom_site_label_2
_geom_angle_atom_site_label_3
_geom_angle
_geom_angle_site_symmetry_1
_geom_angle_site_symmetry_2
_geom_angle_site_symmetry_3
_geom_angle_publ_flag
O3_1 BI1 O3_1 93.13(15) 1_555 . 2_554 n
O3_1 BI1 O3_2 145.87(15) 1_555 . 1_555 n
O3_1 BI1 O3_2 74.01(19) 1_555 . 2_565 n
O3_1 BI1 O3_3 70.77(19) 1_555 . 2_555 n
O3_1 BI1 O3_3 71.93(18) 1_555 . 101_455 n
O3_1 BI1 O3_2 111.84(23) 2_554 . 1_555 n
O3_1 BI1 O3_2 145.48(18) 2_554 . 2_565 n
O3_1 BI1 O3_3 71.73(18) 2_554 . 2_555 n
O3_1 BI1 O3_3 116.01(20) 2_554 . 101_455 n
O3_2 BI1 O3_2 72.28(13) 1_555 . 2_565 n
O3_2 BI1 O3_3 94.61(20) 1_555 . 2_555 n
O3_2 BI1 O3_3 113.53(18) 1_555 . 101_455 n
O3_2 BI1 O3_3 73.79(20) 2_565 . 2_555 n
O3_2 BI1 O3_3 90.76(19) 2_565 . 101_455 n
O3_3 BI1 O3_3 142.27(23) 2_555 . 101_455 n
O3_1 FE1 O3_1 163.85(27) 1_555 . 102_555 n
O3_1 FE1 O3_2 90.46(27) 1_555 . 1_556 n
O3_1 FE1 O3_2 80.72(19) 1_555 . 2_565 n
O3_1 FE1 O3_3 87.30(25) 1_555 . 1_556 n
O3_1 FE1 O3_3 78.74(20) 1_555 . 2_555 n
O3_1 FE1 O3_2 103.09(24) 102_555 . 1_556 n
O3_1 FE1 O3_2 90.39(26) 102_555 . 2_565 n
O3_1 FE1 O3_3 99.17(25) 102_555 . 1_556 n
O3_1 FE1 O3_3 86.75(25) 102_555 . 2_555 n
O3_2 FE1 O3_2 90.08(14) 1_556 . 2_565 n
O3_2 FE1 O3_3 98.38(29) 1_556 . 1_556 n
O3_2 FE1 O3_3 167.58(22) 1_556 . 2_555 n
O3_2 FE1 O3_3 165.40(23) 2_565 . 1_556 n
O3_2 FE1 O3_3 82.20(24) 2_565 . 2_555 n
O3_3 FE1 O3_3 87.33(13) 1_556 . 2_555 n
BI1 O3_1 BI1 113.27(23) 1_555 . 2_555 n
BI1 O3_1 FE1 89.42(21) 1_555 . 1_555 n
BI1 O3_1 FE1 102.28(22) 1_555 . 102_454 n
BI1 O3_1 Dy1 0.0 1_555 . 1_555 n
BI1 O3_1 Dy1 113.27(23) 1_555 . 2_555 n
BI1 O3_1 FE1 94.09(21) 2_555 . 1_555 n
BI1 O3_1 FE1 103.89(23) 2_555 . 102_454 n
BI1 O3_1 Dy1 113.27(23) 2_555 . 1_555 n
BI1 O3_1 Dy1 0.0 2_555 . 2_555 n
FE1 O3_1 FE1 152.26(30) 1_555 . 102_454 n
FE1 O3_1 Dy1 89.42(21) 1_555 . 1_555 n
FE1 O3_1 Dy1 94.09(21) 1_555 . 2_555 n
FE1 O3_1 Dy1 102.28(22) 102_454 . 1_555 n
FE1 O3_1 Dy1 103.89(23) 102_454 . 2_555 n
Dy1 O3_1 Dy1 113.27(23) 1_555 . 2_555 n
BI1 O3_2 BI1 111.79(24) 1_555 . 2_564 n
BI1 O3_2 FE1 108.08(28) 1_555 . 1_554 n
BI1 O3_2 FE1 89.21(21) 1_555 . 2_564 n
BI1 O3_2 Dy1 0.0 1_555 . 1_555 n
BI1 O3_2 Dy1 111.79(24) 1_555 . 2_564 n
BI1 O3_2 FE1 103.13(23) 2_564 . 1_554 n
BI1 O3_2 FE1 89.15(24) 2_564 . 2_564 n
BI1 O3_2 Dy1 111.79(24) 2_564 . 1_555 n
BI1 O3_2 Dy1 0.0 2_564 . 2_564 n
FE1 O3_2 FE1 152.64(32) 1_554 . 2_564 n
FE1 O3_2 Dy1 108.08(28) 1_554 . 1_555 n
FE1 O3_2 Dy1 103.13(23) 1_554 . 2_564 n
FE1 O3_2 Dy1 89.21(21) 2_564 . 1_555 n
FE1 O3_2 Dy1 89.15(24) 2_564 . 2_564 n
Dy1 O3_2 Dy1 111.79(24) 1_555 . 2_564 n
BI1 O3_3 BI1 108.54(19) 2_554 . 101_545 n
BI1 O3_3 FE1 100.54(19) 2_554 . 1_554 n
BI1 O3_3 FE1 86.56(19) 2_554 . 2_554 n
BI1 O3_3 Dy1 0.0 2_554 . 2_554 n
BI1 O3_3 Dy1 108.54(19) 2_554 . 101_545 n
BI1 O3_3 FE1 105.86(25) 101_545 . 1_554 n
BI1 O3_3 FE1 90.66(18) 101_545 . 2_554 n
BI1 O3_3 Dy1 108.54(19) 101_545 . 2_554 n
BI1 O3_3 Dy1 0.0 101_545 . 101_545 n
FE1 O3_3 FE1 158.58(30) 1_554 . 2_554 n
FE1 O3_3 Dy1 100.54(19) 1_554 . 2_554 n
FE1 O3_3 Dy1 105.86(25) 1_554 . 101_545 n
FE1 O3_3 Dy1 86.56(19) 2_554 . 2_554 n
FE1 O3_3 Dy1 90.66(18) 2_554 . 101_545 n
Dy1 O3_3 Dy1 108.54(19) 2_554 . 101_545 n
O3_1 Dy1 O3_1 93.13(15) 1_555 . 2_554 n
O3_1 Dy1 O3_2 145.87(15) 1_555 . 1_555 n
O3_1 Dy1 O3_2 74.01(19) 1_555 . 2_565 n
O3_1 Dy1 O3_3 70.77(19) 1_555 . 2_555 n
O3_1 Dy1 O3_3 71.93(18) 1_555 . 101_455 n
O3_1 Dy1 O3_2 111.84(23) 2_554 . 1_555 n
O3_1 Dy1 O3_2 145.48(18) 2_554 . 2_565 n
O3_1 Dy1 O3_3 71.73(18) 2_554 . 2_555 n
O3_1 Dy1 O3_3 116.01(20) 2_554 . 101_455 n
O3_2 Dy1 O3_2 72.28(13) 1_555 . 2_565 n
O3_2 Dy1 O3_3 94.61(20) 1_555 . 2_555 n
O3_2 Dy1 O3_3 113.53(18) 1_555 . 101_455 n
O3_2 Dy1 O3_3 73.79(20) 2_565 . 2_555 n
O3_2 Dy1 O3_3 90.76(19) 2_565 . 101_455 n
O3_3 Dy1 O3_3 142.27(23) 2_555 . 101_455 n
loop_
_geom_bond_atom_site_label_1
_geom_bond_atom_site_label_2
_geom_bond_distance
_geom_bond_site_symmetry_1
_geom_bond_site_symmetry_2
_geom_bond_publ_flag
BI1 FE1 3.0764(12) . 1_555 n
BI1 FE1 3.3634(30) . 2_554 n
BI1 FE1 3.2595(33) . 2_564 n
BI1 FE1 3.301(4) . 102_454 n
BI1 O3_1 2.265(5) . 1_555 n
BI1 O3_1 2.478(6) . 2_554 n
BI1 O3_2 2.514(7) . 1_555 n
BI1 O3_2 2.270(5) . 2_565 n
BI1 O3_3 2.360(5) . 2_555 n
BI1 O3_3 2.507(6) . 101_455 n
FE1 BI1 3.0764(12) . 1_555 n
FE1 BI1 3.3634(30) . 2_555 n
FE1 BI1 3.2595(33) . 2_565 n
FE1 BI1 3.301(4) . 102_555 n
FE1 O3_1 2.105(6) . 1_555 n
FE1 O3_1 1.968(6) . 102_555 n
FE1 O3_2 1.880(6) . 1_556 n
FE1 O3_2 2.110(6) . 2_565 n
FE1 O3_3 2.003(5) . 1_556 n
FE1 O3_3 2.120(5) . 2_555 n
FE1 Dy1 3.0764(12) . 1_555 n
FE1 Dy1 3.3634(30) . 2_555 n
FE1 Dy1 3.2595(33) . 2_565 n
FE1 Dy1 3.301(4) . 102_555 n
O3_1 BI1 2.265(5) . 1_555 n
O3_1 BI1 2.478(6) . 2_555 n
O3_1 FE1 2.105(6) . 1_555 n
O3_1 FE1 1.968(6) . 102_454 n
O3_1 Dy1 2.265(5) . 1_555 n
O3_1 Dy1 2.478(6) . 2_555 n
O3_2 BI1 2.514(7) . 1_555 n
O3_2 BI1 2.270(5) . 2_564 n
O3_2 FE1 1.880(6) . 1_554 n
O3_2 FE1 2.110(6) . 2_564 n
O3_2 Dy1 2.514(7) . 1_555 n
O3_2 Dy1 2.270(5) . 2_564 n
O3_3 BI1 2.360(5) . 2_554 n
O3_3 BI1 2.507(6) . 101_545 n
O3_3 FE1 2.003(5) . 1_554 n
O3_3 FE1 2.120(5) . 2_554 n
O3_3 Dy1 2.360(5) . 2_554 n
O3_3 Dy1 2.507(6) . 101_545 n
Dy1 FE1 3.0764(12) . 1_555 n
Dy1 FE1 3.3634(30) . 2_554 n
Dy1 FE1 3.2595(33) . 2_564 n
Dy1 FE1 3.301(4) . 102_454 n
Dy1 O3_1 2.265(5) . 1_555 n
Dy1 O3_1 2.478(6) . 2_554 n
Dy1 O3_2 2.514(7) . 1_555 n
Dy1 O3_2 2.270(5) . 2_565 n
Dy1 O3_3 2.360(5) . 2_555 n
Dy1 O3_3 2.507(6) . 101_455 n
loop_
_pd_meas_time_of_flight
_pd_proc_d_spacing
_pd_meas_intensity_total
_pd_proc_ls_weight
_pd_proc_intensity_bkg_calc
_pd_calc_intensity_total
31370.1 0.64961 0.90(10) 105.8 0.677 1.105
31379.6 0.64981 0.87(9) 112.6 0.673 1.153
31389.0 0.65000 1.14(11) 85.4 0.670 1.206
31398.4 0.65020 1.27(12) 74.5 0.666 1.259
31407.8 0.65039 1.24(11) 85.4 0.663 1.305
31417.2 0.65059 1.04(10) 105.6 0.660 1.339
31426.7 0.65078 1.11(10) 90.8 0.656 1.356
31436.1 0.65098 1.18(11) 87.4 0.653 1.357
31445.5 0.65117 1.16(11) 90.5 0.650 1.346
31454.9 0.65137 1.08(10) 109.1 0.647 1.328
31464.4 0.65156 1.19(11) 90.6 0.643 1.308
31473.8 0.65176 1.25(11) 89.6 0.640 1.289
31483.3 0.65195 1.25(10) 98.7 0.637 1.272
31492.7 0.65215 1.13(10) 101.0 0.634 1.257
31502.2 0.65235 1.21(10) 104.6 0.631 1.237
31511.6 0.65254 1.22(10) 102.1 0.628 1.208
31521.1 0.65274 1.11(10) 109.7 0.625 1.168
31530.5 0.65293 0.99(9) 136.1 0.622 1.119
31540.0 0.65313 1.09(9) 114.6 0.619 1.065
31549.4 0.65333 1.00(9) 134.1 0.617 1.013
31558.9 0.65352 0.83(8) 161.0 0.614 0.967
31568.4 0.65372 0.90(8) 146.2 0.611 0.929
31577.8 0.65391 0.89(8) 146.7 0.608 0.902
31587.3 0.65411 0.96(9) 134.9 0.606 0.886
31596.8 0.65431 0.92(8) 141.0 0.603 0.879
31606.3 0.65450 0.87(8) 160.6 0.600 0.879
31615.8 0.65470 0.90(8) 158.5 0.598 0.883
31625.2 0.65490 0.92(8) 155.9 0.595 0.887
31634.7 0.65509 0.90(8) 169.4 0.593 0.884
31644.2 0.65529 0.98(8) 146.7 0.590 0.876
31653.7 0.65548 0.85(7) 181.6 0.588 0.861
31663.2 0.65568 0.88(7) 183.7 0.585 0.844
31672.7 0.65588 0.91(8) 161.4 0.583 0.827
31682.2 0.65608 0.81(7) 186.3 0.581 0.814
31691.7 0.65627 0.84(7) 181.7 0.578 0.804
31701.2 0.65647 0.78(7) 203.9 0.576 0.798
31710.7 0.65667 0.83(7) 211.1 0.574 0.795
31720.2 0.65686 0.72(6) 256.0 0.571 0.793
31729.8 0.65706 0.82(7) 209.1 0.569 0.790
31739.3 0.65726 0.79(7) 218.9 0.567 0.785
31748.8 0.65745 0.87(7) 194.0 0.565 0.777
31758.3 0.65765 0.80(6) 239.1 0.563 0.768
31767.9 0.65785 0.73(6) 243.6 0.561 0.759
31777.4 0.65805 0.68(6) 288.5 0.559 0.751
31786.9 0.65824 0.69(6) 267.4 0.557 0.746
31796.5 0.65844 0.78(7) 226.6 0.555 0.742
31806.0 0.65864 0.75(6) 272.5 0.553 0.740
31815.5 0.65884 0.65(6) 294.2 0.551 0.740
31825.1 0.65903 0.66(6) 285.3 0.549 0.740
31834.6 0.65923 0.81(6) 248.3 0.547 0.742
31844.2 0.65943 0.63(6) 321.8 0.545 0.744
31853.7 0.65963 0.74(6) 261.9 0.543 0.745
31863.3 0.65983 0.80(6) 255.4 0.542 0.746
31872.8 0.66002 0.75(6) 282.6 0.540 0.745
31882.4 0.66022 0.72(6) 284.8 0.538 0.742
31892.0 0.66042 0.64(5) 337.0 0.536 0.734
31901.5 0.66062 0.69(6) 314.5 0.535 0.722
31911.1 0.66082 0.72(6) 278.0 0.533 0.706
31920.7 0.66101 0.69(6) 287.0 0.531 0.687
31930.3 0.66121 0.67(6) 322.1 0.530 0.667
31939.8 0.66141 0.64(6) 314.1 0.528 0.648
31949.4 0.66161 0.70(6) 291.1 0.527 0.632
31959.0 0.66181 0.75(6) 279.9 0.525 0.618
31968.6 0.66201 0.60(5) 383. 0.524 0.607
31978.2 0.66221 0.65(5) 358. 0.522 0.599
31987.8 0.66240 0.68(5) 331.7 0.521 0.592
31997.4 0.66260 0.60(5) 361. 0.519 0.588
32007.0 0.66280 0.62(5) 354. 0.518 0.586
32016.6 0.66300 0.64(5) 363. 0.516 0.586
32026.2 0.66320 0.56(5) 419. 0.515 0.588
32035.8 0.66340 0.60(5) 416. 0.514 0.591
32045.4 0.66360 0.64(5) 375. 0.512 0.598
32055.0 0.66380 0.63(5) 401. 0.511 0.607
32064.6 0.66400 0.65(5) 386. 0.510 0.621
32074.2 0.66420 0.68(5) 399. 0.508 0.640
32083.9 0.66440 0.77(6) 309.9 0.507 0.664
32093.5 0.66459 0.75(5) 338.9 0.506 0.695
32103.1 0.66479 0.73(5) 375. 0.505 0.731
32112.8 0.66499 0.77(5) 356. 0.503 0.772
32122.4 0.66519 0.76(5) 362. 0.502 0.817
32132.0 0.66539 0.90(6) 293.4 0.501 0.862
32141.7 0.66559 0.97(6) 275.5 0.500 0.906
32151.3 0.66579 0.89(6) 313.3 0.499 0.945
32160.9 0.66599 1.03(6) 264.2 0.498 0.979
32170.6 0.66619 1.10(6) 250.0 0.497 1.005
32180.3 0.66639 1.21(7) 225.0 0.496 1.023
32189.9 0.66659 1.01(6) 286.8 0.495 1.034
32199.6 0.66679 1.09(6) 261.3 0.494 1.038
32209.2 0.66699 1.10(6) 253.1 0.493 1.035
32218.9 0.66719 0.99(6) 278.8 0.492 1.024
32228.5 0.66739 0.97(6) 285.8 0.491 1.005
32238.2 0.66759 0.96(6) 317.0 0.490 0.980
32247.9 0.66779 0.91(6) 321.4 0.489 0.954
32257.6 0.66799 0.86(5) 357. 0.488 0.934
32267.2 0.66819 1.05(6) 264.9 0.487 0.921
32276.9 0.66839 0.87(5) 349.4 0.486 0.918
32286.6 0.66859 0.89(5) 361. 0.485 0.925
32296.3 0.66880 0.98(6) 315.9 0.484 0.939
32306.0 0.66900 0.90(5) 375. 0.484 0.958
32315.7 0.66920 0.97(6) 322.4 0.483 0.980
32325.4 0.66940 0.95(5) 339.9 0.482 1.004
32335.1 0.66960 1.04(6) 313.1 0.481 1.030
32344.8 0.66980 1.02(6) 321.1 0.480 1.058
32354.5 0.67000 1.06(6) 304.2 0.480 1.088
32364.2 0.67020 1.20(6) 266.2 0.479 1.119
32373.9 0.67040 1.15(6) 292.2 0.478 1.149
32383.6 0.67060 1.18(6) 290.1 0.478 1.174
32393.3 0.67080 1.17(6) 294.1 0.477 1.191
32403.0 0.67101 1.16(6) 302.9 0.476 1.198
32412.7 0.67121 1.16(6) 289.8 0.476 1.194
32422.5 0.67141 1.18(6) 309.6 0.475 1.180
32432.2 0.67161 1.12(6) 304.5 0.474 1.161
32441.9 0.67181 1.17(6) 301.1 0.474 1.141
32451.7 0.67201 1.14(6) 314.9 0.473 1.127
32461.4 0.67222 1.24(6) 280.4 0.473 1.122
32471.1 0.67242 1.28(6) 269.6 0.472 1.129
32480.9 0.67262 1.14(6) 301.0 0.471 1.148
32490.6 0.67282 1.21(6) 301.4 0.471 1.176
32500.4 0.67302 1.19(6) 300.0 0.470 1.208
32510.1 0.67322 1.32(6) 263.5 0.470 1.238
32519.9 0.67343 1.32(6) 276.6 0.469 1.262
32529.6 0.67363 1.18(6) 330.0 0.469 1.274
32539.4 0.67383 1.19(6) 323.6 0.468 1.272
32549.1 0.67403 1.28(6) 277.5 0.468 1.255
32558.9 0.67424 1.17(6) 314.1 0.467 1.230
32568.7 0.67444 1.25(6) 298.7 0.467 1.202
32578.4 0.67464 1.27(6) 301.8 0.466 1.183
32588.2 0.67484 1.20(6) 322.5 0.466 1.183
32598.0 0.67504 1.20(5) 338.5 0.466 1.209
32607.8 0.67525 1.22(6) 318.2 0.465 1.261
32617.6 0.67545 1.33(6) 307.0 0.465 1.337
32627.3 0.67565 1.41(6) 288.6 0.464 1.426
32637.1 0.67586 1.51(6) 263.1 0.464 1.517
32646.9 0.67606 1.40(6) 293.3 0.464 1.593
32656.7 0.67626 1.58(6) 266.3 0.463 1.640
32666.5 0.67646 1.78(7) 219.8 0.463 1.654
32676.3 0.67667 1.68(6) 247.0 0.463 1.637
32686.1 0.67687 1.64(6) 245.0 0.462 1.595
32695.9 0.67707 1.62(6) 263.6 0.462 1.535
32705.7 0.67728 1.48(6) 277.8 0.462 1.461
32715.5 0.67748 1.40(6) 285.4 0.461 1.373
32725.4 0.67768 1.36(6) 294.6 0.461 1.270
32735.2 0.67789 1.19(5) 355. 0.461 1.159
32745.0 0.67809 1.11(5) 398. 0.461 1.046
32754.8 0.67829 1.02(5) 407. 0.460 0.940
32764.7 0.67850 0.85(4) 519. 0.460 0.845
32774.5 0.67870 0.83(4) 515. 0.460 0.765
32784.3 0.67890 0.72(4) 599. 0.460 0.702
32794.1 0.67911 0.72(4) 669. 0.459 0.653
32804.0 0.67931 0.65(4) 690. 0.459 0.616
32813.8 0.67952 0.66(4) 631. 0.459 0.590
32823.7 0.67972 0.63(4) 727. 0.459 0.571
32833.5 0.67992 0.59(4) 748. 0.459 0.557
32843.4 0.68013 0.544(35) 823. 0.4583 0.5477
32853.2 0.68033 0.57(4) 766. 0.458 0.541
32863.1 0.68054 0.522(34) 864. 0.4580 0.5361
32872.9 0.68074 0.58(4) 778. 0.458 0.533
32882.8 0.68094 0.495(33) 932. 0.4577 0.5318
32892.7 0.68115 0.511(33) 942. 0.4575 0.5315
32902.5 0.68135 0.521(34) 867. 0.4574 0.5322
32912.4 0.68156 0.512(33) 909. 0.4572 0.5330
32922.3 0.68176 0.534(33) 899. 0.4571 0.5342
32932.1 0.68197 0.559(33) 892. 0.4570 0.5348
32942.0 0.68217 0.539(34) 879. 0.4569 0.5346
32951.9 0.68238 0.58(4) 787. 0.457 0.534
32961.8 0.68258 0.545(34) 889. 0.4567 0.5322
32971.7 0.68279 0.507(32) 988. 0.4566 0.5305
32981.6 0.68299 0.532(33) 917. 0.4565 0.5290
32991.5 0.68320 0.534(34) 875. 0.4564 0.5282
33001.4 0.68340 0.561(34) 876. 0.4563 0.5288
33011.3 0.68361 0.554(33) 924. 0.4563 0.5312
33021.2 0.68381 0.557(34) 879. 0.4562 0.5360
33031.1 0.68402 0.532(33) 918. 0.4561 0.5436
33041.0 0.68422 0.511(31) 1055. 0.4561 0.5546
33050.9 0.68443 0.573(34) 877. 0.4560 0.5693
33060.8 0.68463 0.581(34) 867. 0.4560 0.5878
33070.7 0.68484 0.627(34) 843. 0.4560 0.6101
33080.7 0.68504 0.64(4) 791. 0.456 0.635
33090.6 0.68525 0.66(4) 760. 0.456 0.662
33100.5 0.68545 0.73(4) 687. 0.456 0.689
33110.4 0.68566 0.67(4) 800. 0.456 0.713
33120.4 0.68587 0.71(4) 743. 0.456 0.734
33130.3 0.68607 0.75(4) 704. 0.456 0.750
33140.2 0.68628 0.75(4) 693. 0.456 0.761
33150.2 0.68648 0.83(4) 636. 0.456 0.768
33160.1 0.68669 0.82(4) 633. 0.456 0.770
33170.1 0.68689 0.82(4) 652. 0.456 0.772
33180.0 0.68710 0.83(4) 612. 0.456 0.777
33190.0 0.68731 0.79(4) 700. 0.456 0.788
33199.9 0.68751 0.81(4) 684. 0.456 0.808
33209.9 0.68772 0.85(4) 637. 0.456 0.837
33219.9 0.68793 0.83(4) 667. 0.456 0.875
33229.8 0.68813 0.90(4) 589. 0.456 0.920
33239.8 0.68834 1.00(4) 520. 0.456 0.968
33249.8 0.68855 0.98(4) 569. 0.456 1.013
33259.8 0.68875 0.94(4) 590. 0.456 1.049
33269.7 0.68896 0.97(4) 565. 0.456 1.070
33279.7 0.68917 0.99(4) 566. 0.456 1.075
33289.7 0.68937 1.02(4) 549. 0.456 1.065
33299.7 0.68958 1.04(4) 547. 0.456 1.046
33309.7 0.68979 0.94(4) 600. 0.456 1.024
33319.7 0.68999 0.93(4) 619. 0.456 1.005
33329.7 0.69020 0.96(4) 596. 0.456 0.991
33339.7 0.69041 1.04(4) 540. 0.457 0.983
33349.7 0.69061 1.04(4) 549. 0.457 0.978
33359.7 0.69082 1.02(4) 556. 0.457 0.978
33369.7 0.69103 0.99(4) 569. 0.457 0.979
33379.7 0.69124 0.96(4) 607. 0.457 0.979
33389.7 0.69144 0.99(4) 610. 0.457 0.977
33399.7 0.69165 1.02(4) 550. 0.457 0.970
33409.7 0.69186 0.97(4) 608. 0.457 0.961
33419.8 0.69207 0.94(4) 631. 0.457 0.955
33429.8 0.69227 0.93(4) 630. 0.457 0.958
33439.8 0.69248 0.95(4) 620. 0.457 0.973
33449.8 0.69269 0.96(4) 640. 0.457 1.001
33459.9 0.69290 0.97(4) 620. 0.458 1.043
33469.9 0.69311 1.08(4) 552. 0.458 1.093
33480.0 0.69331 1.08(4) 562. 0.458 1.146
33490.0 0.69352 1.25(5) 462. 0.458 1.198
33500.0 0.69373 1.22(4) 495. 0.458 1.244
33510.1 0.69394 1.32(5) 438. 0.458 1.283
33520.2 0.69415 1.36(5) 430. 0.458 1.313
33530.2 0.69435 1.37(5) 452. 0.458 1.333
33540.3 0.69456 1.35(5) 453. 0.458 1.340
33550.3 0.69477 1.26(4) 503. 0.459 1.329
33560.4 0.69498 1.24(4) 500. 0.459 1.299
33570.5 0.69519 1.24(5) 489. 0.459 1.251
33580.5 0.69540 1.20(5) 492. 0.459 1.193
33590.6 0.69561 1.06(4) 621. 0.459 1.130
33600.7 0.69581 1.09(4) 569. 0.459 1.069
33610.8 0.69602 1.03(4) 626. 0.459 1.013
33620.8 0.69623 1.01(4) 642. 0.459 0.963
33630.9 0.69644 0.95(4) 664. 0.460 0.918
33641.0 0.69665 0.96(4) 648. 0.460 0.874
33651.1 0.69686 0.90(4) 706. 0.460 0.831
33661.2 0.69707 0.95(4) 658. 0.460 0.788
33671.3 0.69728 0.84(4) 758. 0.460 0.746
33681.4 0.69749 0.775(35) 816. 0.4602 0.7043
33691.5 0.69770 0.694(34) 884. 0.4603 0.6659
33701.6 0.69790 0.715(34) 872. 0.4604 0.6318
33711.7 0.69811 0.638(32) 997. 0.4606 0.6027
33721.8 0.69832 0.637(31) 1057. 0.4607 0.5786
33732.0 0.69853 0.584(30) 1147. 0.4608 0.5594
33742.1 0.69874 0.534(29) 1225. 0.4609 0.5445
33752.2 0.69895 0.521(28) 1269. 0.4611 0.5329
33762.3 0.69916 0.523(27) 1331. 0.4612 0.5242
33772.5 0.69937 0.555(29) 1158. 0.4614 0.5174
33782.6 0.69958 0.511(27) 1344. 0.4615 0.5120
33792.7 0.69979 0.507(28) 1296. 0.4616 0.5077
33802.9 0.70000 0.534(28) 1244. 0.4618 0.5044
33813.0 0.70021 0.510(28) 1262. 0.4619 0.5015
33823.1 0.70042 0.490(27) 1370. 0.4620 0.4991
33833.3 0.70063 0.505(27) 1402. 0.4622 0.4971
33843.4 0.70084 0.525(27) 1354. 0.4623 0.4954
33853.6 0.70105 0.500(28) 1305. 0.4624 0.4937
33863.8 0.70126 0.496(27) 1378. 0.4626 0.4926
33873.9 0.70147 0.496(27) 1370. 0.4627 0.4916
33884.1 0.70168 0.492(27) 1349. 0.4628 0.4909
33894.2 0.70189 0.524(28) 1297. 0.4630 0.4905
33904.4 0.70211 0.501(27) 1391. 0.4631 0.4902
33914.6 0.70232 0.479(26) 1462. 0.4632 0.4902
33924.8 0.70253 0.508(27) 1377. 0.4634 0.4904
33934.9 0.70274 0.499(27) 1382. 0.4635 0.4908
33945.1 0.70295 0.477(26) 1484. 0.4637 0.4914
33955.3 0.70316 0.468(26) 1507. 0.4638 0.4922
33965.5 0.70337 0.489(26) 1457. 0.4639 0.4931
33975.7 0.70358 0.484(26) 1489. 0.4641 0.4936
33985.9 0.70379 0.492(26) 1437. 0.4642 0.4942
33996.1 0.70400 0.483(26) 1459. 0.4643 0.4942
34006.3 0.70422 0.494(27) 1340. 0.4645 0.4936
34016.5 0.70443 0.493(27) 1363. 0.4646 0.4924
34026.7 0.70464 0.505(26) 1454. 0.4647 0.4908
34036.9 0.70485 0.495(27) 1409. 0.4649 0.4891
34047.1 0.70506 0.489(27) 1414. 0.4650 0.4877
34057.3 0.70527 0.452(25) 1580. 0.4651 0.4863
34067.5 0.70548 0.450(24) 1725. 0.4652 0.4852
34077.7 0.70570 0.506(27) 1367. 0.4654 0.4843
34088.0 0.70591 0.506(27) 1403. 0.4655 0.4838
34098.2 0.70612 0.464(25) 1615. 0.4656 0.4835
34108.4 0.70633 0.490(26) 1501. 0.4658 0.4834
34118.7 0.70654 0.496(26) 1493. 0.4659 0.4834
34128.9 0.70676 0.501(26) 1485. 0.4660 0.4834
34139.1 0.70697 0.497(26) 1440. 0.4661 0.4838
34149.4 0.70718 0.498(26) 1448. 0.4663 0.4837
34159.6 0.70739 0.453(25) 1643. 0.4664 0.4840
34169.9 0.70760 0.470(25) 1630. 0.4665 0.4845
34180.1 0.70782 0.473(25) 1646. 0.4666 0.4850
34190.4 0.70803 0.488(25) 1600. 0.4667 0.4857
34200.6 0.70824 0.495(25) 1560. 0.4669 0.4866
34210.9 0.70845 0.509(26) 1486. 0.4670 0.4876
34221.1 0.70867 0.492(26) 1525. 0.4671 0.4889
34231.4 0.70888 0.524(26) 1456. 0.4672 0.4905
34241.7 0.70909 0.515(26) 1463. 0.4673 0.4927
34252.0 0.70930 0.523(26) 1435. 0.4674 0.4960
34262.2 0.70952 0.477(25) 1649. 0.4675 0.5001
34272.5 0.70973 0.536(26) 1452. 0.4677 0.5056
34282.8 0.70994 0.520(26) 1471. 0.4678 0.5129
34293.1 0.71016 0.575(27) 1350. 0.4679 0.5220
34303.4 0.71037 0.523(26) 1503. 0.4680 0.5330
34313.7 0.71058 0.513(26) 1526. 0.4681 0.5454
34323.9 0.71080 0.540(26) 1448. 0.4682 0.5585
34334.2 0.71101 0.546(26) 1457. 0.4683 0.5708
34344.5 0.71122 0.547(27) 1395. 0.4684 0.5808
34354.8 0.71144 0.588(27) 1327. 0.4685 0.5873
34365.2 0.71165 0.600(28) 1274. 0.4686 0.5903
34375.5 0.71186 0.621(29) 1171. 0.4687 0.5905
34385.8 0.71208 0.560(26) 1488. 0.4688 0.5902
34396.1 0.71229 0.587(27) 1367. 0.4689 0.5899
34406.4 0.71250 0.556(26) 1497. 0.4690 0.5910
34416.7 0.71272 0.555(26) 1500. 0.4691 0.5938
34427.1 0.71293 0.588(27) 1416. 0.4692 0.5985
34437.4 0.71315 0.554(26) 1535. 0.4693 0.6054
34447.7 0.71336 0.599(27) 1345. 0.4694 0.6142
34458.1 0.71357 0.633(28) 1295. 0.4695 0.6246
34468.4 0.71379 0.609(28) 1299. 0.4696 0.6359
34478.7 0.71400 0.645(29) 1208. 0.4696 0.6474
34489.1 0.71422 0.664(29) 1183. 0.4697 0.6569
34499.4 0.71443 0.612(27) 1348. 0.4698 0.6626
34509.8 0.71464 0.624(28) 1314. 0.4699 0.6627
34520.1 0.71486 0.640(29) 1211. 0.4700 0.6566
34530.5 0.71507 0.634(29) 1229. 0.4701 0.6454
34540.8 0.71529 0.600(26) 1445. 0.4701 0.6310
34551.2 0.71550 0.572(26) 1486. 0.4702 0.6155
34561.6 0.71572 0.576(26) 1459. 0.4703 0.6004
34571.9 0.71593 0.574(27) 1411. 0.4704 0.5866
34582.3 0.71615 0.583(27) 1409. 0.4704 0.5751
34592.7 0.71636 0.581(27) 1388. 0.4705 0.5662
34603.1 0.71658 0.601(27) 1353. 0.4706 0.5600
34613.4 0.71679 0.555(25) 1560. 0.4706 0.5570
34623.8 0.71701 0.637(28) 1271. 0.4707 0.5573
34634.2 0.71722 0.549(25) 1586. 0.4708 0.5613
34644.6 0.71744 0.589(26) 1437. 0.4708 0.5693
34655.0 0.71765 0.635(27) 1365. 0.4709 0.5817
34665.4 0.71787 0.641(28) 1283. 0.4710 0.5989
34675.8 0.71808 0.623(27) 1340. 0.4710 0.6212
34686.2 0.71830 0.661(27) 1358. 0.4711 0.6486
34696.6 0.71851 0.680(28) 1284. 0.4711 0.6801
34707.0 0.71873 0.689(28) 1289. 0.4712 0.7150
34717.4 0.71895 0.721(28) 1256. 0.4712 0.7514
34727.8 0.71916 0.779(30) 1131. 0.4713 0.7884
34738.3 0.71938 0.797(30) 1108. 0.4713 0.8259
34748.7 0.71959 0.838(31) 1042. 0.4714 0.8641
34759.1 0.71981 0.863(31) 1049. 0.4714 0.9025
34769.5 0.72003 0.908(32) 998. 0.4715 0.9387
34780.0 0.72024 0.880(31) 1021. 0.4715 0.9687
34790.4 0.72046 1.032(35) 833. 0.4716 0.9895
34800.8 0.72067 0.998(33) 905. 0.4716 1.0006
34811.3 0.72089 0.887(31) 1012. 0.4716 1.0049
34821.7 0.72111 0.953(33) 943. 0.4717 1.0055
34832.2 0.72132 0.952(32) 958. 0.4717 1.0045
34842.6 0.72154 0.979(33) 923. 0.4717 1.0014
34853.1 0.72176 0.953(33) 946. 0.4718 0.9939
34863.5 0.72197 0.965(33) 928. 0.4718 0.9810
34874.0 0.72219 0.960(32) 957. 0.4718 0.9639
34884.4 0.72241 0.898(31) 1032. 0.4719 0.9465
34894.9 0.72262 0.947(32) 986. 0.4719 0.9331
34905.4 0.72284 0.877(30) 1086. 0.4719 0.9275
34915.8 0.72306 0.872(31) 1057. 0.4719 0.9318
34926.3 0.72327 0.872(30) 1086. 0.4720 0.9449
34936.8 0.72349 0.922(32) 989. 0.4720 0.9624
34947.3 0.72371 0.935(32) 999. 0.4720 0.9769
34957.8 0.72392 0.903(31) 1022. 0.4720 0.9799
34968.2 0.72414 0.909(31) 1030. 0.4720 0.9663
34978.7 0.72436 0.828(29) 1162. 0.4720 0.9362
34989.2 0.72458 0.854(30) 1101. 0.4720 0.8942
34999.7 0.72479 0.777(29) 1229. 0.4721 0.8472
35010.2 0.72501 0.758(29) 1222. 0.4721 0.8011
35020.7 0.72523 0.747(28) 1295. 0.4721 0.7608
35031.2 0.72545 0.722(28) 1319. 0.4721 0.7280
35041.7 0.72566 0.755(28) 1271. 0.4721 0.7033
35052.3 0.72588 0.679(26) 1507. 0.4721 0.6859
35062.8 0.72610 0.663(26) 1494. 0.4721 0.6744
35073.3 0.72632 0.730(28) 1300. 0.4721 0.6679
35084. 0.72654 0.681(27) 1394. 0.4721 0.6651
35094. 0.72675 0.668(26) 1456. 0.4721 0.6641
35105. 0.72697 0.650(26) 1513. 0.4721 0.6633
35115. 0.72719 0.652(25) 1541. 0.4721 0.6603
35126. 0.72741 0.714(27) 1363. 0.4721 0.6539
35136. 0.72763 0.681(27) 1387. 0.4720 0.6428
35147. 0.72784 0.616(25) 1605. 0.4720 0.6300
35158. 0.72806 0.588(24) 1711. 0.4720 0.6157
35168. 0.72828 0.606(25) 1590. 0.4720 0.6012
35179. 0.72850 0.595(25) 1606. 0.4720 0.5876
35189. 0.72872 0.633(26) 1521. 0.4720 0.5757
35200. 0.72894 0.570(24) 1758. 0.4720 0.5659
35210. 0.72916 0.578(24) 1741. 0.4719 0.5585
35221. 0.72938 0.549(23) 1966. 0.4719 0.5536
35231. 0.72959 0.561(24) 1806. 0.4719 0.5515
35242. 0.72981 0.533(23) 1881. 0.4719 0.5523
35253. 0.73003 0.544(23) 1855. 0.4718 0.5564
35263. 0.73025 0.582(24) 1752. 0.4718 0.5639
35274. 0.73047 0.571(23) 1872. 0.4718 0.5751
35284. 0.73069 0.589(24) 1730. 0.4717 0.5900
35295. 0.73091 0.631(25) 1629. 0.4717 0.6084
35306. 0.73113 0.639(25) 1550. 0.4717 0.6289
35316. 0.73135 0.660(26) 1461. 0.4716 0.6503
35327. 0.73157 0.663(25) 1571. 0.4716 0.6707
35337. 0.73179 0.743(27) 1378. 0.4716 0.6887
35348. 0.73201 0.768(27) 1359. 0.4715 0.7042
35359. 0.73223 0.735(27) 1405. 0.4715 0.7180
35369. 0.73245 0.774(27) 1326. 0.4715 0.7323
35380. 0.73266 0.762(27) 1393. 0.4714 0.7502
35390. 0.73288 0.792(27) 1329. 0.4714 0.7744
35401. 0.73310 0.862(28) 1245. 0.4713 0.8076
35412. 0.73332 0.808(27) 1355. 0.4713 0.8519
35422. 0.73354 0.873(29) 1201. 0.4712 0.9083
35433. 0.73376 0.926(30) 1141. 0.4712 0.9762
35443. 0.73398 1.062(32) 1007. 0.4711 1.0527
35454. 0.73421 1.087(31) 1012. 0.4711 1.1322
35465. 0.73443 1.159(33) 920. 0.4710 1.2070
35475. 0.73465 1.272(35) 832. 0.4710 1.2689
35486. 0.73487 1.256(35) 831. 0.4709 1.3113
35497. 0.73509 1.36(4) 797. 0.471 1.330
35507. 0.73531 1.234(34) 888. 0.4708 1.3228
35518. 0.73553 1.178(32) 959. 0.4707 1.2930
35529. 0.73575 1.214(33) 914. 0.4707 1.2475
35539. 0.73597 1.169(33) 926. 0.4706 1.1961
35550. 0.73619 1.088(31) 1048. 0.4705 1.1470
35561. 0.73641 1.056(31) 1053. 0.4705 1.1053
35571. 0.73663 1.036(30) 1100. 0.4704 1.0722
35582. 0.73685 1.044(31) 1070. 0.4703 1.0476
35593. 0.73707 0.972(29) 1171. 0.4703 1.0304
35603. 0.73730 1.001(30) 1103. 0.4702 1.0197
35614. 0.73752 0.991(30) 1129. 0.4701 1.0140
35625. 0.73774 0.977(30) 1095. 0.4700 1.0104
35635. 0.73796 0.965(29) 1156. 0.4700 1.0049
35646. 0.73818 0.960(29) 1158. 0.4699 0.9941
35657. 0.73840 0.963(29) 1156. 0.4698 0.9761
35667. 0.73862 0.930(28) 1232. 0.4697 0.9512
35678. 0.73885 0.923(29) 1161. 0.4697 0.9219
35689. 0.73907 0.965(30) 1113. 0.4696 0.8922
35700. 0.73929 0.871(28) 1311. 0.4695 0.8660
35710. 0.73951 0.853(28) 1319. 0.4694 0.8467
35721. 0.73973 0.859(28) 1305. 0.4693 0.8374
35732. 0.73996 0.861(27) 1359. 0.4693 0.8403
35742. 0.74018 0.849(27) 1341. 0.4692 0.8558
35753. 0.74040 0.878(28) 1293. 0.4691 0.8832
35764. 0.74062 0.870(27) 1352. 0.4690 0.9198
35775. 0.74084 0.910(28) 1280. 0.4689 0.9609
35785. 0.74107 0.952(29) 1195. 0.4688 1.0009
35796. 0.74129 1.018(30) 1111. 0.4687 1.0331
35807. 0.74151 1.050(30) 1105. 0.4686 1.0516
35818. 0.74173 1.078(30) 1102. 0.4686 1.0524
35828. 0.74196 1.044(30) 1086. 0.4685 1.0351
35839. 0.74218 1.023(30) 1126. 0.4684 1.0011
35850. 0.74240 0.968(29) 1214. 0.4683 0.9556
35861. 0.74262 0.916(28) 1267. 0.4682 0.9044
35871. 0.74285 0.884(27) 1362. 0.4681 0.8525
35882. 0.74307 0.811(26) 1442. 0.4680 0.8036
35893. 0.74329 0.749(25) 1565. 0.4679 0.7600
35904. 0.74352 0.719(24) 1707. 0.4678 0.7227
35914. 0.74374 0.675(24) 1729. 0.4677 0.6917
35925. 0.74396 0.646(23) 1835. 0.4676 0.6659
35936. 0.74419 0.644(23) 1839. 0.4675 0.6440
35947. 0.74441 0.596(22) 2103. 0.4674 0.6248
35957. 0.74463 0.605(22) 1983. 0.4673 0.6073
35968. 0.74486 0.594(22) 1999. 0.4672 0.5911
35979. 0.74508 0.573(22) 2052. 0.4671 0.5763
35990. 0.74530 0.586(23) 1959. 0.4670 0.5628
36001. 0.74553 0.545(22) 2095. 0.4669 0.5511
36011. 0.74575 0.513(21) 2307. 0.4668 0.5409
36022. 0.74597 0.560(22) 2110. 0.4667 0.5322
36033. 0.74620 0.565(21) 2179. 0.4665 0.5250
36044. 0.74642 0.541(21) 2273. 0.4664 0.5197
36055. 0.74665 0.496(20) 2509. 0.4663 0.5150
36065. 0.74687 0.504(20) 2481. 0.4662 0.5110
36076. 0.74709 0.530(21) 2272. 0.4661 0.5077
36087. 0.74732 0.503(20) 2415. 0.4660 0.5049
36098. 0.74754 0.491(20) 2592. 0.4659 0.5027
36109. 0.74777 0.514(20) 2451. 0.4658 0.5011
36120. 0.74799 0.482(19) 2684. 0.4657 0.4995
36130. 0.74822 0.497(20) 2428. 0.4655 0.4981
36141. 0.74844 0.491(20) 2436. 0.4654 0.4969
36152. 0.74866 0.546(21) 2174. 0.4653 0.4958
36163. 0.74889 0.503(20) 2395. 0.4652 0.4949
36174. 0.74911 0.481(20) 2548. 0.4651 0.4941
36185. 0.74934 0.509(21) 2379. 0.4650 0.4934
36196. 0.74956 0.459(19) 2820. 0.4648 0.4929
36206. 0.74979 0.519(21) 2245. 0.4647 0.4924
36217. 0.75001 0.533(21) 2283. 0.4646 0.4920
36228. 0.75024 0.514(21) 2352. 0.4645 0.4917
36239. 0.75046 0.475(19) 2723. 0.4644 0.4914
36250. 0.75069 0.512(20) 2396. 0.4642 0.4912
36261. 0.75091 0.509(20) 2395. 0.4641 0.4911
36272. 0.75114 0.514(21) 2352. 0.4640 0.4910
36282. 0.75136 0.533(21) 2318. 0.4639 0.4910
36293. 0.75159 0.513(20) 2462. 0.4638 0.4911
36304. 0.75182 0.513(20) 2454. 0.4636 0.4912
36315. 0.75204 0.507(20) 2609. 0.4635 0.4915
36326. 0.75227 0.494(20) 2628. 0.4634 0.4927
36337. 0.75249 0.490(20) 2575. 0.4633 0.4931
36348. 0.75272 0.484(19) 2681. 0.4631 0.4935
36359. 0.75294 0.515(20) 2475. 0.4630 0.4940
36370. 0.75317 0.503(20) 2567. 0.4629 0.4947
36381. 0.75340 0.490(20) 2575. 0.4628 0.4954
36391. 0.75362 0.524(20) 2436. 0.4626 0.4963
36402. 0.75385 0.502(20) 2530. 0.4625 0.4974
36413. 0.75407 0.506(20) 2577. 0.4624 0.4986
36424. 0.75430 0.532(20) 2412. 0.4623 0.5000
36435. 0.75453 0.525(20) 2452. 0.4621 0.5016
36446. 0.75475 0.571(22) 2145. 0.4620 0.5034
36457. 0.75498 0.515(20) 2496. 0.4619 0.5055
36468. 0.75521 0.519(20) 2525. 0.4618 0.5080
36479. 0.75543 0.576(21) 2236. 0.4616 0.5111
36490. 0.75566 0.511(20) 2620. 0.4615 0.5149
36501. 0.75589 0.514(20) 2492. 0.4614 0.5196
36512. 0.75611 0.595(22) 2103. 0.4612 0.5257
36523. 0.75634 0.574(21) 2347. 0.4611 0.5335
36534. 0.75657 0.593(21) 2178. 0.4610 0.5437
36545. 0.75679 0.626(22) 2107. 0.4609 0.5568
36556. 0.75702 0.615(22) 2157. 0.4607 0.5733
36567. 0.75725 0.611(21) 2194. 0.4606 0.5942
36578. 0.75748 0.663(23) 1938. 0.4605 0.6200
36588. 0.75770 0.651(22) 2117. 0.4603 0.6510
36599. 0.75793 0.704(23) 1904. 0.4602 0.6875
36610. 0.75816 0.700(23) 1953. 0.4601 0.7296
36621. 0.75839 0.732(23) 1815. 0.4600 0.7760
36632. 0.75861 0.817(25) 1648. 0.4598 0.8269
36643. 0.75884 0.904(26) 1497. 0.4597 0.8819
36654. 0.75907 0.954(26) 1424. 0.4596 0.9399
36665. 0.75930 0.965(27) 1423. 0.4594 0.9973
36676. 0.75952 1.007(27) 1359. 0.4593 1.0490
36687. 0.75975 1.088(29) 1226. 0.4592 1.0897
36698. 0.75998 1.052(28) 1279. 0.4590 1.1153
36709. 0.76021 1.038(27) 1351. 0.4589 1.1254
36720. 0.76044 1.042(27) 1333. 0.4588 1.1218
36731. 0.76066 1.004(27) 1393. 0.4587 1.1102
36742. 0.76089 1.048(28) 1272. 0.4585 1.0974
36753. 0.76112 0.996(27) 1402. 0.4584 1.0896
36765. 0.76135 1.041(28) 1318. 0.4583 1.0905
36776. 0.76158 1.043(27) 1332. 0.4581 1.1005
36787. 0.76181 1.067(28) 1304. 0.4580 1.1163
36798. 0.76204 1.057(27) 1336. 0.4579 1.1316
36809. 0.76226 1.030(27) 1367. 0.4578 1.1390
36820. 0.76249 1.020(27) 1388. 0.4576 1.1338
36831. 0.76272 1.049(27) 1335. 0.4575 1.1141
36842. 0.76295 0.931(25) 1552. 0.4574 1.0813
36853. 0.76318 0.975(26) 1454. 0.4572 1.0390
36864. 0.76341 0.939(26) 1485. 0.4571 0.9915
36875. 0.76364 0.944(26) 1453. 0.4570 0.9430
36886. 0.76387 0.871(25) 1639. 0.4569 0.8974
36897. 0.76410 0.856(25) 1617. 0.4567 0.8581
36908. 0.76432 0.810(24) 1751. 0.4566 0.8273
36919. 0.76455 0.803(24) 1748. 0.4565 0.8058
36930. 0.76478 0.781(23) 1845. 0.4563 0.7931
36941. 0.76501 0.770(23) 1842. 0.4562 0.7874
36952. 0.76524 0.754(23) 1957. 0.4561 0.7857
36964. 0.76547 0.765(23) 1866. 0.4560 0.7842
36975. 0.76570 0.790(24) 1776. 0.4558 0.7802
36986. 0.76593 0.739(23) 1961. 0.4557 0.7725
36997. 0.76616 0.749(22) 1976. 0.4556 0.7622
37008. 0.76639 0.740(23) 1970. 0.4555 0.7514
37019. 0.76662 0.715(22) 2002. 0.4553 0.7426
37030. 0.76685 0.696(22) 2071. 0.4552 0.7379
37041. 0.76708 0.741(23) 1923. 0.4551 0.7390
37052. 0.76731 0.765(23) 1876. 0.4550 0.7469
37063. 0.76754 0.722(22) 2044. 0.4548 0.7617
37075. 0.76777 0.756(23) 1971. 0.4547 0.7833
37086. 0.76800 0.816(24) 1787. 0.4546 0.8105
37097. 0.76823 0.837(24) 1748. 0.4545 0.8423
37108. 0.76846 0.901(25) 1650. 0.4544 0.8766
37119. 0.76869 0.932(25) 1564. 0.4542 0.9108
37130. 0.76892 1.032(27) 1405. 0.4541 0.9412
37141. 0.76916 1.028(26) 1478. 0.4540 0.9643
37153. 0.76939 1.065(27) 1384. 0.4539 0.9784
37164. 0.76962 1.127(27) 1323. 0.4538 0.9849
37175. 0.76985 1.140(28) 1317. 0.4536 0.9883
37186. 0.77008 1.169(28) 1271. 0.4535 0.9960
37197. 0.77031 1.224(29) 1229. 0.4534 1.0163
37208. 0.77054 1.259(29) 1198. 0.4533 1.0581
37219. 0.77077 1.248(29) 1185. 0.4532 1.1300
37231. 0.77100 1.384(30) 1084. 0.4530 1.2399
37242. 0.77124 1.461(31) 1035. 0.4529 1.3941
37253. 0.77147 1.652(33) 912. 0.4528 1.5958
37264. 0.77170 1.85(4) 809. 0.453 1.843
37275. 0.77193 2.05(4) 746. 0.453 2.128
37286. 0.77216 2.30(4) 667. 0.452 2.430
37298. 0.77239 2.61(4) 575. 0.452 2.726
37309. 0.77263 2.82(4) 538. 0.452 2.986
37320. 0.77286 2.98(4) 512. 0.452 3.185
37331. 0.77309 3.13(5) 489. 0.452 3.304
37342. 0.77332 3.32(5) 454. 0.452 3.327
37354. 0.77355 3.20(5) 475. 0.452 3.250
37365. 0.77378 3.05(4) 504. 0.452 3.081
37376. 0.77402 2.87(4) 531. 0.452 2.842
37387. 0.77425 2.56(4) 610. 0.451 2.564
37398. 0.77448 2.25(4) 691. 0.451 2.279
37410. 0.77471 1.98(4) 784. 0.451 2.014
37421. 0.77495 1.878(35) 822. 0.4511 1.7865
37432. 0.77518 1.648(32) 952. 0.4510 1.6038
37443. 0.77541 1.483(31) 1056. 0.4509 1.4641
37455. 0.77564 1.404(30) 1099. 0.4508 1.3597
37466. 0.77588 1.288(29) 1212. 0.4507 1.2809
37477. 0.77611 1.156(27) 1384. 0.4506 1.2204
37488. 0.77634 1.212(28) 1300. 0.4505 1.1735
37500. 0.77658 1.165(27) 1366. 0.4504 1.1386
37511. 0.77681 1.108(26) 1438. 0.4503 1.1149
37522. 0.77704 1.095(26) 1442. 0.4502 1.1017
37533. 0.77728 1.128(27) 1406. 0.4501 1.0977
37545. 0.77751 1.116(27) 1382. 0.4500 1.1006
37556. 0.77774 1.117(27) 1417. 0.4499 1.1071
37567. 0.77798 1.135(27) 1416. 0.4498 1.1134
37578. 0.77821 1.104(26) 1469. 0.4497 1.1152
37590. 0.77844 1.100(26) 1447. 0.4496 1.1074
37601. 0.77868 1.058(26) 1481. 0.4495 1.0849
37612. 0.77891 1.013(25) 1557. 0.4494 1.0452
37624. 0.77914 0.957(24) 1704. 0.4493 0.9908
37635. 0.77938 0.892(23) 1835. 0.4492 0.9273
37646. 0.77961 0.827(22) 2001. 0.4491 0.8629
37657. 0.77984 0.773(22) 2080. 0.4490 0.8030
37669. 0.78008 0.772(22) 2099. 0.4489 0.7514
37680. 0.78031 0.731(22) 2155. 0.4489 0.7102
37691. 0.78055 0.679(20) 2387. 0.4488 0.6800
37703. 0.78078 0.702(21) 2321. 0.4487 0.6597
37714. 0.78102 0.670(21) 2319. 0.4486 0.6480
37725. 0.78125 0.652(20) 2452. 0.4485 0.6426
37737. 0.78148 0.649(20) 2462. 0.4484 0.6411
37748. 0.78172 0.636(20) 2583. 0.4483 0.6411
37759. 0.78195 0.648(20) 2436. 0.4482 0.6406
37771. 0.78219 0.640(20) 2551. 0.4482 0.6380
37782. 0.78242 0.653(20) 2442. 0.4481 0.6325
37793. 0.78266 0.630(20) 2491. 0.4480 0.6237
37805. 0.78289 0.611(19) 2654. 0.4479 0.6117
37816. 0.78313 0.563(18) 2983. 0.4478 0.5974
37827. 0.78336 0.580(19) 2808. 0.4477 0.5821
37839. 0.78360 0.562(18) 2978. 0.4477 0.5670
37850. 0.78383 0.585(19) 2734. 0.4476 0.5531
37861. 0.78407 0.550(18) 3009. 0.4475 0.5410
37873. 0.78430 0.547(18) 3030. 0.4474 0.5308
37884. 0.78454 0.491(17) 3385. 0.4473 0.5225
37895. 0.78477 0.515(18) 3182. 0.4473 0.5161
37907. 0.78501 0.507(17) 3288. 0.4472 0.5112
37918. 0.78524 0.521(17) 3284. 0.4471 0.5075
37929. 0.78548 0.510(18) 3244. 0.4470 0.5049
37941. 0.78572 0.501(17) 3381. 0.4470 0.5031
37952. 0.78595 0.488(17) 3498. 0.4469 0.5022
37964. 0.78619 0.530(18) 3058. 0.4468 0.5018
37975. 0.78642 0.508(18) 3250. 0.4468 0.5022
37986. 0.78666 0.488(17) 3389. 0.4467 0.5031
37998. 0.78690 0.498(17) 3418. 0.4466 0.5047
38009. 0.78713 0.500(17) 3339. 0.4466 0.5070
38021. 0.78737 0.490(17) 3527. 0.4465 0.5101
38032. 0.78760 0.493(17) 3474. 0.4464 0.5136
38043. 0.78784 0.486(17) 3583. 0.4464 0.5175
38055. 0.78808 0.522(18) 3166. 0.4463 0.5217
38066. 0.78831 0.509(17) 3303. 0.4462 0.5259
38078. 0.78855 0.521(18) 3126. 0.4462 0.5300
38089. 0.78879 0.511(17) 3374. 0.4461 0.5341
38101. 0.78902 0.550(18) 3009. 0.4461 0.5384
38112. 0.78926 0.524(17) 3315. 0.4460 0.5433
38123. 0.78950 0.549(18) 3121. 0.4459 0.5497
38135. 0.78973 0.533(17) 3343. 0.4459 0.5582
38146. 0.78997 0.580(18) 2969. 0.4458 0.5697
38158. 0.79021 0.592(19) 2916. 0.4458 0.5849
38169. 0.79045 0.592(19) 2865. 0.4457 0.6045
38181. 0.79068 0.595(19) 2872. 0.4457 0.6288
38192. 0.79092 0.660(19) 2661. 0.4456 0.6581
38204. 0.79116 0.674(20) 2609. 0.4456 0.6922
38215. 0.79139 0.727(21) 2337. 0.4455 0.7302
38226. 0.79163 0.768(21) 2267. 0.4455 0.7705
38238. 0.79187 0.779(21) 2271. 0.4454 0.8113
38249. 0.79211 0.821(22) 2149. 0.4454 0.8526
38261. 0.79234 0.876(22) 2044. 0.4453 0.8956
38272. 0.79258 0.930(23) 1852. 0.4453 0.9433
38284. 0.79282 0.996(24) 1764. 0.4452 0.9991
38295. 0.79306 1.023(24) 1726. 0.4452 1.0659
38307. 0.79330 1.119(25) 1603. 0.4451 1.1453
38318. 0.79353 1.210(26) 1463. 0.4451 1.2365
38330. 0.79377 1.256(26) 1432. 0.4451 1.3359
38341. 0.79401 1.344(28) 1311. 0.4450 1.4378
38353. 0.79425 1.471(29) 1215. 0.4450 1.5356
38364. 0.79449 1.559(30) 1132. 0.4450 1.6239
38376. 0.79473 1.634(30) 1110. 0.4449 1.6987
38387. 0.79496 1.652(30) 1087. 0.4449 1.7567
38399. 0.79520 1.641(30) 1116. 0.4448 1.7942
38410. 0.79544 1.694(31) 1038. 0.4448 1.8060
38422. 0.79568 1.701(31) 1071. 0.4448 1.7880
38433. 0.79592 1.689(30) 1093. 0.4447 1.7381
38445. 0.79616 1.702(31) 1049. 0.4447 1.6573
38456. 0.79640 1.629(30) 1095. 0.4447 1.5488
38468. 0.79664 1.426(28) 1268. 0.4447 1.4200
38480. 0.79687 1.330(27) 1386. 0.4446 1.2816
38491. 0.79711 1.126(25) 1650. 0.4446 1.1444
38503. 0.79735 1.019(23) 1825. 0.4446 1.0174
38514. 0.79759 0.902(22) 2078. 0.4445 0.9065
38526. 0.79783 0.855(21) 2185. 0.4445 0.8142
38537. 0.79807 0.823(21) 2234. 0.4445 0.7406
38549. 0.79831 0.738(20) 2532. 0.4445 0.6837
38560. 0.79855 0.695(19) 2684. 0.4445 0.6411
38572. 0.79879 0.658(19) 2866. 0.4444 0.6100
38584. 0.79903 0.618(18) 3074. 0.4444 0.5877
38595. 0.79927 0.593(18) 3159. 0.4444 0.5719
38607. 0.79951 0.575(18) 3175. 0.4444 0.5610
38618. 0.79975 0.547(17) 3315. 0.4444 0.5533
38630. 0.79999 0.539(17) 3390. 0.4444 0.5478
38641. 0.80023 0.558(18) 3185. 0.4443 0.5438
38653. 0.80047 0.509(17) 3618. 0.4443 0.5409
38665. 0.80071 0.518(17) 3568. 0.4443 0.5388
38676. 0.80095 0.520(17) 3553. 0.4443 0.5376
38688. 0.80119 0.515(17) 3637. 0.4443 0.5378
38699. 0.80143 0.522(17) 3545. 0.4443 0.5401
38711. 0.80167 0.567(18) 3221. 0.4443 0.5455
38723. 0.80191 0.538(17) 3525. 0.4443 0.5547
38734. 0.80215 0.575(17) 3381. 0.4443 0.5691
38746. 0.80239 0.599(18) 3043. 0.4443 0.5899
38758. 0.80263 0.614(18) 3038. 0.4443 0.6176
38769. 0.80287 0.603(18) 3100. 0.4443 0.6521
38781. 0.80311 0.672(19) 2787. 0.4442 0.6921
38792. 0.80336 0.723(20) 2610. 0.4442 0.7349
38804. 0.80360 0.702(19) 2778. 0.4442 0.7766
38816. 0.80384 0.787(20) 2410. 0.4442 0.8132
38827. 0.80408 0.840(21) 2207. 0.4442 0.8420
38839. 0.80432 0.834(21) 2309. 0.4443 0.8618
38851. 0.80456 0.871(21) 2269. 0.4443 0.8723
38862. 0.80480 0.925(22) 2039. 0.4443 0.8739
38874. 0.80504 0.927(22) 2034. 0.4443 0.8684
38886. 0.80529 0.926(22) 2079. 0.4443 0.8608
38897. 0.80553 0.944(22) 1997. 0.4443 0.8546
38909. 0.80577 0.879(21) 2241. 0.4443 0.8524
38921. 0.80601 0.876(21) 2219. 0.4443 0.8552
38932. 0.80625 0.901(21) 2171. 0.4443 0.8620
38944. 0.80650 0.876(21) 2267. 0.4443 0.8713
38956. 0.80674 0.876(21) 2179. 0.4443 0.8802
38967. 0.80698 0.874(21) 2245. 0.4443 0.8843
38979. 0.80722 0.871(21) 2264. 0.4444 0.8785
38991. 0.80746 0.836(21) 2291. 0.4444 0.8589
39002. 0.80771 0.801(20) 2487. 0.4444 0.8257
39014. 0.80795 0.751(20) 2589. 0.4444 0.7826
39026. 0.80819 0.725(19) 2694. 0.4444 0.7342
39038. 0.80843 0.658(18) 2984. 0.4444 0.6860
39049. 0.80868 0.663(19) 2903. 0.4445 0.6416
39061. 0.80892 0.608(18) 3241. 0.4445 0.6033
39073. 0.80916 0.625(18) 3014. 0.4445 0.5721
39084. 0.80940 0.552(17) 3591. 0.4445 0.5476
39096. 0.80965 0.593(18) 3255. 0.4445 0.5290
39108. 0.80989 0.576(17) 3324. 0.4446 0.5153
39120. 0.81013 0.533(16) 3729. 0.4446 0.5054
39131. 0.81038 0.518(16) 3743. 0.4446 0.4982
39143. 0.81062 0.474(16) 4135. 0.4446 0.4931
39155. 0.81086 0.559(17) 3406. 0.4447 0.4896
39167. 0.81111 0.519(16) 3739. 0.4447 0.4873
39178. 0.81135 0.512(16) 3886. 0.4447 0.4860
39190. 0.81159 0.501(16) 3845. 0.4448 0.4855
39202. 0.81184 0.522(16) 3751. 0.4448 0.4863
39214. 0.81208 0.500(16) 3946. 0.4448 0.4876
39225. 0.81232 0.505(16) 3964. 0.4449 0.4900
39237. 0.81257 0.509(16) 3857. 0.4449 0.4935
39249. 0.81281 0.498(16) 3998. 0.4449 0.4982
39261. 0.81305 0.467(15) 4424. 0.4450 0.5032
39272. 0.81330 0.525(16) 3779. 0.4450 0.5106
39284. 0.81354 0.521(16) 3954. 0.4450 0.5192
39296. 0.81379 0.533(16) 3846. 0.4451 0.5287
39308. 0.81403 0.557(17) 3533. 0.4451 0.5388
39320. 0.81428 0.562(17) 3616. 0.4452 0.5487
39331. 0.81452 0.562(17) 3577. 0.4452 0.5577
39343. 0.81476 0.579(17) 3513. 0.4452 0.5643
39355. 0.81501 0.605(17) 3325. 0.4453 0.5675
39367. 0.81525 0.600(17) 3325. 0.4453 0.5665
39379. 0.81550 0.607(17) 3302. 0.4454 0.5611
39390. 0.81574 0.586(17) 3388. 0.4454 0.5520
39402. 0.81599 0.570(17) 3611. 0.4455 0.5415
39414. 0.81623 0.566(17) 3592. 0.4455 0.5304
39426. 0.81648 0.564(17) 3565. 0.4456 0.5194
39438. 0.81672 0.562(17) 3573. 0.4456 0.5094
39450. 0.81697 0.533(16) 3730. 0.4456 0.5005
39461. 0.81721 0.519(16) 3953. 0.4457 0.4931
39473. 0.81746 0.500(16) 4122. 0.4457 0.4869
39485. 0.81770 0.493(16) 4075. 0.4458 0.4821
39497. 0.81795 0.515(16) 3862. 0.4459 0.4783
39509. 0.81819 0.468(15) 4280. 0.4459 0.4753
39521. 0.81844 0.491(15) 4177. 0.4460 0.4731
39532. 0.81868 0.479(16) 4154. 0.4460 0.4715
39544. 0.81893 0.504(16) 3919. 0.4461 0.4703
39556. 0.81918 0.466(15) 4407. 0.4461 0.4695
39568. 0.81942 0.463(15) 4536. 0.4462 0.4689
39580. 0.81967 0.500(16) 4144. 0.4462 0.4689
39592. 0.81991 0.506(16) 3848. 0.4463 0.4688
39604. 0.82016 0.500(16) 3941. 0.4464 0.4688
39616. 0.82041 0.516(16) 3896. 0.4464 0.4689
39627. 0.82065 0.514(16) 3821. 0.4465 0.4692
39639. 0.82090 0.492(16) 4095. 0.4465 0.4696
39651. 0.82114 0.474(15) 4338. 0.4466 0.4701
39663. 0.82139 0.491(16) 4067. 0.4467 0.4708
39675. 0.82164 0.485(15) 4255. 0.4467 0.4716
39687. 0.82188 0.496(15) 4292. 0.4468 0.4726
39699. 0.82213 0.508(16) 4032. 0.4469 0.4740
39711. 0.82238 0.492(15) 4255. 0.4469 0.4755
39723. 0.82262 0.505(16) 3984. 0.4470 0.4772
39735. 0.82287 0.492(15) 4198. 0.4471 0.4794
39746. 0.82312 0.489(15) 4363. 0.4471 0.4822
39758. 0.82337 0.522(16) 3799. 0.4472 0.4858
39770. 0.82361 0.517(16) 3925. 0.4473 0.4903
39782. 0.82386 0.539(16) 3859. 0.4473 0.4963
39794. 0.82411 0.521(16) 4019. 0.4474 0.5039
39806. 0.82435 0.552(16) 3816. 0.4475 0.5137
39818. 0.82460 0.540(16) 4043. 0.4475 0.5260
39830. 0.82485 0.562(16) 3674. 0.4476 0.5411
39842. 0.82510 0.576(17) 3589. 0.4477 0.5591
39854. 0.82534 0.584(16) 3679. 0.4478 0.5800
39866. 0.82559 0.596(17) 3655. 0.4478 0.6032
39878. 0.82584 0.594(17) 3657. 0.4479 0.6283
39890. 0.82609 0.622(17) 3601. 0.4480 0.6536
39902. 0.82633 0.659(17) 3362. 0.4481 0.6793
39914. 0.82658 0.684(18) 3159. 0.4481 0.7052
39926. 0.82683 0.715(18) 3050. 0.4482 0.7317
39938. 0.82708 0.692(18) 3099. 0.4483 0.7581
39950. 0.82733 0.732(19) 2897. 0.4484 0.7831
39962. 0.82758 0.760(19) 2742. 0.4485 0.8039
39974. 0.82782 0.801(21) 2258. 0.4485 0.8173
39986. 0.82807 0.789(21) 2246. 0.4486 0.8213
39998. 0.82832 0.732(20) 2402. 0.4487 0.8160
40010. 0.82857 0.714(20) 2469. 0.4488 0.8030
40022. 0.82882 0.735(21) 2171. 0.4489 0.7843
40034. 0.82907 0.751(22) 1993. 0.4489 0.7624
40046. 0.82932 0.696(21) 2338. 0.4490 0.7392
40058. 0.82956 0.676(21) 2340. 0.4491 0.7173
40070. 0.82981 0.699(22) 2163. 0.4492 0.6986
40082. 0.83006 0.669(21) 2234. 0.4493 0.6848
40094. 0.83031 0.691(22) 2142. 0.4494 0.6768
40106. 0.83056 0.705(22) 2129. 0.4494 0.6746
40118. 0.83081 0.687(22) 2119. 0.4495 0.6796
40130. 0.83106 0.736(22) 2044. 0.4496 0.6908
40142. 0.83131 0.708(22) 2109. 0.4497 0.7075
40154. 0.83156 0.679(21) 2278. 0.4498 0.7275
40166. 0.83181 0.699(21) 2244. 0.4499 0.7482
40178. 0.83206 0.762(22) 1986. 0.4500 0.7671
40190. 0.83231 0.754(22) 2024. 0.4501 0.7826
40202. 0.83256 0.797(23) 1892. 0.4501 0.7941
40214. 0.83281 0.792(22) 2018. 0.4502 0.8031
40226. 0.83306 0.789(23) 1963. 0.4503 0.8118
40238. 0.83331 0.838(23) 1880. 0.4504 0.8206
40250. 0.83356 0.851(24) 1799. 0.4505 0.8296
40262. 0.83381 0.868(24) 1783. 0.4506 0.8364
40275. 0.83406 0.841(23) 1929. 0.4507 0.8377
40287. 0.83431 0.859(23) 1877. 0.4508 0.8301
40299. 0.83456 0.811(22) 1977. 0.4509 0.8125
40311. 0.83481 0.765(22) 2079. 0.4510 0.7861
40323. 0.83506 0.730(21) 2242. 0.4511 0.7541
40335. 0.83531 0.714(21) 2262. 0.4512 0.7197
40347. 0.83556 0.666(20) 2402. 0.4513 0.6860
40359. 0.83581 0.628(19) 2647. 0.4514 0.6550
40371. 0.83606 0.619(19) 2634. 0.4514 0.6280
40383. 0.83631 0.615(20) 2619. 0.4515 0.6058
40396. 0.83656 0.609(19) 2716. 0.4516 0.5885
40408. 0.83681 0.585(19) 2848. 0.4517 0.5759
40420. 0.83706 0.563(18) 2968. 0.4518 0.5678
40432. 0.83732 0.588(19) 2760. 0.4519 0.5639
40444. 0.83757 0.571(18) 3045. 0.4520 0.5647
40456. 0.83782 0.537(18) 3129. 0.4521 0.5697
40468. 0.83807 0.612(20) 2579. 0.4522 0.5802
40480. 0.83832 0.651(20) 2556. 0.4523 0.5983
40493. 0.83857 0.648(19) 2660. 0.4524 0.6262
40505. 0.83882 0.688(20) 2566. 0.4525 0.6673
40517. 0.83908 0.756(21) 2362. 0.4526 0.7246
40529. 0.83933 0.804(21) 2339. 0.4527 0.8011
40541. 0.83958 0.879(21) 2183. 0.4528 0.8982
40553. 0.83983 0.996(22) 1976. 0.4529 1.0140
40566. 0.84008 1.158(24) 1711. 0.4530 1.1418
40578. 0.84034 1.255(25) 1605. 0.4531 1.2698
40590. 0.84059 1.415(26) 1442. 0.4532 1.3815
40602. 0.84084 1.537(27) 1339. 0.4533 1.4599
40614. 0.84109 1.553(27) 1379. 0.4534 1.4945
40626. 0.84134 1.580(27) 1381. 0.4535 1.4864
40639. 0.84160 1.554(26) 1440. 0.4536 1.4477
40651. 0.84185 1.496(26) 1512. 0.4537 1.3928
40663. 0.84210 1.398(25) 1595. 0.4538 1.3350
40675. 0.84236 1.288(24) 1736. 0.4539 1.2812
40687. 0.84261 1.243(24) 1799. 0.4540 1.2320
40700. 0.84286 1.166(23) 1919. 0.4541 1.1841
40712. 0.84311 1.132(23) 1975. 0.4542 1.1333
40724. 0.84337 1.078(22) 2084. 0.4544 1.0770
40736. 0.84362 0.991(21) 2335. 0.4545 1.0143
40748. 0.84387 0.902(20) 2535. 0.4546 0.9461
40761. 0.84413 0.829(19) 2781. 0.4547 0.8752
40773. 0.84438 0.745(18) 2974. 0.4548 0.8065
40785. 0.84463 0.740(18) 2970. 0.4549 0.7430
40797. 0.84489 0.665(17) 3377. 0.4550 0.6880
40810. 0.84514 0.637(17) 3648. 0.4551 0.6426
40822. 0.84539 0.597(16) 3733. 0.4552 0.6068
40834. 0.84565 0.552(16) 4141. 0.4553 0.5795
40846. 0.84590 0.513(15) 4439. 0.4554 0.5590
40859. 0.84615 0.525(15) 4322. 0.4555 0.5439
40871. 0.84641 0.518(15) 4329. 0.4556 0.5329
40883. 0.84666 0.497(15) 4484. 0.4557 0.5247
40895. 0.84692 0.523(15) 4353. 0.4558 0.5186
40908. 0.84717 0.515(15) 4234. 0.4559 0.5141
40920. 0.84742 0.486(15) 4741. 0.4560 0.5107
40932. 0.84768 0.474(14) 4777. 0.4561 0.5082
40944. 0.84793 0.484(15) 4633. 0.4562 0.5064
40957. 0.84819 0.499(15) 4582. 0.4563 0.5053
40969. 0.84844 0.466(14) 4835. 0.4565 0.5048
40981. 0.84870 0.491(15) 4701. 0.4566 0.5051
40994. 0.84895 0.492(15) 4650. 0.4567 0.5069
41006. 0.84921 0.520(15) 4333. 0.4568 0.5088
41018. 0.84946 0.516(15) 4232. 0.4569 0.5117
41031. 0.84972 0.519(15) 4381. 0.4570 0.5164
41043. 0.84997 0.494(15) 4583. 0.4571 0.5221
41055. 0.85023 0.523(15) 4205. 0.4572 0.5293
41067. 0.85048 0.507(15) 4549. 0.4573 0.5381
41080. 0.85074 0.522(15) 4284. 0.4574 0.5481
41092. 0.85099 0.526(15) 4265. 0.4575 0.5589
41104. 0.85125 0.537(15) 4323. 0.4576 0.5694
41117. 0.85150 0.584(16) 3854. 0.4577 0.5786
41129. 0.85176 0.564(16) 4064. 0.4578 0.5851
41141. 0.85201 0.584(16) 3949. 0.4579 0.5881
41154. 0.85227 0.579(16) 4028. 0.4580 0.5873
41166. 0.85253 0.599(16) 3723. 0.4581 0.5829
41178. 0.85278 0.589(16) 3813. 0.4583 0.5759
41191. 0.85304 0.562(16) 4040. 0.4584 0.5674
41203. 0.85329 0.530(15) 4398. 0.4585 0.5584
41216. 0.85355 0.535(15) 4273. 0.4586 0.5499
41228. 0.85381 0.528(15) 4452. 0.4587 0.5424
41240. 0.85406 0.501(15) 4687. 0.4588 0.5361
41253. 0.85432 0.522(15) 4294. 0.4589 0.5311
41265. 0.85457 0.518(15) 4301. 0.4590 0.5278
41277. 0.85483 0.498(15) 4533. 0.4591 0.5258
41290. 0.85509 0.529(15) 4220. 0.4592 0.5255
41302. 0.85534 0.537(16) 4096. 0.4593 0.5258
41315. 0.85560 0.509(15) 4459. 0.4594 0.5271
41327. 0.85586 0.509(15) 4531. 0.4595 0.5295
41339. 0.85611 0.511(15) 4488. 0.4596 0.5328
41352. 0.85637 0.520(15) 4443. 0.4597 0.5373
41364. 0.85663 0.551(15) 4185. 0.4598 0.5432
41377. 0.85688 0.563(15) 4180. 0.4599 0.5510
41389. 0.85714 0.578(16) 3768. 0.4600 0.5613
41401. 0.85740 0.560(16) 3992. 0.4601 0.5747
41414. 0.85766 0.620(16) 3675. 0.4602 0.5921
41426. 0.85791 0.638(17) 3622. 0.4604 0.6144
41439. 0.85817 0.623(16) 3729. 0.4605 0.6425
41451. 0.85843 0.711(18) 3244. 0.4606 0.6772
41464. 0.85869 0.725(18) 3185. 0.4607 0.7187
41476. 0.85894 0.779(18) 3026. 0.4608 0.7669
41488. 0.85920 0.822(19) 2874. 0.4609 0.8215
41501. 0.85946 0.898(20) 2613. 0.4610 0.8824
41513. 0.85972 1.023(21) 2306. 0.4611 0.9500
41526. 0.85998 1.059(21) 2254. 0.4612 1.0248
41538. 0.86023 1.152(22) 2013. 0.4613 1.1065
41551. 0.86049 1.191(22) 2001. 0.4614 1.1934
41563. 0.86075 1.302(24) 1801. 0.4615 1.2845
41576. 0.86101 1.401(24) 1669. 0.4616 1.3798
41588. 0.86127 1.427(25) 1652. 0.4617 1.4786
41601. 0.86152 1.488(25) 1570. 0.4618 1.5767
41613. 0.86178 1.541(25) 1546. 0.4619 1.6630
41626. 0.86204 1.571(26) 1500. 0.4620 1.7207
41638. 0.86230 1.612(26) 1455. 0.4621 1.7353
41651. 0.86256 1.613(26) 1450. 0.4622 1.7043
41663. 0.86282 1.527(25) 1544. 0.4623 1.6395
41676. 0.86308 1.461(25) 1626. 0.4624 1.5604
41688. 0.86334 1.464(25) 1619. 0.4625 1.4858
41701. 0.86360 1.445(25) 1631. 0.4626 1.4313
41713. 0.86385 1.430(25) 1643. 0.4627 1.4057
41726. 0.86411 1.445(25) 1642. 0.4628 1.4118
41738. 0.86437 1.477(25) 1625. 0.4629 1.4461
41751. 0.86463 1.542(25) 1539. 0.4630 1.4994
41763. 0.86489 1.618(26) 1460. 0.4631 1.5594
41776. 0.86515 1.591(26) 1492. 0.4632 1.6128
41788. 0.86541 1.653(26) 1424. 0.4633 1.6483
41801. 0.86567 1.647(26) 1456. 0.4633 1.6592
41813. 0.86593 1.663(27) 1414. 0.4634 1.6460
41826. 0.86619 1.643(26) 1432. 0.4635 1.6160
41838. 0.86645 1.577(26) 1483. 0.4636 1.5797
41851. 0.86671 1.544(25) 1549. 0.4637 1.5470
41863. 0.86697 1.510(25) 1578. 0.4638 1.5263
41876. 0.86723 1.517(25) 1564. 0.4639 1.5244
41889. 0.86749 1.548(25) 1539. 0.4640 1.5461
41901. 0.86775 1.590(26) 1504. 0.4641 1.5928
41914. 0.86801 1.633(26) 1475. 0.4642 1.6627
41926. 0.86827 1.722(27) 1383. 0.4643 1.7508
41939. 0.86853 1.849(28) 1291. 0.4644 1.8509
41951. 0.86879 1.959(29) 1215. 0.4645 1.9558
41964. 0.86905 2.108(30) 1127. 0.4646 2.0574
41977. 0.86931 2.165(30) 1105. 0.4646 2.1459
41989. 0.86957 2.226(31) 1057. 0.4647 2.2090
42002. 0.86984 2.279(31) 1041. 0.4648 2.2327
42014. 0.87010 2.192(30) 1089. 0.4649 2.2058
42027. 0.87036 2.138(30) 1114. 0.4650 2.1253
42040. 0.87062 2.026(29) 1171. 0.4651 1.9981
42052. 0.87088 1.851(28) 1278. 0.4652 1.8394
42065. 0.87114 1.643(26) 1455. 0.4653 1.6664
42077. 0.87140 1.509(25) 1568. 0.4654 1.4945
42090. 0.87166 1.348(24) 1784. 0.4654 1.3340
42103. 0.87193 1.154(22) 2073. 0.4655 1.1917
42115. 0.87219 1.098(22) 2146. 0.4656 1.0706
42128. 0.87245 1.006(21) 2379. 0.4657 0.9711
42141. 0.87271 0.900(19) 2649. 0.4658 0.8916
42153. 0.87297 0.843(18) 2937. 0.4659 0.8311
42166. 0.87323 0.799(18) 3016. 0.4659 0.7865
42179. 0.87350 0.756(18) 3189. 0.4660 0.7560
42191. 0.87376 0.726(17) 3269. 0.4661 0.7370
42204. 0.87402 0.702(17) 3320. 0.4662 0.7286
42217. 0.87428 0.678(17) 3541. 0.4663 0.7291
42229. 0.87455 0.734(18) 3137. 0.4664 0.7374
42242. 0.87481 0.728(18) 3144. 0.4664 0.7515
42255. 0.87507 0.716(17) 3272. 0.4665 0.7695
42267. 0.87533 0.751(18) 3155. 0.4666 0.7888
42280. 0.87560 0.765(18) 3035. 0.4667 0.8064
42293. 0.87586 0.769(18) 3040. 0.4667 0.8192
42305. 0.87612 0.783(18) 3057. 0.4668 0.8250
42318. 0.87638 0.770(18) 3148. 0.4669 0.8225
42331. 0.87665 0.782(18) 3029. 0.4670 0.8116
42343. 0.87691 0.772(18) 3121. 0.4671 0.7941
42356. 0.87717 0.793(18) 3060. 0.4671 0.7726
42369. 0.87744 0.775(18) 3091. 0.4672 0.7503
42381. 0.87770 0.776(18) 3091. 0.4673 0.7301
42394. 0.87796 0.724(17) 3420. 0.4674 0.7148
42407. 0.87823 0.728(17) 3347. 0.4674 0.7065
42420. 0.87849 0.731(17) 3303. 0.4675 0.7064
42432. 0.87875 0.725(17) 3319. 0.4676 0.7164
42445. 0.87902 0.784(18) 3034. 0.4676 0.7377
42458. 0.87928 0.821(19) 2852. 0.4677 0.7715
42471. 0.87955 0.844(19) 2756. 0.4678 0.8182
42483. 0.87981 0.887(19) 2645. 0.4679 0.8781
42496. 0.88007 0.949(20) 2542. 0.4679 0.9504
42509. 0.88034 1.060(21) 2204. 0.4680 1.0323
42522. 0.88060 1.124(22) 2104. 0.4681 1.1193
42534. 0.88087 1.202(22) 2039. 0.4681 1.2060
42547. 0.88113 1.324(24) 1797. 0.4682 1.2880
42560. 0.88139 1.436(25) 1654. 0.4683 1.3636
42573. 0.88166 1.458(24) 1688. 0.4683 1.4320
42585. 0.88192 1.575(26) 1515. 0.4684 1.4902
42598. 0.88219 1.626(26) 1484. 0.4685 1.5304
42611. 0.88245 1.594(26) 1495. 0.4685 1.5422
42624. 0.88272 1.585(26) 1519. 0.4686 1.5175
42637. 0.88298 1.560(26) 1534. 0.4686 1.4561
42649. 0.88325 1.458(25) 1639. 0.4687 1.3656
42662. 0.88351 1.328(24) 1810. 0.4688 1.2578
42675. 0.88378 1.198(22) 2065. 0.4688 1.1447
42688. 0.88404 1.124(22) 2119. 0.4689 1.0359
42700. 0.88431 1.031(21) 2316. 0.4689 0.9378
42713. 0.88457 0.920(19) 2638. 0.4690 0.8541
42726. 0.88484 0.877(19) 2774. 0.4691 0.7860
42739. 0.88510 0.796(18) 3019. 0.4691 0.7331
42752. 0.88537 0.730(17) 3299. 0.4692 0.6938
42765. 0.88564 0.697(17) 3441. 0.4692 0.6661
42777. 0.88590 0.657(17) 3650. 0.4693 0.6481
42790. 0.88617 0.637(16) 3856. 0.4693 0.6378
42803. 0.88643 0.626(16) 3882. 0.4694 0.6338
42816. 0.88670 0.629(16) 3841. 0.4695 0.6344
42829. 0.88697 0.631(16) 3782. 0.4695 0.6384
42842. 0.88723 0.637(17) 3667. 0.4696 0.6446
42854. 0.88750 0.595(16) 4076. 0.4696 0.6520
42867. 0.88776 0.619(16) 3881. 0.4697 0.6604
42880. 0.88803 0.658(17) 3653. 0.4697 0.6688
42893. 0.88830 0.649(17) 3668. 0.4698 0.6774
42906. 0.88856 0.628(16) 3830. 0.4698 0.6859
42919. 0.88883 0.633(16) 3806. 0.4699 0.6917
42932. 0.88910 0.617(16) 3836. 0.4699 0.6930
42945. 0.88936 0.635(17) 3660. 0.4699 0.6889
42957. 0.88963 0.615(16) 3838. 0.4700 0.6788
42970. 0.88990 0.618(16) 3835. 0.4700 0.6634
42983. 0.89016 0.605(16) 3901. 0.4701 0.6442
42996. 0.89043 0.586(16) 4095. 0.4701 0.6232
43009. 0.89070 0.562(15) 4265. 0.4702 0.6023
43022. 0.89097 0.560(15) 4356. 0.4702 0.5828
43035. 0.89123 0.536(15) 4477. 0.4703 0.5658
43048. 0.89150 0.537(15) 4526. 0.4703 0.5514
43061. 0.89177 0.549(15) 4216. 0.4703 0.5396
43074. 0.89204 0.505(15) 4628. 0.4704 0.5304
43086. 0.89230 0.523(15) 4424. 0.4704 0.5231
43099. 0.89257 0.523(15) 4406. 0.4705 0.5175
43112. 0.89284 0.467(14) 5107. 0.4705 0.5131
43125. 0.89311 0.482(14) 4890. 0.4705 0.5097
43138. 0.89337 0.498(14) 4824. 0.4706 0.5071
43151. 0.89364 0.475(14) 5040. 0.4706 0.5052
43164. 0.89391 0.482(14) 4952. 0.4706 0.5037
43177. 0.89418 0.486(14) 4859. 0.4707 0.5024
43190. 0.89445 0.484(14) 5084. 0.4707 0.5013
43203. 0.89472 0.465(14) 5231. 0.4707 0.5003
43216. 0.89498 0.469(14) 5187. 0.4708 0.4996
43229. 0.89525 0.492(14) 4906. 0.4708 0.4989
43242. 0.89552 0.475(14) 5036. 0.4708 0.4984
43255. 0.89579 0.464(14) 5320. 0.4709 0.4989
43268. 0.89606 0.473(14) 5056. 0.4709 0.4985
43281. 0.89633 0.490(14) 4848. 0.4709 0.4983
43294. 0.89660 0.498(14) 4771. 0.4709 0.4981
43307. 0.89687 0.489(14) 4858. 0.4710 0.4985
43320. 0.89714 0.516(15) 4569. 0.4710 0.4985
43333. 0.89740 0.537(15) 4348. 0.4710 0.4991
43346. 0.89767 0.514(15) 4579. 0.4710 0.4992
43359. 0.89794 0.505(15) 4529. 0.4711 0.4993
43372. 0.89821 0.525(15) 4354. 0.4711 0.4996
43385. 0.89848 0.503(15) 4705. 0.4711 0.4999
43398. 0.89875 0.530(15) 4374. 0.4711 0.5002
43411. 0.89902 0.531(15) 4384. 0.4711 0.5005
43424. 0.89929 0.557(15) 4178. 0.4712 0.5010
43437. 0.89956 0.535(15) 4461. 0.4712 0.5016
43450. 0.89983 0.513(15) 4684. 0.4712 0.5025
43463. 0.90010 0.538(15) 4402. 0.4712 0.5034
43476. 0.90037 0.521(15) 4488. 0.4712 0.5044
43489. 0.90064 0.526(15) 4464. 0.4713 0.5061
43502. 0.90091 0.539(15) 4349. 0.4713 0.5081
43515. 0.90118 0.527(15) 4439. 0.4713 0.5102
43528. 0.90145 0.530(15) 4504. 0.4713 0.5128
43541. 0.90172 0.529(15) 4400. 0.4713 0.5161
43554. 0.90199 0.536(15) 4349. 0.4713 0.5204
43567. 0.90226 0.509(15) 4510. 0.4713 0.5259
43580. 0.90253 0.520(15) 4523. 0.4713 0.5325
43593. 0.90281 0.547(15) 4304. 0.4714 0.5405
43607. 0.90308 0.541(15) 4324. 0.4714 0.5495
43620. 0.90335 0.519(15) 4650. 0.4714 0.5592
43633. 0.90362 0.569(15) 4163. 0.4714 0.5688
43646. 0.90389 0.574(16) 4142. 0.4714 0.5772
43659. 0.90416 0.586(16) 4045. 0.4714 0.5835
43672. 0.90443 0.562(15) 4366. 0.4714 0.5874
43685. 0.90470 0.554(15) 4352. 0.4714 0.5890
43698. 0.90497 0.579(16) 4047. 0.4714 0.5887
43711. 0.90525 0.566(15) 4242. 0.4714 0.5875
43724. 0.90552 0.583(16) 4135. 0.4714 0.5863
43738. 0.90579 0.565(15) 4194. 0.4714 0.5865
43751. 0.90606 0.576(15) 4202. 0.4714 0.5891
43764. 0.90633 0.599(16) 3969. 0.4714 0.5955
43777. 0.90661 0.603(16) 4014. 0.4714 0.6068
43790. 0.90688 0.626(16) 3798. 0.4714 0.6245
43803. 0.90715 0.641(16) 3815. 0.4714 0.6500
43816. 0.90742 0.737(18) 3202. 0.4714 0.6851
43829. 0.90769 0.753(18) 3068. 0.4714 0.7311
43843. 0.90797 0.773(18) 3101. 0.4714 0.7896
43856. 0.90824 0.791(18) 3064. 0.4714 0.8614
43869. 0.90851 0.932(20) 2596. 0.4714 0.9465
43882. 0.90878 1.044(21) 2293. 0.4714 1.0436
43895. 0.90906 1.135(22) 2140. 0.4714 1.1494
43908. 0.90933 1.238(23) 1951. 0.4714 1.2597
43922. 0.90960 1.334(23) 1829. 0.4714 1.3698
43935. 0.90988 1.436(24) 1672. 0.4714 1.4745
43948. 0.91015 1.504(25) 1646. 0.4713 1.5679
43961. 0.91042 1.614(26) 1505. 0.4713 1.6410
43974. 0.91069 1.600(26) 1528. 0.4713 1.6828
43988. 0.91097 1.584(25) 1546. 0.4713 1.6830
44001. 0.91124 1.558(25) 1560. 0.4713 1.6401
44014. 0.91151 1.492(25) 1616. 0.4713 1.5580
44027. 0.91179 1.388(24) 1775. 0.4713 1.4500
44040. 0.91206 1.302(23) 1859. 0.4713 1.3326
44054. 0.91234 1.241(22) 1976. 0.4712 1.2219
44067. 0.91261 1.143(22) 2118. 0.4712 1.1302
44080. 0.91288 1.097(21) 2244. 0.4712 1.0653
44093. 0.91316 1.074(21) 2293. 0.4712 1.0309
44106. 0.91343 1.102(21) 2181. 0.4712 1.0272
44120. 0.91371 1.093(21) 2249. 0.4712 1.0526
44133. 0.91398 1.105(21) 2274. 0.4711 1.1019
44146. 0.91425 1.231(22) 1994. 0.4711 1.1693
44159. 0.91453 1.345(24) 1806. 0.4711 1.2476
44173. 0.91480 1.424(24) 1711. 0.4711 1.3291
44186. 0.91508 1.499(25) 1632. 0.4710 1.4085
44199. 0.91535 1.609(26) 1510. 0.4710 1.4821
44212. 0.91563 1.661(26) 1477. 0.4710 1.5459
44226. 0.91590 1.744(27) 1398. 0.4710 1.5948
44239. 0.91618 1.743(27) 1403. 0.4709 1.6222
44252. 0.91645 1.705(26) 1426. 0.4709 1.6275
44265. 0.91673 1.693(26) 1429. 0.4709 1.6106
44279. 0.91700 1.666(26) 1469. 0.4709 1.5746
44292. 0.91728 1.563(25) 1574. 0.4708 1.5240
44305. 0.91755 1.520(25) 1613. 0.4708 1.4643
44319. 0.91783 1.435(24) 1728. 0.4708 1.4008
44332. 0.91810 1.375(24) 1786. 0.4707 1.3360
44345. 0.91838 1.322(23) 1846. 0.4707 1.2724
44359. 0.91865 1.236(22) 1994. 0.4707 1.2134
44372. 0.91893 1.151(22) 2140. 0.4707 1.1608
44385. 0.91920 1.090(21) 2230. 0.4706 1.1151
44398. 0.91948 1.021(20) 2405. 0.4706 1.0738
44412. 0.91976 0.953(20) 2574. 0.4706 1.0331
44425. 0.92003 0.943(19) 2634. 0.4705 0.9899
44438. 0.92031 0.948(20) 2513. 0.4705 0.9436
44452. 0.92058 0.885(19) 2728. 0.4704 0.8952
44465. 0.92086 0.844(19) 2899. 0.4704 0.8468
44478. 0.92114 0.812(18) 3031. 0.4704 0.8003
44492. 0.92141 0.791(18) 3146. 0.4703 0.7577
44505. 0.92169 0.720(17) 3423. 0.4703 0.7199
44518. 0.92197 0.690(17) 3565. 0.4703 0.6880
44532. 0.92224 0.668(17) 3640. 0.4702 0.6623
44545. 0.92252 0.661(16) 3730. 0.4702 0.6421
44559. 0.92280 0.677(17) 3541. 0.4701 0.6270
44572. 0.92307 0.621(16) 4033. 0.4701 0.6163
44585. 0.92335 0.621(16) 4012. 0.4700 0.6093
44599. 0.92363 0.612(16) 4066. 0.4700 0.6058
44612. 0.92390 0.637(16) 3834. 0.4700 0.6047
44625. 0.92418 0.655(17) 3671. 0.4699 0.6064
44639. 0.92446 0.658(16) 3720. 0.4699 0.6105
44652. 0.92474 0.678(16) 3683. 0.4698 0.6182
44666. 0.92501 0.664(16) 3675. 0.4698 0.6287
44679. 0.92529 0.727(17) 3292. 0.4697 0.6440
44692. 0.92557 0.739(17) 3269. 0.4697 0.6656
44706. 0.92585 0.761(18) 3250. 0.4696 0.6959
44719. 0.92612 0.809(18) 3021. 0.4696 0.7374
44733. 0.92640 0.919(20) 2593. 0.4695 0.7931
44746. 0.92668 0.949(20) 2593. 0.4695 0.8656
44759. 0.92696 1.011(20) 2490. 0.4694 0.9576
44773. 0.92724 1.076(21) 2319. 0.4694 1.0681
44786. 0.92752 1.236(22) 1997. 0.4693 1.1960
44800. 0.92779 1.346(23) 1863. 0.4693 1.3365
44813. 0.92807 1.473(24) 1682. 0.4692 1.4802
44827. 0.92835 1.599(25) 1569. 0.4692 1.6158
44840. 0.92863 1.745(27) 1424. 0.4691 1.7349
44854. 0.92891 1.863(27) 1331. 0.4690 1.8351
44867. 0.92919 1.959(28) 1275. 0.4690 1.9218
44880. 0.92947 2.108(29) 1182. 0.4689 2.0016
44894. 0.92974 2.189(30) 1137. 0.4689 2.0771
44907. 0.93002 2.204(30) 1126. 0.4688 2.1440
44921. 0.93030 2.212(30) 1124. 0.4688 2.1929
44934. 0.93058 2.220(30) 1118. 0.4687 2.2118
44948. 0.93086 2.214(30) 1118. 0.4686 2.1948
44961. 0.93114 2.173(30) 1132. 0.4686 2.1447
44975. 0.93142 2.101(29) 1182. 0.4685 2.0715
44988. 0.93170 2.048(29) 1209. 0.4685 1.9889
45002. 0.93198 2.002(28) 1246. 0.4684 1.9103
45015. 0.93226 1.964(28) 1287. 0.4683 1.8456
45029. 0.93254 1.886(27) 1348. 0.4683 1.7994
45042. 0.93282 1.866(27) 1347. 0.4682 1.7691
45056. 0.93310 1.818(27) 1371. 0.4682 1.7450
45069. 0.93338 1.794(27) 1383. 0.4681 1.7130
45083. 0.93366 1.690(26) 1476. 0.4680 1.6612
45096. 0.93394 1.641(26) 1473. 0.4680 1.5850
45110. 0.93422 1.489(25) 1665. 0.4679 1.4885
45123. 0.93450 1.364(23) 1829. 0.4678 1.3812
45137. 0.93478 1.247(22) 2052. 0.4678 1.2722
45151. 0.93506 1.163(22) 2158. 0.4677 1.1701
45164. 0.93534 1.096(21) 2291. 0.4676 1.0805
45178. 0.93562 1.054(21) 2358. 0.4676 1.0064
45191. 0.93590 0.991(20) 2503. 0.4675 0.9484
45205. 0.93618 0.905(19) 2794. 0.4674 0.9058
45218. 0.93646 0.894(19) 2786. 0.4673 0.8768
45232. 0.93674 0.844(18) 2990. 0.4673 0.8590
45245. 0.93702 0.855(18) 2954. 0.4672 0.8500
45259. 0.93731 0.855(19) 2881. 0.4671 0.8476
45273. 0.93759 0.828(18) 2957. 0.4671 0.8493
45286. 0.93787 0.806(18) 3077. 0.4670 0.8522
45300. 0.93815 0.815(18) 3084. 0.4669 0.8531
45313. 0.93843 0.803(18) 3075. 0.4668 0.8484
45327. 0.93871 0.774(18) 3231. 0.4668 0.8352
45341. 0.93899 0.715(17) 3586. 0.4667 0.8130
45354. 0.93928 0.715(17) 3396. 0.4666 0.7836
45368. 0.93956 0.679(16) 3720. 0.4666 0.7499
45381. 0.93984 0.658(16) 3768. 0.4665 0.7150
45395. 0.94012 0.660(16) 3767. 0.4664 0.6816
45409. 0.94040 0.649(16) 3790. 0.4663 0.6513
45422. 0.94069 0.574(15) 4321. 0.4662 0.6251
45436. 0.94097 0.575(16) 4162. 0.4662 0.6032
45449. 0.94125 0.565(15) 4343. 0.4661 0.5854
45463. 0.94153 0.539(15) 4586. 0.4660 0.5713
45477. 0.94182 0.529(15) 4693. 0.4659 0.5601
45490. 0.94210 0.518(14) 4910. 0.4659 0.5514
45504. 0.94238 0.513(15) 4750. 0.4658 0.5445
45518. 0.94266 0.490(14) 5134. 0.4657 0.5391
45531. 0.94295 0.501(14) 4960. 0.4656 0.5347
45545. 0.94323 0.507(14) 4824. 0.4655 0.5312
45559. 0.94351 0.501(15) 4731. 0.4655 0.5284
45572. 0.94380 0.506(15) 4704. 0.4654 0.5261
45586. 0.94408 0.472(14) 5278. 0.4653 0.5241
45600. 0.94436 0.491(14) 4886. 0.4652 0.5226
45613. 0.94465 0.498(14) 4990. 0.4651 0.5213
45627. 0.94493 0.493(14) 4970. 0.4651 0.5202
45641. 0.94521 0.512(15) 4631. 0.4650 0.5194
45654. 0.94550 0.484(14) 4956. 0.4649 0.5190
45668. 0.94578 0.482(14) 5178. 0.4648 0.5186
45682. 0.94606 0.492(14) 4953. 0.4647 0.5183
45696. 0.94635 0.490(14) 5070. 0.4646 0.5182
45709. 0.94663 0.507(15) 4752. 0.4646 0.5182
45723. 0.94692 0.498(14) 4799. 0.4645 0.5184
45737. 0.94720 0.503(14) 5031. 0.4644 0.5187
45750. 0.94748 0.510(15) 4721. 0.4643 0.5193
45764. 0.94777 0.510(14) 4893. 0.4642 0.5199
45778. 0.94805 0.495(14) 4931. 0.4641 0.5207
45792. 0.94834 0.479(14) 5045. 0.4640 0.5214
45805. 0.94862 0.495(14) 4873. 0.4640 0.5226
45819. 0.94891 0.515(14) 4759. 0.4639 0.5239
45833. 0.94919 0.514(15) 4680. 0.4638 0.5255
45847. 0.94948 0.490(14) 4918. 0.4637 0.5274
45860. 0.94976 0.501(14) 4784. 0.4636 0.5294
45874. 0.95005 0.505(14) 4885. 0.4635 0.5318
45888. 0.95033 0.520(15) 4707. 0.4634 0.5345
45902. 0.95062 0.516(15) 4752. 0.4633 0.5375
45915. 0.95090 0.516(14) 4854. 0.4633 0.5410
45929. 0.95119 0.516(14) 4872. 0.4632 0.5449
45943. 0.95147 0.533(15) 4678. 0.4631 0.5494
45957. 0.95176 0.547(15) 4556. 0.4630 0.5547
45970. 0.95204 0.533(15) 4716. 0.4629 0.5608
45984. 0.95233 0.527(14) 4832. 0.4628 0.5686
45998. 0.95262 0.547(15) 4623. 0.4627 0.5776
46012. 0.95290 0.563(15) 4422. 0.4626 0.5888
46026. 0.95319 0.586(16) 4162. 0.4625 0.6032
46039. 0.95347 0.647(16) 3770. 0.4625 0.6220
46053. 0.95376 0.643(16) 3946. 0.4624 0.6465
46067. 0.95405 0.657(16) 3820. 0.4623 0.6784
46081. 0.95433 0.699(17) 3645. 0.4622 0.7190
46095. 0.95462 0.736(17) 3497. 0.4621 0.7697
46109. 0.95490 0.827(18) 3110. 0.4620 0.8312
46122. 0.95519 0.909(19) 2844. 0.4619 0.9037
46136. 0.95548 0.989(20) 2576. 0.4618 0.9861
46150. 0.95576 1.081(21) 2352. 0.4617 1.0768
46164. 0.95605 1.177(22) 2127. 0.4616 1.1733
46178. 0.95634 1.270(23) 1956. 0.4615 1.2745
46192. 0.95662 1.388(23) 1812. 0.4614 1.3805
46205. 0.95691 1.545(25) 1608. 0.4614 1.4938
46219. 0.95720 1.675(26) 1502. 0.4613 1.6157
46233. 0.95749 1.827(27) 1396. 0.4612 1.7452
46247. 0.95777 1.925(27) 1346. 0.4611 1.8764
46261. 0.95806 2.136(29) 1175. 0.4610 1.9993
46275. 0.95835 2.213(30) 1142. 0.4609 2.1002
46289. 0.95864 2.285(30) 1108. 0.4608 2.1649
46303. 0.95892 2.349(31) 1063. 0.4607 2.1866
46317. 0.95921 2.267(30) 1112. 0.4606 2.1689
46330. 0.95950 2.195(29) 1161. 0.4605 2.1239
46344. 0.95979 2.127(29) 1188. 0.4604 2.0672
46358. 0.96007 2.039(28) 1248. 0.4603 2.0117
46372. 0.96036 1.955(28) 1299. 0.4602 1.9655
46386. 0.96065 1.980(28) 1272. 0.4601 1.9321
46400. 0.96094 1.991(28) 1276. 0.4601 1.9134
46414. 0.96123 2.002(28) 1284. 0.4600 1.9123
46428. 0.96152 2.033(28) 1269. 0.4599 1.9319
46442. 0.96180 2.116(29) 1209. 0.4598 1.9767
46456. 0.96209 2.169(29) 1170. 0.4597 2.0450
46470. 0.96238 2.229(30) 1136. 0.4596 2.1299
46484. 0.96267 2.254(30) 1121. 0.4595 2.2170
46497. 0.96296 2.284(30) 1104. 0.4594 2.2851
46511. 0.96325 2.250(30) 1108. 0.4593 2.3126
46525. 0.96354 2.198(29) 1159. 0.4592 2.2859
46539. 0.96383 2.027(28) 1246. 0.4591 2.2051
46553. 0.96412 1.987(28) 1287. 0.4590 2.0824
46567. 0.96441 1.843(27) 1380. 0.4589 1.9349
46581. 0.96469 1.700(26) 1484. 0.4588 1.7794
46595. 0.96498 1.642(26) 1532. 0.4587 1.6293
46609. 0.96527 1.457(24) 1761. 0.4586 1.4942
46623. 0.96556 1.384(23) 1820. 0.4585 1.3803
46637. 0.96585 1.301(23) 1915. 0.4584 1.2915
46651. 0.96614 1.243(22) 2062. 0.4584 1.2289
46665. 0.96643 1.207(22) 2092. 0.4583 1.1914
46679. 0.96672 1.180(22) 2160. 0.4582 1.1761
46693. 0.96701 1.183(22) 2134. 0.4581 1.1795
46707. 0.96730 1.210(22) 2076. 0.4580 1.1980
46721. 0.96759 1.231(22) 2072. 0.4579 1.2283
46735. 0.96788 1.278(22) 1976. 0.4578 1.2666
46749. 0.96817 1.300(23) 1961. 0.4577 1.3073
46763. 0.96846 1.384(23) 1826. 0.4576 1.3437
46777. 0.96876 1.440(24) 1750. 0.4575 1.3680
46791. 0.96905 1.460(24) 1728. 0.4574 1.3727
46805. 0.96934 1.502(25) 1643. 0.4573 1.3526
46819. 0.96963 1.433(24) 1769. 0.4572 1.3076
46833. 0.96992 1.406(24) 1792. 0.4571 1.2421
46847. 0.97021 1.308(23) 1912. 0.4570 1.1633
46862. 0.97050 1.168(22) 2161. 0.4569 1.0789
46876. 0.97079 1.075(21) 2311. 0.4569 0.9950
46890. 0.97108 0.951(20) 2627. 0.4568 0.9163
46904. 0.97137 0.845(19) 2907. 0.4567 0.8456
46918. 0.97167 0.755(17) 3305. 0.4566 0.7843
46932. 0.97196 0.695(17) 3519. 0.4565 0.7326
46946. 0.97225 0.653(16) 3874. 0.4564 0.6901
46960. 0.97254 0.618(16) 3975. 0.4563 0.6557
46974. 0.97283 0.564(15) 4371. 0.4562 0.6282
46988. 0.97312 0.544(15) 4544. 0.4561 0.6064
47002. 0.97342 0.549(15) 4531. 0.4560 0.5891
47016. 0.97371 0.532(15) 4718. 0.4559 0.5749
47030. 0.97400 0.526(15) 4755. 0.4558 0.5640
47045. 0.97429 0.498(14) 4977. 0.4557 0.5550
47059. 0.97459 0.512(15) 4617. 0.4556 0.5477
47073. 0.97488 0.511(15) 4706. 0.4556 0.5414
47087. 0.97517 0.507(15) 4749. 0.4555 0.5359
47101. 0.97546 0.475(14) 5189. 0.4554 0.5310
47115. 0.97576 0.497(14) 4818. 0.4553 0.5265
47129. 0.97605 0.517(15) 4694. 0.4552 0.5224
47143. 0.97634 0.501(15) 4666. 0.4551 0.5187
47158. 0.97663 0.497(14) 4901. 0.4550 0.5154
47172. 0.97693 0.466(14) 5433. 0.4549 0.5124
47186. 0.97722 0.466(14) 5364. 0.4548 0.5097
47200. 0.97751 0.475(14) 5068. 0.4547 0.5073
47214. 0.97781 0.490(14) 4876. 0.4547 0.5052
47228. 0.97810 0.472(14) 5239. 0.4546 0.5033
47243. 0.97839 0.473(14) 5146. 0.4545 0.5017
47257. 0.97869 0.499(14) 4795. 0.4544 0.5003
47271. 0.97898 0.494(14) 5071. 0.4543 0.4991
47285. 0.97928 0.510(14) 4768. 0.4542 0.4981
47299. 0.97957 0.487(14) 4986. 0.4541 0.4973
47313. 0.97986 0.484(14) 5066. 0.4540 0.4966
47328. 0.98016 0.478(14) 5082. 0.4539 0.4961
47342. 0.98045 0.471(14) 5442. 0.4539 0.4958
47356. 0.98075 0.482(14) 5013. 0.4538 0.4956
47370. 0.98104 0.477(14) 5066. 0.4537 0.4956
47384. 0.98133 0.482(14) 4965. 0.4536 0.4958
47399. 0.98163 0.495(14) 4975. 0.4535 0.4962
47413. 0.98192 0.518(15) 4631. 0.4534 0.4969
47427. 0.98222 0.514(15) 4749. 0.4533 0.4977
47441. 0.98251 0.500(14) 4885. 0.4533 0.4989
47456. 0.98281 0.495(14) 4918. 0.4532 0.5004
47470. 0.98310 0.497(14) 4922. 0.4531 0.5011
47484. 0.98340 0.507(14) 4790. 0.4530 0.5037
47498. 0.98369 0.539(15) 4510. 0.4529 0.5069
47513. 0.98399 0.531(15) 4577. 0.4528 0.5112
47527. 0.98428 0.556(15) 4359. 0.4528 0.5168
47541. 0.98458 0.559(15) 4285. 0.4527 0.5242
47555. 0.98487 0.557(15) 4391. 0.4526 0.5338
47570. 0.98517 0.598(16) 4069. 0.4525 0.5464
47584. 0.98546 0.604(16) 4000. 0.4524 0.5624
47598. 0.98576 0.604(16) 4102. 0.4523 0.5825
47612. 0.98606 0.638(16) 3792. 0.4523 0.6071
47627. 0.98635 0.673(17) 3567. 0.4522 0.6362
47641. 0.98665 0.691(17) 3633. 0.4521 0.6697
47655. 0.98694 0.708(17) 3470. 0.4520 0.7067
47670. 0.98724 0.771(18) 3204. 0.4519 0.7453
47684. 0.98754 0.783(18) 3179. 0.4519 0.7829
47698. 0.98783 0.837(19) 2904. 0.4518 0.8167
47713. 0.98813 0.876(19) 2828. 0.4517 0.8448
47727. 0.98843 0.874(19) 2884. 0.4516 0.8676
47741. 0.98872 0.944(20) 2580. 0.4515 0.8881
47755. 0.98902 0.981(20) 2578. 0.4515 0.9092
47770. 0.98932 0.993(20) 2505. 0.4514 0.9339
47784. 0.98961 1.068(21) 2337. 0.4513 0.9634
47798. 0.98991 1.047(20) 2381. 0.4512 0.9959
47813. 0.99021 1.045(20) 2440. 0.4512 1.0266
47827. 0.99050 1.096(21) 2242. 0.4511 1.0480
47842. 0.99080 1.063(21) 2321. 0.4510 1.0526
47856. 0.99110 1.032(20) 2404. 0.4509 1.0364
47870. 0.99140 0.993(20) 2514. 0.4509 1.0003
47885. 0.99169 0.962(20) 2591. 0.4508 0.9495
47899. 0.99199 0.894(19) 2785. 0.4507 0.8905
47913. 0.99229 0.839(18) 2930. 0.4506 0.8291
47928. 0.99259 0.782(18) 3183. 0.4506 0.7698
47942. 0.99288 0.752(17) 3291. 0.4505 0.7158
47956. 0.99318 0.716(17) 3451. 0.4504 0.6687
47971. 0.99348 0.665(16) 3720. 0.4503 0.6290
47985. 0.99378 0.632(16) 3915. 0.4503 0.5966
48000. 0.99408 0.621(16) 3988. 0.4502 0.5707
48014. 0.99437 0.566(15) 4416. 0.4501 0.5503
48028. 0.99467 0.565(15) 4260. 0.4501 0.5345
48043. 0.99497 0.548(15) 4503. 0.4500 0.5222
48057. 0.99527 0.548(15) 4426. 0.4499 0.5125
48072. 0.99557 0.546(15) 4505. 0.4499 0.5050
48086. 0.99587 0.507(14) 4974. 0.4498 0.4989
48101. 0.99617 0.523(15) 4720. 0.4497 0.4943
48115. 0.99646 0.501(15) 4749. 0.4497 0.4903
48129. 0.99676 0.490(14) 4991. 0.4496 0.4869
48144. 0.99706 0.469(14) 5416. 0.4495 0.4840
48158. 0.99736 0.494(14) 4852. 0.4495 0.4815
48173. 0.99766 0.506(15) 4636. 0.4494 0.4794
48187. 0.99796 0.485(14) 5088. 0.4493 0.4775
48202. 0.99826 0.506(15) 4749. 0.4493 0.4758
48216. 0.99856 0.503(15) 4700. 0.4492 0.4745
48231. 0.99886 0.462(14) 5357. 0.4491 0.4732
48245. 0.99916 0.475(14) 5192. 0.4491 0.4722
48259. 0.99946 0.449(13) 5691. 0.4490 0.4711
48274. 0.99976 0.473(14) 5130. 0.4490 0.4702
48288. 1.00006 0.478(14) 4932. 0.4489 0.4693
48303. 1.00036 0.467(14) 5203. 0.4488 0.4684
48317. 1.00066 0.460(14) 5261. 0.4488 0.4677
48332. 1.00096 0.468(14) 5080. 0.4487 0.4670
48346. 1.00126 0.466(14) 5156. 0.4487 0.4664
48361. 1.00156 0.474(14) 4966. 0.4486 0.4658
48375. 1.00186 0.479(14) 4876. 0.4485 0.4652
48390. 1.00216 0.469(14) 5079. 0.4485 0.4647
48404. 1.00246 0.472(14) 5187. 0.4484 0.4643
48419. 1.00276 0.438(13) 5707. 0.4484 0.4639
48433. 1.00306 0.437(13) 5709. 0.4483 0.4635
48448. 1.00336 0.470(14) 5110. 0.4483 0.4631
48463. 1.00367 0.439(13) 5625. 0.4482 0.4628
48477. 1.00397 0.475(14) 5149. 0.4482 0.4624
48492. 1.00427 0.465(14) 5172. 0.4481 0.4621
48506. 1.00457 0.468(14) 5194. 0.4480 0.4619
48521. 1.00487 0.471(14) 5252. 0.4480 0.4616
48535. 1.00517 0.491(14) 4899. 0.4479 0.4614
48550. 1.00547 0.488(14) 4931. 0.4479 0.4612
48564. 1.00578 0.453(14) 5377. 0.4478 0.4610
48579. 1.00608 0.435(13) 5755. 0.4478 0.4608
48594. 1.00638 0.454(14) 5433. 0.4477 0.4607
48608. 1.00668 0.435(13) 5691. 0.4477 0.4606
48623. 1.00698 0.459(14) 5208. 0.4476 0.4604
48637. 1.00729 0.439(13) 5541. 0.4476 0.4603
48652. 1.00759 0.473(14) 5046. 0.4476 0.4591
48667. 1.00789 0.414(13) 6242. 0.4475 0.4591
48681. 1.00819 0.466(14) 5370. 0.4475 0.4590
48696. 1.00849 0.464(14) 5097. 0.4474 0.4590
48710. 1.00880 0.454(14) 5267. 0.4474 0.4597
48725. 1.00910 0.496(14) 4832. 0.4473 0.4597
48740. 1.00940 0.488(14) 4849. 0.4473 0.4598
48754. 1.00971 0.478(14) 4905. 0.4472 0.4598
48769. 1.01001 0.476(14) 5032. 0.4472 0.4599
48783. 1.01031 0.481(14) 4951. 0.4472 0.4600
48798. 1.01062 0.474(14) 5001. 0.4471 0.4601
48813. 1.01092 0.466(14) 5055. 0.4471 0.4607
48827. 1.01122 0.471(14) 5064. 0.4470 0.4608
48842. 1.01153 0.462(14) 5341. 0.4470 0.4610
48857. 1.01183 0.503(14) 4786. 0.4470 0.4612
48871. 1.01213 0.477(14) 4980. 0.4469 0.4614
48886. 1.01244 0.460(14) 5272. 0.4469 0.4616
48901. 1.01274 0.490(14) 4841. 0.4469 0.4623
48915. 1.01304 0.472(14) 5257. 0.4468 0.4609
48930. 1.01335 0.483(14) 5063. 0.4468 0.4612
48945. 1.01365 0.497(14) 4859. 0.4467 0.4616
48959. 1.01396 0.487(14) 4988. 0.4467 0.4620
48974. 1.01426 0.474(14) 5187. 0.4467 0.4624
48989. 1.01456 0.486(14) 4985. 0.4466 0.4629
49003. 1.01487 0.495(14) 4936. 0.4466 0.4634
49018. 1.01517 0.498(14) 4829. 0.4466 0.4639
49033. 1.01548 0.474(14) 5184. 0.4466 0.4645
49048. 1.01578 0.499(14) 4776. 0.4465 0.4652
49062. 1.01609 0.491(14) 5131. 0.4465 0.4663
49077. 1.01639 0.488(14) 4975. 0.4465 0.4671
49092. 1.01670 0.466(14) 5250. 0.4464 0.4680
49106. 1.01700 0.491(14) 4971. 0.4464 0.4689
49121. 1.01731 0.499(14) 4767. 0.4464 0.4700
49136. 1.01761 0.494(14) 4779. 0.4464 0.4711
49151. 1.01792 0.473(14) 5226. 0.4463 0.4730
49165. 1.01822 0.475(14) 5073. 0.4463 0.4744
49180. 1.01853 0.484(14) 4892. 0.4463 0.4759
49195. 1.01883 0.486(14) 4902. 0.4463 0.4776
49210. 1.01914 0.505(15) 4613. 0.4462 0.4795
49224. 1.01945 0.502(15) 4747. 0.4462 0.4817
49239. 1.01975 0.482(14) 4972. 0.4462 0.4841
49254. 1.02006 0.492(14) 4939. 0.4462 0.4868
49269. 1.02036 0.520(15) 4572. 0.4462 0.4906
49283. 1.02067 0.495(14) 4995. 0.4461 0.4942
49298. 1.02098 0.526(15) 4504. 0.4461 0.4991
49313. 1.02128 0.520(15) 4579. 0.4461 0.5041
49328. 1.02159 0.533(15) 4548. 0.4461 0.5103
49343. 1.02190 0.558(15) 4398. 0.4461 0.5181
49357. 1.02220 0.536(15) 4465. 0.4460 0.5280
49372. 1.02251 0.570(15) 4185. 0.4460 0.5410
49387. 1.02282 0.599(16) 3934. 0.4460 0.5582
49402. 1.02312 0.596(16) 4055. 0.4460 0.5810
49417. 1.02343 0.637(16) 3766. 0.4460 0.6114
49432. 1.02374 0.657(16) 3775. 0.4460 0.6513
49446. 1.02404 0.703(17) 3466. 0.4460 0.7031
49461. 1.02435 0.760(18) 3212. 0.4460 0.7689
49476. 1.02466 0.805(18) 3093. 0.4459 0.8503
49491. 1.02497 0.904(19) 2667. 0.4459 0.9472
49506. 1.02527 0.972(20) 2578. 0.4459 1.0577
49521. 1.02558 1.078(21) 2337. 0.4459 1.1775
49535. 1.02589 1.250(23) 1971. 0.4459 1.3009
49550. 1.02620 1.288(23) 1943. 0.4459 1.4199
49565. 1.02651 1.464(24) 1700. 0.4459 1.5237
49580. 1.02681 1.602(26) 1533. 0.4459 1.6000
49595. 1.02712 1.658(26) 1489. 0.4459 1.6388
49610. 1.02743 1.692(26) 1435. 0.4459 1.6358
49625. 1.02774 1.605(25) 1541. 0.4459 1.5951
49640. 1.02805 1.520(25) 1631. 0.4459 1.5242
49654. 1.02835 1.437(24) 1722. 0.4459 1.4348
49669. 1.02866 1.332(23) 1834. 0.4459 1.3350
49684. 1.02897 1.208(22) 2029. 0.4459 1.2320
49699. 1.02928 1.091(21) 2270. 0.4459 1.1309
49714. 1.02959 0.980(20) 2548. 0.4459 1.0358
49729. 1.02990 0.931(19) 2649. 0.4459 0.9500
49744. 1.03021 0.867(19) 2832. 0.4459 0.8754
49759. 1.03052 0.809(18) 3041. 0.4459 0.8123
49774. 1.03083 0.755(18) 3248. 0.4459 0.7626
49789. 1.03114 0.761(18) 3221. 0.4459 0.7248
49804. 1.03144 0.719(17) 3449. 0.4459 0.6988
49819. 1.03175 0.704(17) 3494. 0.4459 0.6825
49833. 1.03206 0.712(17) 3391. 0.4459 0.6752
49848. 1.03237 0.705(17) 3420. 0.4459 0.6777
49863. 1.03268 0.658(16) 3699. 0.4459 0.6835
49878. 1.03299 0.670(16) 3728. 0.4459 0.6929
49893. 1.03330 0.654(16) 3799. 0.4459 0.7038
49908. 1.03361 0.691(17) 3473. 0.4459 0.7147
49923. 1.03392 0.706(17) 3442. 0.4460 0.7247
49938. 1.03423 0.712(17) 3420. 0.4460 0.7332
49953. 1.03454 0.729(17) 3304. 0.4460 0.7397
49968. 1.03485 0.721(17) 3371. 0.4460 0.7446
49983. 1.03516 0.753(17) 3330. 0.4460 0.7488
49998. 1.03548 0.756(18) 3198. 0.4460 0.7536
50013. 1.03579 0.773(18) 3152. 0.4460 0.7598
50028. 1.03610 0.799(18) 3056. 0.4460 0.7673
50043. 1.03641 0.803(18) 3029. 0.4461 0.7749
50058. 1.03672 0.795(18) 3128. 0.4461 0.7797
50073. 1.03703 0.815(18) 2926. 0.4461 0.7787
50088. 1.03734 0.765(18) 3195. 0.4461 0.7697
50103. 1.03765 0.743(18) 3250. 0.4461 0.7527
50118. 1.03796 0.752(18) 3262. 0.4461 0.7296
50133. 1.03828 0.691(17) 3494. 0.4462 0.7030
50148. 1.03859 0.668(17) 3563. 0.4462 0.6757
50163. 1.03890 0.625(16) 3955. 0.4462 0.6495
50178. 1.03921 0.650(17) 3631. 0.4462 0.6258
50194. 1.03952 0.605(16) 4029. 0.4463 0.6053
50209. 1.03983 0.571(15) 4322. 0.4463 0.5879
50224. 1.04015 0.583(15) 4216. 0.4463 0.5736
50239. 1.04046 0.556(15) 4356. 0.4463 0.5620
50254. 1.04077 0.541(15) 4319. 0.4463 0.5527
50269. 1.04108 0.547(15) 4360. 0.4464 0.5455
50284. 1.04139 0.548(15) 4365. 0.4464 0.5399
50299. 1.04171 0.550(15) 4253. 0.4464 0.5359
50314. 1.04202 0.510(14) 4764. 0.4465 0.5330
50329. 1.04233 0.546(15) 4394. 0.4465 0.5312
50344. 1.04265 0.527(15) 4502. 0.4465 0.5302
50359. 1.04296 0.548(15) 4270. 0.4465 0.5301
50375. 1.04327 0.535(15) 4419. 0.4466 0.5307
50390. 1.04358 0.519(15) 4499. 0.4466 0.5319
50405. 1.04390 0.523(15) 4567. 0.4466 0.5337
50420. 1.04421 0.508(14) 4831. 0.4467 0.5361
50435. 1.04452 0.513(15) 4651. 0.4467 0.5391
50450. 1.04484 0.533(15) 4458. 0.4467 0.5426
50465. 1.04515 0.530(15) 4593. 0.4468 0.5467
50480. 1.04546 0.556(15) 4318. 0.4468 0.5515
50496. 1.04578 0.545(15) 4396. 0.4468 0.5570
50511. 1.04609 0.567(16) 4147. 0.4469 0.5633
50526. 1.04641 0.560(15) 4261. 0.4469 0.5704
50541. 1.04672 0.589(16) 4117. 0.4469 0.5786
50556. 1.04703 0.604(16) 3938. 0.4470 0.5880
50571. 1.04735 0.620(16) 3842. 0.4470 0.5988
50587. 1.04766 0.630(16) 3830. 0.4471 0.6115
50602. 1.04798 0.661(17) 3579. 0.4471 0.6264
50617. 1.04829 0.656(16) 3688. 0.4471 0.6445
50632. 1.04861 0.721(17) 3351. 0.4472 0.6672
50647. 1.04892 0.746(18) 3212. 0.4472 0.6963
50662. 1.04924 0.784(18) 3116. 0.4473 0.7350
50678. 1.04955 0.891(19) 2698. 0.4473 0.7874
50693. 1.04986 0.964(20) 2463. 0.4474 0.8592
50708. 1.05018 1.034(21) 2358. 0.4474 0.9571
50723. 1.05050 1.197(22) 2033. 0.4474 1.0878
50738. 1.05081 1.341(23) 1825. 0.4475 1.2583
50754. 1.05113 1.542(25) 1573. 0.4475 1.4741
50769. 1.05144 1.763(27) 1368. 0.4476 1.7376
50784. 1.05176 1.992(28) 1261. 0.4476 2.0458
50799. 1.05207 2.358(31) 1056. 0.4477 2.3897
50815. 1.05239 2.705(33) 914. 0.4477 2.7549
50830. 1.05270 3.15(4) 782. 0.448 3.125
50845. 1.05302 3.54(4) 697. 0.448 3.484
50860. 1.05334 3.85(4) 641. 0.448 3.814
50876. 1.05365 4.21(4) 580. 0.448 4.099
50891. 1.05397 4.35(4) 563. 0.448 4.322
50906. 1.05428 4.46(4) 555. 0.448 4.473
50921. 1.05460 4.62(4) 528. 0.448 4.540
50937. 1.05492 4.48(4) 550. 0.448 4.508
50952. 1.05523 4.27(4) 576. 0.448 4.365
50967. 1.05555 4.01(4) 616. 0.448 4.119
50983. 1.05587 3.71(4) 670. 0.448 3.801
50998. 1.05618 3.39(4) 726. 0.448 3.458
51013. 1.05650 3.047(35) 821. 0.4484 3.1344
51028. 1.05682 2.739(33) 908. 0.4485 2.8648
51044. 1.05713 2.571(32) 965. 0.4485 2.6698
51059. 1.05745 2.532(32) 980. 0.4486 2.5548
51074. 1.05777 2.517(32) 979. 0.4486 2.5118
51090. 1.05809 2.535(32) 970. 0.4487 2.5241
51105. 1.05840 2.566(32) 979. 0.4488 2.5697
51120. 1.05872 2.617(32) 960. 0.4488 2.6228
51136. 1.05904 2.679(33) 928. 0.4489 2.6588
51151. 1.05936 2.602(32) 968. 0.4489 2.6572
51166. 1.05967 2.619(32) 947. 0.4490 2.6029
51182. 1.05999 2.480(32) 995. 0.4491 2.4883
51197. 1.06031 2.309(31) 1063. 0.4491 2.3180
51212. 1.06063 2.052(29) 1215. 0.4492 2.1091
51228. 1.06095 1.811(27) 1371. 0.4493 1.8848
51243. 1.06127 1.663(26) 1468. 0.4493 1.6672
51259. 1.06158 1.458(24) 1701. 0.4494 1.4731
51274. 1.06190 1.287(23) 1941. 0.4494 1.3133
51289. 1.06222 1.195(22) 2071. 0.4495 1.1925
51305. 1.06254 1.124(21) 2184. 0.4496 1.1117
51320. 1.06286 1.106(21) 2226. 0.4496 1.0687
51336. 1.06318 1.056(21) 2342. 0.4497 1.0604
51351. 1.06350 1.093(21) 2253. 0.4498 1.0837
51366. 1.06382 1.120(21) 2218. 0.4498 1.1354
51382. 1.06413 1.160(22) 2126. 0.4499 1.2116
51397. 1.06445 1.294(23) 1888. 0.4500 1.3073
51413. 1.06477 1.362(24) 1807. 0.4501 1.4153
51428. 1.06509 1.451(24) 1719. 0.4501 1.5269
51443. 1.06541 1.640(26) 1497. 0.4502 1.6326
51459. 1.06573 1.745(27) 1414. 0.4503 1.7225
51474. 1.06605 1.801(27) 1375. 0.4503 1.7864
51490. 1.06637 1.864(28) 1306. 0.4504 1.8144
51505. 1.06669 1.901(28) 1270. 0.4505 1.8004
51521. 1.06701 1.886(28) 1301. 0.4506 1.7446
51536. 1.06733 1.776(27) 1372. 0.4506 1.6505
51552. 1.06765 1.686(27) 1407. 0.4507 1.5295
51567. 1.06797 1.525(25) 1580. 0.4508 1.3945
51582. 1.06829 1.323(23) 1851. 0.4509 1.2586
51598. 1.06861 1.195(22) 2070. 0.4509 1.1291
51613. 1.06893 1.052(21) 2365. 0.4510 1.0128
51629. 1.06926 0.926(20) 2618. 0.4511 0.9130
51644. 1.06958 0.859(19) 2796. 0.4512 0.8307
51660. 1.06990 0.764(18) 3098. 0.4512 0.7637
51675. 1.07022 0.663(16) 3733. 0.4513 0.7106
51691. 1.07054 0.632(16) 3905. 0.4514 0.6692
51706. 1.07086 0.615(16) 3950. 0.4515 0.6371
51722. 1.07118 0.582(16) 3955. 0.4515 0.6122
51737. 1.07150 0.570(16) 4143. 0.4516 0.5928
51753. 1.07182 0.542(15) 4392. 0.4517 0.5775
51768. 1.07215 0.534(15) 4441. 0.4518 0.5652
51784. 1.07247 0.523(15) 4469. 0.4519 0.5553
51800. 1.07279 0.487(14) 4996. 0.4519 0.5470
51815. 1.07311 0.501(15) 4671. 0.4520 0.5401
51831. 1.07343 0.503(15) 4636. 0.4521 0.5343
51846. 1.07376 0.502(15) 4670. 0.4522 0.5292
51862. 1.07408 0.508(15) 4626. 0.4523 0.5248
51877. 1.07440 0.455(14) 5196. 0.4523 0.5209
51893. 1.07472 0.468(14) 4963. 0.4524 0.5175
51908. 1.07504 0.473(14) 4920. 0.4525 0.5144
51924. 1.07537 0.490(14) 4769. 0.4526 0.5117
51940. 1.07569 0.491(15) 4628. 0.4527 0.5092
51955. 1.07601 0.487(14) 4834. 0.4528 0.5070
51971. 1.07634 0.470(14) 5030. 0.4529 0.5050
51986. 1.07666 0.476(14) 4946. 0.4529 0.5032
52002. 1.07698 0.486(14) 4878. 0.4530 0.5016
52018. 1.07731 0.463(14) 4848. 0.4531 0.5001
52033. 1.07763 0.473(14) 4908. 0.4532 0.4988
52049. 1.07795 0.474(14) 4790. 0.4533 0.4976
52064. 1.07828 0.479(14) 4926. 0.4534 0.4965
52080. 1.07860 0.477(14) 4861. 0.4535 0.4955
52096. 1.07892 0.475(14) 4836. 0.4535 0.4946
52111. 1.07925 0.449(14) 5203. 0.4536 0.4938
52127. 1.07957 0.490(15) 4576. 0.4537 0.4930
52143. 1.07989 0.480(14) 4855. 0.4538 0.4924
52158. 1.08022 0.481(14) 4791. 0.4539 0.4920
52174. 1.08054 0.442(14) 5431. 0.4540 0.4915
52189. 1.08087 0.480(14) 4922. 0.4541 0.4911
52205. 1.08119 0.468(14) 4885. 0.4542 0.4907
52221. 1.08152 0.470(14) 4936. 0.4542 0.4905
52236. 1.08184 0.466(14) 5000. 0.4543 0.4902
52252. 1.08216 0.470(14) 5081. 0.4544 0.4901
52268. 1.08249 0.473(14) 4989. 0.4545 0.4900
52283. 1.08281 0.475(14) 4764. 0.4546 0.4899
52299. 1.08314 0.474(14) 4900. 0.4547 0.4899
52315. 1.08346 0.483(14) 4840. 0.4548 0.4900
52331. 1.08379 0.477(14) 4944. 0.4549 0.4902
52346. 1.08411 0.483(15) 4696. 0.4550 0.4904
52362. 1.08444 0.480(15) 4674. 0.4551 0.4907
52378. 1.08476 0.468(14) 4791. 0.4552 0.4910
52393. 1.08509 0.456(14) 5106. 0.4552 0.4914
52409. 1.08542 0.476(14) 4927. 0.4553 0.4920
52425. 1.08574 0.501(15) 4644. 0.4554 0.4926
52441. 1.08607 0.481(14) 4824. 0.4555 0.4925
52456. 1.08639 0.505(15) 4458. 0.4556 0.4933
52472. 1.08672 0.506(15) 4512. 0.4557 0.4943
52488. 1.08705 0.490(14) 4778. 0.4558 0.4954
52503. 1.08737 0.499(15) 4741. 0.4559 0.4967
52519. 1.08770 0.512(15) 4490. 0.4560 0.4982
52535. 1.08802 0.508(15) 4643. 0.4561 0.5000
52551. 1.08835 0.535(15) 4185. 0.4562 0.5022
52567. 1.08868 0.512(15) 4453. 0.4563 0.5050
52582. 1.08900 0.504(15) 4715. 0.4564 0.5085
52598. 1.08933 0.523(15) 4500. 0.4565 0.5131
52614. 1.08966 0.535(15) 4335. 0.4565 0.5190
52630. 1.08998 0.544(15) 4305. 0.4566 0.5266
52645. 1.09031 0.540(15) 4426. 0.4567 0.5364
52661. 1.09064 0.569(16) 4101. 0.4568 0.5486
52677. 1.09097 0.578(16) 4081. 0.4569 0.5637
52693. 1.09129 0.627(16) 3711. 0.4570 0.5816
52709. 1.09162 0.641(17) 3591. 0.4571 0.6022
52724. 1.09195 0.646(17) 3585. 0.4572 0.6248
52740. 1.09228 0.682(17) 3364. 0.4573 0.6480
52756. 1.09260 0.728(18) 3148. 0.4574 0.6706
52772. 1.09293 0.717(17) 3308. 0.4575 0.6911
52788. 1.09326 0.731(18) 3183. 0.4576 0.7078
52804. 1.09359 0.717(17) 3294. 0.4577 0.7189
52819. 1.09392 0.724(17) 3269. 0.4578 0.7230
52835. 1.09424 0.706(17) 3367. 0.4579 0.7196
52851. 1.09457 0.710(17) 3300. 0.4580 0.7094
52867. 1.09490 0.700(17) 3359. 0.4581 0.6944
52883. 1.09523 0.689(17) 3452. 0.4582 0.6770
52899. 1.09556 0.657(17) 3628. 0.4583 0.6596
52915. 1.09589 0.651(17) 3585. 0.4584 0.6442
52930. 1.09622 0.639(17) 3640. 0.4585 0.6322
52946. 1.09654 0.650(17) 3600. 0.4586 0.6243
52962. 1.09687 0.662(17) 3476. 0.4587 0.6212
52978. 1.09720 0.640(17) 3581. 0.4588 0.6231
52994. 1.09753 0.686(17) 3350. 0.4588 0.6305
53010. 1.09786 0.676(17) 3522. 0.4589 0.6437
53026. 1.09819 0.727(18) 3239. 0.4590 0.6637
53042. 1.09852 0.745(18) 3209. 0.4591 0.6920
53058. 1.09885 0.795(18) 2945. 0.4592 0.7298
53074. 1.09918 0.890(19) 2678. 0.4593 0.7799
53089. 1.09951 0.985(21) 2363. 0.4594 0.8449
53105. 1.09984 1.014(21) 2356. 0.4595 0.9283
53121. 1.10017 1.100(21) 2187. 0.4596 1.0335
53137. 1.10050 1.223(22) 1997. 0.4597 1.1635
53153. 1.10083 1.351(24) 1795. 0.4598 1.3194
53169. 1.10116 1.508(25) 1590. 0.4599 1.4993
53185. 1.10149 1.703(26) 1439. 0.4600 1.6985
53201. 1.10182 1.920(28) 1261. 0.4601 1.9092
53217. 1.10215 2.060(29) 1181. 0.4602 2.1209
53233. 1.10248 2.275(31) 1050. 0.4603 2.3201
53249. 1.10281 2.441(32) 985. 0.4604 2.4900
53265. 1.10314 2.614(33) 916. 0.4605 2.6151
53281. 1.10347 2.664(33) 906. 0.4606 2.6856
53297. 1.10381 2.713(34) 874. 0.4607 2.6963
53313. 1.10414 2.707(34) 885. 0.4608 2.6458
53329. 1.10447 2.522(32) 959. 0.4609 2.5386
53345. 1.10480 2.438(32) 989. 0.4610 2.3879
53361. 1.10513 2.243(31) 1072. 0.4611 2.2156
53377. 1.10546 2.007(29) 1197. 0.4612 2.0423
53393. 1.10579 1.878(28) 1286. 0.4613 1.8840
53409. 1.10613 1.721(27) 1410. 0.4614 1.7502
53425. 1.10646 1.623(26) 1477. 0.4615 1.6442
53441. 1.10679 1.585(26) 1522. 0.4615 1.5654
53457. 1.10712 1.528(25) 1578. 0.4616 1.5125
53473. 1.10745 1.575(26) 1495. 0.4617 1.4847
53489. 1.10779 1.552(25) 1539. 0.4618 1.4812
53505. 1.10812 1.544(26) 1510. 0.4619 1.5000
53521. 1.10845 1.559(26) 1503. 0.4620 1.5362
53537. 1.10878 1.543(25) 1555. 0.4621 1.5808
53553. 1.10912 1.526(25) 1567. 0.4622 1.6204
53569. 1.10945 1.524(26) 1515. 0.4623 1.6393
53585. 1.10978 1.473(25) 1609. 0.4624 1.6253
53601. 1.11012 1.426(24) 1682. 0.4625 1.5749
53618. 1.11045 1.345(24) 1754. 0.4626 1.4934
53634. 1.11078 1.274(23) 1863. 0.4627 1.3917
53650. 1.11112 1.157(22) 2062. 0.4628 1.2811
53666. 1.11145 1.090(21) 2187. 0.4629 1.1712
53682. 1.11178 0.999(21) 2338. 0.4630 1.0692
53698. 1.11212 0.920(20) 2542. 0.4631 0.9789
53714. 1.11245 0.861(19) 2650. 0.4632 0.9019
53730. 1.11278 0.826(19) 2830. 0.4632 0.8377
53746. 1.11312 0.757(18) 3078. 0.4633 0.7848
53762. 1.11345 0.734(18) 3168. 0.4634 0.7414
53779. 1.11379 0.717(18) 3190. 0.4635 0.7058
53795. 1.11412 0.675(17) 3369. 0.4636 0.6742
53811. 1.11445 0.662(17) 3412. 0.4637 0.6502
53827. 1.11479 0.612(16) 3695. 0.4638 0.6305
53843. 1.11512 0.598(16) 3780. 0.4639 0.6139
53859. 1.11546 0.577(16) 3971. 0.4640 0.5996
53875. 1.11579 0.578(16) 3961. 0.4641 0.5870
53892. 1.11613 0.568(16) 4050. 0.4642 0.5756
53908. 1.11646 0.579(16) 3725. 0.4643 0.5653
53924. 1.11680 0.547(16) 4140. 0.4643 0.5560
53940. 1.11713 0.536(15) 4176. 0.4644 0.5476
53956. 1.11747 0.529(15) 4218. 0.4645 0.5402
53973. 1.11780 0.541(16) 4131. 0.4646 0.5338
53989. 1.11814 0.511(15) 4462. 0.4647 0.5281
54005. 1.11847 0.550(16) 3920. 0.4648 0.5240
54021. 1.11881 0.509(15) 4259. 0.4649 0.5198
54037. 1.11914 0.502(15) 4272. 0.4650 0.5163
54054. 1.11948 0.505(15) 4351. 0.4651 0.5133
54070. 1.11982 0.503(15) 4364. 0.4651 0.5106
54086. 1.12015 0.496(15) 4487. 0.4652 0.5084
54102. 1.12049 0.488(15) 4574. 0.4653 0.5064
54118. 1.12082 0.484(14) 4777. 0.4654 0.5047
54135. 1.12116 0.501(15) 4291. 0.4655 0.5032
54151. 1.12150 0.514(15) 4234. 0.4656 0.5019
54167. 1.12183 0.497(15) 4357. 0.4657 0.5007
54183. 1.12217 0.506(15) 4513. 0.4657 0.4997
54200. 1.12251 0.482(14) 4764. 0.4658 0.4988
54216. 1.12284 0.500(15) 4334. 0.4659 0.4980
54232. 1.12318 0.509(15) 4332. 0.4660 0.4973
54248. 1.12352 0.482(15) 4756. 0.4661 0.4967
54265. 1.12386 0.483(15) 4510. 0.4662 0.4962
54281. 1.12419 0.479(15) 4707. 0.4662 0.4958
54297. 1.12453 0.499(15) 4428. 0.4663 0.4954
54314. 1.12487 0.497(15) 4470. 0.4664 0.4951
54330. 1.12520 0.496(15) 4243. 0.4665 0.4949
54346. 1.12554 0.502(15) 4378. 0.4666 0.4948
54362. 1.12588 0.514(15) 4174. 0.4667 0.4948
54379. 1.12622 0.522(16) 4136. 0.4667 0.4948
54395. 1.12656 0.512(15) 4250. 0.4668 0.4949
54411. 1.12689 0.517(15) 4165. 0.4669 0.4951
54428. 1.12723 0.488(15) 4483. 0.4670 0.4953
54444. 1.12757 0.487(15) 4623. 0.4671 0.4956
54460. 1.12791 0.462(14) 4801. 0.4671 0.4961
54477. 1.12825 0.514(15) 4171. 0.4672 0.4966
54493. 1.12859 0.477(15) 4576. 0.4673 0.4972
54509. 1.12892 0.489(15) 4591. 0.4674 0.4979
54526. 1.12926 0.468(15) 4685. 0.4675 0.4988
54542. 1.12960 0.482(15) 4623. 0.4675 0.4998
54559. 1.12994 0.480(15) 4545. 0.4676 0.5009
54575. 1.13028 0.492(15) 4247. 0.4677 0.5022
54591. 1.13062 0.478(15) 4717. 0.4678 0.5037
54608. 1.13096 0.498(15) 4337. 0.4678 0.5053
54624. 1.13130 0.511(15) 4197. 0.4679 0.5073
54640. 1.13164 0.498(15) 4344. 0.4680 0.5095
54657. 1.13198 0.510(15) 4170. 0.4681 0.5120
54673. 1.13232 0.499(15) 4424. 0.4681 0.5149
54690. 1.13266 0.496(15) 4412. 0.4682 0.5183
54706. 1.13300 0.489(15) 4479. 0.4683 0.5222
54722. 1.13334 0.517(15) 4202. 0.4683 0.5268
54739. 1.13368 0.522(15) 4179. 0.4684 0.5324
54755. 1.13402 0.515(15) 4189. 0.4685 0.5392
54772. 1.13436 0.549(16) 4005. 0.4686 0.5479
54788. 1.13470 0.558(16) 3938. 0.4686 0.5593
54805. 1.13504 0.546(15) 4210. 0.4687 0.5747
54821. 1.13538 0.593(16) 3818. 0.4688 0.5961
54837. 1.13572 0.626(16) 3695. 0.4688 0.6266
54854. 1.13606 0.677(17) 3267. 0.4689 0.6701
54870. 1.13640 0.725(18) 3063. 0.4690 0.7319
54887. 1.13674 0.804(19) 2872. 0.4690 0.8185
54903. 1.13708 0.948(20) 2403. 0.4691 0.9367
54920. 1.13742 1.081(22) 2077. 0.4692 1.0925
54936. 1.13776 1.249(23) 1831. 0.4692 1.2878
54953. 1.13811 1.480(25) 1574. 0.4693 1.5181
54969. 1.13845 1.822(28) 1276. 0.4694 1.7667
54986. 1.13879 2.126(30) 1089. 0.4694 2.0055
55002. 1.13913 2.339(32) 996. 0.4695 2.1961
55019. 1.13947 2.574(33) 904. 0.4696 2.3019
55035. 1.13981 2.654(34) 871. 0.4696 2.3026
55052. 1.14016 2.569(33) 906. 0.4697 2.2021
55068. 1.14050 2.351(32) 1000. 0.4698 2.0248
55085. 1.14084 2.064(30) 1131. 0.4698 1.8035
55101. 1.14118 1.700(27) 1356. 0.4699 1.5697
55118. 1.14153 1.392(25) 1663. 0.4699 1.3480
55134. 1.14187 1.118(22) 2028. 0.4700 1.1539
55151. 1.14221 0.910(20) 2489. 0.4701 0.9943
55167. 1.14255 0.794(19) 2815. 0.4701 0.8692
55184. 1.14290 0.688(17) 3274. 0.4702 0.7747
55200. 1.14324 0.619(17) 3579. 0.4702 0.7051
55217. 1.14358 0.603(17) 3656. 0.4703 0.6546
55234. 1.14393 0.565(16) 3905. 0.4703 0.6182
55250. 1.14427 0.550(16) 4008. 0.4704 0.5918
55267. 1.14461 0.533(16) 3998. 0.4704 0.5726
55283. 1.14496 0.496(15) 4499. 0.4705 0.5584
55300. 1.14530 0.498(15) 4365. 0.4706 0.5476
55317. 1.14564 0.477(15) 4621. 0.4706 0.5394
55333. 1.14599 0.493(15) 4442. 0.4707 0.5331
55350. 1.14633 0.479(15) 4585. 0.4707 0.5280
55366. 1.14667 0.499(15) 4345. 0.4708 0.5242
55383. 1.14702 0.514(15) 4276. 0.4708 0.5211
55400. 1.14736 0.510(15) 4218. 0.4709 0.5186
55416. 1.14771 0.523(15) 4239. 0.4709 0.5168
55433. 1.14805 0.511(16) 4160. 0.4710 0.5156
55449. 1.14840 0.482(15) 4576. 0.4710 0.5149
55466. 1.14874 0.489(15) 4496. 0.4711 0.5150
55483. 1.14908 0.484(15) 4562. 0.4711 0.5157
55499. 1.14943 0.505(15) 4237. 0.4712 0.5174
55516. 1.14977 0.500(15) 4358. 0.4712 0.5204
55533. 1.15012 0.521(16) 4112. 0.4712 0.5249
55549. 1.15046 0.492(15) 4510. 0.4713 0.5315
55566. 1.15081 0.531(16) 4012. 0.4713 0.5405
55583. 1.15116 0.551(16) 3805. 0.4714 0.5523
55599. 1.15150 0.530(16) 4035. 0.4714 0.5673
55616. 1.15185 0.568(16) 3814. 0.4715 0.5855
55633. 1.15219 0.587(16) 3798. 0.4715 0.6067
55649. 1.15254 0.598(16) 3750. 0.4715 0.6303
55666. 1.15288 0.644(17) 3395. 0.4716 0.6550
55683. 1.15323 0.691(18) 3156. 0.4716 0.6768
55699. 1.15358 0.710(18) 3036. 0.4717 0.6942
55716. 1.15392 0.730(18) 2961. 0.4717 0.7036
55733. 1.15427 0.746(19) 2909. 0.4717 0.7034
55750. 1.15461 0.751(18) 2940. 0.4718 0.6941
55766. 1.15496 0.708(18) 3234. 0.4718 0.6777
55783. 1.15531 0.699(18) 3203. 0.4718 0.6568
55800. 1.15565 0.690(18) 3109. 0.4719 0.6339
55817. 1.15600 0.666(18) 3144. 0.4719 0.6110
55833. 1.15635 0.631(17) 3379. 0.4720 0.5895
55850. 1.15669 0.568(16) 3885. 0.4720 0.5703
55867. 1.15704 0.545(16) 3827. 0.4720 0.5538
55884. 1.15739 0.529(16) 4018. 0.4720 0.5400
55900. 1.15774 0.531(16) 4022. 0.4721 0.5288
55917. 1.15808 0.527(16) 4061. 0.4721 0.5180
55934. 1.15843 0.518(16) 4045. 0.4721 0.5110
55951. 1.15878 0.488(15) 4397. 0.4722 0.5055
55967. 1.15913 0.504(15) 4203. 0.4722 0.5012
55984. 1.15947 0.489(15) 4329. 0.4722 0.4979
56001. 1.15982 0.523(16) 4061. 0.4723 0.4953
56018. 1.16017 0.491(15) 4420. 0.4723 0.4931
56035. 1.16052 0.486(15) 4284. 0.4723 0.4914
56051. 1.16087 0.497(15) 4202. 0.4723 0.4899
56068. 1.16121 0.513(16) 4015. 0.4724 0.4887
56085. 1.16156 0.499(15) 4174. 0.4724 0.4877
56102. 1.16191 0.493(15) 4225. 0.4724 0.4868
56119. 1.16226 0.462(15) 4642. 0.4724 0.4860
56136. 1.16261 0.498(16) 4126. 0.4724 0.4854
56152. 1.16296 0.482(15) 4456. 0.4725 0.4848
56169. 1.16331 0.511(16) 4109. 0.4725 0.4842
56186. 1.16366 0.472(15) 4458. 0.4725 0.4838
56203. 1.16400 0.476(15) 4465. 0.4725 0.4833
56220. 1.16435 0.502(15) 4207. 0.4725 0.4830
56237. 1.16470 0.501(15) 4176. 0.4726 0.4826
56254. 1.16505 0.491(15) 4375. 0.4726 0.4823
56270. 1.16540 0.518(16) 3929. 0.4726 0.4821
56287. 1.16575 0.516(16) 3928. 0.4726 0.4818
56304. 1.16610 0.502(15) 4201. 0.4726 0.4816
56321. 1.16645 0.490(15) 4220. 0.4726 0.4814
56338. 1.16680 0.491(15) 4339. 0.4726 0.4812
56355. 1.16715 0.469(15) 4542. 0.4727 0.4811
56372. 1.16750 0.479(15) 4421. 0.4727 0.4810
56389. 1.16785 0.481(15) 4289. 0.4727 0.4808
56406. 1.16820 0.489(15) 4287. 0.4727 0.4807
56423. 1.16855 0.509(16) 4056. 0.4727 0.4806
56439. 1.16890 0.511(16) 3975. 0.4727 0.4805
56456. 1.16925 0.512(16) 4081. 0.4727 0.4805
56473. 1.16961 0.516(16) 3983. 0.4727 0.4804
56490. 1.16996 0.499(16) 4157. 0.4727 0.4803
56507. 1.17031 0.494(16) 4131. 0.4727 0.4803
56524. 1.17066 0.498(15) 4170. 0.4727 0.4808
56541. 1.17101 0.505(16) 4142. 0.4728 0.4808
56558. 1.17136 0.518(16) 3900. 0.4728 0.4808
56575. 1.17171 0.492(15) 4190. 0.4728 0.4808
56592. 1.17206 0.501(16) 4136. 0.4728 0.4809
56609. 1.17242 0.509(16) 4055. 0.4728 0.4809
56626. 1.17277 0.499(16) 4115. 0.4728 0.4809
56643. 1.17312 0.474(15) 4366. 0.4728 0.4810
56660. 1.17347 0.502(16) 4116. 0.4728 0.4811
56677. 1.17382 0.476(15) 4537. 0.4728 0.4812
56694. 1.17418 0.500(16) 3934. 0.4728 0.4813
56711. 1.17453 0.523(16) 3842. 0.4728 0.4814
56728. 1.17488 0.503(16) 4038. 0.4728 0.4822
56745. 1.17523 0.502(16) 3926. 0.4728 0.4824
56762. 1.17559 0.541(17) 3588. 0.4728 0.4825
56779. 1.17594 0.504(16) 3945. 0.4727 0.4827
56796. 1.17629 0.502(15) 4182. 0.4727 0.4829
56813. 1.17664 0.484(15) 4328. 0.4727 0.4831
56830. 1.17700 0.514(16) 3955. 0.4727 0.4833
56847. 1.17735 0.478(15) 4350. 0.4727 0.4836
56864. 1.17770 0.493(16) 4106. 0.4727 0.4838
56881. 1.17806 0.509(16) 3928. 0.4727 0.4841
56898. 1.17841 0.490(16) 4154. 0.4727 0.4845
56915. 1.17876 0.481(15) 4276. 0.4727 0.4848
56933. 1.17912 0.491(16) 4037. 0.4727 0.4852
56950. 1.17947 0.494(16) 4108. 0.4727 0.4857
56967. 1.17983 0.491(16) 4157. 0.4726 0.4861
56984. 1.18018 0.506(16) 3903. 0.4726 0.4867
57001. 1.18053 0.489(16) 4079. 0.4726 0.4873
57018. 1.18089 0.491(16) 4058. 0.4726 0.4879
57035. 1.18124 0.473(15) 4426. 0.4726 0.4887
57052. 1.18160 0.502(16) 4042. 0.4726 0.4895
57069. 1.18195 0.512(16) 3867. 0.4726 0.4895
57086. 1.18231 0.508(16) 3854. 0.4725 0.4907
57104. 1.18266 0.487(15) 4169. 0.4725 0.4921
57121. 1.18302 0.502(16) 4161. 0.4725 0.4938
57138. 1.18337 0.504(16) 4126. 0.4725 0.4961
57155. 1.18373 0.515(16) 3946. 0.4725 0.4991
57172. 1.18408 0.528(16) 3738. 0.4724 0.5031
57189. 1.18444 0.513(16) 3963. 0.4724 0.5085
57206. 1.18479 0.524(16) 4046. 0.4724 0.5157
57224. 1.18515 0.537(16) 3778. 0.4724 0.5249
57241. 1.18550 0.562(17) 3624. 0.4724 0.5364
57258. 1.18586 0.561(17) 3546. 0.4723 0.5501
57275. 1.18621 0.561(17) 3584. 0.4723 0.5658
57292. 1.18657 0.577(17) 3525. 0.4723 0.5827
57309. 1.18693 0.600(17) 3478. 0.4723 0.5997
57327. 1.18728 0.608(17) 3463. 0.4722 0.6157
57344. 1.18764 0.642(18) 3166. 0.4722 0.6302
57361. 1.18800 0.650(18) 3098. 0.4722 0.6432
57378. 1.18835 0.635(18) 3213. 0.4721 0.6551
57396. 1.18871 0.660(18) 3188. 0.4721 0.6660
57413. 1.18907 0.676(18) 3068. 0.4721 0.6751
57430. 1.18942 0.681(18) 2997. 0.4721 0.6815
57447. 1.18978 0.700(19) 2916. 0.4720 0.6846
57464. 1.19014 0.654(18) 3225. 0.4720 0.6844
57482. 1.19049 0.673(18) 3120. 0.4720 0.6816
57499. 1.19085 0.666(18) 3086. 0.4719 0.6771
57516. 1.19121 0.625(17) 3363. 0.4719 0.6716
57533. 1.19156 0.624(17) 3343. 0.4719 0.6661
57551. 1.19192 0.621(17) 3317. 0.4718 0.6614
57568. 1.19228 0.622(17) 3335. 0.4718 0.6585
57585. 1.19264 0.614(17) 3402. 0.4717 0.6562
57602. 1.19300 0.623(17) 3339. 0.4717 0.6539
57620. 1.19335 0.593(17) 3500. 0.4717 0.6499
57637. 1.19371 0.598(17) 3367. 0.4716 0.6430
57654. 1.19407 0.604(17) 3375. 0.4716 0.6330
57672. 1.19443 0.569(17) 3634. 0.4715 0.6209
57689. 1.19479 0.558(16) 3723. 0.4715 0.6080
57706. 1.19514 0.576(17) 3561. 0.4715 0.5964
57724. 1.19550 0.559(16) 3717. 0.4714 0.5864
57741. 1.19586 0.571(17) 3655. 0.4714 0.5793
57758. 1.19622 0.563(17) 3602. 0.4713 0.5756
57776. 1.19658 0.547(16) 3770. 0.4713 0.5752
57793. 1.19694 0.570(17) 3669. 0.4713 0.5781
57810. 1.19730 0.549(16) 3858. 0.4712 0.5842
57828. 1.19766 0.576(17) 3594. 0.4712 0.5934
57845. 1.19802 0.597(17) 3352. 0.4711 0.6056
57862. 1.19838 0.605(17) 3464. 0.4711 0.6208
57880. 1.19874 0.613(17) 3435. 0.4710 0.6391
57897. 1.19910 0.677(18) 3053. 0.4710 0.6609
57914. 1.19946 0.693(18) 2946. 0.4709 0.6866
57932. 1.19982 0.701(18) 2948. 0.4709 0.7173
57949. 1.20018 0.759(19) 2775. 0.4708 0.7546
57966. 1.20054 0.803(20) 2565. 0.4708 0.8000
57984. 1.20090 0.864(20) 2395. 0.4707 0.8552
58001. 1.20126 0.915(21) 2331. 0.4707 0.9212
58019. 1.20162 0.976(21) 2177. 0.4706 0.9991
58036. 1.20198 1.092(23) 1909. 0.4706 1.0901
58053. 1.20234 1.196(24) 1770. 0.4705 1.1969
58071. 1.20270 1.243(24) 1730. 0.4705 1.3215
58088. 1.20306 1.422(25) 1546. 0.4704 1.4670
58106. 1.20342 1.511(26) 1438. 0.4703 1.6335
58123. 1.20378 1.704(28) 1296. 0.4703 1.8147
58141. 1.20414 1.951(30) 1116. 0.4702 1.9989
58158. 1.20450 2.114(31) 1020. 0.4702 2.1700
58175. 1.20487 2.291(33) 936. 0.4701 2.3110
58193. 1.20523 2.437(34) 879. 0.4701 2.4012
58210. 1.20559 2.513(34) 858. 0.4700 2.4228
58228. 1.20595 2.484(34) 862. 0.4699 2.3650
58245. 1.20631 2.363(33) 910. 0.4699 2.2314
58263. 1.20667 2.111(31) 1023. 0.4698 2.0413
58280. 1.20704 1.910(30) 1131. 0.4698 1.8188
58298. 1.20740 1.601(27) 1371. 0.4697 1.5895
58315. 1.20776 1.407(26) 1494. 0.4696 1.3731
58333. 1.20812 1.177(24) 1800. 0.4696 1.1826
58350. 1.20849 0.988(21) 2206. 0.4695 1.0240
58368. 1.20885 0.856(20) 2446. 0.4695 0.8979
58385. 1.20921 0.782(20) 2572. 0.4694 0.8013
58403. 1.20957 0.685(18) 3017. 0.4693 0.7292
58420. 1.20994 0.633(18) 3262. 0.4693 0.6769
58438. 1.21030 0.623(18) 3259. 0.4692 0.6382
58455. 1.21066 0.568(17) 3624. 0.4691 0.6099
58473. 1.21103 0.557(17) 3655. 0.4691 0.5889
58490. 1.21139 0.522(16) 3902. 0.4690 0.5730
58508. 1.21175 0.527(16) 3867. 0.4689 0.5607
58526. 1.21212 0.524(16) 3732. 0.4689 0.5510
58543. 1.21248 0.505(16) 4030. 0.4688 0.5433
58561. 1.21284 0.518(16) 3947. 0.4687 0.5369
58578. 1.21321 0.497(16) 3924. 0.4687 0.5316
58596. 1.21357 0.539(17) 3544. 0.4686 0.5273
58613. 1.21394 0.533(17) 3670. 0.4685 0.5237
58631. 1.21430 0.508(16) 3981. 0.4685 0.5208
58649. 1.21466 0.498(16) 3990. 0.4684 0.5185
58666. 1.21503 0.522(16) 3761. 0.4683 0.5168
58684. 1.21539 0.502(16) 3905. 0.4682 0.5158
58701. 1.21576 0.493(16) 4079. 0.4682 0.5154
58719. 1.21612 0.509(16) 4046. 0.4681 0.5156
58737. 1.21649 0.518(16) 3938. 0.4680 0.5164
58754. 1.21685 0.525(16) 3825. 0.4680 0.5177
58772. 1.21722 0.525(16) 3763. 0.4679 0.5194
58789. 1.21758 0.541(17) 3517. 0.4678 0.5211
58807. 1.21795 0.527(16) 3826. 0.4677 0.5226
58825. 1.21831 0.575(17) 3344. 0.4677 0.5234
58842. 1.21868 0.520(16) 3968. 0.4676 0.5232
58860. 1.21905 0.533(16) 3783. 0.4675 0.5219
58878. 1.21941 0.532(17) 3613. 0.4674 0.5196
58895. 1.21978 0.519(16) 3800. 0.4674 0.5165
58913. 1.22014 0.523(16) 3699. 0.4673 0.5131
58931. 1.22051 0.527(16) 3772. 0.4672 0.5096
58948. 1.22088 0.514(16) 3872. 0.4671 0.5062
58966. 1.22124 0.545(17) 3522. 0.4670 0.5031
58984. 1.22161 0.515(16) 3757. 0.4670 0.5004
59001. 1.22197 0.484(15) 4213. 0.4669 0.4980
59019. 1.22234 0.508(16) 3823. 0.4668 0.4960
59037. 1.22271 0.530(17) 3599. 0.4667 0.4944
59055. 1.22308 0.511(16) 3855. 0.4666 0.4931
59072. 1.22344 0.523(17) 3659. 0.4666 0.4921
59090. 1.22381 0.529(17) 3599. 0.4665 0.4913
59108. 1.22418 0.502(16) 3909. 0.4664 0.4906
59125. 1.22454 0.510(16) 3722. 0.4663 0.4901
59143. 1.22491 0.486(16) 4024. 0.4662 0.4897
59161. 1.22528 0.500(16) 3921. 0.4662 0.4894
59179. 1.22565 0.496(16) 3877. 0.4661 0.4891
59196. 1.22601 0.481(16) 4030. 0.4660 0.4890
59214. 1.22638 0.514(16) 3797. 0.4659 0.4888
59232. 1.22675 0.501(16) 3907. 0.4658 0.4888
59250. 1.22712 0.491(16) 4084. 0.4657 0.4888
59268. 1.22749 0.490(16) 4055. 0.4657 0.4888
59285. 1.22785 0.499(16) 3917. 0.4656 0.4889
59303. 1.22822 0.491(16) 3840. 0.4655 0.4890
59321. 1.22859 0.503(16) 3766. 0.4654 0.4891
59339. 1.22896 0.511(16) 3842. 0.4653 0.4893
59356. 1.22933 0.496(16) 3858. 0.4652 0.4896
59374. 1.22970 0.500(16) 3973. 0.4652 0.4899
59392. 1.23007 0.494(16) 4001. 0.4651 0.4902
59410. 1.23044 0.498(16) 4005. 0.4650 0.4906
59428. 1.23081 0.506(16) 3940. 0.4649 0.4910
59446. 1.23117 0.525(16) 3764. 0.4648 0.4915
59463. 1.23154 0.527(16) 3754. 0.4647 0.4920
59481. 1.23191 0.541(17) 3560. 0.4646 0.4926
59499. 1.23228 0.492(16) 4060. 0.4646 0.4932
59517. 1.23265 0.538(17) 3566. 0.4645 0.4939
59535. 1.23302 0.553(17) 3574. 0.4644 0.4947
59553. 1.23339 0.530(16) 3742. 0.4643 0.4956
59571. 1.23376 0.549(17) 3621. 0.4642 0.4965
59588. 1.23413 0.524(16) 3806. 0.4641 0.4975
59606. 1.23450 0.533(17) 3657. 0.4640 0.4986
59624. 1.23487 0.561(17) 3447. 0.4639 0.4999
59642. 1.23524 0.525(16) 3782. 0.4639 0.5012
59660. 1.23562 0.545(17) 3557. 0.4638 0.5027
59678. 1.23599 0.510(16) 4001. 0.4637 0.5043
59696. 1.23636 0.544(16) 3749. 0.4636 0.5060
59714. 1.23673 0.605(18) 3230. 0.4635 0.5079
59732. 1.23710 0.615(17) 3398. 0.4634 0.5100
59749. 1.23747 0.598(17) 3370. 0.4633 0.5124
59767. 1.23784 0.585(17) 3584. 0.4632 0.5150
59785. 1.23821 0.574(17) 3636. 0.4631 0.5178
59803. 1.23858 0.545(16) 3931. 0.4631 0.5210
59821. 1.23896 0.512(15) 4363. 0.4630 0.5246
59839. 1.23933 0.518(15) 4277. 0.4629 0.5285
59857. 1.23970 0.511(15) 4329. 0.4628 0.5331
59875. 1.24007 0.501(15) 4404. 0.4627 0.5382
59893. 1.24044 0.533(17) 3557. 0.4626 0.5442
59911. 1.24082 0.547(18) 3252. 0.4625 0.5512
59929. 1.24119 0.595(19) 2899. 0.4624 0.5596
59947. 1.24156 0.597(19) 2915. 0.4623 0.5699
59965. 1.24193 0.618(19) 2681. 0.4623 0.5829
59983. 1.24231 0.652(20) 2490. 0.4622 0.5993
60001. 1.24268 0.669(20) 2423. 0.4621 0.6203
60019. 1.24305 0.708(21) 2252. 0.4620 0.6473
60037. 1.24342 0.744(22) 2161. 0.4619 0.6818
60055. 1.24380 0.778(22) 2083. 0.4618 0.7253
60073. 1.24417 0.877(23) 1826. 0.4617 0.7791
60091. 1.24454 0.855(23) 1938. 0.4616 0.8443
60109. 1.24492 0.934(24) 1750. 0.4615 0.9213
60127. 1.24529 1.020(25) 1637. 0.4614 1.0098
60145. 1.24566 1.135(26) 1439. 0.4613 1.1076
60163. 1.24604 1.142(26) 1505. 0.4613 1.2112
60181. 1.24641 1.294(28) 1301. 0.4612 1.3161
60199. 1.24679 1.384(28) 1239. 0.4611 1.4191
60217. 1.24716 1.486(29) 1154. 0.4610 1.5208
60235. 1.24753 1.639(31) 1033. 0.4609 1.6241
60253. 1.24791 1.686(31) 1031. 0.4608 1.7319
60271. 1.24828 1.878(34) 891. 0.4607 1.8429
60290. 1.24866 1.959(34) 861. 0.4606 1.9488
60308. 1.24903 2.037(34) 841. 0.4605 2.0348
60326. 1.24941 1.989(34) 866. 0.4604 2.0832
60344. 1.24978 1.982(34) 855. 0.4604 2.0828
60362. 1.25016 1.945(33) 897. 0.4603 2.0350
60380. 1.25053 1.888(33) 923. 0.4602 1.9523
60398. 1.25091 1.776(32) 969. 0.4601 1.8526
60416. 1.25128 1.669(31) 1055. 0.4600 1.7528
60434. 1.25166 1.604(30) 1081. 0.4599 1.6665
60453. 1.25203 1.586(30) 1108. 0.4598 1.6022
60471. 1.25241 1.539(30) 1148. 0.4597 1.5638
60489. 1.25279 1.505(29) 1177. 0.4596 1.5503
60507. 1.25316 1.543(30) 1114. 0.4595 1.5574
60525. 1.25354 1.576(30) 1100. 0.4595 1.5799
60543. 1.25391 1.622(30) 1090. 0.4594 1.6144
60561. 1.25429 1.662(31) 1055. 0.4593 1.6601
60580. 1.25467 1.737(31) 1012. 0.4592 1.7179
60598. 1.25504 1.746(31) 1020. 0.4591 1.7876
60616. 1.25542 1.838(33) 945. 0.4590 1.8649
60634. 1.25580 1.913(33) 916. 0.4589 1.9402
60652. 1.25617 1.929(33) 895. 0.4588 1.9984
60671. 1.25655 1.875(33) 943. 0.4588 2.0226
60689. 1.25693 1.848(32) 981. 0.4587 2.0002
60707. 1.25730 1.781(32) 972. 0.4586 1.9280
60725. 1.25768 1.657(31) 1051. 0.4585 1.8124
60743. 1.25806 1.528(29) 1180. 0.4584 1.6692
60762. 1.25844 1.382(28) 1306. 0.4583 1.5128
60780. 1.25881 1.241(26) 1524. 0.4582 1.3560
60798. 1.25919 1.093(24) 1721. 0.4581 1.2087
60816. 1.25957 1.050(24) 1798. 0.4581 1.0773
60835. 1.25995 0.966(23) 1950. 0.4580 0.9648
60853. 1.26032 0.848(21) 2356. 0.4579 0.8713
60871. 1.26070 0.778(20) 2604. 0.4578 0.7958
60889. 1.26108 0.767(20) 2612. 0.4577 0.7362
60908. 1.26146 0.673(18) 3023. 0.4576 0.6896
60926. 1.26184 0.643(18) 3213. 0.4575 0.6535
60944. 1.26222 0.625(18) 3219. 0.4575 0.6254
60962. 1.26260 0.608(18) 3250. 0.4574 0.6035
60981. 1.26297 0.590(17) 3315. 0.4573 0.5861
60999. 1.26335 0.581(17) 3338. 0.4572 0.5721
61017. 1.26373 0.558(17) 3382. 0.4571 0.5606
61036. 1.26411 0.532(16) 3824. 0.4570 0.5510
61054. 1.26449 0.504(16) 3910. 0.4570 0.5429
61072. 1.26487 0.512(16) 3807. 0.4569 0.5359
61091. 1.26525 0.511(16) 3857. 0.4568 0.5298
61109. 1.26563 0.544(17) 3525. 0.4567 0.5245
61127. 1.26601 0.506(16) 3876. 0.4566 0.5197
61146. 1.26639 0.489(16) 4007. 0.4565 0.5155
61164. 1.26677 0.487(16) 3953. 0.4565 0.5117
61182. 1.26715 0.503(17) 3659. 0.4564 0.5082
61201. 1.26753 0.498(16) 3787. 0.4563 0.5051
61219. 1.26791 0.488(16) 3948. 0.4562 0.5023
61237. 1.26829 0.496(16) 3863. 0.4561 0.4997
61256. 1.26867 0.480(16) 4033. 0.4561 0.4973
61274. 1.26905 0.508(17) 3587. 0.4560 0.4951
61292. 1.26943 0.468(16) 4136. 0.4559 0.4934
61311. 1.26981 0.496(16) 3723. 0.4558 0.4913
61329. 1.27019 0.500(16) 3695. 0.4557 0.4896
61348. 1.27058 0.488(16) 3955. 0.4557 0.4880
61366. 1.27096 0.489(16) 3858. 0.4556 0.4865
61384. 1.27134 0.485(16) 3840. 0.4555 0.4851
61403. 1.27172 0.464(15) 4210. 0.4554 0.4838
61421. 1.27210 0.461(16) 4055. 0.4554 0.4826
61440. 1.27248 0.474(16) 3879. 0.4553 0.4814
61458. 1.27286 0.482(16) 3851. 0.4552 0.4804
61477. 1.27325 0.451(15) 4226. 0.4551 0.4793
61495. 1.27363 0.477(16) 3987. 0.4551 0.4784
61513. 1.27401 0.478(16) 3961. 0.4550 0.4775
61532. 1.27439 0.493(16) 3793. 0.4549 0.4781
61550. 1.27478 0.478(16) 3898. 0.4548 0.4773
61569. 1.27516 0.484(16) 3770. 0.4548 0.4766
61587. 1.27554 0.492(16) 3710. 0.4547 0.4764
61606. 1.27592 0.449(15) 4229. 0.4546 0.4758
61624. 1.27631 0.459(16) 4022. 0.4546 0.4751
61643. 1.27669 0.486(16) 3857. 0.4545 0.4746
61661. 1.27707 0.484(16) 3807. 0.4544 0.4740
61680. 1.27746 0.483(16) 3859. 0.4544 0.4735
61698. 1.27784 0.490(16) 3892. 0.4543 0.4730
61717. 1.27822 0.492(16) 3812. 0.4542 0.4735
61735. 1.27861 0.462(16) 4097. 0.4541 0.4730
61754. 1.27899 0.486(16) 3839. 0.4541 0.4726
61772. 1.27937 0.492(16) 3778. 0.4540 0.4723
61791. 1.27976 0.474(16) 3896. 0.4539 0.4719
61809. 1.28014 0.491(16) 3779. 0.4539 0.4716
61828. 1.28052 0.479(16) 3860. 0.4538 0.4713
61846. 1.28091 0.474(16) 4043. 0.4537 0.4710
61865. 1.28129 0.452(16) 4082. 0.4537 0.4715
61884. 1.28168 0.497(17) 3601. 0.4536 0.4718
61902. 1.28206 0.501(17) 3609. 0.4536 0.4716
61921. 1.28245 0.496(17) 3663. 0.4535 0.4714
61939. 1.28283 0.458(16) 4048. 0.4534 0.4712
61958. 1.28322 0.506(17) 3582. 0.4534 0.4710
61976. 1.28360 0.501(17) 3666. 0.4533 0.4709
61995. 1.28399 0.525(17) 3446. 0.4532 0.4715
62014. 1.28437 0.473(16) 4054. 0.4532 0.4714
62032. 1.28476 0.508(17) 3525. 0.4531 0.4713
62051. 1.28514 0.513(17) 3582. 0.4531 0.4712
62069. 1.28553 0.497(16) 3791. 0.4530 0.4712
62088. 1.28591 0.506(17) 3496. 0.4530 0.4711
62107. 1.28630 0.462(16) 4022. 0.4529 0.4711
62125. 1.28669 0.485(16) 3850. 0.4528 0.4710
62144. 1.28707 0.471(16) 3736. 0.4528 0.4721
62163. 1.28746 0.504(17) 3660. 0.4527 0.4721
62181. 1.28785 0.485(16) 3798. 0.4527 0.4722
62200. 1.28823 0.487(16) 3803. 0.4526 0.4722
62219. 1.28862 0.484(16) 3715. 0.4526 0.4723
62237. 1.28900 0.446(15) 4229. 0.4525 0.4724
62256. 1.28939 0.476(16) 3690. 0.4525 0.4725
62275. 1.28978 0.479(16) 3823. 0.4524 0.4726
62293. 1.29017 0.478(16) 3827. 0.4524 0.4727
62312. 1.29055 0.503(17) 3548. 0.4523 0.4729
62331. 1.29094 0.476(16) 3897. 0.4523 0.4730
62349. 1.29133 0.473(16) 3813. 0.4522 0.4732
62368. 1.29171 0.489(17) 3669. 0.4522 0.4734
62387. 1.29210 0.489(16) 3794. 0.4521 0.4737
62406. 1.29249 0.488(16) 3752. 0.4521 0.4748
62424. 1.29288 0.495(17) 3621. 0.4520 0.4751
62443. 1.29327 0.497(16) 3715. 0.4520 0.4754
62462. 1.29365 0.487(17) 3574. 0.4519 0.4758
62480. 1.29404 0.488(17) 3656. 0.4519 0.4761
62499. 1.29443 0.472(16) 3768. 0.4519 0.4765
62518. 1.29482 0.472(16) 3834. 0.4518 0.4769
62537. 1.29521 0.475(16) 3799. 0.4518 0.4774
62555. 1.29560 0.475(16) 3838. 0.4517 0.4778
62574. 1.29598 0.506(17) 3499. 0.4517 0.4783
62593. 1.29637 0.491(16) 3895. 0.4517 0.4789
62612. 1.29676 0.478(16) 3824. 0.4516 0.4795
62631. 1.29715 0.478(16) 3833. 0.4516 0.4801
62649. 1.29754 0.489(16) 3680. 0.4515 0.4807
62668. 1.29793 0.440(15) 4188. 0.4515 0.4817
62687. 1.29832 0.488(16) 3709. 0.4515 0.4825
62706. 1.29871 0.445(16) 4103. 0.4514 0.4833
62725. 1.29910 0.505(17) 3619. 0.4514 0.4845
62743. 1.29949 0.477(16) 3960. 0.4514 0.4854
62762. 1.29988 0.520(17) 3510. 0.4513 0.4864
62781. 1.30027 0.471(16) 3904. 0.4513 0.4875
62800. 1.30066 0.490(16) 3706. 0.4513 0.4887
62819. 1.30105 0.470(16) 3885. 0.4512 0.4899
62838. 1.30144 0.477(16) 3741. 0.4512 0.4913
62856. 1.30183 0.475(16) 3841. 0.4512 0.4928
62875. 1.30222 0.518(17) 3279. 0.4512 0.4944
62894. 1.30261 0.493(17) 3653. 0.4511 0.4961
62913. 1.30300 0.526(17) 3415. 0.4511 0.4980
62932. 1.30339 0.479(16) 3877. 0.4511 0.5000
62951. 1.30378 0.459(16) 4088. 0.4511 0.5025
62970. 1.30418 0.517(17) 3431. 0.4510 0.5050
62989. 1.30457 0.513(17) 3572. 0.4510 0.5081
63007. 1.30496 0.532(17) 3316. 0.4510 0.5111
63026. 1.30535 0.519(17) 3473. 0.4510 0.5144
63045. 1.30574 0.523(17) 3565. 0.4509 0.5181
63064. 1.30613 0.505(17) 3536. 0.4509 0.5222
63083. 1.30652 0.517(17) 3524. 0.4509 0.5272
63102. 1.30692 0.546(17) 3280. 0.4509 0.5325
63121. 1.30731 0.564(18) 3101. 0.4509 0.5387
63140. 1.30770 0.530(17) 3513. 0.4508 0.5458
63159. 1.30809 0.566(18) 3200. 0.4508 0.5544
63178. 1.30849 0.561(17) 3320. 0.4508 0.5651
63197. 1.30888 0.591(18) 3165. 0.4508 0.5786
63216. 1.30927 0.656(19) 2702. 0.4508 0.5964
63235. 1.30966 0.644(18) 2926. 0.4508 0.6206
63254. 1.31006 0.684(19) 2679. 0.4508 0.6541
63273. 1.31045 0.709(19) 2632. 0.4508 0.7006
63292. 1.31084 0.785(21) 2363. 0.4507 0.7649
63311. 1.31124 0.875(22) 2132. 0.4507 0.8519
63330. 1.31163 0.934(22) 2095. 0.4507 0.9661
63349. 1.31202 1.065(23) 1829. 0.4507 1.1101
63368. 1.31242 1.239(25) 1600. 0.4507 1.2827
63387. 1.31281 1.427(27) 1359. 0.4507 1.4774
63406. 1.31321 1.678(29) 1165. 0.4507 1.6800
63425. 1.31360 1.867(31) 1042. 0.4507 1.8694
63444. 1.31399 2.048(32) 954. 0.4507 2.0203
63463. 1.31439 2.236(34) 858. 0.4507 2.1085
63482. 1.31478 2.294(34) 851. 0.4507 2.1277
63501. 1.31518 2.41(4) 788. 0.451 2.078
63520. 1.31557 2.154(33) 902. 0.4507 1.9739
63539. 1.31597 1.992(32) 972. 0.4507 1.8379
63558. 1.31636 1.775(30) 1103. 0.4507 1.6921
63577. 1.31676 1.660(30) 1147. 0.4507 1.5544
63596. 1.31715 1.400(26) 1428. 0.4507 1.4377
63615. 1.31755 1.301(26) 1510. 0.4507 1.3496
63634. 1.31794 1.282(26) 1495. 0.4507 1.2938
63653. 1.31834 1.263(25) 1550. 0.4507 1.2709
63672. 1.31873 1.259(26) 1531. 0.4507 1.2782
63691. 1.31913 1.371(27) 1367. 0.4507 1.3104
63711. 1.31952 1.354(26) 1430. 0.4508 1.3593
63730. 1.31992 1.391(27) 1384. 0.4508 1.4146
63749. 1.32032 1.431(27) 1333. 0.4508 1.4632
63768. 1.32071 1.446(27) 1332. 0.4508 1.4908
63787. 1.32111 1.412(27) 1326. 0.4508 1.4860
63806. 1.32150 1.367(27) 1394. 0.4508 1.4455
63825. 1.32190 1.246(26) 1518. 0.4508 1.3751
63844. 1.32230 1.169(25) 1642. 0.4508 1.2864
63864. 1.32270 1.145(25) 1618. 0.4509 1.1920
63883. 1.32309 1.055(24) 1800. 0.4509 1.1027
63902. 1.32349 1.034(24) 1798. 0.4509 1.0261
63921. 1.32389 0.990(23) 1891. 0.4509 0.9662
63940. 1.32428 0.951(22) 2001. 0.4509 0.9246
63959. 1.32468 0.935(22) 2034. 0.4510 0.9015
63979. 1.32508 0.968(23) 1952. 0.4510 0.8966
63998. 1.32548 0.969(22) 1987. 0.4510 0.9102
64017. 1.32587 1.029(23) 1867. 0.4510 0.9440
64036. 1.32627 1.115(24) 1712. 0.4511 1.0008
64055. 1.32667 1.223(25) 1560. 0.4511 1.0855
64075. 1.32707 1.304(26) 1465. 0.4511 1.2047
64094. 1.32747 1.467(28) 1297. 0.4511 1.3660
64113. 1.32786 1.677(30) 1118. 0.4512 1.5779
64132. 1.32826 1.926(32) 981. 0.4512 1.8483
64152. 1.32866 2.196(34) 871. 0.4512 2.1821
64171. 1.32906 2.49(4) 786. 0.451 2.579
64190. 1.32946 2.89(4) 662. 0.451 3.031
64209. 1.32986 3.29(4) 595. 0.451 3.515
64229. 1.33026 3.78(4) 512. 0.451 4.000
64248. 1.33066 4.28(5) 445. 0.451 4.447
64267. 1.33105 4.73(5) 404. 0.451 4.816
64286. 1.33145 5.07(5) 381. 0.451 5.080
64306. 1.33185 5.35(5) 356. 0.452 5.219
64325. 1.33225 5.49(5) 348.0 0.452 5.227
64344. 1.33265 5.40(5) 355. 0.452 5.102
64364. 1.33305 5.27(5) 360. 0.452 4.857
64383. 1.33345 4.82(5) 396. 0.452 4.512
64402. 1.33385 4.28(5) 448. 0.452 4.096
64422. 1.33425 3.81(4) 505. 0.452 3.644
64441. 1.33465 3.24(4) 592. 0.452 3.189
64460. 1.33505 2.78(4) 688. 0.452 2.760
64480. 1.33545 2.40(4) 801. 0.452 2.376
64499. 1.33586 2.035(33) 936. 0.4519 2.0472
64518. 1.33626 1.740(30) 1110. 0.4520 1.7797
64538. 1.33666 1.547(28) 1247. 0.4520 1.5726
64557. 1.33706 1.458(28) 1271. 0.4521 1.4221
64576. 1.33746 1.380(27) 1351. 0.4521 1.3222
64596. 1.33786 1.243(26) 1499. 0.4522 1.2661
64615. 1.33826 1.192(25) 1591. 0.4522 1.2470
64635. 1.33866 1.188(25) 1559. 0.4523 1.2606
64654. 1.33906 1.230(26) 1494. 0.4523 1.2936
64673. 1.33947 1.268(26) 1467. 0.4524 1.3420
64693. 1.33987 1.342(27) 1374. 0.4525 1.3991
64712. 1.34027 1.383(27) 1366. 0.4525 1.4589
64732. 1.34067 1.460(28) 1273. 0.4526 1.5148
64751. 1.34108 1.466(28) 1288. 0.4526 1.5595
64770. 1.34148 1.529(29) 1213. 0.4527 1.5876
64790. 1.34188 1.582(29) 1178. 0.4527 1.5974
64809. 1.34228 1.549(29) 1207. 0.4528 1.5904
64829. 1.34269 1.501(28) 1267. 0.4529 1.5711
64848. 1.34309 1.552(29) 1186. 0.4529 1.5466
64868. 1.34349 1.454(28) 1282. 0.4530 1.5253
64887. 1.34389 1.420(28) 1301. 0.4531 1.5142
64906. 1.34430 1.386(27) 1390. 0.4531 1.5166
64926. 1.34470 1.416(28) 1309. 0.4532 1.5313
64945. 1.34510 1.419(28) 1316. 0.4533 1.5536
64965. 1.34551 1.459(28) 1270. 0.4533 1.5772
64984. 1.34591 1.530(29) 1205. 0.4534 1.5967
65004. 1.34632 1.534(28) 1233. 0.4535 1.6076
65023. 1.34672 1.590(29) 1193. 0.4535 1.6053
65043. 1.34712 1.577(29) 1181. 0.4536 1.5850
65062. 1.34753 1.608(29) 1153. 0.4537 1.5432
65082. 1.34793 1.529(28) 1232. 0.4538 1.4792
65101. 1.34834 1.529(29) 1192. 0.4538 1.3955
65121. 1.34874 1.417(27) 1323. 0.4539 1.2973
65141. 1.34915 1.301(26) 1431. 0.4540 1.1918
65160. 1.34955 1.160(25) 1582. 0.4541 1.0884
65180. 1.34996 1.104(25) 1635. 0.4542 0.9896
65199. 1.35036 0.995(23) 1859. 0.4542 0.9012
65219. 1.35077 0.903(22) 1999. 0.4543 0.8254
65238. 1.35117 0.786(21) 2341. 0.4544 0.7624
65258. 1.35158 0.755(21) 2345. 0.4545 0.7115
65277. 1.35198 0.686(20) 2558. 0.4546 0.6712
65297. 1.35239 0.654(20) 2586. 0.4546 0.6397
65317. 1.35279 0.606(19) 2918. 0.4547 0.6153
65336. 1.35320 0.561(18) 3205. 0.4548 0.5963
65356. 1.35361 0.573(18) 3161. 0.4549 0.5814
65375. 1.35401 0.523(17) 3343. 0.4550 0.5697
65395. 1.35442 0.532(18) 3239. 0.4551 0.5602
65415. 1.35482 0.536(18) 3254. 0.4552 0.5524
65434. 1.35523 0.505(17) 3508. 0.4552 0.5459
65454. 1.35564 0.513(17) 3372. 0.4553 0.5404
65474. 1.35604 0.540(18) 3052. 0.4554 0.5356
65493. 1.35645 0.501(17) 3340. 0.4555 0.5315
65513. 1.35686 0.520(18) 3249. 0.4556 0.5278
65533. 1.35727 0.490(17) 3481. 0.4557 0.5245
65552. 1.35767 0.480(17) 3522. 0.4558 0.5216
65572. 1.35808 0.504(17) 3314. 0.4559 0.5190
65592. 1.35849 0.517(18) 3255. 0.4560 0.5167
65611. 1.35890 0.507(17) 3388. 0.4561 0.5146
65631. 1.35930 0.494(17) 3557. 0.4562 0.5127
65651. 1.35971 0.507(17) 3368. 0.4563 0.5110
65670. 1.36012 0.486(17) 3512. 0.4564 0.5094
65690. 1.36053 0.489(17) 3442. 0.4565 0.5080
65710. 1.36094 0.520(18) 3135. 0.4566 0.5067
65729. 1.36134 0.544(18) 3011. 0.4567 0.5055
65749. 1.36175 0.504(18) 3232. 0.4568 0.5045
65769. 1.36216 0.492(17) 3470. 0.4569 0.5035
65789. 1.36257 0.515(17) 3291. 0.4570 0.5026
65808. 1.36298 0.524(18) 3154. 0.4571 0.5019
65828. 1.36339 0.492(17) 3333. 0.4572 0.5012
65848. 1.36380 0.508(18) 3262. 0.4573 0.5006
65868. 1.36421 0.515(18) 3211. 0.4574 0.5000
65887. 1.36461 0.518(18) 3075. 0.4575 0.4996
65907. 1.36502 0.497(17) 3272. 0.4576 0.4992
65927. 1.36543 0.498(17) 3375. 0.4577 0.4988
65947. 1.36584 0.495(17) 3441. 0.4579 0.4985
65966. 1.36625 0.501(18) 3238. 0.4580 0.4983
65986. 1.36666 0.491(17) 3343. 0.4581 0.4982
66006. 1.36707 0.465(17) 3653. 0.4582 0.4981
66026. 1.36748 0.483(17) 3273. 0.4583 0.4980
66046. 1.36789 0.480(17) 3376. 0.4584 0.4980
66065. 1.36830 0.499(18) 3205. 0.4585 0.5016
66085. 1.36871 0.490(17) 3351. 0.4586 0.5018
66105. 1.36913 0.501(17) 3269. 0.4588 0.5021
66125. 1.36954 0.468(17) 3471. 0.4589 0.5025
66145. 1.36995 0.455(16) 3869. 0.4590 0.5029
66165. 1.37036 0.458(16) 3756. 0.4591 0.5033
66184. 1.37077 0.478(17) 3408. 0.4592 0.5039
66204. 1.37118 0.489(17) 3298. 0.4593 0.5045
66224. 1.37159 0.464(16) 3693. 0.4595 0.5051
66244. 1.37200 0.530(18) 3064. 0.4596 0.5059
66264. 1.37242 0.507(18) 3256. 0.4597 0.5067
66284. 1.37283 0.517(18) 3197. 0.4598 0.5076
66304. 1.37324 0.521(18) 3055. 0.4600 0.5086
66324. 1.37365 0.490(17) 3405. 0.4601 0.5096
66343. 1.37406 0.509(18) 3213. 0.4602 0.5108
66363. 1.37448 0.517(17) 3302. 0.4603 0.5120
66383. 1.37489 0.501(17) 3354. 0.4604 0.5134
66403. 1.37530 0.530(18) 3107. 0.4606 0.5164
66423. 1.37571 0.544(18) 2930. 0.4607 0.5172
66443. 1.37613 0.550(18) 3012. 0.4608 0.5190
66463. 1.37654 0.543(18) 3139. 0.4610 0.5209
66483. 1.37695 0.582(19) 2729. 0.4611 0.5230
66503. 1.37737 0.562(19) 2904. 0.4612 0.5253
66523. 1.37778 0.538(18) 3129. 0.4613 0.5277
66543. 1.37819 0.566(18) 2962. 0.4615 0.5304
66563. 1.37861 0.567(18) 2958. 0.4616 0.5333
66583. 1.37902 0.565(18) 2952. 0.4617 0.5364
66603. 1.37943 0.570(19) 2911. 0.4619 0.5399
66623. 1.37985 0.589(19) 2756. 0.4620 0.5436
66643. 1.38026 0.599(19) 2775. 0.4621 0.5477
66663. 1.38068 0.571(18) 2925. 0.4623 0.5522
66683. 1.38109 0.593(19) 2769. 0.4624 0.5572
66703. 1.38150 0.582(19) 2876. 0.4625 0.5626
66723. 1.38192 0.637(20) 2580. 0.4627 0.5686
66743. 1.38233 0.643(20) 2586. 0.4628 0.5753
66763. 1.38275 0.620(19) 2673. 0.4629 0.5828
66783. 1.38316 0.627(19) 2670. 0.4631 0.5911
66803. 1.38358 0.646(20) 2522. 0.4632 0.6004
66823. 1.38399 0.638(19) 2668. 0.4633 0.6110
66843. 1.38441 0.672(20) 2456. 0.4635 0.6230
66863. 1.38482 0.649(19) 2651. 0.4636 0.6367
66883. 1.38524 0.677(20) 2529. 0.4637 0.6526
66903. 1.38565 0.758(21) 2180. 0.4639 0.6713
66923. 1.38607 0.742(21) 2305. 0.4640 0.6938
66943. 1.38649 0.796(22) 2106. 0.4642 0.7216
66963. 1.38690 0.848(22) 1977. 0.4643 0.7571
66983. 1.38732 0.920(24) 1778. 0.4644 0.8039
67003. 1.38773 0.984(24) 1718. 0.4646 0.8669
67023. 1.38815 1.051(25) 1617. 0.4647 0.9532
67044. 1.38857 1.188(26) 1438. 0.4649 1.0717
67064. 1.38898 1.407(29) 1212. 0.4650 1.2330
67084. 1.38940 1.536(30) 1143. 0.4651 1.4490
67104. 1.38982 1.816(32) 961. 0.4653 1.7314
67124. 1.39024 2.21(4) 792. 0.465 2.090
67144. 1.39065 2.53(4) 694. 0.466 2.530
67164. 1.39107 2.97(4) 593. 0.466 3.047
67184. 1.39149 3.52(4) 500. 0.466 3.628
67205. 1.39190 4.08(5) 430. 0.466 4.234
67225. 1.39232 4.80(5) 364. 0.466 4.809
67245. 1.39274 5.43(6) 318.8 0.466 5.285
67265. 1.39316 5.87(6) 298.7 0.466 5.607
67285. 1.39358 6.25(6) 272.9 0.467 5.742
67306. 1.39399 6.41(6) 265.4 0.467 5.676
67326. 1.39441 6.08(6) 281.3 0.467 5.415
67346. 1.39483 5.73(6) 294.8 0.467 4.986
67366. 1.39525 4.92(5) 350.5 0.467 4.440
67386. 1.39567 4.08(5) 427. 0.467 3.840
67407. 1.39609 3.43(4) 509. 0.467 3.246
67427. 1.39651 2.78(4) 633. 0.468 2.700
67447. 1.39692 2.23(4) 786. 0.468 2.231
67467. 1.39734 1.883(33) 922. 0.4679 1.8485
67487. 1.39776 1.548(30) 1130. 0.4681 1.5519
67508. 1.39818 1.348(28) 1280. 0.4682 1.3313
67528. 1.39860 1.170(26) 1479. 0.4684 1.1732
67548. 1.39902 1.078(25) 1552. 0.4685 1.0644
67568. 1.39944 0.971(24) 1736. 0.4687 0.9933
67589. 1.39986 0.953(24) 1765. 0.4688 0.9515
67609. 1.40028 0.954(24) 1698. 0.4690 0.9331
67629. 1.40070 0.964(24) 1723. 0.4691 0.9372
67650. 1.40112 0.959(24) 1762. 0.4693 0.9634
67670. 1.40154 1.071(25) 1547. 0.4694 1.0138
67690. 1.40196 1.098(25) 1544. 0.4696 1.0919
67711. 1.40238 1.216(27) 1377. 0.4697 1.2015
67731. 1.40280 1.338(28) 1263. 0.4699 1.3462
67751. 1.40322 1.484(29) 1170. 0.4700 1.5278
67771. 1.40365 1.651(31) 1034. 0.4702 1.7463
67792. 1.40407 1.910(34) 874. 0.4703 1.9977
67812. 1.40449 2.16(4) 770. 0.470 2.272
67832. 1.40491 2.49(4) 660. 0.471 2.551
67853. 1.40533 2.69(4) 620. 0.471 2.812
67873. 1.40575 2.87(4) 601. 0.471 3.031
67894. 1.40617 3.21(4) 521. 0.471 3.195
67914. 1.40660 3.39(5) 494. 0.471 3.300
67934. 1.40702 3.43(5) 491. 0.471 3.349
67955. 1.40744 3.38(4) 498. 0.472 3.336
67975. 1.40786 3.33(4) 498. 0.472 3.251
67995. 1.40829 3.05(4) 557. 0.472 3.082
68016. 1.40871 2.81(4) 591. 0.472 2.835
68036. 1.40913 2.36(4) 710. 0.472 2.535
68057. 1.40955 2.019(35) 836. 0.4723 2.2125
68077. 1.40998 1.698(32) 1002. 0.4724 1.8954
68098. 1.41040 1.402(29) 1207. 0.4726 1.6067
68118. 1.41082 1.201(27) 1391. 0.4727 1.3599
68138. 1.41125 1.053(25) 1545. 0.4729 1.1595
68159. 1.41167 0.916(24) 1797. 0.4730 1.0040
68179. 1.41209 0.830(23) 1899. 0.4732 0.8875
68200. 1.41252 0.704(21) 2297. 0.4734 0.8023
68220. 1.41294 0.685(21) 2297. 0.4735 0.7406
68241. 1.41336 0.610(20) 2580. 0.4737 0.6960
68261. 1.41379 0.578(19) 2735. 0.4738 0.6633
68282. 1.41421 0.541(19) 2876. 0.4740 0.6389
68302. 1.41464 0.550(19) 2857. 0.4741 0.6200
68323. 1.41506 0.552(19) 2733. 0.4743 0.6052
68343. 1.41549 0.513(18) 3041. 0.4744 0.5931
68364. 1.41591 0.532(19) 2901. 0.4746 0.5831
68384. 1.41634 0.496(18) 3080. 0.4747 0.5745
68405. 1.41676 0.538(19) 2810. 0.4749 0.5672
68425. 1.41719 0.489(18) 3088. 0.4750 0.5608
68446. 1.41761 0.464(17) 3394. 0.4752 0.5551
68466. 1.41804 0.493(18) 2998. 0.4753 0.5501
68487. 1.41846 0.486(17) 3276. 0.4755 0.5457
68507. 1.41889 0.460(17) 3334. 0.4756 0.5416
68528. 1.41931 0.519(19) 2818. 0.4758 0.5380
68548. 1.41974 0.501(18) 2999. 0.4759 0.5347
68569. 1.42017 0.510(18) 2973. 0.4761 0.5317
68590. 1.42059 0.475(18) 3233. 0.4762 0.5290
68610. 1.42102 0.481(18) 3155. 0.4764 0.5265
68631. 1.42144 0.502(19) 2888. 0.4765 0.5242
68651. 1.42187 0.451(17) 3363. 0.4767 0.5221
68672. 1.42230 0.463(18) 3174. 0.4768 0.5201
68692. 1.42272 0.477(18) 3101. 0.4770 0.5183
68713. 1.42315 0.484(18) 3048. 0.4771 0.5167
68734. 1.42358 0.484(18) 3180. 0.4773 0.5151
68754. 1.42401 0.503(18) 3034. 0.4774 0.5137
68775. 1.42443 0.474(18) 3175. 0.4776 0.5124
68796. 1.42486 0.505(19) 2893. 0.4777 0.5111
68816. 1.42529 0.482(18) 3008. 0.4779 0.5100
68837. 1.42571 0.494(18) 2930. 0.4780 0.5089
68857. 1.42614 0.483(18) 2989. 0.4781 0.5079
68878. 1.42657 0.491(18) 3035. 0.4783 0.5070
68899. 1.42700 0.478(18) 3142. 0.4784 0.5061
68919. 1.42743 0.475(18) 3119. 0.4786 0.5053
68940. 1.42786 0.514(19) 2835. 0.4787 0.5045
68961. 1.42828 0.493(18) 2960. 0.4789 0.5038
68982. 1.42871 0.513(19) 2798. 0.4790 0.5031
69002. 1.42914 0.498(19) 2839. 0.4792 0.5025
69023. 1.42957 0.489(19) 2881. 0.4793 0.5019
69044. 1.43000 0.505(18) 2961. 0.4794 0.5013
69064. 1.43043 0.484(18) 3142. 0.4796 0.5008
69085. 1.43086 0.451(18) 3243. 0.4797 0.5003
69106. 1.43129 0.465(18) 3113. 0.4799 0.4998
69127. 1.43172 0.502(19) 2844. 0.4800 0.4994
69147. 1.43215 0.465(18) 3112. 0.4802 0.4989
69168. 1.43258 0.495(18) 2987. 0.4803 0.4986
69189. 1.43301 0.514(19) 2873. 0.4804 0.4982
69210. 1.43344 0.464(18) 3142. 0.4806 0.4978
69230. 1.43387 0.470(18) 3151. 0.4807 0.4975
69251. 1.43430 0.509(19) 2868. 0.4808 0.4972
69272. 1.43473 0.466(18) 3149. 0.4810 0.4969
69293. 1.43516 0.499(19) 2693. 0.4811 0.4966
69313. 1.43559 0.477(18) 3007. 0.4813 0.4964
69334. 1.43602 0.483(18) 3004. 0.4814 0.4961
69355. 1.43645 0.464(18) 3079. 0.4815 0.4959
69376. 1.43688 0.455(17) 3320. 0.4817 0.4957
69397. 1.43731 0.488(18) 2947. 0.4818 0.4955
69417. 1.43774 0.516(20) 2625. 0.4819 0.4953
69438. 1.43817 0.468(18) 3175. 0.4821 0.4951
69459. 1.43861 0.500(19) 2774. 0.4822 0.4949
69480. 1.43904 0.500(18) 2951. 0.4823 0.4948
69501. 1.43947 0.506(19) 2874. 0.4825 0.4946
69522. 1.43990 0.501(19) 2921. 0.4826 0.4945
69542. 1.44033 0.506(19) 2874. 0.4827 0.4943
69563. 1.44076 0.479(18) 3145. 0.4829 0.4942
69584. 1.44120 0.469(18) 3066. 0.4830 0.4941
69605. 1.44163 0.491(18) 3054. 0.4831 0.4940
69626. 1.44206 0.507(19) 2789. 0.4833 0.4939
69647. 1.44249 0.499(19) 2852. 0.4834 0.4938
69668. 1.44293 0.482(18) 2977. 0.4835 0.4937
69689. 1.44336 0.484(18) 3001. 0.4836 0.4936
69710. 1.44379 0.476(18) 3073. 0.4838 0.4935
69730. 1.44423 0.490(19) 2866. 0.4839 0.4935
69751. 1.44466 0.517(19) 2812. 0.4840 0.4934
69772. 1.44509 0.504(18) 2959. 0.4841 0.4933
69793. 1.44553 0.495(19) 2892. 0.4843 0.4933
69814. 1.44596 0.503(19) 2820. 0.4844 0.4932
69835. 1.44639 0.485(18) 3113. 0.4845 0.4900
69856. 1.44683 0.481(18) 3095. 0.4846 0.4901
69877. 1.44726 0.460(18) 3187. 0.4847 0.4901
69898. 1.44770 0.488(19) 2899. 0.4849 0.4901
69919. 1.44813 0.443(17) 3382. 0.4850 0.4901
69940. 1.44857 0.465(18) 3182. 0.4851 0.4901
69961. 1.44900 0.453(17) 3328. 0.4852 0.4905
69982. 1.44944 0.459(18) 3246. 0.4853 0.4905
70003. 1.44987 0.483(18) 2995. 0.4854 0.4905
70024. 1.45031 0.492(19) 2875. 0.4856 0.4905
70045. 1.45074 0.459(18) 3162. 0.4857 0.4906
70066. 1.45118 0.468(18) 3075. 0.4858 0.4906
70087. 1.45161 0.477(18) 3071. 0.4859 0.4906
70108. 1.45205 0.491(19) 2867. 0.4860 0.4907
70129. 1.45248 0.487(19) 2871. 0.4861 0.4907
70150. 1.45292 0.492(19) 2898. 0.4862 0.4908
70171. 1.45335 0.492(19) 2865. 0.4863 0.4908
70192. 1.45379 0.497(18) 2938. 0.4865 0.4908
70213. 1.45423 0.504(19) 2752. 0.4866 0.4909
70234. 1.45466 0.493(19) 2894. 0.4867 0.4909
70255. 1.45510 0.466(18) 3206. 0.4868 0.4910
70276. 1.45554 0.460(18) 3150. 0.4869 0.4910
70297. 1.45597 0.471(18) 3027. 0.4870 0.4911
70319. 1.45641 0.470(18) 3103. 0.4871 0.4911
70340. 1.45685 0.509(19) 2867. 0.4872 0.4912
70361. 1.45728 0.498(19) 2864. 0.4873 0.4912
70382. 1.45772 0.482(18) 3002. 0.4874 0.4913
70403. 1.45816 0.499(19) 2861. 0.4875 0.4913
70424. 1.45860 0.475(18) 3248. 0.4876 0.4914
70445. 1.45903 0.477(18) 3063. 0.4877 0.4914
70466. 1.45947 0.484(18) 2964. 0.4878 0.4915
70487. 1.45991 0.479(18) 3089. 0.4879 0.4915
70509. 1.46035 0.470(18) 3094. 0.4880 0.4916
70530. 1.46079 0.483(18) 3002. 0.4881 0.4916
70551. 1.46122 0.507(19) 2813. 0.4882 0.4917
70572. 1.46166 0.489(18) 3088. 0.4883 0.4888
70593. 1.46210 0.516(19) 2797. 0.4883 0.4889
70614. 1.46254 0.500(19) 2872. 0.4884 0.4890
70636. 1.46298 0.519(19) 2748. 0.4885 0.4891
70657. 1.46342 0.516(19) 2807. 0.4886 0.4892
70678. 1.46386 0.506(19) 2894. 0.4887 0.4893
70699. 1.46430 0.520(19) 2801. 0.4888 0.4894
70720. 1.46473 0.520(19) 2871. 0.4889 0.4895
70742. 1.46517 0.519(19) 2712. 0.4890 0.4896
70763. 1.46561 0.492(18) 3069. 0.4890 0.4897
70784. 1.46605 0.538(20) 2532. 0.4891 0.4898
70805. 1.46649 0.478(18) 3081. 0.4892 0.4899
70827. 1.46693 0.464(18) 3244. 0.4893 0.4900
70848. 1.46737 0.505(19) 2886. 0.4894 0.4901
70869. 1.46781 0.500(19) 2890. 0.4894 0.4902
70890. 1.46825 0.461(17) 3291. 0.4895 0.4912
70912. 1.46870 0.491(19) 2877. 0.4896 0.4913
70933. 1.46914 0.484(18) 2966. 0.4897 0.4914
70954. 1.46958 0.474(18) 3070. 0.4897 0.4915
70975. 1.47002 0.470(18) 3070. 0.4898 0.4916
70997. 1.47046 0.462(18) 3100. 0.4899 0.4917
71018. 1.47090 0.487(18) 3029. 0.4900 0.4918
71039. 1.47134 0.455(18) 3091. 0.4900 0.4919
71061. 1.47178 0.483(19) 2908. 0.4901 0.4920
71082. 1.47222 0.492(19) 2857. 0.4902 0.4921
71103. 1.47267 0.493(19) 2746. 0.4902 0.4922
71125. 1.47311 0.489(19) 2896. 0.4903 0.4923
71146. 1.47355 0.489(18) 2982. 0.4904 0.4924
71167. 1.47399 0.481(18) 3005. 0.4904 0.4925
71189. 1.47443 0.454(18) 3106. 0.4905 0.4926
71210. 1.47488 0.459(18) 3023. 0.4906 0.4927
71231. 1.47532 0.471(18) 3026. 0.4906 0.4928
71253. 1.47576 0.452(18) 3258. 0.4907 0.4929
71274. 1.47620 0.412(17) 3467. 0.4907 0.4930
71296. 1.47665 0.438(18) 3206. 0.4908 0.4931
71317. 1.47709 0.461(18) 3174. 0.4908 0.4932
71338. 1.47753 0.479(19) 2908. 0.4909 0.4933
71360. 1.47798 0.454(18) 3179. 0.4909 0.4934
71381. 1.47842 0.497(19) 2873. 0.4910 0.4935
71403. 1.47886 0.467(18) 3075. 0.4910 0.4936
71424. 1.47931 0.488(19) 2853. 0.4911 0.4937
71445. 1.47975 0.465(18) 3010. 0.4911 0.4938
71467. 1.48020 0.463(18) 3058. 0.4912 0.4939
71488. 1.48064 0.460(18) 3048. 0.4912 0.4940
71510. 1.48108 0.440(17) 3314. 0.4913 0.4941
71531. 1.48153 0.455(18) 3089. 0.4913 0.4942
71553. 1.48197 0.461(18) 3081. 0.4914 0.4943
71574. 1.48242 0.473(18) 3023. 0.4914 0.4944
71596. 1.48286 0.456(18) 3093. 0.4914 0.4945
71617. 1.48331 0.485(19) 2801. 0.4915 0.4946
71639. 1.48375 0.461(18) 3065. 0.4915 0.4947
71660. 1.48420 0.462(18) 3147. 0.4916 0.4948
71682. 1.48464 0.459(18) 3050. 0.4916 0.4950
71703. 1.48509 0.483(19) 2782. 0.4916 0.4951
71725. 1.48553 0.450(18) 3051. 0.4917 0.4952
71746. 1.48598 0.473(19) 2917. 0.4917 0.4953
71768. 1.48643 0.469(18) 2962. 0.4917 0.4954
71789. 1.48687 0.469(18) 2993. 0.4918 0.4955
71811. 1.48732 0.499(19) 2782. 0.4918 0.4957
71832. 1.48776 0.480(19) 2872. 0.4918 0.4958
71854. 1.48821 0.469(18) 2925. 0.4918 0.4959
71875. 1.48866 0.452(18) 3017. 0.4919 0.4960
71897. 1.48910 0.465(18) 3049. 0.4919 0.4962
71918. 1.48955 0.490(19) 2789. 0.4919 0.4963
71940. 1.49000 0.488(19) 2767. 0.4919 0.4964
71962. 1.49045 0.490(19) 2747. 0.4919 0.4966
71983. 1.49089 0.493(19) 2659. 0.4920 0.4967
72005. 1.49134 0.470(18) 2993. 0.4920 0.4969
72026. 1.49179 0.488(19) 2788. 0.4920 0.4970
72048. 1.49223 0.480(19) 2913. 0.4920 0.4972
72070. 1.49268 0.495(19) 2766. 0.4920 0.4974
72091. 1.49313 0.477(18) 2925. 0.4920 0.4975
72113. 1.49358 0.486(19) 2794. 0.4920 0.4977
72134. 1.49403 0.480(19) 2882. 0.4920 0.4979
72156. 1.49447 0.436(17) 3289. 0.4920 0.4981
72178. 1.49492 0.489(19) 2887. 0.4921 0.4983
72199. 1.49537 0.498(19) 2653. 0.4921 0.4985
72221. 1.49582 0.466(18) 2930. 0.4921 0.4987
72243. 1.49627 0.461(18) 2985. 0.4921 0.4990
72264. 1.49672 0.497(19) 2630. 0.4921 0.4992
72286. 1.49717 0.505(20) 2572. 0.4921 0.4994
72308. 1.49762 0.497(19) 2666. 0.4921 0.4997
72329. 1.49807 0.482(19) 2727. 0.4921 0.5000
72351. 1.49852 0.501(20) 2610. 0.4921 0.5003
72373. 1.49897 0.485(19) 2729. 0.4920 0.5006
72395. 1.49941 0.468(19) 2854. 0.4920 0.5009
72416. 1.49986 0.496(19) 2741. 0.4920 0.5012
72438. 1.50031 0.508(19) 2719. 0.4920 0.5016
72460. 1.50076 0.523(20) 2476. 0.4920 0.5020
72481. 1.50122 0.499(19) 2855. 0.4920 0.5024
72503. 1.50167 0.512(20) 2609. 0.4920 0.5028
72525. 1.50212 0.520(20) 2565. 0.4920 0.5032
72547. 1.50257 0.522(20) 2565. 0.4920 0.5037
72569. 1.50302 0.522(20) 2508. 0.4919 0.5042
72590. 1.50347 0.503(19) 2691. 0.4919 0.5048
72612. 1.50392 0.485(19) 2748. 0.4919 0.5054
72634. 1.50437 0.510(20) 2615. 0.4919 0.5060
72656. 1.50482 0.510(19) 2631. 0.4919 0.5067
72677. 1.50527 0.506(19) 2679. 0.4918 0.5075
72699. 1.50573 0.505(19) 2677. 0.4918 0.5083
72721. 1.50618 0.526(20) 2575. 0.4918 0.5091
72743. 1.50663 0.550(20) 2436. 0.4918 0.5101
72765. 1.50708 0.532(20) 2494. 0.4917 0.5111
72787. 1.50753 0.498(19) 2737. 0.4917 0.5122
72808. 1.50799 0.539(20) 2441. 0.4917 0.5135
72830. 1.50844 0.513(20) 2536. 0.4916 0.5148
72852. 1.50889 0.482(19) 2775. 0.4916 0.5163
72874. 1.50934 0.513(20) 2558. 0.4916 0.5180
72896. 1.50980 0.513(20) 2550. 0.4915 0.5198
72918. 1.51025 0.560(21) 2337. 0.4915 0.5218
72939. 1.51070 0.560(21) 2374. 0.4914 0.5241
72961. 1.51116 0.544(20) 2432. 0.4914 0.5267
72983. 1.51161 0.520(20) 2601. 0.4914 0.5296
73005. 1.51206 0.569(21) 2292. 0.4913 0.5330
73027. 1.51252 0.560(21) 2317. 0.4913 0.5370
73049. 1.51297 0.581(21) 2227. 0.4912 0.5418
73071. 1.51342 0.596(21) 2325. 0.4912 0.5476
73093. 1.51388 0.612(21) 2269. 0.4911 0.5549
73115. 1.51433 0.674(23) 1961. 0.4911 0.5642
73137. 1.51479 0.706(23) 1910. 0.4910 0.5760
73159. 1.51524 0.705(23) 1938. 0.4910 0.5912
73181. 1.51570 0.793(25) 1629. 0.4909 0.6107
73203. 1.51615 0.764(24) 1802. 0.4909 0.6353
73224. 1.51661 0.844(25) 1635. 0.4908 0.6658
73246. 1.51706 0.917(26) 1503. 0.4908 0.7027
73268. 1.51752 0.958(26) 1451. 0.4907 0.7462
73290. 1.51797 0.963(26) 1462. 0.4906 0.7960
73312. 1.51843 1.027(27) 1367. 0.4906 0.8510
73334. 1.51888 1.100(28) 1281. 0.4905 0.9096
73356. 1.51934 1.188(29) 1167. 0.4905 0.9701
73378. 1.51979 1.170(29) 1221. 0.4904 1.0305
73400. 1.52025 1.243(30) 1137. 0.4903 1.0885
73422. 1.52071 1.331(31) 1068. 0.4903 1.1428
73444. 1.52116 1.394(31) 1021. 0.4902 1.1930
73466. 1.52162 1.456(32) 974. 0.4901 1.2412
73489. 1.52208 1.559(33) 923. 0.4900 1.2910
73511. 1.52253 1.650(34) 882. 0.4900 1.3450
73533. 1.52299 1.667(34) 851. 0.4899 1.4034
73555. 1.52345 1.714(35) 822. 0.4898 1.4619
73577. 1.52390 1.683(35) 832. 0.4898 1.5112
73599. 1.52436 1.647(34) 880. 0.4897 1.5391
73621. 1.52482 1.664(34) 875. 0.4896 1.5347
73643. 1.52528 1.567(33) 925. 0.4895 1.4938
73665. 1.52573 1.438(31) 1032. 0.4894 1.4202
73687. 1.52619 1.371(31) 1065. 0.4894 1.3239
73709. 1.52665 1.238(29) 1152. 0.4893 1.2163
73731. 1.52711 1.156(28) 1235. 0.4892 1.1076
73754. 1.52757 1.131(28) 1240. 0.4891 1.0054
73776. 1.52802 1.017(27) 1352. 0.4890 0.9148
73798. 1.52848 0.953(26) 1442. 0.4889 0.8382
73820. 1.52894 0.865(25) 1573. 0.4888 0.7762
73842. 1.52940 0.840(25) 1610. 0.4887 0.7277
73864. 1.52986 0.774(24) 1766. 0.4887 0.6909
73886. 1.53032 0.753(24) 1771. 0.4886 0.6632
73909. 1.53078 0.715(23) 1896. 0.4885 0.6421
73931. 1.53124 0.706(23) 1965. 0.4884 0.6252
73953. 1.53170 0.697(23) 1902. 0.4883 0.6109
73975. 1.53216 0.663(22) 2124. 0.4882 0.5980
73997. 1.53262 0.633(22) 2153. 0.4881 0.5861
74019. 1.53307 0.596(21) 2297. 0.4880 0.5751
74042. 1.53354 0.618(21) 2183. 0.4879 0.5651
74064. 1.53400 0.592(21) 2274. 0.4878 0.5560
74086. 1.53446 0.588(21) 2184. 0.4877 0.5479
74108. 1.53492 0.564(21) 2355. 0.4876 0.5409
74131. 1.53538 0.560(21) 2285. 0.4875 0.5348
74153. 1.53584 0.551(20) 2389. 0.4874 0.5296
74175. 1.53630 0.546(21) 2334. 0.4873 0.5252
74197. 1.53676 0.533(20) 2481. 0.4872 0.5215
74220. 1.53722 0.556(21) 2273. 0.4870 0.5184
74242. 1.53768 0.517(20) 2614. 0.4869 0.5157
74264. 1.53814 0.544(20) 2442. 0.4868 0.5133
74286. 1.53860 0.540(20) 2428. 0.4867 0.5113
74309. 1.53907 0.551(21) 2367. 0.4866 0.5095
74331. 1.53953 0.537(21) 2366. 0.4865 0.5079
74353. 1.53999 0.544(21) 2324. 0.4864 0.5065
74376. 1.54045 0.532(20) 2492. 0.4863 0.5073
74398. 1.54091 0.541(20) 2427. 0.4861 0.5061
74420. 1.54138 0.534(20) 2483. 0.4860 0.5050
74443. 1.54184 0.512(20) 2544. 0.4859 0.5040
74465. 1.54230 0.474(19) 2739. 0.4858 0.5031
74487. 1.54276 0.472(19) 2753. 0.4857 0.5023
74510. 1.54323 0.469(19) 2737. 0.4855 0.5015
74532. 1.54369 0.466(19) 2717. 0.4854 0.5007
74554. 1.54415 0.492(20) 2508. 0.4853 0.5000
74577. 1.54462 0.523(21) 2377. 0.4852 0.4994
74599. 1.54508 0.440(18) 2971. 0.4850 0.4987
74621. 1.54554 0.491(20) 2598. 0.4849 0.4982
74644. 1.54601 0.483(20) 2569. 0.4848 0.4976
74666. 1.54647 0.456(19) 2811. 0.4847 0.4971
74689. 1.54694 0.464(19) 2647. 0.4845 0.4966
74711. 1.54740 0.485(20) 2530. 0.4844 0.4970
74733. 1.54786 0.493(20) 2510. 0.4843 0.4966
74756. 1.54833 0.463(19) 2861. 0.4841 0.4961
74778. 1.54879 0.501(20) 2457. 0.4840 0.4957
74801. 1.54926 0.464(19) 2799. 0.4839 0.4954
74823. 1.54972 0.491(20) 2536. 0.4837 0.4950
74846. 1.55019 0.506(20) 2388. 0.4836 0.4946
74868. 1.55065 0.487(20) 2514. 0.4835 0.4979
74890. 1.55112 0.505(20) 2507. 0.4833 0.4976
74913. 1.55158 0.505(20) 2460. 0.4832 0.4974
74935. 1.55205 0.483(20) 2567. 0.4830 0.4971
74958. 1.55251 0.465(19) 2648. 0.4829 0.4969
74980. 1.55298 0.482(20) 2602. 0.4828 0.4967
75003. 1.55345 0.472(19) 2723. 0.4826 0.4965
75025. 1.55391 0.483(20) 2526. 0.4825 0.4963
75048. 1.55438 0.482(20) 2524. 0.4823 0.4961
75070. 1.55485 0.462(19) 2643. 0.4822 0.4959
75093. 1.55531 0.484(20) 2529. 0.4820 0.4958
75115. 1.55578 0.482(20) 2485. 0.4819 0.4956
75138. 1.55625 0.502(20) 2423. 0.4817 0.4955
75160. 1.55671 0.488(19) 2637. 0.4816 0.4954
75183. 1.55718 0.482(20) 2607. 0.4815 0.4952
75206. 1.55765 0.517(21) 2241. 0.4813 0.4951
75228. 1.55811 0.498(21) 2377. 0.4812 0.4950
75251. 1.55858 0.494(20) 2466. 0.4810 0.4949
75273. 1.55905 0.497(20) 2440. 0.4809 0.4948
75296. 1.55952 0.473(20) 2569. 0.4807 0.4947
75318. 1.55998 0.499(21) 2356. 0.4806 0.4947
75341. 1.56045 0.475(19) 2677. 0.4804 0.4946
75364. 1.56092 0.514(21) 2345. 0.4802 0.4967
75386. 1.56139 0.493(20) 2428. 0.4801 0.4967
75409. 1.56186 0.496(20) 2478. 0.4799 0.4967
75432. 1.56233 0.524(21) 2347. 0.4798 0.4967
75454. 1.56280 0.529(21) 2304. 0.4796 0.4967
75477. 1.56326 0.560(21) 2187. 0.4795 0.4967
75499. 1.56373 0.532(21) 2304. 0.4793 0.4968
75522. 1.56420 0.540(21) 2226. 0.4792 0.4968
75545. 1.56467 0.560(22) 2123. 0.4790 0.4989
75567. 1.56514 0.559(22) 2149. 0.4788 0.4990
75590. 1.56561 0.565(22) 2135. 0.4787 0.4991
75613. 1.56608 0.560(22) 2120. 0.4785 0.4992
75635. 1.56655 0.575(22) 2076. 0.4784 0.4993
75658. 1.56702 0.573(22) 2100. 0.4782 0.4995
75681. 1.56749 0.544(21) 2272. 0.4780 0.5024
75704. 1.56796 0.605(22) 1988. 0.4779 0.5027
75726. 1.56843 0.592(22) 1999. 0.4777 0.5029
75749. 1.56890 0.604(22) 1999. 0.4776 0.5032
75772. 1.56937 0.584(22) 2112. 0.4774 0.5035
75794. 1.56984 0.613(23) 1916. 0.4772 0.5038
75817. 1.57031 0.617(23) 1969. 0.4771 0.5041
75840. 1.57079 0.613(22) 2017. 0.4769 0.5044
75863. 1.57126 0.631(23) 1840. 0.4767 0.5048
75885. 1.57173 0.606(22) 1992. 0.4766 0.5051
75908. 1.57220 0.627(23) 1962. 0.4764 0.5055
75931. 1.57267 0.656(23) 1886. 0.4762 0.5059
75954. 1.57314 0.648(23) 1830. 0.4761 0.5064
75977. 1.57362 0.629(23) 1957. 0.4759 0.5100
75999. 1.57409 0.642(23) 1902. 0.4757 0.5106
76022. 1.57456 0.677(24) 1748. 0.4756 0.5112
76045. 1.57503 0.673(24) 1775. 0.4754 0.5118
76068. 1.57551 0.613(23) 1919. 0.4752 0.5124
76091. 1.57598 0.632(22) 2006. 0.4751 0.5131
76113. 1.57645 0.664(23) 1841. 0.4749 0.5139
76136. 1.57692 0.645(23) 1913. 0.4747 0.5146
76159. 1.57740 0.702(24) 1667. 0.4746 0.5154
76182. 1.57787 0.579(22) 2095. 0.4744 0.5163
76205. 1.57834 0.615(23) 1939. 0.4742 0.5172
76228. 1.57882 0.612(23) 1874. 0.4741 0.5181
76250. 1.57929 0.597(22) 2011. 0.4739 0.5191
76273. 1.57977 0.607(23) 1938. 0.4737 0.5201
76296. 1.58024 0.590(22) 2123. 0.4735 0.5212
76319. 1.58071 0.535(21) 2372. 0.4734 0.5224
76342. 1.58119 0.581(22) 2016. 0.4732 0.5236
76365. 1.58166 0.562(21) 2183. 0.4730 0.5249
76388. 1.58214 0.588(23) 1975. 0.4729 0.5263
76411. 1.58261 0.572(23) 1940. 0.4727 0.5277
76434. 1.58309 0.579(22) 2034. 0.4725 0.5292
76457. 1.58356 0.581(23) 1950. 0.4723 0.5308
76480. 1.58404 0.561(22) 2068. 0.4722 0.5325
76502. 1.58451 0.536(21) 2237. 0.4720 0.5343
76525. 1.58499 0.516(21) 2276. 0.4718 0.5362
76548. 1.58546 0.567(22) 2050. 0.4717 0.5382
76571. 1.58594 0.557(22) 2144. 0.4715 0.5403
76594. 1.58641 0.560(22) 2134. 0.4713 0.5426
76617. 1.58689 0.518(21) 2329. 0.4711 0.5450
76640. 1.58737 0.524(21) 2241. 0.4710 0.5476
76663. 1.58784 0.550(22) 2119. 0.4708 0.5503
76686. 1.58832 0.528(21) 2248. 0.4706 0.5532
76709. 1.58880 0.567(22) 2043. 0.4705 0.5563
76732. 1.58927 0.548(22) 2011. 0.4703 0.5596
76755. 1.58975 0.526(21) 2207. 0.4701 0.5632
76778. 1.59023 0.565(22) 2035. 0.4700 0.5669
76801. 1.59070 0.521(21) 2217. 0.4698 0.5710
76824. 1.59118 0.539(22) 2097. 0.4696 0.5754
76847. 1.59166 0.537(21) 2172. 0.4694 0.5801
76871. 1.59214 0.581(23) 1947. 0.4693 0.5848
76894. 1.59261 0.560(22) 2059. 0.4691 0.5902
76917. 1.59309 0.569(22) 2028. 0.4689 0.5961
76940. 1.59357 0.566(22) 2030. 0.4688 0.6026
76963. 1.59405 0.553(21) 2236. 0.4686 0.6095
76986. 1.59453 0.552(22) 2132. 0.4684 0.6165
77009. 1.59500 0.577(23) 1971. 0.4682 0.6248
77032. 1.59548 0.619(23) 1894. 0.4681 0.6339
77055. 1.59596 0.604(23) 1969. 0.4679 0.6438
77078. 1.59644 0.624(23) 1841. 0.4677 0.6547
77101. 1.59692 0.611(23) 1944. 0.4676 0.6668
77125. 1.59740 0.648(23) 1833. 0.4674 0.6802
77148. 1.59788 0.684(24) 1672. 0.4672 0.6951
77171. 1.59836 0.688(24) 1705. 0.4671 0.7118
77194. 1.59884 0.717(24) 1669. 0.4669 0.7305
77217. 1.59932 0.741(25) 1567. 0.4667 0.7517
77240. 1.59980 0.807(26) 1454. 0.4666 0.7759
77263. 1.60028 0.823(26) 1456. 0.4664 0.8040
77287. 1.60076 0.869(27) 1397. 0.4662 0.8373
77310. 1.60124 0.975(28) 1233. 0.4661 0.8782
77333. 1.60172 1.024(29) 1194. 0.4659 0.9302
77356. 1.60220 1.085(30) 1115. 0.4657 0.9993
77379. 1.60268 1.203(31) 1034. 0.4656 1.0940
77403. 1.60316 1.350(33) 902. 0.4654 1.2265
77426. 1.60364 1.59(4) 762. 0.465 1.412
77449. 1.60412 1.75(4) 699. 0.465 1.668
77472. 1.60460 2.04(4) 602. 0.465 2.013
77496. 1.60508 2.37(4) 521. 0.465 2.458
77519. 1.60557 2.77(5) 455. 0.465 3.009
77542. 1.60605 3.23(5) 392. 0.464 3.657
77565. 1.60653 3.81(5) 335.1 0.464 4.377
77589. 1.60701 4.54(6) 277.1 0.464 5.123
77612. 1.60749 5.34(7) 230.2 0.464 5.841
77635. 1.60798 5.99(7) 204.1 0.464 6.477
77658. 1.60846 6.78(7) 179.2 0.464 6.994
77682. 1.60894 7.39(8) 161.9 0.463 7.370
77705. 1.60942 7.81(8) 155.3 0.463 7.598
77728. 1.60991 8.12(8) 148.3 0.463 7.701
77752. 1.61039 8.14(8) 146.1 0.463 7.732
77775. 1.61087 7.93(8) 154.2 0.463 7.759
77798. 1.61136 8.00(8) 151.6 0.463 7.840
77822. 1.61184 7.96(8) 153.0 0.463 8.006
77845. 1.61232 8.09(8) 148.3 0.462 8.257
77868. 1.61281 8.32(8) 144.4 0.462 8.567
77892. 1.61329 8.76(9) 135.3 0.462 8.885
77915. 1.61378 8.87(9) 133.2 0.462 9.134
77939. 1.61426 8.89(9) 132.9 0.462 9.212
77962. 1.61474 8.87(9) 133.9 0.462 9.029
77985. 1.61523 8.40(8) 141.1 0.462 8.549
78009. 1.61571 7.75(8) 151.2 0.461 7.806
78032. 1.61620 6.77(8) 172.5 0.461 6.886
78055. 1.61668 5.64(7) 211.9 0.461 5.894
78079. 1.61717 4.60(6) 260.4 0.461 4.923
78102. 1.61765 3.73(6) 326.6 0.461 4.041
78126. 1.61814 2.95(5) 413. 0.461 3.289
78149. 1.61862 2.43(5) 491. 0.460 2.681
78173. 1.61911 2.07(4) 571. 0.460 2.212
78196. 1.61960 1.71(4) 706. 0.460 1.865
78220. 1.62008 1.49(4) 781. 0.460 1.618
78243. 1.62057 1.308(33) 905. 0.4599 1.4493
78267. 1.62105 1.200(32) 996. 0.4598 1.3391
78290. 1.62154 1.145(31) 1009. 0.4597 1.2735
78313. 1.62203 1.092(30) 1079. 0.4595 1.2429
78337. 1.62251 1.074(30) 1092. 0.4594 1.2415
78360. 1.62300 1.083(30) 1077. 0.4592 1.2667
78384. 1.62349 1.130(31) 1061. 0.4591 1.3182
78407. 1.62398 1.271(34) 890. 0.4590 1.3971
78431. 1.62446 1.322(34) 864. 0.4589 1.5053
78455. 1.62495 1.431(35) 830. 0.4587 1.6449
78478. 1.62544 1.58(4) 732. 0.459 1.816
78502. 1.62592 1.81(4) 644. 0.458 2.019
78525. 1.62641 1.97(4) 607. 0.458 2.246
78549. 1.62690 2.31(4) 509. 0.458 2.490
78572. 1.62739 2.61(5) 441. 0.458 2.739
78596. 1.62788 2.81(5) 412. 0.458 2.977
78619. 1.62837 3.15(5) 359. 0.458 3.192
78643. 1.62885 3.30(5) 357. 0.458 3.369
78667. 1.62934 3.57(6) 328.8 0.458 3.486
78690. 1.62983 3.81(6) 300.9 0.457 3.523
78714. 1.63032 3.79(6) 306.2 0.457 3.465
78737. 1.63081 3.58(6) 330.2 0.457 3.314
78761. 1.63130 3.33(5) 346.4 0.457 3.087
78785. 1.63179 3.11(5) 374. 0.457 2.811
78808. 1.63228 2.75(5) 418. 0.457 2.513
78832. 1.63277 2.23(4) 527. 0.457 2.217
78856. 1.63326 1.89(4) 627. 0.457 1.940
78879. 1.63375 1.54(4) 759. 0.457 1.692
78903. 1.63424 1.372(35) 829. 0.4565 1.4782
78927. 1.63473 1.186(33) 940. 0.4564 1.2989
78950. 1.63522 0.931(29) 1205. 0.4562 1.1526
78974. 1.63571 0.838(27) 1329. 0.4561 1.0356
78998. 1.63620 0.780(27) 1383. 0.4560 0.9433
79021. 1.63669 0.717(26) 1518. 0.4559 0.8711
79045. 1.63718 0.665(25) 1608. 0.4558 0.8147
79069. 1.63767 0.605(23) 1843. 0.4557 0.7705
79093. 1.63817 0.617(24) 1669. 0.4556 0.7353
79116. 1.63866 0.583(23) 1895. 0.4555 0.7069
79140. 1.63915 0.563(23) 1901. 0.4555 0.6837
79164. 1.63964 0.505(21) 2216. 0.4554 0.6642
79187. 1.64013 0.534(22) 1996. 0.4553 0.6476
79211. 1.64062 0.476(21) 2269. 0.4552 0.6332
79235. 1.64112 0.547(23) 1864. 0.4551 0.6207
79259. 1.64161 0.486(21) 2191. 0.4550 0.6096
79283. 1.64210 0.480(21) 2273. 0.4549 0.5997
79306. 1.64259 0.520(22) 2038. 0.4548 0.5908
79330. 1.64309 0.465(21) 2366. 0.4547 0.5827
79354. 1.64358 0.479(22) 2148. 0.4547 0.5754
79378. 1.64407 0.458(21) 2334. 0.4546 0.5688
79402. 1.64457 0.476(21) 2272. 0.4545 0.5627
79425. 1.64506 0.443(20) 2413. 0.4544 0.5571
79449. 1.64555 0.492(22) 2120. 0.4543 0.5520
79473. 1.64605 0.450(21) 2325. 0.4543 0.5472
79497. 1.64654 0.501(22) 2039. 0.4542 0.5429
79521. 1.64704 0.417(20) 2553. 0.4541 0.5388
79545. 1.64753 0.434(21) 2372. 0.4541 0.5350
79568. 1.64802 0.496(22) 2082. 0.4540 0.5315
79592. 1.64852 0.515(23) 1942. 0.4539 0.5282
79616. 1.64901 0.489(22) 2141. 0.4538 0.5251
79640. 1.64951 0.499(22) 2129. 0.4538 0.5222
79664. 1.65000 0.479(21) 2202. 0.4537 0.5195
79688. 1.65050 0.434(20) 2474. 0.4537 0.5169
79712. 1.65099 0.445(20) 2434. 0.4536 0.5145
79736. 1.65149 0.464(20) 2478. 0.4535 0.5123
79760. 1.65198 0.420(19) 2707. 0.4535 0.5101
79784. 1.65248 0.450(20) 2517. 0.4534 0.5081
79807. 1.65298 0.449(21) 2280. 0.4534 0.5062
79831. 1.65347 0.482(22) 2009. 0.4533 0.5044
79855. 1.65397 0.457(22) 2068. 0.4533 0.5027
79879. 1.65446 0.473(23) 1961. 0.4532 0.5011
79903. 1.65496 0.456(23) 1886. 0.4532 0.4995
79927. 1.65546 0.509(25) 1659. 0.4531 0.4980
79951. 1.65595 0.489(24) 1741. 0.4531 0.4966
79975. 1.65645 0.462(23) 1906. 0.4531 0.4953
79999. 1.65695 0.493(24) 1702. 0.4530 0.4940
80023. 1.65745 0.487(24) 1738. 0.4530 0.4928
80047. 1.65794 0.485(24) 1757. 0.4529 0.4916
80071. 1.65844 0.468(23) 1813. 0.4529 0.4905
80095. 1.65894 0.479(24) 1731. 0.4529 0.4894
80119. 1.65944 0.474(24) 1758. 0.4528 0.4884
80143. 1.65993 0.462(23) 1877. 0.4528 0.4874
80167. 1.66043 0.468(24) 1764. 0.4528 0.4865
80191. 1.66093 0.491(24) 1700. 0.4528 0.4856
80215. 1.66143 0.469(24) 1757. 0.4527 0.4847
80239. 1.66193 0.455(23) 1933. 0.4527 0.4839
80264. 1.66242 0.487(24) 1722. 0.4527 0.4831
80288. 1.66292 0.479(24) 1702. 0.4527 0.4823
80312. 1.66342 0.511(25) 1664. 0.4527 0.4816
80336. 1.66392 0.503(24) 1681. 0.4526 0.4809
80360. 1.66442 0.478(24) 1780. 0.4526 0.4802
80384. 1.66492 0.495(24) 1674. 0.4526 0.4796
80408. 1.66542 0.432(23) 1954. 0.4526 0.4789
80432. 1.66592 0.478(24) 1725. 0.4526 0.4783
80456. 1.66642 0.504(25) 1653. 0.4526 0.4778
80481. 1.66692 0.477(24) 1743. 0.4526 0.4772
80505. 1.66742 0.489(24) 1765. 0.4526 0.4766
80529. 1.66792 0.476(24) 1773. 0.4526 0.4761
80553. 1.66842 0.498(24) 1704. 0.4526 0.4756
80577. 1.66892 0.468(24) 1798. 0.4526 0.4751
80601. 1.66942 0.482(24) 1766. 0.4526 0.4747
80626. 1.66992 0.485(24) 1786. 0.4526 0.4742
80650. 1.67042 0.489(25) 1629. 0.4526 0.4738
80674. 1.67093 0.480(24) 1708. 0.4526 0.4734
80698. 1.67143 0.471(24) 1710. 0.4526 0.4730
80722. 1.67193 0.456(22) 1986. 0.4526 0.4726
80747. 1.67243 0.484(24) 1805. 0.4527 0.4722
80771. 1.67293 0.498(24) 1670. 0.4527 0.4718
80795. 1.67343 0.486(24) 1783. 0.4527 0.4715
80819. 1.67394 0.484(24) 1723. 0.4527 0.4712
80843. 1.67444 0.475(24) 1771. 0.4527 0.4708
80868. 1.67494 0.473(23) 1876. 0.4528 0.4705
80892. 1.67544 0.488(24) 1743. 0.4528 0.4702
80916. 1.67595 0.517(24) 1669. 0.4528 0.4699
80941. 1.67645 0.491(24) 1774. 0.4529 0.4697
80965. 1.67695 0.473(23) 1869. 0.4529 0.4694
80989. 1.67745 0.433(23) 1958. 0.4529 0.4691
81013. 1.67796 0.471(23) 1912. 0.4530 0.4689
81038. 1.67846 0.508(24) 1745. 0.4530 0.4686
81062. 1.67897 0.468(23) 1862. 0.4530 0.4684
81086. 1.67947 0.497(23) 1873. 0.4531 0.4682
81111. 1.67997 0.463(22) 2027. 0.4531 0.4680
81135. 1.68048 0.476(22) 2002. 0.4532 0.4678
81159. 1.68098 0.501(23) 1883. 0.4532 0.4676
81184. 1.68149 0.477(23) 1891. 0.4533 0.4674
81208. 1.68199 0.468(22) 2054. 0.4533 0.4672
81232. 1.68249 0.479(22) 2027. 0.4534 0.4670
81257. 1.68300 0.502(23) 1869. 0.4534 0.4669
81281. 1.68350 0.464(22) 2134. 0.4535 0.4646
81306. 1.68401 0.501(23) 1903. 0.4536 0.4644
81330. 1.68452 0.456(22) 1997. 0.4536 0.4643
81354. 1.68502 0.444(21) 2221. 0.4537 0.4642
81379. 1.68553 0.475(22) 1995. 0.4538 0.4641
81403. 1.68603 0.445(22) 2145. 0.4538 0.4640
81428. 1.68654 0.460(22) 2140. 0.4539 0.4639
81452. 1.68704 0.478(23) 1905. 0.4540 0.4638
81476. 1.68755 0.483(23) 1913. 0.4540 0.4638
81501. 1.68806 0.474(23) 1970. 0.4541 0.4637
81525. 1.68856 0.460(22) 2047. 0.4542 0.4659
81550. 1.68907 0.484(23) 1918. 0.4543 0.4659
81574. 1.68958 0.466(22) 2048. 0.4543 0.4658
81599. 1.69008 0.499(23) 1841. 0.4544 0.4661
81623. 1.69059 0.498(23) 1882. 0.4545 0.4660
81648. 1.69110 0.446(21) 2289. 0.4546 0.4660
81672. 1.69160 0.470(22) 2115. 0.4547 0.4660
81697. 1.69211 0.511(23) 1842. 0.4548 0.4660
81721. 1.69262 0.479(23) 1966. 0.4549 0.4660
81746. 1.69313 0.484(23) 1908. 0.4550 0.4660
81770. 1.69364 0.489(23) 1872. 0.4551 0.4661
81795. 1.69414 0.463(22) 1999. 0.4552 0.4661
81819. 1.69465 0.466(23) 1972. 0.4553 0.4661
81844. 1.69516 0.466(23) 1961. 0.4554 0.4661
81868. 1.69567 0.514(24) 1809. 0.4555 0.4662
81893. 1.69618 0.480(22) 2025. 0.4556 0.4662
81918. 1.69669 0.530(25) 1601. 0.4557 0.4663
81942. 1.69720 0.499(24) 1792. 0.4558 0.4663
81967. 1.69771 0.507(24) 1801. 0.4559 0.4664
81991. 1.69822 0.487(22) 2049. 0.4560 0.4668
82016. 1.69872 0.531(24) 1742. 0.4561 0.4669
82040. 1.69923 0.466(23) 1970. 0.4563 0.4670
82065. 1.69974 0.496(23) 1865. 0.4564 0.4671
82090. 1.70025 0.504(23) 1904. 0.4565 0.4672
82114. 1.70076 0.461(22) 2037. 0.4566 0.4672
82139. 1.70127 0.448(22) 2104. 0.4568 0.4673
82164. 1.70179 0.473(22) 1998. 0.4569 0.4674
82188. 1.70230 0.470(23) 1889. 0.4570 0.4675
82213. 1.70281 0.473(23) 1928. 0.4571 0.4677
82238. 1.70332 0.513(24) 1791. 0.4573 0.4678
82262. 1.70383 0.476(23) 1880. 0.4574 0.4679
82287. 1.70434 0.496(23) 1813. 0.4575 0.4680
82312. 1.70485 0.468(22) 2051. 0.4577 0.4681
82336. 1.70536 0.464(22) 2060. 0.4578 0.4683
82361. 1.70587 0.460(22) 2031. 0.4580 0.4684
82386. 1.70639 0.479(23) 1945. 0.4581 0.4686
82410. 1.70690 0.466(22) 2015. 0.4583 0.4687
82435. 1.70741 0.469(22) 2066. 0.4584 0.4631
82460. 1.70792 0.441(22) 2108. 0.4586 0.4633
82485. 1.70844 0.442(21) 2169. 0.4587 0.4636
82509. 1.70895 0.474(22) 2012. 0.4589 0.4638
82534. 1.70946 0.468(22) 1994. 0.4590 0.4640
82559. 1.70997 0.464(22) 2030. 0.4592 0.4643
82584. 1.71049 0.445(22) 2009. 0.4593 0.4645
82608. 1.71100 0.488(23) 1857. 0.4595 0.4650
82633. 1.71151 0.460(22) 2000. 0.4597 0.4653
82658. 1.71203 0.469(22) 2002. 0.4598 0.4655
82683. 1.71254 0.471(23) 1946. 0.4600 0.4658
82708. 1.71305 0.481(23) 1871. 0.4602 0.4661
82732. 1.71357 0.464(23) 1896. 0.4603 0.4663
82757. 1.71408 0.456(23) 1925. 0.4605 0.4666
82782. 1.71460 0.486(23) 1830. 0.4607 0.4669
82807. 1.71511 0.469(23) 1914. 0.4608 0.4672
82832. 1.71563 0.480(23) 1905. 0.4610 0.4675
82857. 1.71614 0.501(23) 1814. 0.4612 0.4678
82881. 1.71666 0.501(24) 1792. 0.4614 0.4681
82906. 1.71717 0.512(24) 1750. 0.4616 0.4684
82931. 1.71769 0.492(24) 1805. 0.4617 0.4715
82956. 1.71820 0.510(24) 1764. 0.4619 0.4719
82981. 1.71872 0.479(23) 1911. 0.4621 0.4723
83006. 1.71923 0.506(23) 1815. 0.4623 0.4726
83031. 1.71975 0.492(23) 1875. 0.4625 0.4730
83056. 1.72026 0.497(24) 1805. 0.4627 0.4734
83081. 1.72078 0.499(24) 1704. 0.4629 0.4738
83105. 1.72130 0.491(24) 1789. 0.4631 0.4742
83130. 1.72181 0.484(23) 1839. 0.4633 0.4747
83155. 1.72233 0.481(23) 1842. 0.4635 0.4751
83180. 1.72285 0.502(24) 1753. 0.4637 0.4755
83205. 1.72336 0.469(23) 1964. 0.4639 0.4760
83230. 1.72388 0.514(23) 1812. 0.4641 0.4764
83255. 1.72440 0.501(23) 1862. 0.4643 0.4769
83280. 1.72492 0.514(24) 1680. 0.4645 0.4774
83305. 1.72543 0.527(24) 1718. 0.4647 0.4778
83330. 1.72595 0.564(25) 1594. 0.4649 0.4783
83355. 1.72647 0.543(24) 1685. 0.4651 0.4789
83380. 1.72699 0.548(25) 1615. 0.4653 0.4794
83405. 1.72751 0.561(25) 1586. 0.4656 0.4799
83430. 1.72802 0.532(24) 1740. 0.4658 0.4804
83455. 1.72854 0.552(25) 1649. 0.4660 0.4810
83480. 1.72906 0.597(26) 1451. 0.4662 0.4816
83505. 1.72958 0.575(25) 1562. 0.4664 0.4822
83530. 1.73010 0.582(26) 1537. 0.4666 0.4828
83555. 1.73062 0.514(24) 1769. 0.4669 0.4834
83580. 1.73114 0.545(25) 1613. 0.4671 0.4840
83606. 1.73166 0.543(25) 1597. 0.4673 0.4847
83631. 1.73218 0.510(24) 1777. 0.4676 0.4853
83656. 1.73270 0.532(24) 1667. 0.4678 0.4899
83681. 1.73322 0.515(25) 1644. 0.4680 0.4914
83706. 1.73374 0.487(23) 1848. 0.4682 0.4922
83731. 1.73426 0.491(23) 1842. 0.4685 0.4930
83756. 1.73478 0.544(25) 1591. 0.4687 0.4939
83781. 1.73530 0.516(24) 1720. 0.4690 0.4948
83806. 1.73582 0.523(25) 1633. 0.4692 0.4958
83832. 1.73634 0.514(25) 1653. 0.4694 0.4968
83857. 1.73686 0.486(24) 1749. 0.4697 0.4978
83882. 1.73738 0.480(23) 1811. 0.4699 0.4988
83907. 1.73790 0.524(25) 1580. 0.4702 0.4999
83932. 1.73842 0.514(25) 1620. 0.4704 0.5010
83957. 1.73894 0.527(25) 1611. 0.4706 0.5022
83983. 1.73947 0.470(23) 1949. 0.4709 0.5034
84008. 1.73999 0.482(23) 1863. 0.4711 0.5046
84033. 1.74051 0.489(24) 1751. 0.4714 0.5059
84058. 1.74103 0.520(25) 1593. 0.4716 0.5073
84083. 1.74155 0.467(23) 1900. 0.4719 0.5087
84109. 1.74208 0.512(24) 1686. 0.4721 0.5102
84134. 1.74260 0.481(24) 1763. 0.4724 0.5118
84159. 1.74312 0.489(24) 1755. 0.4727 0.5134
84184. 1.74365 0.500(24) 1770. 0.4729 0.5151
84210. 1.74417 0.500(25) 1628. 0.4732 0.5169
84235. 1.74469 0.578(26) 1450. 0.4734 0.5187
84260. 1.74522 0.507(24) 1767. 0.4737 0.5207
84285. 1.74574 0.501(24) 1721. 0.4740 0.5228
84311. 1.74626 0.507(25) 1656. 0.4742 0.5250
84336. 1.74679 0.528(25) 1579. 0.4745 0.5281
84361. 1.74731 0.542(26) 1442. 0.4747 0.5305
84387. 1.74784 0.528(25) 1549. 0.4750 0.5332
84412. 1.74836 0.564(26) 1479. 0.4753 0.5360
84437. 1.74889 0.598(27) 1363. 0.4755 0.5390
84463. 1.74941 0.537(25) 1542. 0.4758 0.5423
84488. 1.74993 0.522(25) 1604. 0.4761 0.5457
84513. 1.75046 0.511(24) 1725. 0.4764 0.5494
84539. 1.75099 0.532(25) 1582. 0.4766 0.5535
84564. 1.75151 0.512(24) 1693. 0.4769 0.5579
84589. 1.75204 0.541(25) 1602. 0.4772 0.5627
84615. 1.75256 0.522(25) 1606. 0.4774 0.5680
84640. 1.75309 0.587(26) 1430. 0.4777 0.5739
84665. 1.75361 0.576(26) 1440. 0.4780 0.5805
84691. 1.75414 0.552(26) 1518. 0.4783 0.5882
84716. 1.75467 0.580(27) 1388. 0.4786 0.5973
84742. 1.75519 0.572(26) 1490. 0.4788 0.6081
84767. 1.75572 0.624(28) 1306. 0.4791 0.6213
84793. 1.75625 0.650(28) 1274. 0.4794 0.6375
84818. 1.75677 0.661(28) 1251. 0.4797 0.6578
84843. 1.75730 0.696(28) 1233. 0.4800 0.6830
84869. 1.75783 0.714(30) 1136. 0.4802 0.7144
84894. 1.75835 0.694(28) 1264. 0.4805 0.7531
84920. 1.75888 0.741(30) 1119. 0.4808 0.8001
84945. 1.75941 0.789(30) 1101. 0.4811 0.8561
84971. 1.75994 0.806(30) 1078. 0.4814 0.9213
84996. 1.76047 0.884(32) 967. 0.4817 0.9951
85022. 1.76099 0.988(34) 869. 0.4820 1.0754
85047. 1.76152 1.066(35) 824. 0.4822 1.1592
85073. 1.76205 1.15(4) 744. 0.483 1.243
85098. 1.76258 1.20(4) 747. 0.483 1.325
85124. 1.76311 1.39(4) 611. 0.483 1.403
85149. 1.76364 1.37(4) 640. 0.483 1.473
85175. 1.76417 1.55(4) 560. 0.484 1.528
85200. 1.76470 1.60(4) 548. 0.484 1.565
85226. 1.76523 1.58(4) 564. 0.484 1.573
85252. 1.76576 1.64(4) 534. 0.485 1.557
85277. 1.76629 1.65(4) 533. 0.485 1.521
85303. 1.76682 1.51(4) 593. 0.485 1.476
85328. 1.76735 1.55(4) 561. 0.485 1.434
85354. 1.76788 1.56(4) 553. 0.486 1.406
85380. 1.76841 1.53(4) 578. 0.486 1.402
85405. 1.76894 1.54(4) 585. 0.486 1.427
85431. 1.76947 1.59(4) 564. 0.487 1.490
85456. 1.77000 1.69(4) 530. 0.487 1.596
85482. 1.77053 1.91(5) 463. 0.487 1.748
85508. 1.77106 2.09(5) 428. 0.488 1.951
85533. 1.77159 2.27(5) 400. 0.488 2.209
85559. 1.77212 2.60(5) 348.6 0.488 2.528
85585. 1.77266 2.91(6) 304.2 0.488 2.910
85610. 1.77319 3.29(6) 267.2 0.489 3.360
85636. 1.77372 3.76(6) 238.4 0.489 3.875
85662. 1.77425 4.10(7) 215.3 0.489 4.449
85687. 1.77478 4.73(7) 180.4 0.490 5.068
85713. 1.77532 5.22(8) 165.5 0.490 5.722
85739. 1.77585 5.69(8) 155.5 0.490 6.395
85765. 1.77638 6.24(8) 139.6 0.491 7.062
85790. 1.77692 6.96(9) 122.6 0.491 7.677
85816. 1.77745 7.08(9) 120.7 0.491 8.167
85842. 1.77798 7.44(9) 114.2 0.491 8.449
85868. 1.77852 7.42(9) 114.2 0.492 8.462
85893. 1.77905 7.36(9) 114.2 0.492 8.185
85919. 1.77958 6.95(9) 119.5 0.492 7.642
85945. 1.78012 6.38(9) 132.6 0.493 6.894
85971. 1.78065 5.62(8) 149.8 0.493 6.030
85996. 1.78119 4.74(7) 179.1 0.493 5.138
86022. 1.78172 4.09(7) 210.6 0.494 4.289
86048. 1.78225 3.52(6) 245.4 0.494 3.530
86074. 1.78279 2.88(6) 298.9 0.494 2.887
86100. 1.78332 2.43(5) 361. 0.494 2.363
86125. 1.78386 2.13(5) 400. 0.495 1.952
86151. 1.78439 1.69(4) 511. 0.495 1.638
86177. 1.78493 1.54(4) 557. 0.495 1.403
86203. 1.78547 1.35(4) 623. 0.496 1.230
86229. 1.78600 1.15(4) 720. 0.496 1.103
86255. 1.78654 1.07(4) 764. 0.496 1.010
86281. 1.78707 0.885(32) 956. 0.4965 0.9403
86307. 1.78761 0.862(32) 953. 0.4968 0.8875
86332. 1.78815 0.793(31) 1027. 0.4971 0.8466
86358. 1.78868 0.744(30) 1112. 0.4974 0.8140
86384. 1.78922 0.699(29) 1197. 0.4977 0.7874
86410. 1.78976 0.713(30) 1118. 0.4980 0.7654
86436. 1.79029 0.663(29) 1176. 0.4983 0.7469
86462. 1.79083 0.616(28) 1254. 0.4986 0.7311
86488. 1.79137 0.620(28) 1286. 0.4989 0.7177
86514. 1.79190 0.596(27) 1378. 0.4992 0.7061
86540. 1.79244 0.539(26) 1515. 0.4995 0.6963
86566. 1.79298 0.634(29) 1187. 0.4998 0.6879
86592. 1.79352 0.552(26) 1440. 0.5001 0.6809
86618. 1.79406 0.576(27) 1390. 0.5004 0.6751
86644. 1.79459 0.560(27) 1376. 0.5007 0.6704
86670. 1.79513 0.569(28) 1317. 0.5010 0.6669
86696. 1.79567 0.608(29) 1186. 0.5013 0.6644
86722. 1.79621 0.609(29) 1187. 0.5016 0.6629
86748. 1.79675 0.586(28) 1309. 0.5019 0.6626
86774. 1.79729 0.616(28) 1277. 0.5022 0.6634
86800. 1.79783 0.595(27) 1325. 0.5025 0.6656
86826. 1.79837 0.619(28) 1251. 0.5028 0.6692
86852. 1.79891 0.634(29) 1164. 0.5031 0.6748
86878. 1.79945 0.660(29) 1199. 0.5034 0.6828
86904. 1.79999 0.703(30) 1121. 0.5037 0.6940
86930. 1.80053 0.749(31) 1023. 0.5040 0.7100
86956. 1.80107 0.792(32) 971. 0.5042 0.7326
86982. 1.80161 0.878(33) 891. 0.5045 0.7647
87008. 1.80215 0.919(34) 856. 0.5048 0.8101
87034. 1.80269 1.03(4) 747. 0.505 0.874
87061. 1.80323 1.09(4) 753. 0.505 0.961
87087. 1.80377 1.19(4) 703. 0.506 1.079
87113. 1.80431 1.40(4) 598. 0.506 1.232
87139. 1.80485 1.52(4) 529. 0.506 1.426
87165. 1.80539 1.74(5) 468. 0.507 1.660
87191. 1.80594 1.87(5) 435. 0.507 1.930
87217. 1.80648 2.23(5) 360. 0.507 2.223
87244. 1.80702 2.54(6) 317.0 0.507 2.516
87270. 1.80756 2.88(6) 283.3 0.508 2.777
87296. 1.80810 3.08(6) 267.5 0.508 2.973
87322. 1.80865 3.20(6) 260.6 0.508 3.078
87348. 1.80919 3.45(7) 235.0 0.509 3.078
87374. 1.80973 3.29(6) 248.5 0.509 2.974
87401. 1.81028 3.15(6) 258.6 0.509 2.779
87427. 1.81082 2.97(6) 274.7 0.509 2.521
87453. 1.81136 2.57(6) 316.0 0.510 2.231
87479. 1.81191 2.23(5) 374. 0.510 1.937
87506. 1.81245 2.03(5) 400. 0.510 1.662
87532. 1.81299 1.76(5) 461. 0.510 1.422
87558. 1.81354 1.53(4) 531. 0.511 1.222
87584. 1.81408 1.38(4) 566. 0.511 1.063
87611. 1.81463 1.16(4) 702. 0.511 0.942
87637. 1.81517 1.17(4) 646. 0.512 0.853
87663. 1.81572 1.02(4) 756. 0.512 0.789
87690. 1.81626 0.97(4) 783. 0.512 0.745
87716. 1.81680 0.93(4) 786. 0.512 0.713
87742. 1.81735 0.881(34) 865. 0.5126 0.6908
87768. 1.81790 0.890(34) 847. 0.5129 0.6742
87795. 1.81844 0.864(33) 908. 0.5132 0.6610
87821. 1.81899 0.881(34) 844. 0.5134 0.6496
87847. 1.81953 0.832(33) 909. 0.5137 0.6393
87874. 1.82008 0.799(32) 965. 0.5140 0.6299
87900. 1.82062 0.756(31) 1063. 0.5142 0.6212
87927. 1.82117 0.740(31) 1010. 0.5145 0.6133
87953. 1.82172 0.771(33) 925. 0.5147 0.6064
87979. 1.82226 0.760(32) 979. 0.5150 0.6006
88006. 1.82281 0.752(32) 958. 0.5153 0.5960
88032. 1.82336 0.709(31) 1035. 0.5155 0.5927
88059. 1.82390 0.793(33) 919. 0.5158 0.5906
88085. 1.82445 0.754(32) 948. 0.5160 0.5900
88111. 1.82500 0.778(33) 905. 0.5163 0.5907
88138. 1.82555 0.689(31) 1031. 0.5165 0.5929
88164. 1.82609 0.719(31) 1015. 0.5168 0.5964
88191. 1.82664 0.747(32) 963. 0.5170 0.6010
88217. 1.82719 0.721(31) 1032. 0.5173 0.6065
88244. 1.82774 0.767(32) 967. 0.5175 0.6123
88270. 1.82829 0.756(31) 1024. 0.5178 0.6176
88297. 1.82884 0.789(32) 965. 0.5180 0.6215
88323. 1.82938 0.800(33) 933. 0.5182 0.6232
88350. 1.82993 0.810(33) 932. 0.5185 0.6220
88376. 1.83048 0.806(33) 908. 0.5187 0.6180
88403. 1.83103 0.783(32) 975. 0.5190 0.6118
88429. 1.83158 0.788(32) 952. 0.5192 0.6043
88456. 1.83213 0.799(33) 913. 0.5194 0.5961
88482. 1.83268 0.724(30) 1091. 0.5197 0.5881
88509. 1.83323 0.716(32) 997. 0.5199 0.5805
88535. 1.83378 0.676(30) 1099. 0.5201 0.5737
88562. 1.83433 0.649(30) 1089. 0.5204 0.5679
88588. 1.83488 0.677(30) 1110. 0.5206 0.5630
88615. 1.83543 0.623(29) 1160. 0.5208 0.5590
88642. 1.83598 0.557(28) 1236. 0.5210 0.5558
88668. 1.83653 0.567(28) 1232. 0.5213 0.5533
88695. 1.83708 0.528(26) 1447. 0.5215 0.5512
88721. 1.83764 0.556(28) 1232. 0.5217 0.5496
88748. 1.83819 0.497(26) 1435. 0.5219 0.5483
88775. 1.83874 0.533(27) 1358. 0.5222 0.5473
88801. 1.83929 0.498(26) 1460. 0.5224 0.5464
88828. 1.83984 0.514(27) 1382. 0.5226 0.5456
88855. 1.84039 0.548(29) 1207. 0.5228 0.5450
88881. 1.84095 0.532(28) 1284. 0.5230 0.5444
88908. 1.84150 0.493(27) 1373. 0.5232 0.5439
88935. 1.84205 0.524(28) 1319. 0.5235 0.5435
88961. 1.84260 0.527(28) 1262. 0.5237 0.5430
88988. 1.84316 0.508(27) 1375. 0.5239 0.5427
89015. 1.84371 0.534(28) 1252. 0.5241 0.5423
89041. 1.84426 0.481(27) 1380. 0.5243 0.5420
89068. 1.84482 0.487(27) 1405. 0.5245 0.5417
89095. 1.84537 0.465(27) 1402. 0.5247 0.5415
89121. 1.84592 0.450(25) 1546. 0.5249 0.5413
89148. 1.84648 0.489(27) 1418. 0.5251 0.5410
89175. 1.84703 0.509(28) 1283. 0.5253 0.5408
89202. 1.84759 0.499(28) 1295. 0.5255 0.5407
89228. 1.84814 0.506(27) 1341. 0.5257 0.5405
89255. 1.84869 0.459(26) 1511. 0.5259 0.5403
89282. 1.84925 0.522(29) 1215. 0.5261 0.5402
89309. 1.84980 0.487(27) 1335. 0.5263 0.5401
89336. 1.85036 0.531(28) 1279. 0.5264 0.5400
89362. 1.85091 0.530(29) 1176. 0.5266 0.5398
89389. 1.85147 0.503(28) 1281. 0.5268 0.5398
89416. 1.85203 0.503(28) 1314. 0.5270 0.5397
89443. 1.85258 0.520(28) 1294. 0.5272 0.5396
89470. 1.85314 0.510(27) 1360. 0.5274 0.5395
89496. 1.85369 0.466(26) 1472. 0.5275 0.5394
89523. 1.85425 0.529(29) 1199. 0.5277 0.5394
89550. 1.85481 0.524(27) 1344. 0.5279 0.5393
89577. 1.85536 0.483(27) 1420. 0.5281 0.5393
89604. 1.85592 0.476(27) 1343. 0.5283 0.5393
89631. 1.85648 0.500(28) 1268. 0.5284 0.5392
89658. 1.85703 0.511(28) 1252. 0.5286 0.5392
89685. 1.85759 0.512(28) 1251. 0.5288 0.5392
89712. 1.85815 0.507(27) 1360. 0.5289 0.5391
89738. 1.85870 0.523(29) 1200. 0.5291 0.5391
89765. 1.85926 0.529(29) 1189. 0.5293 0.5391
89792. 1.85982 0.509(28) 1282. 0.5294 0.5391
89819. 1.86038 0.521(28) 1284. 0.5296 0.5335
89846. 1.86094 0.515(28) 1306. 0.5297 0.5336
89873. 1.86149 0.533(29) 1215. 0.5299 0.5336
89900. 1.86205 0.503(28) 1295. 0.5301 0.5337
89927. 1.86261 0.506(27) 1384. 0.5302 0.5338
89954. 1.86317 0.558(30) 1133. 0.5304 0.5339
89981. 1.86373 0.513(28) 1291. 0.5305 0.5339
90008. 1.86429 0.515(28) 1240. 0.5307 0.5340
90035. 1.86485 0.534(29) 1187. 0.5308 0.5341
90062. 1.86541 0.527(29) 1222. 0.5310 0.5342
90089. 1.86597 0.463(25) 1540. 0.5311 0.5343
90116. 1.86653 0.500(28) 1275. 0.5313 0.5343
90143. 1.86709 0.521(29) 1228. 0.5314 0.5344
90170. 1.86765 0.525(29) 1224. 0.5316 0.5345
90197. 1.86821 0.516(29) 1217. 0.5317 0.5346
90224. 1.86877 0.513(29) 1226. 0.5318 0.5347
90251. 1.86933 0.495(27) 1350. 0.5320 0.5348
90278. 1.86989 0.496(28) 1278. 0.5321 0.5348
90305. 1.87045 0.549(30) 1140. 0.5322 0.5349
90333. 1.87101 0.525(29) 1186. 0.5324 0.5350
90360. 1.87157 0.541(29) 1155. 0.5325 0.5351
90387. 1.87214 0.544(30) 1106. 0.5326 0.5352
90414. 1.87270 0.516(29) 1212. 0.5328 0.5353
90441. 1.87326 0.517(29) 1200. 0.5329 0.5353
90468. 1.87382 0.527(29) 1171. 0.5330 0.5354
90495. 1.87438 0.497(28) 1292. 0.5331 0.5355
90522. 1.87495 0.489(28) 1262. 0.5333 0.5356
90550. 1.87551 0.508(29) 1173. 0.5334 0.5357
90577. 1.87607 0.508(28) 1287. 0.5335 0.5357
90604. 1.87663 0.504(27) 1323. 0.5336 0.5358
90631. 1.87720 0.477(27) 1394. 0.5337 0.5359
90658. 1.87776 0.485(28) 1294. 0.5339 0.5360
90686. 1.87832 0.489(28) 1271. 0.5340 0.5361
90713. 1.87889 0.497(28) 1268. 0.5341 0.5361
90740. 1.87945 0.512(28) 1267. 0.5342 0.5362
90767. 1.88002 0.448(25) 1552. 0.5343 0.5363
90794. 1.88058 0.508(28) 1288. 0.5344 0.5364
90822. 1.88114 0.567(30) 1098. 0.5345 0.5364
90849. 1.88171 0.490(28) 1299. 0.5346 0.5353
90876. 1.88227 0.497(28) 1308. 0.5347 0.5354
90903. 1.88284 0.478(27) 1330. 0.5348 0.5355
90931. 1.88340 0.485(28) 1321. 0.5349 0.5356
90958. 1.88397 0.527(29) 1191. 0.5350 0.5357
90985. 1.88453 0.518(28) 1232. 0.5351 0.5358
91013. 1.88510 0.511(28) 1253. 0.5352 0.5359
91040. 1.88566 0.525(29) 1210. 0.5353 0.5359
91067. 1.88623 0.508(29) 1225. 0.5354 0.5360
91094. 1.88680 0.521(29) 1152. 0.5355 0.5411
91122. 1.88736 0.498(28) 1318. 0.5356 0.5413
91149. 1.88793 0.529(29) 1167. 0.5357 0.5414
91176. 1.88849 0.505(29) 1206. 0.5358 0.5416
91204. 1.88906 0.520(29) 1194. 0.5359 0.5417
91231. 1.88963 0.555(30) 1144. 0.5360 0.5419
91259. 1.89020 0.523(30) 1136. 0.5361 0.5420
91286. 1.89076 0.535(29) 1191. 0.5362 0.5422
91313. 1.89133 0.510(28) 1269. 0.5362 0.5423
91341. 1.89190 0.517(29) 1155. 0.5363 0.5425
91368. 1.89246 0.558(31) 1066. 0.5364 0.5426
91396. 1.89303 0.474(28) 1315. 0.5365 0.5428
91423. 1.89360 0.551(30) 1114. 0.5366 0.5429
91450. 1.89417 0.515(29) 1230. 0.5366 0.5431
91478. 1.89474 0.561(30) 1097. 0.5367 0.5433
91505. 1.89531 0.517(28) 1237. 0.5368 0.5434
91533. 1.89587 0.515(28) 1238. 0.5369 0.5436
91560. 1.89644 0.504(28) 1296. 0.5370 0.5437
91588. 1.89701 0.533(29) 1162. 0.5370 0.5439
91615. 1.89758 0.508(27) 1332. 0.5371 0.5440
91643. 1.89815 0.505(28) 1290. 0.5372 0.5442
91670. 1.89872 0.500(28) 1314. 0.5372 0.5444
91698. 1.89929 0.491(28) 1313. 0.5373 0.5445
91725. 1.89986 0.522(29) 1211. 0.5374 0.5447
91753. 1.90043 0.532(30) 1093. 0.5374 0.5449
91780. 1.90100 0.469(28) 1318. 0.5375 0.5450
91808. 1.90157 0.514(29) 1230. 0.5376 0.5452
91835. 1.90214 0.487(28) 1285. 0.5376 0.5454
91863. 1.90271 0.499(29) 1225. 0.5377 0.5455
91890. 1.90328 0.496(29) 1189. 0.5378 0.5457
91918. 1.90385 0.553(31) 1051. 0.5378 0.5578
91945. 1.90443 0.502(29) 1201. 0.5379 0.5582
91973. 1.90500 0.555(30) 1092. 0.5380 0.5585
92001. 1.90557 0.502(28) 1239. 0.5380 0.5589
92028. 1.90614 0.588(31) 1011. 0.5381 0.5589
92056. 1.90671 0.518(29) 1229. 0.5381 0.5593
92083. 1.90728 0.503(28) 1233. 0.5382 0.5597
92111. 1.90786 0.521(30) 1115. 0.5382 0.5601
92139. 1.90843 0.580(31) 1017. 0.5383 0.5605
92166. 1.90900 0.570(31) 1021. 0.5384 0.5609
92194. 1.90957 0.544(30) 1090. 0.5384 0.5613
92222. 1.91015 0.578(32) 978. 0.5385 0.5618
92249. 1.91072 0.596(33) 946. 0.5385 0.5622
92277. 1.91129 0.562(31) 1012. 0.5386 0.5627
92305. 1.91187 0.515(29) 1161. 0.5386 0.5631
92332. 1.91244 0.536(30) 1088. 0.5387 0.5636
92360. 1.91301 0.542(30) 1106. 0.5387 0.5641
92388. 1.91359 0.553(30) 1111. 0.5388 0.5646
92415. 1.91416 0.520(29) 1186. 0.5388 0.5651
92443. 1.91474 0.559(30) 1109. 0.5389 0.5656
92471. 1.91531 0.515(29) 1188. 0.5389 0.5661
92499. 1.91589 0.507(30) 1118. 0.5390 0.5667
92526. 1.91646 0.538(30) 1125. 0.5390 0.5672
92554. 1.91704 0.519(30) 1139. 0.5391 0.5678
92582. 1.91761 0.536(31) 1045. 0.5391 0.5684
92610. 1.91819 0.533(31) 1067. 0.5391 0.5690
92638. 1.91876 0.508(29) 1194. 0.5392 0.5696
92665. 1.91934 0.520(30) 1142. 0.5392 0.5702
92693. 1.91991 0.502(29) 1190. 0.5393 0.5709
92721. 1.92049 0.579(32) 956. 0.5393 0.5715
92749. 1.92107 0.575(32) 986. 0.5394 0.5722
92777. 1.92164 0.503(29) 1197. 0.5394 0.5729
92804. 1.92222 0.499(29) 1192. 0.5395 0.5736
92832. 1.92280 0.492(29) 1205. 0.5395 0.5744
92860. 1.92337 0.514(29) 1175. 0.5395 0.5751
92888. 1.92395 0.542(31) 1027. 0.5396 0.5759
92916. 1.92453 0.531(31) 1035. 0.5396 0.5767
92944. 1.92510 0.503(30) 1120. 0.5397 0.5775
92972. 1.92568 0.502(30) 1141. 0.5397 0.5784
92999. 1.92626 0.535(30) 1092. 0.5398 0.5793
93027. 1.92684 0.511(29) 1171. 0.5398 0.5802
93055. 1.92742 0.523(30) 1098. 0.5398 0.5811
93083. 1.92799 0.516(29) 1176. 0.5399 0.5821
93111. 1.92857 0.541(31) 1032. 0.5399 0.5831
93139. 1.92915 0.534(31) 1040. 0.5400 0.5842
93167. 1.92973 0.492(28) 1244. 0.5400 0.5852
93195. 1.93031 0.561(31) 1014. 0.5400 0.5864
93223. 1.93089 0.590(33) 933. 0.5401 0.5875
93251. 1.93147 0.586(33) 922. 0.5401 0.5887
93279. 1.93205 0.626(34) 883. 0.5402 0.5899
93307. 1.93263 0.571(32) 986. 0.5402 0.5912
93335. 1.93321 0.566(32) 975. 0.5403 0.5925
93363. 1.93379 0.577(32) 966. 0.5403 0.5939
93391. 1.93437 0.569(32) 947. 0.5403 0.5953
93419. 1.93495 0.583(33) 940. 0.5404 0.5968
93447. 1.93553 0.559(31) 1009. 0.5404 0.5984
93475. 1.93611 0.557(31) 1055. 0.5405 0.6000
93503. 1.93669 0.552(31) 1048. 0.5405 0.6016
93531. 1.93727 0.582(32) 958. 0.5405 0.6034
93559. 1.93785 0.559(31) 1054. 0.5406 0.6052
93587. 1.93843 0.630(34) 869. 0.5406 0.6071
93615. 1.93902 0.586(31) 1014. 0.5407 0.6091
93643. 1.93960 0.655(33) 897. 0.5407 0.6111
93671. 1.94018 0.635(32) 948. 0.5408 0.6132
93699. 1.94076 0.646(34) 857. 0.5408 0.6155
93728. 1.94134 0.651(34) 863. 0.5409 0.6178
93756. 1.94193 0.657(34) 882. 0.5409 0.6203
93784. 1.94251 0.635(32) 947. 0.5409 0.6229
93812. 1.94309 0.698(35) 828. 0.5410 0.6256
93840. 1.94368 0.68(4) 809. 0.541 0.628
93868. 1.94426 0.693(35) 819. 0.5411 0.6313
93896. 1.94484 0.671(35) 831. 0.5411 0.6345
93925. 1.94543 0.689(34) 872. 0.5412 0.6377
93953. 1.94601 0.79(4) 746. 0.541 0.641
93981. 1.94659 0.77(4) 741. 0.541 0.645
94009. 1.94718 0.719(34) 848. 0.5413 0.6487
94037. 1.94776 0.76(4) 799. 0.541 0.653
94066. 1.94835 0.81(4) 707. 0.541 0.657
94094. 1.94893 0.79(4) 713. 0.541 0.662
94122. 1.94952 0.88(4) 640. 0.542 0.666
94150. 1.95010 0.91(4) 634. 0.542 0.671
94178. 1.95069 0.85(4) 696. 0.542 0.677
94207. 1.95127 0.83(4) 683. 0.542 0.683
94235. 1.95186 0.89(4) 652. 0.542 0.689
94263. 1.95244 0.93(4) 603. 0.542 0.695
94292. 1.95303 0.95(4) 607. 0.542 0.702
94320. 1.95361 0.88(4) 690. 0.542 0.710
94348. 1.95420 0.94(4) 633. 0.542 0.718
94376. 1.95479 0.87(4) 676. 0.542 0.726
94405. 1.95537 0.92(4) 601. 0.542 0.735
94433. 1.95596 0.86(4) 701. 0.542 0.745
94461. 1.95655 0.90(4) 612. 0.542 0.756
94490. 1.95713 0.84(4) 703. 0.542 0.768
94518. 1.95772 0.87(4) 640. 0.542 0.780
94546. 1.95831 0.82(4) 689. 0.542 0.794
94575. 1.95890 0.85(4) 675. 0.542 0.808
94603. 1.95948 0.93(4) 605. 0.543 0.825
94632. 1.96007 0.93(4) 607. 0.543 0.842
94660. 1.96066 0.90(4) 627. 0.543 0.862
94688. 1.96125 0.91(4) 627. 0.543 0.883
94717. 1.96184 0.93(4) 627. 0.543 0.906
94745. 1.96242 0.94(4) 608. 0.543 0.933
94774. 1.96301 0.99(4) 596. 0.543 0.962
94802. 1.96360 1.07(4) 537. 0.543 0.995
94830. 1.96419 1.11(4) 508. 0.543 1.032
94859. 1.96478 1.21(5) 472. 0.543 1.075
94887. 1.96537 1.25(5) 466. 0.543 1.125
94916. 1.96596 1.37(5) 427. 0.543 1.185
94944. 1.96655 1.49(5) 393. 0.543 1.257
94973. 1.96714 1.69(5) 340.0 0.544 1.345
95001. 1.96773 1.88(6) 311.7 0.544 1.456
95030. 1.96832 1.92(6) 312.4 0.544 1.596
95058. 1.96891 2.14(6) 279.9 0.544 1.775
95087. 1.96950 2.42(6) 243.0 0.544 2.000
95115. 1.97009 2.64(7) 232.3 0.544 2.284
95144. 1.97068 2.95(7) 200.3 0.544 2.635
95172. 1.97128 3.37(8) 176.1 0.544 3.062
95201. 1.97187 3.88(8) 154.2 0.544 3.572
95230. 1.97246 4.40(9) 128.7 0.544 4.167
95258. 1.97305 4.86(9) 120.5 0.544 4.841
95287. 1.97364 5.51(10) 104.3 0.545 5.583
95315. 1.97423 6.21(10) 92.1 0.545 6.368
95344. 1.97483 6.84(11) 84.3 0.545 7.161
95372. 1.97542 7.97(12) 70.3 0.545 7.921
95401. 1.97601 8.51(12) 66.3 0.545 8.622
95430. 1.97661 9.55(13) 58.5 0.545 9.265
95458. 1.97720 10.33(14) 52.8 0.545 9.883
95487. 1.97779 11.36(14) 48.2 0.545 10.527
95516. 1.97839 12.37(15) 43.5 0.545 11.233
95544. 1.97898 13.04(16) 41.3 0.545 12.009
95573. 1.97957 13.71(16) 38.9 0.546 12.814
95602. 1.98017 14.36(16) 37.0 0.546 13.549
95630. 1.98076 14.08(16) 38.2 0.546 14.073
95659. 1.98136 13.95(16) 38.1 0.546 14.237
95688. 1.98195 13.30(16) 40.2 0.546 13.946
95716. 1.98254 12.44(15) 43.5 0.546 13.203
95745. 1.98314 11.09(14) 49.9 0.546 12.100
95774. 1.98373 9.87(13) 56.3 0.546 10.772
95803. 1.98433 8.79(13) 62.5 0.547 9.357
95831. 1.98492 7.46(12) 75.5 0.547 7.966
95860. 1.98552 6.32(10) 90.9 0.547 6.676
95889. 1.98612 5.52(10) 103.9 0.547 5.536
95918. 1.98671 4.68(9) 124.7 0.547 4.566
95946. 1.98731 4.15(9) 138.1 0.547 3.770
95975. 1.98790 3.59(8) 157.0 0.547 3.134
96004. 1.98850 3.01(7) 192.6 0.547 2.638
96033. 1.98910 2.54(7) 227.3 0.548 2.257
96062. 1.98969 2.36(6) 242.0 0.548 1.968
96090. 1.99029 1.97(6) 291.8 0.548 1.748
96119. 1.99089 1.81(6) 312.0 0.548 1.581
96148. 1.99149 1.59(5) 353. 0.548 1.451
96177. 1.99208 1.38(5) 419. 0.548 1.348
96206. 1.99268 1.26(5) 426. 0.548 1.265
96235. 1.99328 1.17(5) 452. 0.549 1.197
96263. 1.99388 1.05(4) 513. 0.549 1.139
96292. 1.99448 1.06(5) 480. 0.549 1.090
96321. 1.99507 1.00(4) 562. 0.549 1.047
96350. 1.99567 0.85(4) 640. 0.549 1.009
96379. 1.99627 0.80(4) 649. 0.549 0.975
96408. 1.99687 0.79(4) 628. 0.550 0.946
96437. 1.99747 0.76(4) 649. 0.550 0.919
96466. 1.99807 0.81(4) 592. 0.550 0.895
96495. 1.99867 0.75(4) 633. 0.550 0.873
96524. 1.99927 0.76(4) 610. 0.550 0.853
96553. 1.99987 0.74(4) 629. 0.550 0.835
96582. 2.00047 0.70(4) 665. 0.551 0.819
96611. 2.00107 0.68(4) 673. 0.551 0.804
96640. 2.00167 0.70(4) 650. 0.551 0.790
96669. 2.00227 0.69(4) 666. 0.551 0.778
96698. 2.00287 0.67(4) 697. 0.551 0.766
96727. 2.00347 0.60(4) 768. 0.551 0.755
96756. 2.00407 0.63(4) 727. 0.552 0.745
96785. 2.00467 0.58(4) 781. 0.552 0.736
96814. 2.00528 0.67(4) 639. 0.552 0.728
96843. 2.00588 0.65(4) 696. 0.552 0.720
96872. 2.00648 0.68(4) 660. 0.552 0.712
96901. 2.00708 0.63(4) 685. 0.553 0.706
96930. 2.00768 0.62(4) 732. 0.553 0.699
96959. 2.00829 0.67(4) 619. 0.553 0.693
96988. 2.00889 0.62(4) 725. 0.553 0.688
97017. 2.00949 0.57(4) 783. 0.553 0.682
97046. 2.01009 0.62(4) 728. 0.554 0.677
97075. 2.01070 0.554(34) 857. 0.5538 0.6728
97104. 2.01130 0.58(4) 756. 0.554 0.668
97134. 2.01190 0.60(4) 719. 0.554 0.664
97163. 2.01251 0.66(4) 647. 0.554 0.661
97192. 2.01311 0.60(4) 736. 0.555 0.657
97221. 2.01372 0.543(35) 824. 0.5549 0.6535
97250. 2.01432 0.59(4) 725. 0.555 0.650
97279. 2.01492 0.65(4) 648. 0.555 0.647
97309. 2.01553 0.536(35) 829. 0.5555 0.6443
97338. 2.01613 0.65(4) 632. 0.556 0.642
97367. 2.01674 0.58(4) 727. 0.556 0.639
97396. 2.01734 0.60(4) 706. 0.556 0.637
97425. 2.01795 0.57(4) 742. 0.556 0.634
97455. 2.01855 0.62(4) 679. 0.557 0.632
97484. 2.01916 0.59(4) 741. 0.557 0.630
97513. 2.01977 0.58(4) 737. 0.557 0.628
97542. 2.02037 0.58(4) 709. 0.557 0.626
97572. 2.02098 0.59(4) 743. 0.558 0.624
97601. 2.02158 0.56(4) 745. 0.558 0.623
97630. 2.02219 0.61(4) 707. 0.558 0.621
97659. 2.02280 0.61(4) 695. 0.558 0.619
97689. 2.02340 0.54(4) 773. 0.559 0.618
97718. 2.02401 0.61(4) 728. 0.559 0.617
97747. 2.02462 0.67(4) 602. 0.559 0.615
97777. 2.02523 0.62(4) 695. 0.559 0.614
97806. 2.02583 0.66(4) 736. 0.559 0.613
97835. 2.02644 0.74(4) 608. 0.560 0.612
97865. 2.02705 0.86(4) 530. 0.560 0.611
97894. 2.02766 0.85(4) 522. 0.560 0.610
97923. 2.02827 0.81(4) 538. 0.560 0.609
97953. 2.02888 0.72(4) 610. 0.561 0.608
97982. 2.02948 0.64(4) 643. 0.561 0.607
98012. 2.03009 0.63(4) 677. 0.561 0.606
98041. 2.03070 0.68(4) 595. 0.562 0.605
98070. 2.03131 0.63(4) 665. 0.562 0.604
98100. 2.03192 0.59(4) 741. 0.562 0.604
98129. 2.03253 0.61(4) 740. 0.562 0.603
98159. 2.03314 0.56(4) 759. 0.563 0.602
98188. 2.03375 0.62(4) 638. 0.563 0.602
98218. 2.03436 0.65(4) 611. 0.563 0.601
98247. 2.03497 0.63(4) 678. 0.563 0.600
98277. 2.03558 0.60(4) 679. 0.564 0.600
98306. 2.03619 0.62(4) 659. 0.564 0.599
98336. 2.03680 0.58(4) 765. 0.564 0.599
98365. 2.03741 0.58(4) 737. 0.564 0.598
98395. 2.03803 0.52(4) 805. 0.565 0.598
98424. 2.03864 0.58(4) 753. 0.565 0.598
98454. 2.03925 0.54(4) 796. 0.565 0.597
98483. 2.03986 0.56(4) 760. 0.566 0.597
98513. 2.04047 0.66(4) 605. 0.566 0.596
98542. 2.04109 0.59(4) 763. 0.566 0.596
98572. 2.04170 0.58(4) 711. 0.566 0.596
98601. 2.04231 0.59(4) 719. 0.567 0.596
98631. 2.04292 0.55(4) 773. 0.567 0.595
98661. 2.04354 0.57(4) 739. 0.567 0.595
98690. 2.04415 0.62(4) 695. 0.568 0.595
98720. 2.04476 0.61(4) 653. 0.568 0.595
98749. 2.04538 0.55(4) 757. 0.568 0.594
98779. 2.04599 0.55(4) 790. 0.568 0.594
98809. 2.04660 0.56(4) 774. 0.569 0.594
98838. 2.04722 0.59(4) 768. 0.569 0.594
98868. 2.04783 0.539(34) 863. 0.5692 0.5936
98898. 2.04845 0.65(4) 659. 0.570 0.593
98927. 2.04906 0.59(4) 761. 0.570 0.593
98957. 2.04968 0.528(34) 869. 0.5701 0.5932
98987. 2.05029 0.59(4) 718. 0.570 0.593
99016. 2.05091 0.57(4) 784. 0.571 0.593
99046. 2.05152 0.59(4) 758. 0.571 0.593
99076. 2.05214 0.62(4) 689. 0.571 0.593
99105. 2.05275 0.546(35) 819. 0.5716 0.5928
99135. 2.05337 0.516(33) 909. 0.5719 0.5927
99165. 2.05398 0.61(4) 707. 0.572 0.593
99195. 2.05460 0.58(4) 737. 0.572 0.593
99224. 2.05522 0.57(4) 751. 0.573 0.593
99254. 2.05583 0.544(34) 859. 0.5730 0.5925
99284. 2.05645 0.564(34) 864. 0.5733 0.5925
99314. 2.05707 0.550(34) 870. 0.5736 0.5925
99344. 2.05769 0.570(35) 827. 0.5739 0.5925
99373. 2.05830 0.534(34) 856. 0.5742 0.5925
99403. 2.05892 0.550(34) 845. 0.5745 0.5925
99433. 2.05954 0.568(34) 844. 0.5748 0.5925
99463. 2.06016 0.57(4) 797. 0.575 0.593
99493. 2.06077 0.63(4) 663. 0.575 0.593
99522. 2.06139 0.61(4) 715. 0.576 0.593
99552. 2.06201 0.522(33) 923. 0.5760 0.5927
99582. 2.06263 0.523(32) 977. 0.5763 0.5927
99612. 2.06325 0.465(30) 1114. 0.5766 0.5928
99642. 2.06387 0.486(31) 1074. 0.5769 0.5928
99672. 2.06449 0.408(27) 1419. 0.5771 0.5771
99702. 2.06511 0.419(27) 1378. 0.5774 0.5774
99732. 2.06573 0.52(4) 804. 0.578 0.578
99762. 2.06635 0.57(4) 760. 0.578 0.578
99792. 2.06697 0.55(4) 810. 0.578 0.578
99821. 2.06759 0.56(4) 771. 0.579 0.579
99851. 2.06821 0.540(35) 814. 0.5789 0.5789
99881. 2.06883 0.59(4) 658. 0.579 0.579
99911. 2.06945 0.61(4) 646. 0.579 0.579
99941. 2.07007 0.66(4) 545. 0.580 0.580
99971. 2.07069 0.59(4) 659. 0.580 0.580
100001. 2.07131 0.58(4) 679. 0.580 0.580
100031. 2.07193 0.61(4) 646. 0.581 0.581
100061. 2.07255 0.60(4) 676. 0.581 0.581
100091. 2.07318 0.65(4) 578. 0.581 0.581
100121. 2.07380 0.57(4) 703. 0.581 0.581
100151. 2.07442 0.60(4) 693. 0.582 0.582
100181. 2.07504 0.62(4) 620. 0.582 0.582
100211. 2.07567 0.61(4) 643. 0.582 0.582
100242. 2.07629 0.61(4) 646. 0.583 0.583
100272. 2.07691 0.67(4) 590. 0.583 0.583
100302. 2.07753 0.66(4) 572. 0.583 0.583
100332. 2.07816 0.58(4) 714. 0.583 0.583
100362. 2.07878 0.66(4) 603. 0.584 0.584
100392. 2.07941 0.63(4) 642. 0.584 0.584
100422. 2.08003 0.69(4) 563. 0.584 0.584
100452. 2.08065 0.59(4) 684. 0.585 0.585
100482. 2.08128 0.67(4) 571. 0.585 0.585
100512. 2.08190 0.67(4) 561. 0.585 0.585
100543. 2.08253 0.63(4) 645. 0.585 0.585
100573. 2.08315 0.65(4) 644. 0.586 0.586
100603. 2.08378 0.58(4) 692. 0.586 0.586
100633. 2.08440 0.57(4) 698. 0.586 0.586
100663. 2.08503 0.58(4) 679. 0.586 0.586
100694. 2.08565 0.60(4) 677. 0.587 0.587
100724. 2.08628 0.62(4) 648. 0.587 0.587
100754. 2.08691 0.62(4) 621. 0.587 0.587
100784. 2.08753 0.61(4) 634. 0.587 0.587
100814. 2.08816 0.66(4) 582. 0.588 0.588
100845. 2.08878 0.61(4) 652. 0.588 0.588
100875. 2.08941 0.61(4) 610. 0.588 0.588
100905. 2.09004 0.59(4) 637. 0.588 0.588
100935. 2.09066 0.62(4) 629. 0.589 0.589
100966. 2.09129 0.67(4) 584. 0.589 0.589
100996. 2.09192 0.63(4) 609. 0.589 0.589
101026. 2.09255 0.64(4) 566. 0.589 0.589
101057. 2.09318 0.58(4) 676. 0.590 0.590
101087. 2.09380 0.62(4) 653. 0.590 0.590
101117. 2.09443 0.60(4) 647. 0.590 0.590
101148. 2.09506 0.56(4) 695. 0.590 0.590
101178. 2.09569 0.62(4) 642. 0.590 0.590
101208. 2.09632 0.62(4) 622. 0.591 0.591
101239. 2.09695 0.66(4) 582. 0.591 0.591
101269. 2.09758 0.63(4) 633. 0.591 0.591
101299. 2.09821 0.62(4) 626. 0.591 0.591
101330. 2.09883 0.64(4) 641. 0.592 0.592
101360. 2.09946 0.71(4) 538. 0.592 0.592
101391. 2.10009 0.66(4) 609. 0.592 0.592
101421. 2.10072 0.67(4) 665. 0.592 0.592
101451. 2.10135 0.71(4) 587. 0.592 0.592
101482. 2.10199 0.64(4) 661. 0.593 0.593
101512. 2.10262 0.69(4) 573. 0.593 0.593
101543. 2.10325 0.65(4) 650. 0.593 0.593
101573. 2.10388 0.65(4) 601. 0.593 0.593
101604. 2.10451 0.69(4) 562. 0.593 0.593
101634. 2.10514 0.64(4) 676. 0.593 0.593
101665. 2.10577 0.62(4) 669. 0.594 0.594
101695. 2.10640 0.67(4) 612. 0.594 0.594
101726. 2.10704 0.63(4) 693. 0.594 0.594
101756. 2.10767 0.66(4) 623. 0.594 0.594
101787. 2.10830 0.63(4) 668. 0.594 0.594
101817. 2.10893 0.60(4) 659. 0.594 0.594
101848. 2.10957 0.60(4) 682. 0.595 0.595
101878. 2.11020 0.57(4) 705. 0.595 0.595
101909. 2.11083 0.58(4) 686. 0.595 0.595
101940. 2.11147 0.56(4) 740. 0.595 0.595
101970. 2.11210 0.55(4) 783. 0.595 0.595
102001. 2.11273 0.60(4) 647. 0.595 0.595
102031. 2.11337 0.62(4) 637. 0.595 0.595
102062. 2.11400 0.58(4) 646. 0.596 0.596
102093. 2.11464 0.55(4) 741. 0.596 0.596
102123. 2.11527 0.59(4) 688. 0.596 0.596
102154. 2.11590 0.64(4) 627. 0.596 0.596
102184. 2.11654 0.61(4) 640. 0.596 0.596
102215. 2.11717 0.63(4) 635. 0.596 0.596
102246. 2.11781 0.53(4) 800. 0.596 0.596
102276. 2.11845 0.58(4) 717. 0.596 0.596
102307. 2.11908 0.67(4) 575. 0.596 0.596
102338. 2.11972 0.61(4) 654. 0.597 0.597
102369. 2.12035 0.65(4) 626. 0.597 0.597
102399. 2.12099 0.62(4) 659. 0.597 0.597
102430. 2.12163 0.58(4) 683. 0.597 0.597
102461. 2.12226 0.55(4) 730. 0.597 0.597
102491. 2.12290 0.54(4) 802. 0.597 0.597
102522. 2.12354 0.60(4) 635. 0.597 0.597
102553. 2.12417 0.58(4) 718. 0.597 0.597
102584. 2.12481 0.58(4) 682. 0.597 0.597
102614. 2.12545 0.53(4) 773. 0.597 0.597
102645. 2.12609 0.60(4) 655. 0.597 0.597
102676. 2.12672 0.54(4) 756. 0.597 0.597
102707. 2.12736 0.61(4) 657. 0.597 0.597
102738. 2.12800 0.56(4) 692. 0.597 0.597
102768. 2.12864 0.54(4) 769. 0.597 0.597
102799. 2.12928 0.57(4) 707. 0.597 0.597
102830. 2.12992 0.60(4) 690. 0.597 0.597
102861. 2.13055 0.59(4) 662. 0.597 0.597
102892. 2.13119 0.58(4) 669. 0.597 0.597
102923. 2.13183 0.58(4) 721. 0.597 0.597
102954. 2.13247 0.54(4) 763. 0.597 0.597
102985. 2.13311 0.59(4) 647. 0.597 0.597
103015. 2.13375 0.52(4) 758. 0.597 0.597
103046. 2.13439 0.61(4) 661. 0.597 0.597
103077. 2.13503 0.57(4) 719. 0.597 0.597
103108. 2.13567 0.53(4) 771. 0.597 0.597
103139. 2.13632 0.67(4) 629. 0.597 0.597
103170. 2.13696 0.61(4) 653. 0.597 0.597
103201. 2.13760 0.59(4) 651. 0.597 0.597
103232. 2.13824 0.60(4) 695. 0.597 0.597
103263. 2.13888 0.61(4) 647. 0.597 0.597
103294. 2.13952 0.65(4) 584. 0.597 0.597
103325. 2.14016 0.535(35) 828. 0.5970 0.5970
103356. 2.14081 0.58(4) 716. 0.597 0.597
103387. 2.14145 0.66(4) 615. 0.597 0.597
103418. 2.14209 0.70(4) 587. 0.597 0.597
103449. 2.14273 0.82(5) 490. 0.597 0.597
103480. 2.14338 0.78(4) 567. 0.597 0.597
103511. 2.14402 0.77(4) 546. 0.597 0.597
103542. 2.14466 0.67(4) 639. 0.596 0.596
103573. 2.14531 0.63(4) 643. 0.596 0.596
103604. 2.14595 0.61(4) 694. 0.596 0.596
103635. 2.14659 0.60(4) 646. 0.596 0.596
103666. 2.14724 0.62(4) 651. 0.596 0.596
103697. 2.14788 0.64(4) 633. 0.596 0.596
103729. 2.14853 0.65(4) 605. 0.596 0.596
103760. 2.14917 0.66(4) 591. 0.596 0.596
103791. 2.14982 0.57(4) 742. 0.595 0.595
103822. 2.15046 0.64(4) 655. 0.595 0.595
103853. 2.15111 0.59(4) 714. 0.595 0.595
103884. 2.15175 0.59(4) 691. 0.595 0.595
103915. 2.15240 0.61(4) 653. 0.595 0.595
103947. 2.15304 0.61(4) 612. 0.595 0.595
103978. 2.15369 0.59(4) 677. 0.595 0.595
104009. 2.15434 0.58(4) 693. 0.594 0.594
104040. 2.15498 0.59(4) 680. 0.594 0.594
104071. 2.15563 0.59(4) 666. 0.594 0.594
104103. 2.15628 0.63(4) 630. 0.594 0.594
104134. 2.15692 0.59(4) 682. 0.594 0.594
104165. 2.15757 0.61(4) 651. 0.593 0.593
104196. 2.15822 0.61(4) 678. 0.593 0.593
104228. 2.15887 0.62(4) 666. 0.593 0.593
104259. 2.15951 0.64(4) 653. 0.593 0.593
104290. 2.16016 0.57(4) 710. 0.593 0.593
104321. 2.16081 0.59(4) 681. 0.592 0.592
104353. 2.16146 0.59(4) 720. 0.592 0.592
104384. 2.16211 0.504(34) 880. 0.5919 0.5919
104415. 2.16275 0.60(4) 664. 0.592 0.592
104447. 2.16340 0.511(35) 814. 0.5915 0.5915
104478. 2.16405 0.55(4) 783. 0.591 0.591
104509. 2.16470 0.57(4) 724. 0.591 0.591
104541. 2.16535 0.58(4) 734. 0.591 0.591
104572. 2.16600 0.60(4) 675. 0.590 0.590
104603. 2.16665 0.55(4) 751. 0.590 0.590
104635. 2.16730 0.59(4) 701. 0.590 0.590
104666. 2.16795 0.62(4) 607. 0.590 0.590
104698. 2.16860 0.57(4) 743. 0.589 0.589
104729. 2.16925 0.57(4) 721. 0.589 0.589
104760. 2.16990 0.62(4) 633. 0.589 0.589
104792. 2.17056 0.58(4) 649. 0.588 0.588
104823. 2.17121 0.57(4) 746. 0.588 0.588
104855. 2.17186 0.59(4) 638. 0.588 0.588
104886. 2.17251 0.58(4) 658. 0.588 0.588
104918. 2.17316 0.56(4) 701. 0.587 0.587
104949. 2.17381 0.65(4) 603. 0.587 0.587
104981. 2.17447 0.54(4) 744. 0.587 0.587
105012. 2.17512 0.68(4) 602. 0.586 0.586
105044. 2.17577 0.61(4) 682. 0.586 0.586
105075. 2.17642 0.61(4) 628. 0.586 0.586
105107. 2.17708 0.60(4) 672. 0.585 0.585
105138. 2.17773 0.61(4) 611. 0.585 0.585
105170. 2.17838 0.57(4) 679. 0.585 0.585
105201. 2.17904 0.53(4) 753. 0.584 0.584
105233. 2.17969 0.61(4) 626. 0.584 0.584
105264. 2.18034 0.59(4) 666. 0.584 0.584
105296. 2.18100 0.54(4) 734. 0.583 0.583
105328. 2.18165 0.54(4) 669. 0.583 0.583
105359. 2.18231 0.54(4) 752. 0.583 0.583
105391. 2.18296 0.57(4) 687. 0.582 0.582
105422. 2.18362 0.61(4) 626. 0.582 0.582
105454. 2.18427 0.58(4) 685. 0.581 0.581
105486. 2.18493 0.52(4) 780. 0.581 0.581
105517. 2.18558 0.56(4) 689. 0.581 0.581
105549. 2.18624 0.64(4) 555. 0.580 0.580
105581. 2.18690 0.61(4) 655. 0.580 0.580
105612. 2.18755 0.58(4) 721. 0.580 0.580
105644. 2.18821 0.68(4) 532. 0.579 0.579
105676. 2.18887 0.56(4) 650. 0.579 0.579
105707. 2.18952 0.59(4) 632. 0.578 0.578
105739. 2.19018 0.56(4) 691. 0.578 0.578
105771. 2.19084 0.54(4) 708. 0.578 0.578
105803. 2.19149 0.59(4) 646. 0.577 0.577
105834. 2.19215 0.59(4) 685. 0.577 0.580
105866. 2.19281 0.54(4) 773. 0.576 0.580
105898. 2.19347 0.51(4) 783. 0.576 0.579
105930. 2.19412 0.53(4) 747. 0.576 0.579
105961. 2.19478 0.57(4) 687. 0.575 0.579
105993. 2.19544 0.58(4) 624. 0.575 0.578
106025. 2.19610 0.59(4) 621. 0.574 0.578
106057. 2.19676 0.55(4) 678. 0.574 0.578
106089. 2.19742 0.55(4) 743. 0.573 0.577
106120. 2.19808 0.58(4) 678. 0.573 0.577
106152. 2.19874 0.52(4) 753. 0.573 0.577
106184. 2.19940 0.60(4) 569. 0.572 0.576
106216. 2.20006 0.57(4) 613. 0.572 0.576
106248. 2.20072 0.58(4) 644. 0.571 0.576
106280. 2.20138 0.49(4) 808. 0.571 0.575
106312. 2.20204 0.56(4) 710. 0.571 0.575
106343. 2.20270 0.53(4) 719. 0.570 0.574
106375. 2.20336 0.57(4) 641. 0.570 0.574
106407. 2.20402 0.53(4) 729. 0.569 0.574
106439. 2.20468 0.53(4) 768. 0.569 0.573
106471. 2.20534 0.61(4) 594. 0.568 0.573
106503. 2.20601 0.57(4) 632. 0.568 0.574
106535. 2.20667 0.52(4) 727. 0.568 0.573
106567. 2.20733 0.59(4) 602. 0.567 0.573
106599. 2.20799 0.60(4) 610. 0.567 0.573
106631. 2.20865 0.58(4) 644. 0.566 0.572
106663. 2.20932 0.67(4) 496. 0.566 0.572
106695. 2.20998 0.62(4) 580. 0.565 0.572
106727. 2.21064 0.63(4) 594. 0.565 0.571
106759. 2.21131 0.59(4) 628. 0.565 0.571
106791. 2.21197 0.53(4) 729. 0.564 0.571
106823. 2.21263 0.60(4) 598. 0.564 0.571
106855. 2.21330 0.58(4) 681. 0.563 0.570
106887. 2.21396 0.63(4) 540. 0.563 0.570
106919. 2.21463 0.62(4) 561. 0.562 0.570
106951. 2.21529 0.61(4) 581. 0.562 0.569
106983. 2.21595 0.59(4) 617. 0.562 0.569
107015. 2.21662 0.59(4) 629. 0.561 0.569
107047. 2.21728 0.61(4) 595. 0.561 0.569
107080. 2.21795 0.63(4) 537. 0.560 0.568
107112. 2.21862 0.66(4) 514. 0.560 0.568
107144. 2.21928 0.63(4) 549. 0.560 0.568
107176. 2.21995 0.56(4) 687. 0.559 0.568
107208. 2.22061 0.64(4) 545. 0.559 0.568
107240. 2.22128 0.61(4) 612. 0.558 0.567
107273. 2.22195 0.63(4) 606. 0.558 0.567
107305. 2.22261 0.69(4) 523. 0.558 0.567
107337. 2.22328 0.64(4) 586. 0.557 0.567
107369. 2.22395 0.80(5) 462. 0.557 0.567
107401. 2.22461 0.87(5) 442. 0.556 0.567
107434. 2.22528 0.95(5) 396. 0.556 0.566
107466. 2.22595 1.00(5) 376. 0.556 0.566
107498. 2.22662 0.95(5) 403. 0.555 0.566
107530. 2.22729 0.88(5) 429. 0.555 0.566
107562. 2.22795 0.77(5) 489. 0.555 0.566
107595. 2.22862 0.70(4) 503. 0.554 0.566
107627. 2.22929 0.68(4) 542. 0.554 0.566
107659. 2.22996 0.61(4) 630. 0.554 0.566
107692. 2.23063 0.57(4) 686. 0.553 0.566
107724. 2.23130 0.57(4) 602. 0.553 0.566
107756. 2.23197 0.63(4) 575. 0.553 0.566
107789. 2.23264 0.64(4) 536. 0.552 0.566
107821. 2.23331 0.63(4) 531. 0.552 0.566
107853. 2.23398 0.58(4) 584. 0.552 0.566
107886. 2.23465 0.56(4) 650. 0.551 0.566
107918. 2.23532 0.55(4) 652. 0.551 0.566
107950. 2.23599 0.62(4) 509. 0.551 0.569
107983. 2.23666 0.63(4) 527. 0.551 0.569
108015. 2.23733 0.66(4) 506. 0.550 0.570
108048. 2.23800 0.56(4) 623. 0.550 0.570
108080. 2.23867 0.54(4) 621. 0.550 0.570
108112. 2.23935 0.60(4) 578. 0.549 0.571
108145. 2.24002 0.62(4) 601. 0.549 0.571
108177. 2.24069 0.59(4) 627. 0.549 0.572
108210. 2.24136 0.64(4) 586. 0.549 0.572
108242. 2.24203 0.62(4) 539. 0.549 0.573
108275. 2.24271 0.57(4) 592. 0.548 0.574
108307. 2.24338 0.55(4) 620. 0.548 0.574
108340. 2.24405 0.63(4) 546. 0.548 0.575
108372. 2.24473 0.62(4) 590. 0.548 0.576
108405. 2.24540 0.66(4) 528. 0.548 0.577
108437. 2.24607 0.60(4) 590. 0.547 0.578
108470. 2.24675 0.59(4) 582. 0.547 0.579
108502. 2.24742 0.58(4) 595. 0.547 0.580
108535. 2.24810 0.59(4) 604. 0.547 0.581
108567. 2.24877 0.62(4) 524. 0.547 0.583
108600. 2.24945 0.58(4) 576. 0.547 0.584
108632. 2.25012 0.67(5) 475. 0.547 0.586
108665. 2.25080 0.63(4) 521. 0.546 0.587
108698. 2.25147 0.59(4) 581. 0.546 0.589
108730. 2.25215 0.59(4) 545. 0.546 0.591
108763. 2.25282 0.64(4) 528. 0.546 0.593
108796. 2.25350 0.67(5) 490. 0.546 0.596
108828. 2.25417 0.64(4) 520. 0.546 0.598
108861. 2.25485 0.66(4) 523. 0.546 0.601
108893. 2.25553 0.59(4) 595. 0.546 0.604
108926. 2.25620 0.63(4) 540. 0.546 0.607
108959. 2.25688 0.69(4) 498. 0.546 0.611
108992. 2.25756 0.61(4) 559. 0.546 0.615
109024. 2.25824 0.63(4) 518. 0.546 0.619
109057. 2.25891 0.64(5) 484. 0.546 0.624
109090. 2.25959 0.65(5) 480. 0.546 0.629
109122. 2.26027 0.59(4) 549. 0.546 0.635
109155. 2.26095 0.62(4) 533. 0.546 0.642
109188. 2.26163 0.65(4) 524. 0.546 0.649
109221. 2.26230 0.66(4) 514. 0.546 0.657
109253. 2.26298 0.69(5) 483. 0.546 0.666
109286. 2.26366 0.66(4) 495. 0.546 0.676
109319. 2.26434 0.72(5) 447. 0.546 0.688
109352. 2.26502 0.72(5) 473. 0.547 0.702
109385. 2.26570 0.72(5) 450. 0.547 0.718
109417. 2.26638 0.71(5) 490. 0.547 0.737
109450. 2.26706 0.73(5) 456. 0.547 0.761
109483. 2.26774 0.79(5) 452. 0.547 0.791
109516. 2.26842 0.76(5) 468. 0.547 0.830
109549. 2.26910 0.84(5) 422. 0.548 0.884
109582. 2.26978 0.89(5) 407. 0.548 0.960
109614. 2.27046 0.96(5) 387. 0.548 1.064
109647. 2.27114 1.15(6) 309.3 0.548 1.209
109680. 2.27183 1.17(6) 324.5 0.549 1.410
109713. 2.27251 1.38(6) 271.5 0.549 1.683
109746. 2.27319 1.66(7) 234.8 0.549 2.046
109779. 2.27387 1.97(7) 193.2 0.550 2.514
109812. 2.27455 2.26(8) 173.4 0.550 3.093
109845. 2.27524 2.83(9) 134.1 0.550 3.775
109878. 2.27592 3.62(10) 106.0 0.551 4.531
109911. 2.27660 4.52(11) 85.3 0.551 5.308
109944. 2.27728 5.65(12) 66.0 0.551 6.023
109977. 2.27797 6.46(13) 56.9 0.552 6.577
110010. 2.27865 7.22(14) 50.4 0.552 6.878
110043. 2.27934 7.75(15) 46.2 0.553 6.872
110076. 2.28002 7.53(15) 47.1 0.553 6.561
110109. 2.28070 6.47(13) 57.7 0.553 6.006
110142. 2.28139 5.50(12) 65.9 0.554 5.293
110175. 2.28207 4.23(11) 88.0 0.554 4.516
110208. 2.28276 3.25(9) 117.6 0.555 3.753
110241. 2.28344 2.42(8) 159.9 0.555 3.061
110274. 2.28413 1.68(7) 221.8 0.556 2.472
110307. 2.28481 1.51(6) 250.4 0.556 1.999
110340. 2.28550 1.17(6) 302.7 0.557 1.637
110373. 2.28618 1.02(5) 365. 0.558 1.369
110406. 2.28687 0.96(5) 340.6 0.558 1.179
110440. 2.28756 0.80(5) 429. 0.559 1.046
110473. 2.28824 0.73(5) 452. 0.559 0.954
110506. 2.28893 0.72(5) 490. 0.560 0.890
110539. 2.28962 0.74(5) 444. 0.561 0.846
110572. 2.29030 0.66(5) 487. 0.561 0.814
110605. 2.29099 0.71(5) 436. 0.562 0.790
110638. 2.29168 0.68(4) 499. 0.563 0.773
110672. 2.29237 0.64(4) 522. 0.564 0.760
110705. 2.29305 0.62(4) 557. 0.564 0.749
110738. 2.29374 0.64(4) 525. 0.565 0.742
110771. 2.29443 0.67(4) 496. 0.566 0.737
110805. 2.29512 0.70(5) 484. 0.567 0.734
110838. 2.29581 0.66(4) 547. 0.567 0.733
110871. 2.29650 0.70(5) 461. 0.568 0.736
110904. 2.29718 0.64(4) 531. 0.569 0.741
110938. 2.29787 0.72(5) 432. 0.570 0.751
110971. 2.29856 0.70(5) 453. 0.571 0.765
111004. 2.29925 0.64(4) 551. 0.572 0.787
111037. 2.29994 0.63(4) 548. 0.573 0.816
111071. 2.30063 0.85(5) 378. 0.573 0.855
111104. 2.30132 0.81(5) 420. 0.574 0.905
111137. 2.30201 0.89(5) 368. 0.575 0.968
111171. 2.30270 0.85(5) 432. 0.576 1.043
111204. 2.30340 0.95(5) 366. 0.577 1.130
111237. 2.30409 1.16(6) 296.8 0.578 1.228
111271. 2.30478 1.16(6) 295.9 0.579 1.331
111304. 2.30547 1.30(6) 269.0 0.580 1.432
111338. 2.30616 1.49(7) 235.2 0.581 1.524
111371. 2.30685 1.49(7) 236.4 0.582 1.593
111404. 2.30755 1.64(7) 220.9 0.584 1.630
111438. 2.30824 1.73(7) 200.4 0.585 1.629
111471. 2.30893 1.62(7) 224.0 0.586 1.590
111505. 2.30962 1.65(7) 206.7 0.587 1.520
111538. 2.31032 1.57(7) 211.4 0.588 1.430
111572. 2.31101 1.35(6) 245.3 0.589 1.329
111605. 2.31170 1.17(6) 299.4 0.590 1.227
111639. 2.31240 1.03(5) 337.8 0.591 1.130
111672. 2.31309 0.90(5) 376. 0.593 1.042
111706. 2.31378 0.83(5) 397. 0.594 0.965
111739. 2.31448 0.82(5) 370. 0.595 0.901
111773. 2.31517 0.78(5) 390. 0.596 0.848
111806. 2.31587 0.64(4) 503. 0.598 0.806
111840. 2.31656 0.64(4) 498. 0.599 0.773
111873. 2.31726 0.70(5) 440. 0.600 0.748
111907. 2.31795 0.69(5) 442. 0.601 0.730
111940. 2.31865 0.69(5) 439. 0.603 0.715
111974. 2.31934 0.68(5) 443. 0.604 0.705
112007. 2.32004 0.69(5) 443. 0.605 0.697
112041. 2.32074 0.60(4) 536. 0.607 0.690
112075. 2.32143 0.55(4) 606. 0.608 0.686
112108. 2.32213 0.60(4) 508. 0.609 0.682
112142. 2.32283 0.73(5) 394. 0.611 0.679
112176. 2.32352 0.69(5) 445. 0.612 0.677
112209. 2.32422 0.57(4) 586. 0.614 0.675
112243. 2.32492 0.68(5) 460. 0.615 0.673
112277. 2.32561 0.64(5) 466. 0.617 0.672
112310. 2.32631 0.67(5) 447. 0.618 0.671
112344. 2.32701 0.64(5) 476. 0.619 0.671
112378. 2.32771 0.66(5) 492. 0.621 0.671
112411. 2.32841 0.66(5) 483. 0.622 0.671
112445. 2.32911 0.70(5) 437. 0.624 0.671
112479. 2.32980 0.69(5) 446. 0.625 0.671
112513. 2.33050 0.60(4) 536. 0.627 0.671
112546. 2.33120 0.75(5) 406. 0.628 0.672
112580. 2.33190 0.67(5) 458. 0.630 0.673
112614. 2.33260 0.57(4) 609. 0.631 0.673
112648. 2.33330 0.74(5) 448. 0.633 0.674
112681. 2.33400 0.87(5) 367. 0.635 0.675
112715. 2.33470 0.95(6) 322.7 0.636 0.676
112749. 2.33540 0.96(6) 314.9 0.638 0.677
112783. 2.33610 0.81(5) 404. 0.639 0.679
112817. 2.33681 0.74(5) 450. 0.641 0.680
112851. 2.33751 0.68(4) 499. 0.642 0.681
112884. 2.33821 0.61(4) 549. 0.644 0.683
112918. 2.33891 0.66(5) 457. 0.646 0.684
112952. 2.33961 0.63(5) 485. 0.647 0.686
112986. 2.34031 0.71(5) 424. 0.649 0.688
113020. 2.34101 0.68(5) 441. 0.650 0.690
113054. 2.34172 0.64(5) 481. 0.652 0.691
113088. 2.34242 0.67(5) 459. 0.654 0.693
113122. 2.34312 0.65(5) 489. 0.655 0.695
113156. 2.34383 0.64(5) 477. 0.657 0.697
113190. 2.34453 0.69(5) 450. 0.659 0.699
113224. 2.34523 0.66(5) 470. 0.660 0.707
113258. 2.34594 0.66(5) 461. 0.662 0.709
113292. 2.34664 0.63(5) 493. 0.664 0.712
113325. 2.34734 0.61(4) 547. 0.665 0.714
113359. 2.34805 0.62(4) 512. 0.667 0.717
113394. 2.34875 0.65(5) 469. 0.669 0.720
113428. 2.34946 0.71(5) 410. 0.670 0.723
113462. 2.35016 0.65(5) 459. 0.672 0.726
113496. 2.35087 0.73(5) 400. 0.673 0.729
113530. 2.35157 0.65(5) 481. 0.675 0.732
113564. 2.35228 0.71(5) 419. 0.677 0.736
113598. 2.35299 0.73(5) 409. 0.678 0.739
113632. 2.35369 0.76(5) 389. 0.680 0.743
113666. 2.35440 0.64(5) 481. 0.682 0.747
113700. 2.35510 0.65(4) 495. 0.683 0.751
113734. 2.35581 0.70(5) 444. 0.685 0.755
113768. 2.35652 0.61(4) 512. 0.687 0.760
113802. 2.35722 0.66(5) 479. 0.688 0.765
113837. 2.35793 0.71(5) 443. 0.690 0.770
113871. 2.35864 0.68(5) 470. 0.691 0.775
113905. 2.35935 0.70(5) 458. 0.693 0.781
113939. 2.36005 0.65(4) 505. 0.695 0.787
113973. 2.36076 0.74(5) 409. 0.696 0.793
114007. 2.36147 0.73(5) 439. 0.698 0.800
114042. 2.36218 0.79(5) 396. 0.699 0.808
114076. 2.36289 0.84(5) 366. 0.701 0.816
114110. 2.36360 0.88(5) 355. 0.703 0.821
114144. 2.36431 0.90(6) 330.5 0.704 0.831
114179. 2.36502 0.95(5) 347.5 0.706 0.841
114213. 2.36573 1.04(6) 307.5 0.707 0.853
114247. 2.36644 1.06(6) 295.6 0.709 0.866
114281. 2.36715 1.08(6) 292.5 0.710 0.880
114316. 2.36786 1.17(6) 272.5 0.712 0.896
114350. 2.36857 1.31(6) 244.8 0.713 0.915
114384. 2.36928 1.43(7) 234.6 0.715 0.938
114418. 2.36999 1.42(6) 239.1 0.716 0.965
114453. 2.37070 1.65(7) 193.0 0.718 0.998
114487. 2.37141 1.70(7) 189.9 0.719 1.039
114521. 2.37212 1.88(8) 174.3 0.720 1.090
114556. 2.37283 1.87(8) 176.5 0.722 1.156
114590. 2.37355 1.88(7) 184.5 0.723 1.239
114625. 2.37426 2.25(8) 152.6 0.725 1.345
114659. 2.37497 2.33(8) 143.5 0.726 1.476
114693. 2.37568 2.50(9) 133.5 0.727 1.638
114728. 2.37640 2.93(9) 113.5 0.729 1.834
114762. 2.37711 3.18(10) 103.5 0.730 2.069
114797. 2.37782 3.57(10) 92.0 0.731 2.346
114831. 2.37854 3.87(11) 86.7 0.732 2.669
114866. 2.37925 4.38(12) 73.8 0.734 3.040
114900. 2.37996 4.95(12) 64.8 0.735 3.461
114934. 2.38068 5.02(12) 64.4 0.736 3.929
114969. 2.38139 5.82(14) 53.2 0.737 4.438
115003. 2.38211 6.12(14) 51.9 0.738 4.978
115038. 2.38282 6.62(14) 48.5 0.739 5.541
115072. 2.38354 7.18(15) 43.3 0.740 6.113
115107. 2.38425 7.52(16) 41.3 0.742 6.672
115141. 2.38497 7.78(16) 40.1 0.743 7.175
115176. 2.38568 8.24(16) 38.1 0.744 7.558
115211. 2.38640 8.17(16) 38.5 0.745 7.746
115245. 2.38711 8.03(16) 39.2 0.745 7.677
115280. 2.38783 7.97(16) 39.3 0.746 7.333
115314. 2.38855 7.28(15) 43.4 0.747 6.750
115349. 2.38926 6.71(15) 47.6 0.748 6.003
115384. 2.38998 5.88(13) 55.2 0.749 5.182
115418. 2.39070 5.26(13) 62.6 0.750 4.366
115453. 2.39141 4.43(12) 74.0 0.751 3.617
115487. 2.39213 4.00(11) 82.6 0.751 2.971
115522. 2.39285 3.52(10) 97.3 0.752 2.445
115557. 2.39357 3.12(10) 107.1 0.753 2.034
115591. 2.39429 2.80(9) 122.3 0.753 1.728
115626. 2.39500 2.54(9) 132.6 0.754 1.506
115661. 2.39572 2.28(8) 143.9 0.755 1.350
115695. 2.39644 2.15(8) 153.1 0.755 1.243
115730. 2.39716 1.97(8) 165.6 0.756 1.171
115765. 2.39788 1.73(7) 201.0 0.756 1.123
115800. 2.39860 1.64(7) 204.3 0.756 1.093
115834. 2.39932 1.64(7) 211.6 0.757 1.074
115869. 2.40004 1.73(7) 183.1 0.757 1.063
115904. 2.40076 1.68(7) 182.4 0.758 1.058
115939. 2.40148 1.59(7) 206.1 0.758 1.056
115973. 2.40220 1.56(7) 210.2 0.758 1.054
116008. 2.40292 1.55(7) 212.3 0.758 1.050
116043. 2.40364 1.69(7) 185.6 0.758 1.044
116078. 2.40436 1.60(7) 195.8 0.759 1.032
116113. 2.40508 1.51(7) 213.3 0.759 1.017
116147. 2.40581 1.69(7) 180.0 0.759 0.998
116182. 2.40653 1.71(8) 174.9 0.759 0.978
116217. 2.40725 1.44(7) 223.7 0.759 0.956
116252. 2.40797 1.33(6) 243.2 0.758 0.936
116287. 2.40870 1.22(6) 257.0 0.758 0.915
116322. 2.40942 1.14(6) 284.8 0.758 0.897
116357. 2.41014 1.08(6) 271.8 0.758 0.882
116392. 2.41086 0.85(5) 362. 0.758 0.868
116426. 2.41159 0.85(5) 374. 0.757 0.856
116461. 2.41231 0.83(5) 369. 0.757 0.847
116496. 2.41304 0.81(5) 339.2 0.757 0.838
116531. 2.41376 0.72(5) 413. 0.756 0.831
116566. 2.41448 0.74(5) 379. 0.756 0.825
116601. 2.41521 0.69(5) 402. 0.755 0.820
116636. 2.41593 0.62(5) 489. 0.755 0.815
116671. 2.41666 0.66(5) 415. 0.754 0.811
116706. 2.41738 0.61(5) 465. 0.753 0.807
116741. 2.41811 0.66(5) 443. 0.753 0.804
116776. 2.41883 0.60(5) 467. 0.752 0.801
116811. 2.41956 0.56(4) 504. 0.751 0.798
116846. 2.42029 0.57(4) 529. 0.750 0.795
116881. 2.42101 0.62(5) 434. 0.749 0.792
116916. 2.42174 0.52(4) 573. 0.748 0.789
116952. 2.42246 0.65(5) 423. 0.747 0.786
116987. 2.42319 0.57(4) 531. 0.746 0.783
117022. 2.42392 0.57(4) 503. 0.745 0.781
117057. 2.42465 0.64(5) 427. 0.744 0.778
117092. 2.42537 0.56(5) 479. 0.743 0.776
117127. 2.42610 0.61(5) 435. 0.741 0.773
117162. 2.42683 0.64(5) 427. 0.740 0.771
117197. 2.42756 0.65(5) 420. 0.739 0.768
117232. 2.42829 0.66(5) 388. 0.737 0.766
117268. 2.42901 0.59(5) 446. 0.736 0.763
117303. 2.42974 0.52(4) 585. 0.734 0.761
117338. 2.43047 0.70(5) 344.7 0.733 0.759
117373. 2.43120 0.60(5) 464. 0.731 0.756
117408. 2.43193 0.57(5) 457. 0.730 0.754
117444. 2.43266 0.58(5) 448. 0.728 0.751
117479. 2.43339 0.62(5) 420. 0.726 0.749
117514. 2.43412 0.53(4) 555. 0.724 0.746
117549. 2.43485 0.53(4) 530. 0.723 0.744
117585. 2.43558 0.60(5) 410. 0.721 0.741
117620. 2.43631 0.55(5) 457. 0.719 0.739
117655. 2.43704 0.57(4) 503. 0.717 0.736
117691. 2.43777 0.58(4) 500. 0.715 0.734
117726. 2.43851 0.62(5) 431. 0.713 0.731
117761. 2.43924 0.58(5) 478. 0.711 0.728
117796. 2.43997 0.56(5) 471. 0.708 0.726
117832. 2.44070 0.61(5) 412. 0.706 0.723
117867. 2.44143 0.64(5) 427. 0.704 0.720
117903. 2.44217 0.63(5) 410. 0.702 0.718
117938. 2.44290 0.58(5) 427. 0.699 0.715
117973. 2.44363 0.54(5) 487. 0.697 0.712
118009. 2.44437 0.57(5) 469. 0.694 0.709
118044. 2.44510 0.66(5) 377. 0.692 0.707
118079. 2.44583 0.56(5) 488. 0.689 0.704
118115. 2.44657 0.60(5) 412. 0.687 0.701
118150. 2.44730 0.57(5) 464. 0.684 0.698
118186. 2.44804 0.56(5) 443. 0.682 0.695
118221. 2.44877 0.54(5) 489. 0.679 0.692
118257. 2.44950 0.58(5) 439. 0.676 0.689
118292. 2.45024 0.56(5) 469. 0.674 0.686
118328. 2.45097 0.66(5) 362. 0.671 0.683
118363. 2.45171 0.59(5) 468. 0.668 0.680
118399. 2.45245 0.59(5) 451. 0.665 0.677
118434. 2.45318 0.60(5) 403. 0.662 0.673
118470. 2.45392 0.62(5) 409. 0.659 0.670
118505. 2.45465 0.58(5) 457. 0.656 0.667
118541. 2.45539 0.57(4) 504. 0.653 0.664
118576. 2.45613 0.55(5) 492. 0.650 0.661
118612. 2.45686 0.55(5) 489. 0.647 0.657
118648. 2.45760 0.57(5) 440. 0.644 0.654
118683. 2.45834 0.60(5) 410. 0.641 0.651
118719. 2.45908 0.60(5) 429. 0.638 0.648
118754. 2.45981 0.61(5) 400. 0.635 0.644
118790. 2.46055 0.56(5) 432. 0.632 0.641
118826. 2.46129 0.66(5) 341.0 0.629 0.638
118861. 2.46203 0.61(5) 419. 0.625 0.634
118897. 2.46277 0.58(5) 430. 0.622 0.631
118933. 2.46351 0.54(5) 434. 0.619 0.627
118968. 2.46425 0.55(5) 478. 0.616 0.624
119004. 2.46499 0.58(5) 451. 0.612 0.620
119040. 2.46573 0.61(5) 398. 0.609 0.617
119075. 2.46646 0.56(5) 458. 0.606 0.614
119111. 2.46721 0.52(4) 506. 0.602 0.610
119147. 2.46795 0.59(5) 409. 0.599 0.607
119183. 2.46869 0.57(5) 447. 0.596 0.603
119218. 2.46943 0.53(5) 490. 0.592 0.600
119254. 2.47017 0.60(5) 414. 0.589 0.596
119290. 2.47091 0.58(5) 408. 0.586 0.593
119326. 2.47165 0.50(4) 565. 0.582 0.589
119361. 2.47239 0.52(4) 513. 0.579 0.586
119397. 2.47313 0.56(4) 496. 0.576 0.582
119433. 2.47388 0.69(5) 337.6 0.572 0.579
119469. 2.47462 0.46(4) 648. 0.569 0.575
119505. 2.47536 0.53(5) 490. 0.566 0.572
119541. 2.47610 0.53(4) 542. 0.562 0.569
119576. 2.47685 0.46(4) 605. 0.559 0.565
119612. 2.47759 0.46(4) 603. 0.556 0.562
119648. 2.47833 0.43(4) 544. 0.553 0.558
119684. 2.47908 0.52(5) 423. 0.549 0.555
119720. 2.47982 0.56(5) 387. 0.546 0.552
119756. 2.48056 0.49(5) 465. 0.543 0.548
119792. 2.48131 0.55(5) 387. 0.540 0.545
119828. 2.48205 0.57(5) 373. 0.536 0.542
119864. 2.48280 0.52(5) 403. 0.533 0.539
119900. 2.48354 0.59(5) 361. 0.530 0.535
119936. 2.48429 0.60(5) 359. 0.527 0.532
119972. 2.48503 0.64(6) 312.7 0.524 0.529
120008. 2.48578 0.58(5) 362. 0.521 0.526
120044. 2.48652 0.59(5) 347.4 0.518 0.523
120080. 2.48727 0.50(5) 436. 0.515 0.520
120116. 2.48802 0.48(4) 505. 0.512 0.517
120152. 2.48876 0.57(5) 367. 0.509 0.514
120188. 2.48951 0.65(6) 310.2 0.507 0.511
120224. 2.49026 0.57(5) 407. 0.504 0.508
120260. 2.49100 0.57(5) 351. 0.501 0.506
120296. 2.49175 0.57(5) 375. 0.498 0.503
120332. 2.49250 0.63(6) 329.7 0.496 0.498
120368. 2.49325 0.62(5) 350.7 0.493 0.495
120404. 2.49400 0.58(5) 343.9 0.491 0.493
120440. 2.49474 0.62(6) 324.2 0.488 0.490
120477. 2.49549 0.77(6) 254.6 0.486 0.488
120513. 2.49624 0.64(6) 315.8 0.484 0.486
120549. 2.49699 0.63(6) 325.3 0.482 0.484
120585. 2.49774 0.63(5) 344.1 0.479 0.481
120621. 2.49849 0.58(5) 361. 0.477 0.479
120657. 2.49924 0.51(5) 457. 0.475 0.477
120694. 2.49999 0.61(5) 342.7 0.473 0.475
120730. 2.50074 0.57(5) 387. 0.472 0.473
120766. 2.50149 0.59(5) 346.8 0.470 0.472
120802. 2.50224 0.52(5) 415. 0.468 0.470
120838. 2.50299 0.66(6) 326.8 0.467 0.468
120875. 2.50374 0.57(5) 388. 0.465 0.467
120911. 2.50449 0.49(5) 452. 0.464 0.464
120947. 2.50524 0.55(5) 356. 0.462 0.462
120984. 2.50600 0.56(5) 373. 0.461 0.461
121020. 2.50675 0.57(5) 355. 0.460 0.460
121056. 2.50750 0.65(6) 299.1 0.459 0.459
121092. 2.50825 0.54(5) 353. 0.458 0.458
121129. 2.50901 0.56(5) 357. 0.457 0.457
121165. 2.50976 0.55(5) 338.5 0.456 0.456
121201. 2.51051 0.50(5) 413. 0.456 0.456
121238. 2.51126 0.49(5) 434. 0.455 0.455
121274. 2.51202 0.53(5) 399. 0.455 0.455
121311. 2.51277 0.50(5) 432. 0.455 0.455
121347. 2.51353 0.63(6) 309.0 0.454 0.454
121383. 2.51428 0.53(5) 378. 0.454 0.454
121420. 2.51503 0.57(5) 357. 0.454 0.454
121456. 2.51579 0.46(5) 469. 0.454 0.454
121493. 2.51654 0.40(4) 542. 0.455 0.455
121529. 2.51730 0.50(5) 423. 0.455 0.455
121566. 2.51805 0.46(5) 444. 0.456 0.456
121602. 2.51881 0.53(5) 423. 0.456 0.456
121638. 2.51957 0.61(5) 347.3 0.457 0.457
121675. 2.52032 0.57(5) 405. 0.458 0.458
121711. 2.52108 0.54(5) 416. 0.459 0.459
121748. 2.52183 0.55(5) 368. 0.460 0.460
121785. 2.52259 0.48(5) 467. 0.461 0.461
121821. 2.52335 0.55(5) 365. 0.462 0.462
121858. 2.52410 0.58(5) 355. 0.464 0.464
121894. 2.52486 0.48(5) 492. 0.465 0.465
121931. 2.52562 0.44(5) 494. 0.467 0.467
121967. 2.52638 0.50(5) 425. 0.469 0.469
122004. 2.52714 0.64(6) 301.5 0.471 0.471
122041. 2.52789 0.57(5) 358. 0.473 0.473
122077. 2.52865 0.57(5) 362. 0.475 0.475
122114. 2.52941 0.56(5) 331.3 0.477 0.477
122150. 2.53017 0.57(5) 356. 0.479 0.479
122187. 2.53093 0.61(6) 329.5 0.482 0.482
122224. 2.53169 0.58(5) 365. 0.484 0.484
122260. 2.53245 0.53(5) 386. 0.487 0.487
122297. 2.53321 0.52(5) 369. 0.490 0.490
122334. 2.53397 0.53(5) 377. 0.493 0.493
122370. 2.53473 0.49(5) 407. 0.496 0.496
122407. 2.53549 0.49(5) 428. 0.499 0.499
122444. 2.53625 0.51(5) 393. 0.502 0.502
122481. 2.53701 0.58(6) 321.8 0.505 0.505
122517. 2.53777 0.57(6) 313.3 0.508 0.508
122554. 2.53853 0.51(5) 364. 0.512 0.512
122591. 2.53930 0.48(5) 398. 0.515 0.515
122628. 2.54006 0.54(5) 363. 0.518 0.518
122664. 2.54082 0.49(5) 399. 0.522 0.522
122701. 2.54158 0.60(6) 279.0 0.526 0.526
122738. 2.54234 0.57(6) 301.3 0.529 0.529
122775. 2.54311 0.58(6) 291.6 0.533 0.533
122812. 2.54387 0.59(6) 279.3 0.537 0.537
122849. 2.54463 0.55(6) 289.4 0.540 0.540
122885. 2.54540 0.48(5) 393. 0.544 0.544
122922. 2.54616 0.50(5) 362. 0.548 0.548
122959. 2.54692 0.48(5) 399. 0.552 0.552
122996. 2.54769 0.59(6) 302.6 0.555 0.555
123033. 2.54845 0.48(5) 349.0 0.559 0.559
123070. 2.54922 0.54(6) 312.0 0.563 0.563
123107. 2.54998 0.50(5) 346.3 0.567 0.567
123144. 2.55075 0.56(6) 284.5 0.570 0.570
123181. 2.55151 0.63(6) 258.5 0.574 0.574
123218. 2.55228 0.50(5) 343.4 0.577 0.577
123255. 2.55305 0.49(5) 352. 0.581 0.581
123292. 2.55381 0.60(6) 284.7 0.584 0.584
123328. 2.55458 0.61(6) 283.0 0.587 0.587
123365. 2.55534 0.47(5) 400. 0.590 0.590
123402. 2.55611 0.44(5) 465. 0.593 0.593
123440. 2.55688 0.45(5) 435. 0.596 0.596
123477. 2.55764 0.62(6) 274.2 0.598 0.598
123514. 2.55841 0.62(6) 256.5 0.601 0.601
123551. 2.55918 0.56(6) 291.6 0.603 0.603
123588. 2.55995 0.55(6) 280.2 0.605 0.605
123625. 2.56072 0.47(6) 321.3 0.606 0.606
123662. 2.56148 0.52(6) 280.2 0.608 0.608
123699. 2.56225 0.37(4) 521. 0.609 0.609
123736. 2.56302 0.50(5) 332.0 0.610 0.610
123773. 2.56379 0.49(6) 308.2 0.610 0.610
123810. 2.56456 0.48(5) 336.5 0.610 0.610
123847. 2.56533 0.54(6) 293.4 0.610 0.610
123885. 2.56610 0.57(6) 267.8 0.609 0.609
123922. 2.56687 0.61(7) 221.0 0.608 0.608
123959. 2.56764 0.44(5) 363. 0.607 0.607
123996. 2.56841 0.50(5) 333.8 0.605 0.605
124033. 2.56918 0.50(6) 322.1 0.602 0.602
124071. 2.56995 0.50(6) 286.9 0.599 0.599
124108. 2.57072 0.52(6) 298.6 0.595 0.595
124145. 2.57149 0.62(7) 208.6 0.591 0.591
124182. 2.57227 0.53(6) 254.6 0.586 0.586
124220. 2.57304 0.47(6) 310.3 0.580 0.580
124257. 2.57381 0.52(6) 294.3 0.574 0.574
124294. 2.57458 0.50(6) 278.9 0.567 0.567
124331. 2.57535 0.62(7) 221.2 0.559 0.559
124369. 2.57613 0.61(7) 203.0 0.550 0.550
124406. 2.57690 0.56(7) 232.2 0.540 0.540
124443. 2.57767 0.50(6) 293.5 0.530 0.530
124481. 2.57845 0.47(6) 291.7 0.518 0.518
124518. 2.57922 0.47(6) 307.6 0.506 0.506
124555. 2.57999 0.49(6) 264.1 0.492 0.492
124593. 2.58077 0.38(5) 391. 0.478 0.478
124630. 2.58154 0.55(6) 236.8 0.462 0.462
124667. 2.58232 0.49(6) 296.4 0.445 0.445
124705. 2.58309 0.44(6) 320.5 0.427 0.427
124742. 2.58387 0.45(5) 339.7 0.407 0.407
124780. 2.58464 0.59(7) 192.6 0.386 0.386
124817. 2.58542 0.50(6) 248.0 0.364 0.364
124855. 2.58619 0.51(7) 235.2 0.340 0.340
124892. 2.58697 0.54(6) 247.4 0.315 0.315
124929. 2.58775 0.47(6) 262.7 0.288 0.288
124967. 2.58852 0.49(6) 247.7 0.260 0.260
125005. . -0.000177(22) . . .
loop_
_refln_index_h
_refln_index_k
_refln_index_l
_refln_observed_status
_refln_F_squared_meas
_refln_F_squared_calc
_refln_phase_calc
_refln_d_spacing
_gsas_i100_meas
0 2 1 o 16.405 13.465 -146.92 2.38660 32.51
3 1 -2 o 12.596 9.758 46.65 2.38732 25.21
1 1 -2 o 1.792 0.743 103.52 2.40354 3.77
2 2 -1 o 0.154 0.096 -137.17 2.37862 0.31
3 1 0 o 18.761 13.755 -44.85 2.38193 36.86
4 0 -2 o 21.029 22.458 23.98 2.27909 17.00
0 0 2 o 10.891 11.980 -79.92 2.30756 9.46
2 2 0 o 19.917 20.996 159.96 2.27826 32.26
2 2 -2 o 124.018 123.593 -139.50 1.98134 100.00
4 0 0 o 124.168 119.504 -37.09 1.97573 49.77
1 3 0 o 11.631 9.838 157.96 1.80954 7.64
1 1 2 o 1.794 0.765 51.58 1.82931 1.25
2 2 1 o 0.559 0.266 -87.32 1.81825 0.38
5 1 -2 o 9.639 8.437 174.23 1.80801 6.32
4 2 -1 o 10.273 8.966 -82.26 1.80770 6.73
0 2 2 o 34.075 37.349 -108.40 1.77775 20.11
3 1 -3 o 32.821 35.011 23.33 1.77916 19.49
1 3 -1 o 2.604 2.518 145.38 1.76525 1.56
4 2 -2 o 5.469 5.364 39.16 1.76463 3.27
5 1 -1 o 3.183 3.349 -123.45 1.76166 1.89
3 1 1 o 34.767 35.846 163.18 1.77471 20.42
1 3 1 o 37.228 38.417 -99.51 1.61421 14.97
5 1 -3 o 43.272 44.783 97.90 1.61480 17.32
6 0 -2 o 57.720 59.263 10.07 1.60744 11.18
1 1 -3 o 36.839 38.436 113.15 1.62992 15.40
3 3 -1 o 61.975 62.071 -94.27 1.60926 24.04
2 0 2 o 32.764 35.315 -28.52 1.62742 6.83
4 2 0 o 42.280 42.631 171.28 1.61207 16.84
4 2 -3 o 8.275 7.050 -2.04 1.52471 2.74
1 3 -2 o 11.057 9.376 -74.78 1.52440 3.64
2 2 -3 o 1.098 0.780 82.93 1.53102 0.37
3 3 -2 o 0.102 0.076 139.35 1.52023 0.03
3 3 0 o 2.082 1.431 -116.73 1.51884 0.68
5 1 0 o 10.959 8.302 86.30 1.52068 3.58
4 0 -4 o 51.916 56.163 90.62 1.40795 5.98
0 4 0 o 93.698 87.754 0.00 1.39419 10.14
2 2 2 o 46.143 49.188 97.57 1.40554 10.62
6 2 -2 o 94.845 89.743 -177.56 1.39261 20.41
0 4 1 o 1.329 1.305 -72.45 1.33462 0.26
0 2 3 o 8.253 8.089 127.61 1.34697 1.66
1 3 2 o 8.924 9.396 81.26 1.34103 1.76
5 1 -4 o 5.803 6.123 -80.36 1.34233 1.15
3 1 -4 o 7.429 7.074 154.34 1.34807 1.50
6 0 -4 o 12.143 12.673 -86.58 1.32080 1.12
2 4 -1 o 22.974 22.411 99.56 1.33322 4.37
6 2 -3 o 2.105 2.065 7.94 1.33418 0.41
2 0 -4 o 58.498 57.383 -40.31 1.33181 5.41
7 1 -2 o 24.795 24.471 -21.89 1.33102 4.68
3 1 2 o 17.909 18.392 -149.69 1.34516 3.54
5 3 -2 o 27.337 26.694 -148.07 1.33257 5.18
4 2 1 o 8.179 8.499 161.72 1.33933 1.60
2 4 0 o 16.820 15.972 128.53 1.31475 3.04
7 1 -3 o 14.831 14.173 -25.16 1.31400 2.68
1 1 3 o 47.649 46.986 127.63 1.33037 8.83
6 2 -1 o 1.582 1.547 -139.30 1.33229 0.31
3 3 1 o 4.764 4.786 -21.08 1.31907 0.88
3 3 -3 o 10.779 10.958 -139.05 1.32089 1.99
5 3 -1 o 11.406 10.954 35.24 1.31368 2.06
6 0 0 o 8.407 8.209 38.34 1.31715 0.77
4 2 -4 o 20.296 21.425 -161.43 1.25682 3.05
2 4 -2 o 19.252 19.310 -8.71 1.24943 2.83
1 3 -3 o 22.020 22.936 -53.01 1.25625 3.30
5 3 -3 o 22.495 22.525 -83.91 1.24929 3.30
7 1 -1 o 19.634 18.735 85.59 1.24647 2.86
5 1 1 o 21.355 21.509 61.86 1.25338 3.18
7 1 -4 o 22.914 22.767 82.32 1.20578 2.92
0 4 2 o 1.332 1.681 28.52 1.19330 0.16
2 4 1 o 17.757 17.689 25.60 1.20532 2.26
1 1 -4 o 1.357 1.093 -177.40 1.21839 0.18
4 4 -1 o 1.924 1.957 166.40 1.20223 0.25
6 2 -4 o 0.654 0.788 164.62 1.19366 0.08
5 3 0 o 30.457 30.590 96.58 1.20415 3.84
2 2 -4 o 5.521 5.595 65.01 1.20177 0.70
8 0 -2 o 5.557 5.180 43.69 1.18711 0.34
4 4 -2 o 4.064 4.113 -29.29 1.18931 0.50
4 0 2 o 4.203 4.336 89.10 1.19914 0.26
6 2 0 o 3.078 3.309 -142.64 1.19096 0.38
8 0 -4 o 54.766 50.952 40.50 1.13954 2.74
0 0 4 o 22.272 20.423 -164.26 1.15378 1.19
4 4 0 o 47.365 45.977 -32.00 1.13913 4.74
1 5 0 o 4.815 4.798 -71.80 1.10441 0.44
2 2 3 o 0.891 0.953 76.05 1.11538 0.08
5 1 -5 o 36.213 36.108 62.66 1.10406 3.22
3 3 2 o 0.015 0.016 2.64 1.11119 0.00
1 3 3 o 40.112 39.792 -57.28 1.10281 3.54
3 3 -4 o 2.396 2.559 1.39 1.11283 0.22
5 3 -4 o 14.013 15.076 -61.93 1.10959 1.28
2 4 -3 o 28.742 30.748 -143.74 1.10942 2.61
1 5 -1 o 3.730 3.509 72.99 1.09410 0.32
4 4 -3 o 0.629 0.635 8.41 1.10702 0.06
8 2 -3 o 2.495 2.481 -39.78 1.10330 0.22
7 3 -2 o 2.998 2.975 -48.61 1.10318 0.27
7 1 0 o 20.826 20.995 -115.40 1.10654 1.88
7 3 -3 o 4.485 4.169 -118.64 1.09343 0.39
4 2 2 o 29.605 28.563 -144.96 1.10159 2.62
8 2 -2 o 3.547 3.198 -148.10 1.09225 0.31
1 5 1 o 57.651 58.348 54.57 1.05512 4.23
7 1 -5 o 39.018 39.515 112.66 1.05981 2.94
0 2 4 o 25.816 25.408 135.31 1.06612 2.00
3 1 -5 o 26.349 25.887 142.16 1.06690 2.05
2 4 2 o 35.993 36.419 -14.09 1.05879 2.70
3 5 -1 o 36.518 36.405 99.09 1.05374 2.69
8 2 -4 o 39.767 40.094 -145.85 1.05485 2.94
9 1 -3 o 38.234 37.489 78.42 1.05237 2.80
3 1 3 o 27.949 28.205 46.17 1.06498 2.16
6 4 -2 o 27.940 27.642 5.16 1.05323 2.06
0 4 3 o 2.104 2.159 113.94 1.03306 0.15
5 3 1 o 34.149 34.564 -106.99 1.05775 2.56
7 3 -1 o 52.804 52.377 -123.58 1.05359 3.86
9 1 -4 o 11.507 11.630 -152.80 1.02668 0.77
6 2 -5 o 0.201 0.204 131.26 1.03373 0.01
4 2 -5 o 11.689 11.484 104.93 1.03701 0.82
1 1 4 o 0.802 0.802 -30.60 1.03970 0.06
3 5 0 o 10.709 10.711 -12.80 1.02709 0.72
1 5 -2 o 4.506 4.481 95.52 1.02880 0.31
3 5 -2 o 5.674 5.642 44.81 1.02752 0.38
7 3 -4 o 6.596 6.560 17.76 1.02867 0.45
1 3 -4 o 1.275 1.251 19.91 1.03647 0.09
4 4 1 o 1.534 1.518 -46.96 1.02960 0.10
6 4 -3 o 15.776 15.671 173.43 1.02726 1.06
9 1 -2 o 11.757 11.693 102.14 1.02539 0.79
6 4 -1 o 8.998 8.956 48.67 1.02640 0.60
5 1 2 o 10.550 10.527 -14.35 1.03442 0.73
6 2 1 o 1.131 1.108 156.27 1.03111 0.08
8 2 -1 o 3.792 3.751 -108.47 1.02661 0.26
4 4 -4 o 38.803 35.468 60.36 0.99067 2.24
8 0 0 o 47.498 42.924 -47.98 0.98786 1.35
1 5 2 o 0.064 0.063 -5.69 0.96650 0.00
8 2 -5 o 6.274 6.194 67.79 0.96683 0.33
10 0 -4 o 4.190 4.216 33.75 0.95562 0.11
2 2 -5 o 0.224 0.338 -105.40 0.97493 0.01
9 1 -5 o 21.796 20.909 40.45 0.95855 1.11
3 5 1 o 18.673 18.047 147.46 0.95818 0.95
5 5 -2 o 2.847 2.888 116.43 0.96332 0.15
1 1 -5 o 45.583 44.236 86.67 0.96912 2.40
5 3 -5 o 45.689 46.345 -127.84 0.96332 2.34
2 4 -4 o 63.348 63.938 -32.69 0.96303 3.22
3 5 -3 o 10.140 9.846 9.39 0.95888 0.52
2 0 4 o 40.614 39.720 14.58 0.96823 1.07
7 3 0 o 7.939 8.060 -160.59 0.96496 0.42
6 4 -4 o 24.274 23.571 -74.14 0.95884 1.23
5 5 -1 o 11.287 11.332 70.08 0.95611 0.57
6 4 0 o 17.052 16.735 64.48 0.95744 0.86
9 1 -1 o 15.111 15.119 178.76 0.95646 0.76
6 0 -6 o 6.748 8.026 37.36 0.93863 0.16
7 1 1 o 56.390 55.396 130.63 0.96061 2.85
0 6 0 o 8.367 8.099 180.00 0.92946 0.19
7 3 -5 o 35.784 35.086 -31.32 0.93350 1.63
3 3 3 o 4.544 4.886 -172.02 0.93703 0.21
1 5 -3 o 29.014 28.429 145.48 0.93327 1.32
3 3 -5 o 11.307 13.144 -15.10 0.93834 0.53
10 0 -2 o 93.384 88.978 -31.59 0.92836 2.04
0 6 1 o 23.256 23.798 -154.62 0.91117 0.96
5 5 -3 o 81.123 78.572 127.28 0.93041 3.58
7 1 -6 o 15.325 14.933 177.21 0.91796 0.66
8 0 -6 o 16.218 16.827 -72.93 0.91054 0.34
9 3 -3 o 17.635 16.810 -87.39 0.92841 0.79
5 1 -6 o 2.507 2.433 1.87 0.92071 0.11
6 0 2 o 10.601 11.004 -99.70 0.93601 0.25
1 3 4 o 19.261 19.163 -32.12 0.91967 0.83
8 2 0 o 37.395 36.279 118.38 0.93115 1.68
4 0 -6 o 52.716 49.109 -68.05 0.91593 1.10
2 4 3 o 25.491 24.154 -89.18 0.91683 1.08
2 6 -1 o 7.397 7.588 133.63 0.91072 0.31
2 6 0 o 1.077 1.167 -40.63 0.90477 0.04
5 5 0 o 0.246 0.248 -155.42 0.91130 0.01
2 2 4 o 39.774 37.142 -122.08 0.91466 1.66
9 3 -4 o 18.055 18.483 -132.26 0.91062 0.75
10 2 -3 o 3.881 3.980 -71.08 0.90935 0.16
4 2 3 o 3.339 3.282 78.34 0.91881 0.14
5 3 2 o 19.992 18.768 7.17 0.91601 0.85
10 2 -4 o 1.887 2.019 25.53 0.90401 0.08
4 4 2 o 19.891 20.347 54.73 0.90913 0.82
8 4 -3 o 2.228 2.284 95.39 0.91009 0.09
9 3 -2 o 18.388 18.827 146.78 0.90972 0.76
0 4 4 o 4.213 5.369 -107.43 0.88888 0.16
8 4 -2 o 2.093 2.187 143.10 0.90385 0.08
6 2 -6 o 4.936 6.341 -44.24 0.88958 0.19
2 6 -2 o 38.817 36.064 -166.53 0.88262 1.41
8 4 -4 o 40.944 38.325 15.02 0.88232 1.48
0 6 2 o 37.287 39.324 -109.26 0.86215 1.23
9 1 -6 o 10.579 10.521 -62.95 0.86976 0.37
2 6 1 o 9.008 9.028 -14.93 0.86665 0.31
0 2 5 o 10.854 11.228 24.36 0.87626 0.39
6 2 2 o 7.943 8.929 90.46 0.88735 0.30
10 2 -2 o 43.682 41.740 174.03 0.88083 1.57
3 1 -6 o 1.946 1.954 -103.91 0.87683 0.07
1 5 3 o 9.321 9.264 163.78 0.86493 0.31
3 5 2 o 17.137 17.108 -147.64 0.86896 0.59
10 2 -5 o 1.507 1.509 7.69 0.86650 0.05
8 2 -6 o 28.104 28.029 126.15 0.86556 0.95
11 1 -4 o 11.656 11.606 18.14 0.86461 0.39
4 6 -1 o 11.316 11.293 -74.86 0.86550 0.38
4 2 -6 o 59.751 59.627 170.89 0.87019 2.03
4 4 -5 o 1.413 1.418 -20.22 0.87179 0.05
6 4 -5 o 6.085 6.072 -106.11 0.86985 0.21
3 5 -4 o 13.663 13.639 174.80 0.86974 0.47
5 5 -4 o 1.194 1.196 -43.34 0.86819 0.04
3 1 4 o 13.559 14.257 112.60 0.87550 0.48
9 3 -5 o 29.063 30.318 -163.15 0.86207 0.96
7 5 -2 o 13.066 13.048 -26.40 0.86511 0.44
6 4 1 o 4.821 4.831 -4.97 0.86828 0.17
4 6 -2 o 11.452 11.581 46.59 0.86064 0.38
1 3 -5 o 39.796 39.767 -111.52 0.86974 1.36
11 1 -3 o 7.100 6.933 -107.97 0.85914 0.23
10 0 -6 o 17.789 18.898 77.10 0.84353 0.27
8 4 -1 o 3.811 3.811 49.41 0.86559 0.13
7 5 -3 o 6.496 6.522 -64.93 0.86039 0.21
9 1 0 o 6.367 6.392 6.53 0.86741 0.22
5 1 3 o 48.074 48.205 105.68 0.86826 1.63
7 3 1 o 13.962 14.168 -27.55 0.86357 0.47
9 3 -1 o 26.948 27.214 -15.78 0.86055 0.89
2 0 -6 o 7.573 8.537 74.90 0.85217 0.12
11 1 -5 o 36.479 35.168 92.20 0.84082 1.09
4 6 0 o 21.640 20.963 -174.30 0.84104 0.65
1 1 5 o 5.536 6.336 -1.05 0.85154 0.18
5 5 1 o 37.100 37.777 8.08 0.84268 1.12
7 5 -1 o 33.898 32.858 91.76 0.84057 1.01
7 3 -6 o 5.297 5.344 144.77 0.83219 0.15
5 3 -6 o 19.752 19.681 45.50 0.83423 0.57
2 6 -3 o 3.397 3.579 162.80 0.82887 0.10
2 4 -5 o 12.177 12.107 -52.97 0.83393 0.35
1 5 -4 o 0.995 1.000 125.47 0.83180 0.03
4 6 -3 o 7.165 7.648 -26.65 0.82787 0.20
8 4 -5 o 4.822 5.094 -113.79 0.82884 0.14
7 5 -4 o 16.459 17.507 105.78 0.82775 0.46
11 1 -2 o 10.191 9.870 -86.00 0.82597 0.29
7 1 2 o 20.573 20.603 144.27 0.83202 0.59
10 2 -1 o 4.955 5.080 162.29 0.82693 0.14
8 2 1 o 2.960 2.992 127.90 0.82995 0.08
2 6 2 o 15.662 15.069 147.48 0.80710 0.40
10 2 -6 o 13.572 12.934 -134.25 0.80740 0.35
12 0 -4 o 28.564 28.982 29.68 0.80372 0.36
0 6 3 o 8.223 8.419 138.92 0.79553 0.20
2 2 -6 o 16.236 12.439 76.54 0.81496 0.43
11 1 -6 o 10.869 11.472 108.33 0.79426 0.26
1 7 0 o 0.354 0.371 109.05 0.79266 0.01
6 6 -2 o 26.039 25.011 160.83 0.80463 0.65
7 1 -7 o 37.696 37.051 89.98 0.79630 0.91
4 0 4 o 5.628 4.579 119.54 0.81371 0.07
8 4 0 o 20.194 18.995 -27.11 0.80604 0.51
9 3 -6 o 24.327 24.479 -20.35 0.79577 0.59
4 6 1 o 12.132 12.730 146.73 0.79395 0.29
2 4 4 o 41.674 42.724 1.34 0.79526 1.00
1 7 -1 o 0.873 0.969 -80.39 0.78883 0.02
1 1 -6 o 3.669 3.716 -78.95 0.80328 0.09
3 3 -6 o 0.477 0.498 119.11 0.80118 0.01
3 3 4 o 1.856 1.887 106.82 0.80016 0.05
4 4 3 o 0.030 0.027 4.51 0.79799 0.00
6 6 -3 o 2.241 2.343 58.06 0.79287 0.05
6 6 -1 o 1.502 1.571 145.66 0.79248 0.04
11 3 -4 o 9.513 9.955 -54.46 0.79183 0.23
5 5 -5 o 4.988 5.210 15.08 0.79254 0.12
10 4 -3 o 8.620 9.018 160.72 0.79177 0.20
7 5 0 o 7.149 7.474 -89.57 0.79345 0.17
5 3 3 o 43.608 45.100 -87.49 0.79463 1.04
10 4 -4 o 1.216 1.371 -58.61 0.78823 0.03
9 1 -7 o 19.909 20.223 166.05 0.77865 0.44
1 7 1 o 40.381 40.553 -113.90 0.77384 0.86
9 3 0 o 21.009 21.874 34.00 0.79398 0.50
5 1 -7 o 7.212 7.123 -151.05 0.78258 0.16
11 3 -3 o 0.187 0.211 -96.89 0.78761 0.00
10 0 0 o 2.568 2.717 96.72 0.79029 0.03
1 3 5 o 7.771 7.594 170.52 0.78175 0.17
3 7 -1 o 89.964 90.693 -89.32 0.77329 1.90
3 5 3 o 17.718 17.719 29.82 0.77770 0.39
6 4 -6 o 17.465 17.590 44.70 0.77862 0.39
0 4 5 o 0.482 0.415 168.66 0.76964 0.01
1 5 4 o 3.089 3.033 122.84 0.76769 0.06
11 3 -5 o 49.931 50.179 -62.56 0.77343 1.06
3 5 -5 o 4.006 4.026 146.78 0.77845 0.09
4 2 4 o 1.823 1.779 57.61 0.78113 0.04
7 5 -5 o 11.728 11.585 106.90 0.77568 0.26
4 6 -4 o 27.163 26.831 -168.64 0.77568 0.59
12 2 -4 o 86.024 85.488 -177.19 0.77228 1.81
12 0 -6 o 20.009 21.225 -101.48 0.75970 0.20
6 2 -7 o 1.332 1.164 -160.32 0.77028 0.03
6 4 2 o 12.906 12.820 -63.65 0.77712 0.28
8 2 -7 o 2.740 2.550 170.36 0.76840 0.06
3 7 0 o 1.494 1.637 -80.50 0.76257 0.03
1 7 -2 o 6.150 6.589 -28.08 0.76327 0.13
9 5 -3 o 92.135 92.127 92.63 0.77275 1.94
11 1 -1 o 14.714 14.680 71.96 0.77366 0.32
2 2 5 o 0.154 0.144 -68.72 0.77135 0.00
3 7 -2 o 6.150 6.679 117.12 0.76275 0.13
10 4 -2 o 40.258 40.158 -29.20 0.77273 0.86
9 1 1 o 10.320 10.213 46.73 0.77641 0.23
12 2 -5 o 4.452 4.893 46.14 0.76204 0.09
0 0 6 o 102.673 91.862 28.06 0.76919 1.06
5 5 2 o 3.168 3.278 -29.33 0.76556 0.07
10 4 -5 o 1.495 1.611 -104.34 0.76300 0.03
8 4 -6 o 17.076 18.583 -33.07 0.76235 0.35
2 6 -4 o 19.404 21.015 146.99 0.76220 0.39
4 4 -6 o 21.364 22.060 -39.48 0.76551 0.44
9 5 -4 o 1.332 1.446 -154.58 0.76240 0.03
6 6 -4 o 20.597 21.613 133.11 0.76012 0.41
12 2 -3 o 1.540 1.666 -52.72 0.76134 0.03
7 3 2 o 1.837 1.865 77.55 0.76656 0.04
6 2 3 o 3.940 3.672 32.14 0.76847 0.08
6 6 0 o 17.952 18.288 -87.23 0.75942 0.36
9 5 -2 o 7.464 8.083 62.37 0.76188 0.15
12 0 -2 o 32.447 30.496 49.10 0.75831 0.32
11 3 -2 o 2.278 2.462 -161.39 0.76182 0.05
8 0 2 o 18.720 19.683 20.39 0.76351 0.19
10 2 0 o 27.302 28.538 -153.05 0.76034 0.55
1 7 2 o 4.776 5.015 177.00 0.73676 0.08
2 6 3 o 0.426 0.427 -27.69 0.73867 0.01
11 1 -7 o 32.753 34.432 65.64 0.73526 0.57
10 2 -7 o 3.229 3.207 123.27 0.73922 0.06
4 2 -7 o 5.219 5.125 -151.80 0.74427 0.10
0 2 6 o 32.907 32.831 163.17 0.74149 0.60
3 7 1 o 2.766 2.710 -157.47 0.73306 0.05
3 1 -7 o 26.344 26.121 105.65 0.74192 0.48
7 3 -7 o 20.771 20.984 -122.13 0.73835 0.37
11 3 -6 o 6.203 6.481 69.42 0.73673 0.11
4 6 2 o 38.948 40.308 -149.33 0.73462 0.68
12 2 -6 o 0.356 0.347 141.65 0.73298 0.01
13 1 -5 o 8.401 7.812 1.84 0.73153 0.14
13 1 -4 o 1.862 1.916 119.61 0.73427 0.03
1 3 -6 o 3.399 3.344 112.36 0.74391 0.06
5 7 -2 o 4.553 4.751 -94.87 0.73535 0.08
5 7 -1 o 6.808 6.399 6.32 0.73213 0.12
0 6 4 o 27.103 30.091 135.44 0.72381 0.45
3 7 -3 o 0.799 0.796 -49.06 0.73337 0.01
3 1 5 o 30.645 30.641 67.91 0.74095 0.55
8 6 -3 o 0.424 0.441 -111.81 0.73513 0.01
1 5 -5 o 25.347 25.806 62.41 0.73792 0.45
5 1 4 o 6.210 6.124 -114.02 0.74283 0.11
9 5 -5 o 0.818 0.808 144.14 0.73322 0.01
7 5 1 o 31.840 32.471 117.53 0.73415 0.55
8 4 1 o 9.758 9.980 -88.77 0.73769 0.17
8 6 -2 o 3.387 3.180 -48.41 0.73183 0.06
10 4 -1 o 2.283 2.373 38.02 0.73557 0.04
12 2 -2 o 0.763 0.718 134.84 0.73173 0.01
8 2 2 o 23.967 24.818 -132.01 0.73640 0.42
9 5 -1 o 1.674 1.590 48.22 0.73229 0.03
9 3 -7 o 17.496 18.963 -43.63 0.72422 0.29
5 3 -7 o 5.638 5.340 -2.74 0.72738 0.10
1 7 -3 o 16.662 17.734 -20.93 0.72172 0.27
2 4 -6 o 15.691 14.945 88.08 0.72710 0.26
5 7 -3 o 13.650 14.446 -62.43 0.72040 0.22
10 4 -6 o 19.692 20.966 50.65 0.72172 0.32
13 1 -6 o 4.028 4.263 -146.70 0.71129 0.06
13 1 -3 o 18.380 18.513 62.67 0.71893 0.29
8 6 -4 o 20.981 22.139 -169.97 0.72026 0.34
1 1 6 o 2.366 2.492 -125.66 0.72038 0.04
7 1 3 o 11.075 11.036 10.07 0.72560 0.18
5 7 0 o 3.048 3.194 65.80 0.71142 0.05
5 5 -6 o 1.645 1.603 -120.14 0.71587 0.03
9 3 1 o 18.722 19.957 -137.01 0.72241 0.31
11 3 -1 o 19.009 19.961 -145.23 0.72020 0.31
7 5 -6 o 3.354 3.616 -168.01 0.71457 0.05
4 6 -5 o 20.040 21.589 99.01 0.71450 0.31
8 0 -8 o 2.531 2.810 -81.16 0.70397 0.02
6 6 1 o 0.946 1.041 -95.74 0.71256 0.01
6 6 -5 o 4.289 4.712 -111.53 0.71343 0.07
0 8 0 o 17.963 14.766 0.00 0.69710 0.13
8 6 -1 o 4.593 4.639 -66.44 0.71107 0.07
11 1 0 o 4.528 4.906 -176.01 0.71256 0.07
10 0 -8 o 43.736 43.357 -36.42 0.69149 0.30
0 8 1 o 13.267 14.097 -113.54 0.68928 0.18
9 1 -8 o 10.408 10.244 39.48 0.69493 0.15
7 1 -8 o 14.370 12.447 -83.04 0.69652 0.20
4 4 4 o 0.546 0.540 -76.72 0.70277 0.01
6 0 -8 o 49.858 49.224 13.11 0.69464 0.35
1 7 3 o 12.826 13.597 -48.50 0.68869 0.17
12 2 -7 o 2.199 2.171 157.89 0.69098 0.03
3 7 2 o 2.615 2.593 -31.77 0.69072 0.04
2 8 -1 o 7.125 7.515 60.60 0.68908 0.10
2 4 5 o 6.544 6.143 173.15 0.69562 0.09
3 5 4 o 3.778 3.752 122.48 0.69399 0.05
2 8 0 o 6.143 5.892 120.84 0.68649 0.08
12 4 -4 o 15.517 13.752 2.03 0.69631 0.22
2 2 -7 o 0.462 0.386 -105.29 0.69789 0.01
11 3 -7 o 8.547 9.002 -134.03 0.68892 0.12
8 4 -7 o 0.673 0.674 53.92 0.69346 0.01
6 4 -7 o 17.366 16.917 -9.49 0.69484 0.24
3 7 -4 o 0.838 0.832 -38.37 0.69111 0.01
3 3 5 o 44.874 44.728 -81.62 0.69359 0.62
5 7 -4 o 0.473 0.476 162.64 0.69033 0.01
2 6 -5 o 12.334 12.365 -60.16 0.69321 0.17
14 0 -4 o 9.819 9.642 -13.88 0.68532 0.07
3 5 -6 o 1.820 1.776 -55.28 0.69465 0.03
9 5 -6 o 4.539 4.500 -125.26 0.69112 0.06
3 3 -7 o 27.737 27.237 -90.34 0.69439 0.39
5 5 3 o 30.055 30.167 152.50 0.69037 0.41
7 7 -2 o 2.453 2.559 55.07 0.68878 0.03
8 6 -5 o 6.956 7.003 67.77 0.69028 0.09
6 4 3 o 7.926 7.903 -129.70 0.69351 0.11
5 3 4 o 27.843 26.714 -93.85 0.69513 0.39
12 4 -5 o 9.227 9.640 168.90 0.68877 0.12
14 0 -6 o 67.930 67.618 44.30 0.67603 0.42
13 3 -4 o 4.615 4.710 171.84 0.68810 0.06
7 7 -3 o 15.907 15.348 -64.00 0.68639 0.21
1 5 5 o 3.173 2.984 -173.65 0.68187 0.04
13 1 -7 o 36.764 33.998 132.83 0.67756 0.46
13 3 -5 o 6.385 6.208 153.53 0.68584 0.08
8 2 -8 o 1.663 1.522 -121.60 0.68256 0.02
13 1 -2 o 1.631 1.690 6.49 0.68865 0.02
11 5 -4 o 7.150 7.404 48.95 0.68853 0.10
12 4 -3 o 9.440 9.671 37.18 0.68825 0.13
9 5 0 o 1.174 1.194 -88.36 0.68994 0.02
9 1 2 o 5.375 5.379 -90.11 0.69293 0.07
10 2 1 o 2.552 2.540 77.13 0.69155 0.04
12 2 -1 o 3.428 3.535 -131.26 0.68941 0.05
6 0 4 o 45.295 45.248 19.42 0.69304 0.31
2 8 -2 o 16.228 15.628 4.24 0.67667 0.20
11 5 -3 o 7.197 7.004 -163.22 0.68575 0.10
0 8 2 o 17.216 17.013 71.42 0.66731 0.20
11 1 -8 o 13.342 12.929 -149.83 0.67294 0.16
10 4 0 o 12.635 12.529 61.49 0.68752 0.17
1 1 -7 o 5.603 5.466 -74.29 0.68540 0.07
5 7 1 o 30.721 28.749 -119.44 0.67729 0.39
2 8 1 o 2.413 2.449 62.47 0.66939 0.03
5 1 -8 o 1.986 1.858 95.64 0.67730 0.03
2 0 6 o 1.445 1.408 118.93 0.68496 0.01
0 4 6 o 44.375 43.650 12.69 0.67349 0.54
1 3 6 o 9.394 9.040 -137.60 0.67664 0.12
2 6 4 o 37.101 37.043 -163.17 0.67051 0.45
7 7 -1 o 85.609 83.741 -129.28 0.67620 1.06
10 2 -8 o 39.435 38.988 153.20 0.67116 0.48
11 5 -5 o 10.819 10.536 112.29 0.67633 0.14
7 3 3 o 0.114 0.107 42.45 0.68095 0.00
6 2 -8 o 60.866 60.172 160.35 0.67404 0.75
4 6 3 o 0.788 0.760 99.43 0.67215 0.01
8 6 0 o 18.379 17.459 150.20 0.67693 0.23
12 0 -8 o 5.094 5.110 21.21 0.66040 0.03
4 8 -1 o 11.531 11.682 -133.75 0.66886 0.14
10 4 -7 o 8.198 7.962 -35.97 0.67178 0.10
4 4 -7 o 3.235 3.193 149.04 0.67557 0.04
13 3 -3 o 19.978 19.776 -105.78 0.67543 0.25
13 3 -6 o 8.809 8.927 -68.34 0.66909 0.11
1 7 -4 o 2.424 2.366 162.35 0.67161 0.03
14 2 -5 o 2.819 2.835 -61.65 0.66811 0.03
4 8 -2 o 9.627 9.102 -100.88 0.66661 0.11
4 2 5 o 5.220 5.083 -22.01 0.67617 0.07
7 7 -4 o 1.303 1.312 -9.88 0.66947 0.02
12 4 -6 o 23.313 22.588 -70.64 0.66709 0.28
7 5 2 o 17.400 16.938 148.60 0.67172 0.21
4 0 -8 o 27.558 25.461 -41.06 0.66591 0.16
14 2 -4 o 17.849 16.309 -70.94 0.66551 0.21
10 6 -3 o 3.765 3.780 -70.42 0.66841 0.05
6 2 4 o 34.554 33.482 -171.77 0.67258 0.42
11 5 -2 o 7.437 7.465 -94.49 0.66853 0.09
8 4 2 o 38.240 38.292 11.77 0.66966 0.46
0 6 5 o 23.741 21.938 27.12 0.65494 0.26
10 6 -4 o 14.438 13.479 78.78 0.66629 0.17
11 3 0 o 4.887 4.870 112.64 0.67014 0.06
4 8 0 o 8.224 8.184 -17.29 0.65738 0.09
12 4 -2 o 26.245 24.391 75.26 0.66615 0.31
2 2 6 o 12.133 10.880 -128.93 0.66518 0.14
14 2 -6 o 5.829 5.683 -153.62 0.65700 0.07
6 6 2 o 11.682 12.142 151.03 0.65953 0.13
6 6 -6 o 20.754 19.636 -105.73 0.66045 0.24
9 3 -8 o 10.889 10.099 78.94 0.65541 0.12
7 3 -8 o 1.750 1.692 -161.32 0.65674 0.02
2 8 -3 o 9.907 11.807 -140.32 0.65152 0.11
10 6 -2 o 7.214 7.009 166.08 0.65684 0.08
4 8 -3 o 14.406 17.933 13.34 0.65103 0.16
12 0 0 o 33.204 34.760 -69.38 0.65858 0.19
1 5 -6 o 8.663 8.284 -93.64 0.65633 0.10
7 5 -7 o 44.446 48.970 75.39 0.65250 0.48
7 7 0 o 3.565 4.460 -148.40 0.65093 0.04
11 5 -6 o 2.085 2.516 100.31 0.65138 0.02
10 6 -5 o 1.473 1.852 -68.16 0.65083 0.02
4 6 -6 o 35.914 39.797 -177.68 0.65239 0.39
8 6 -6 o 22.335 28.640 146.55 0.65043 0.24
5 7 -5 o 20.994 26.892 -143.18 0.65043 0.22
14 2 -3 o 2.706 3.589 -134.46 0.64968 0.03
8 2 3 o 0.928 0.879 63.90 0.65508 0.01
9 3 2 o 8.052 8.164 -58.80 0.65374 0.09
13 3 -2 o 2.764 3.570 116.79 0.65014 0.03
11 1 1 o 38.801 48.480 104.87 0.65064 0.41
