#------------------------------------------------------------------------------
#$Date: 2019-09-16 11:58:52 +0300 (Mon, 16 Sep 2019) $
#$Revision: 218310 $
#$URL: file:///home/coder/svn-repositories/cod/cif/7/23/38/7233864.cif $
#------------------------------------------------------------------------------
#
# This file is available in the Crystallography Open Database (COD),
# http://www.crystallography.net/
#
# All data on this site have been placed in the public domain by the
# contributors.
#
data_7233864
loop_
_publ_author_name
'Teng-Teng Zhu'
'Wei Sun'
'Ya-Xi Huang'
'Zhi-Mei Sun'
'Yuanming Pan'
'Leon Balents'
'Jin-Xiao Mi'
_publ_section_title
;
 Strong spin frustration from isolated triangular Cu(ii) trimers in
 SrCu(OH)3Cl with a novel cuprate layer
;
_journal_name_full               'Journal of Materials Chemistry C'
_journal_page_first              8170
_journal_page_last               8178
_journal_paper_doi               10.1039/C4TC01416B
_journal_volume                  2
_journal_year                    2014
_chemical_formula_sum            'Cl Cu H3 O3 Sr'
_chemical_formula_weight         237.63
_space_group_crystal_system      orthorhombic
_space_group_IT_number           31
_space_group_name_Hall           'P 2ac -2'
_space_group_name_H-M_alt        'P m n 21'
_atom_sites_solution_hydrogens   difmap
_atom_sites_solution_primary     direct
_atom_sites_solution_secondary   difmap
_cell_angle_alpha                90
_cell_angle_beta                 90
_cell_angle_gamma                90
_cell_formula_units_Z            6
_cell_length_a                   16.131(3)
_cell_length_b                   6.4733(11)
_cell_length_c                   6.5363(11)
_cell_measurement_reflns_used    5308
_cell_measurement_temperature    173(2)
_cell_measurement_theta_max      28.391
_cell_measurement_theta_min      2.525
_cell_volume                     682.5(2)
_computing_cell_refinement       'SAINT (Bruker, 2001)'
_computing_data_collection       'SMART (Bruker, 2001)'
_computing_data_reduction        'SAINT (Bruker, 2001)'
_computing_molecular_graphics
'DIAMOND (Brandenburg, 2011) & ATOMS (Dowty, 2004)'
_computing_publication_material  'SHELXL-2013 (Sheldrick, 2013)'
_computing_structure_refinement  'SHELXL-2013 (Sheldrick, 2013)'
_computing_structure_solution    'SHELXL-2013 (Sheldrick, 2013)'
_diffrn_ambient_temperature      173(2)
_diffrn_measured_fraction_theta_full 0.994
_diffrn_measured_fraction_theta_max 0.960
_diffrn_measurement_device_type
'Bruker SMART APEX CCD area-detector diffractometer'
_diffrn_measurement_method
'1800 images,\f = 0, 90, 180\%, \c = 54.74\%, \D\w=0.3\%, Exp time: 15 s.'
_diffrn_radiation_type           MoK\a
_diffrn_radiation_wavelength     0.71073
_diffrn_reflns_av_R_equivalents  0.0424
_diffrn_reflns_av_unetI/netI     0.0523
_diffrn_reflns_Laue_measured_fraction_full 0.994
_diffrn_reflns_Laue_measured_fraction_max 0.960
_diffrn_reflns_limit_h_max       21
_diffrn_reflns_limit_h_min       -21
_diffrn_reflns_limit_k_max       8
_diffrn_reflns_limit_k_min       -8
_diffrn_reflns_limit_l_max       8
_diffrn_reflns_limit_l_min       -8
_diffrn_reflns_number            5308
_diffrn_reflns_point_group_measured_fraction_full 0.995
_diffrn_reflns_point_group_measured_fraction_max 0.958
_diffrn_reflns_theta_full        25.242
_diffrn_reflns_theta_max         28.391
_diffrn_reflns_theta_min         2.525
_diffrn_source                   'fine-focus sealed tube'
_exptl_absorpt_coefficient_mu    16.841
_exptl_absorpt_correction_T_max  0.823
_exptl_absorpt_correction_T_min  0.602
_exptl_absorpt_correction_type   multi-scan
_exptl_absorpt_process_details   'SADABS (Bruker, 2001)'
_exptl_crystal_colour            blue
_exptl_crystal_density_diffrn    3.469
_exptl_crystal_description       prism
_exptl_crystal_F_000             666
_exptl_crystal_size_max          0.280
_exptl_crystal_size_mid          0.180
_exptl_crystal_size_min          0.080
_refine_diff_density_max         1.073
_refine_diff_density_min         -0.785
_refine_diff_density_rms         0.196
_refine_ls_abs_structure_details
;
 Refined as an inversion twin.
;
_refine_ls_abs_structure_Flack   0.050(14)
_refine_ls_extinction_coef       .
_refine_ls_extinction_method     none
_refine_ls_goodness_of_fit_ref   1.033
_refine_ls_hydrogen_treatment    refxyz
_refine_ls_matrix_type           full
_refine_ls_number_parameters     107
_refine_ls_number_reflns         1627
_refine_ls_number_restraints     6
_refine_ls_restrained_S_all      1.031
_refine_ls_R_factor_all          0.0299
_refine_ls_R_factor_gt           0.0290
_refine_ls_shift/su_max          0.001
_refine_ls_shift/su_mean         0.000
_refine_ls_structure_factor_coef Fsqd
_refine_ls_weighting_details
;
 w=1/[\s^2^(Fo^2^)+(0.0196P)^2^]
 where P=(Fo^2^+2Fc^2^)/3
;
_refine_ls_weighting_scheme      calc
_refine_ls_wR_factor_gt          0.0621
_refine_ls_wR_factor_ref         0.0625
_reflns_Friedel_coverage         0.840
_reflns_Friedel_fraction_full    0.997
_reflns_Friedel_fraction_max     0.956
_reflns_number_gt                1596
_reflns_number_total             1627
_reflns_threshold_expression     'I > 2\s(I)'
_cod_data_source_file            J-Mater-Chem-C-2014-2-8170.cif
_cod_data_source_block           mic
_cod_database_code               7233864
_shelx_space_group_comment
;
The symmetry employed for this shelxl refinement is uniquely defined
by the following loop, which should always be used as a source of
symmetry information in preference to the above space-group names.
They are only intended as comments.
;
_shelx_estimated_absorpt_t_min   0.088
_shelx_estimated_absorpt_t_max   0.346
_shelxl_version_number           2013-2
_shelx_res_file
;
TITL mi in Pmn2(1)
CELL 0.71073  16.1306   6.4733   6.5363   90.000  90.000  90.000
ZERR    6.00   0.0027   0.0011   0.0011   0.000   0.000   0.000
LATT -1
SYMM 0.5-X, -Y, 0.5+Z
SYMM 0.5+X, -Y, 0.5+Z
SYMM -X, Y, Z
SFAC O  H Cl Cu Sr
UNIT 18 18 6  6  6
TEMP -100

ACTA
L.S. 4
SIZE 0.28 0.18 0.08
HTAB
BOND $H

EQIV $1 -x+3/2, -y+1, z-1/2
EQIV $2 -x+3/2, -y+1, z+1/2
EQIV $3 x, y, z+1
EQIV $4 x, y, z-1
EQIV $5 x, y+1, z

HTAB O1 Cl2_$1
HTAB O2 Cl1_$3
HTAB O3 Cl2_$4
HTAB O3 Cl2_$1
HTAB O4 Cl2
HTAB O5 Cl2_$5
HTAB O5 O3_$2

FMAP 2
PLAN 40
TWIN -1 0 0  0 -1 0  0 0 -1 2

WGHT    0.019600
BASF   0.04999
FVAR       0.13071
SR1   5    0.500000    0.665327    0.585712    10.50000    0.00673    0.00920 =
         0.00902   -0.00055    0.00000    0.00000
SR2   5    0.673217    0.929496    0.915717    11.00000    0.00541    0.01034 =
         0.00963    0.00041    0.00010   -0.00048
CU1   4    0.500000    0.530063    0.090177    10.50000    0.00456    0.00995 =
         0.01015    0.00140    0.00000    0.00000
CU2   4    0.601034    0.202592    0.410209    11.00000    0.00502    0.00809 =
         0.01059    0.00165    0.00115    0.00073
CL1   3    0.500000    0.060567    0.027589    10.50000    0.00760    0.01768 =
         0.01812   -0.00255    0.00000    0.00000
CL2   3    0.736633    0.323913    0.733341    11.00000    0.01195    0.00966 =
         0.01671   -0.00186    0.00324   -0.00102
O1    1    0.582152    0.484936    0.306020    11.00000    0.00477    0.01086 =
         0.00832    0.00137    0.00012   -0.00183
O2    1    0.500000    0.253590    0.568670    10.50000    0.00559    0.01143 =
         0.01389    0.00025    0.00000    0.00000
O3    1    0.695914    0.161245    0.227773    11.00000    0.00651    0.00852 =
         0.01379    0.00024    0.00470    0.00113
O4    1    0.586288    0.606957    0.897886    11.00000    0.00609    0.00944 =
         0.01455    0.00509   -0.00099    0.00012
O5    1    0.615881    0.933215    0.538749    11.00000    0.00797    0.00775 =
         0.01401    0.00267   -0.00157   -0.00278
DFIX 0.82 0.02 O1 H1
H1    2    0.628917    0.525122    0.284993    11.00000    0.00692
DFIX 0.82 0.02 O2 H2
H2    2    0.500000    0.167854    0.661147    10.50000    0.03451
DFIX 0.82 0.02 O3 H3
H3    2    0.709570    0.269498    0.176474    11.00000    0.01685
DFIX 0.82 0.02 O4 H4
H4    2    0.616378    0.506811    0.901384    11.00000    0.01219
DFIX 0.82 0.02 O5 H5
H5    2    0.657571    0.942895    0.606832    11.00000   10.04000

HKLF 4

REM  mi in Pmn2(1)
REM R1 =  0.0290 for    1596 Fo > 4sig(Fo)  and  0.0299 for all    1627 data
REM    107 parameters refined using      6 restraints

END

WGHT      0.0121      0.0000

REM Instructions for potential hydrogen bonds
HTAB O1 Cl2_$1
HTAB O2 Cl1_$3
HTAB O3 Cl2_$4
HTAB O3 Cl2_$1
HTAB O4 Cl2
HTAB O5 Cl2_$5
HTAB O5 O3_$2

REM Highest difference peak  1.073,  deepest hole -0.785,  1-sigma level  0.196
Q1    1   0.6753  0.9321  1.0453  11.00000  0.05    1.07
Q2    1   0.5000  0.5240  0.5863  10.50000  0.05    1.04
Q3    1   0.5000  0.6577  0.4635  10.50000  0.05    1.02
Q4    1   0.5000  0.6555  0.7149  10.50000  0.05    1.01
Q5    1   0.6741  0.9287  0.7844  11.00000  0.05    0.96
Q6    1   0.5000  0.5148 -0.0392  10.50000  0.05    0.90
Q7    1   0.5000  0.6772  0.0804  10.50000  0.05    0.88
Q8    1   0.7193  0.9921  0.9086  11.00000  0.05    0.85
Q9    1   0.4688  0.7730  0.5630  11.00000  0.05    0.83
Q10   1   0.6401  0.8411  0.4435  11.00000  0.05    0.80
Q11   1   0.4712  0.4028  0.0794  11.00000  0.05    0.80
Q12   1   0.7069  0.8441  0.9234  11.00000  0.05    0.76
Q13   1   0.6013  0.2092  0.5494  11.00000  0.05    0.76
Q14   1   0.6589  0.1810  0.4115  11.00000  0.05    0.74
Q15   1   0.6719  1.0637  0.9182  11.00000  0.05    0.73
Q16   1   0.5806  0.3363  0.4134  11.00000  0.05    0.71
Q17   1   0.6227  0.9536  0.9267  11.00000  0.05    0.70
Q18   1   0.6326  0.8763  0.9354  11.00000  0.05    0.68
Q19   1   0.5998  0.2199  0.2639  11.00000  0.05    0.65
Q20   1   0.4409  0.6584  0.5723  11.00000  0.05    0.64
Q21   1   0.6128  1.0505  0.4424  11.00000  0.05    0.62
Q22   1   0.5000  0.5745  0.2242  10.50000  0.05    0.61
Q23   1   0.5000  0.2092  0.0531  10.50000  0.05    0.61
Q24   1   0.7489  0.2072  0.7104  11.00000  0.05    0.61
Q25   1   0.5000  0.4784  0.4874  10.50000  0.05    0.61
Q26   1   0.6787  0.3344  0.7687  11.00000  0.05    0.60
Q27   1   0.6617  0.8036  0.9590  11.00000  0.05    0.59
Q28   1   0.5974  0.8285  0.5988  11.00000  0.05    0.58
Q29   1   0.6939  0.8698  0.4168  11.00000  0.05    0.58
Q30   1   0.5000  0.0676 -0.0980  10.50000  0.05    0.56
Q31   1   0.6643  0.2294  0.3290  11.00000  0.05    0.56
Q32   1   0.4508  0.5650  0.0890  11.00000  0.05    0.55
Q33   1   0.5811  0.5237  0.7612  11.00000  0.05    0.55
Q34   1   0.5694  0.5113  0.1342  11.00000  0.05    0.55
Q35   1   0.6717  0.6786  0.7396  11.00000  0.05    0.52
Q36   1   0.5000  0.2606  0.2319  10.50000  0.05    0.52
Q37   1   0.6308  0.2940  1.0227  11.00000  0.05    0.50
Q38   1   0.6296  0.7375  1.0976  11.00000  0.05    0.50
Q39   1   0.6628  1.1956  0.9223  11.00000  0.05    0.50
Q40   1   0.4704  0.1479 -0.0818  11.00000  0.05    0.49
;
_shelx_res_checksum              61002
_shelx_hkl_file
;
   0   1   0   58.30    3.52
   0  -1   0   54.91    3.47
   0   1   0   55.05    3.61
   0   2   0   12.44    1.35
   0  -2   0   10.57    1.06
   0   2   0   10.67    1.12
   0   3   0    0.55    0.53
   0   3   0    2.18    0.65
   0  -3   0    0.91    0.49
   0  -4   0    0.96    0.63
   0   4   0    0.51    0.65
   0   4   0    1.73    0.64
   0  -6   0    3.26    1.14
   0   6   0    2.95    1.17
   0   7   0  297.53   18.82
   0  -7   0  278.52   18.51
   0  -8   0  175.11   12.43
   0   0  -1    1.67    0.20
   0   0  -1    0.76    0.19
   0   0   1    1.04    0.23
   0   1  -1  335.88   18.48
   0  -1  -1  311.65   18.52
   0   1  -1  319.47   18.62
   0  -1  -1  318.02   18.66
   0   1   1  310.80   18.76
   0   2  -1  392.10   22.61
   0  -2  -1  391.10   22.36
   0  -2  -1  366.98   22.53
   0   3  -1   59.93    4.43
   0  -3  -1   58.87    4.12
   0  -4  -1   85.59    5.71
   0   4   1   71.25    5.70
   0   4  -1   88.41    6.13
   0   5  -1  141.04    9.59
   0   5   1  135.96    9.62
   0  -5   1  126.94    9.12
   0   5   1  149.19    9.56
   0  -5  -1  134.21    9.16
   0   6   1   93.75    7.37
   0   6  -1  103.07    7.53
   0  -6  -1   99.40    7.15
   0  -6   1   87.98    6.96
   0  -7  -1    0.69    0.85
   0  -7   1    1.77    1.07
   0   7  -1    0.58    0.78
   0  -8   1   20.31    2.81
   0  -8  -1   17.16    2.70
   0   0   2  410.04   23.96
   0   0  -2  405.86   23.85
   0   0  -2  416.68   23.98
   0  -1  -2  490.25   28.21
   0   1  -2  475.83   27.93
   0   2  -2   31.85    2.74
   0  -2  -2   33.39    2.57
   0   2   2   37.94    3.11
   0  -2  -2   32.78    2.47
   0   2  -2   36.93    2.40
   0  -3  -2   62.74    4.49
   0  -3   2   72.57    4.60
   0   3  -2   62.81    4.83
   0   3   2   62.94    5.10
   0   3  -2   66.87    4.21
   0  -3  -2   63.08    4.50
   0  -4   2    2.09    0.81
   0  -4  -2    0.42    0.60
   0   4  -2    1.85    0.95
   0   4  -2    2.35    0.53
   0   4   2    2.48    1.05
   0  -4  -2    1.52    0.76
   0  -5   2   56.96    4.16
   0  -5  -2   47.35    4.01
   0   5  -2   40.03    4.17
   0   6   2  161.70   10.52
   0  -6   2  154.32    9.95
   0  -6  -2  131.17    9.82
   0   6  -2  123.86   10.03
   0   7  -2  124.90    9.56
   0  -7   2  123.74    9.10
   0  -7  -2  129.11    9.34
   0  -8   2   39.25    4.27
   0  -8  -2   47.58    4.70
   0   8  -2   43.54    4.64
   0   0  -3    1.18    0.46
   0   0  -3    1.58    0.32
   0   0   3    1.39    0.53
   0   1  -3  676.12   38.14
   0  -1  -3  631.95   38.23
   0   1   3  665.97   38.47
   0   1  -3  634.21   38.35
   0  -1  -3  687.73   38.52
   0  -1   3  652.54   38.29
   0  -2   3   44.90    3.13
   0  -2  -3   42.99    3.32
   0  -2  -3   43.89    3.15
   0   2  -3   42.29    3.52
   0   2  -3   47.30    3.15
   0   2   3   44.38    3.75
   0  -3  -3   60.51    4.21
   0  -3   3   47.54    3.92
   0  -3  -3   58.09    4.04
   0   3  -3   56.60    4.49
   0  -4  -3  237.79   14.36
   0   4  -3  235.77   14.85
   0  -4   3  234.49   14.33
   0   4   3  208.34   15.03
   0  -4  -3  229.46   14.32
   0  -5   3    4.83    1.22
   0   5  -3    8.26    1.82
   0  -5  -3    6.80    1.39
   0   5   3    4.68    1.42
   0  -6  -3  178.49   11.82
   0  -6   3  167.99   11.62
   0   6  -3  173.95   12.27
   0  -7   3   29.91    3.32
   0   7  -3   29.11    3.64
   0  -7  -3   30.59    3.44
   0   8  -3   53.10    5.47
   0  -8  -3   53.04    5.19
   0   0   4  190.17   11.96
   0   0  -4  188.64   11.70
   0  -1   4  252.28   15.14
   0  -1   4  261.76   14.44
   0  -1  -4  224.49   14.74
   0   1  -4  222.94   14.59
   0   1   4  258.76   15.20
   0  -1  -4  231.76   14.60
   0  -2  -4   29.75    2.32
   0   2  -4   23.94    2.61
   0   2  -4   27.13    2.27
   0  -2   4   22.09    2.04
   0   2   4   21.89    2.66
   0  -2  -4   31.85    2.61
   0  -3  -4   33.42    2.69
   0  -3   4   23.26    2.44
   0   3  -4   31.59    2.50
   0  -3  -4   33.67    2.91
   0   3  -4   29.27    3.09
   0  -4  -4    8.14    1.34
   0  -4  -4    7.42    1.46
   0  -4   4    9.97    1.41
   0   4  -4    8.04    1.82
   0  -5  -4   38.48    3.43
   0  -5  -4   37.91    3.58
   0   5  -4   34.12    3.85
   0  -5   4   33.65    3.28
   0   6   4   45.18    4.67
   0  -6   4   46.77    4.22
   0   6  -4   49.65    4.93
   0  -7   4   59.45    5.22
   0   7  -4   59.89    5.89
   0   0  -5    0.16    0.61
   0   0   5    0.23    0.60
   0  -1   5   89.25    7.01
   0   1  -5  106.84    6.74
   0   1   5   89.22    7.04
   0  -1  -5  105.48    6.88
   0   2  -5  287.33   17.80
   0   2   5  325.52   18.97
   0   2  -5  285.61   18.47
   0  -2  -5  276.75   18.07
   0   3  -5   72.36    5.27
   0  -3  -5   74.40    5.72
   0   3  -5   74.25    6.12
   0   3   5   79.92    6.68
   0   4  -5   21.71    2.95
   0  -4  -5   17.98    2.43
   0   4   5   29.02    3.64
   0  -5  -5  141.56    9.92
   0   5  -5  137.86   10.50
   0   6  -5   68.77    6.49
   0   0  -6  759.58   42.12
   0   0   6  660.35   42.33
   0   1   6   16.56    2.54
   0   1  -6   28.11    2.67
   0  -1   6   17.92    2.55
   0  -1  -6   29.27    2.83
   0  -2   6   12.42    2.10
   0   2   6   14.45    2.25
   0   2  -6    8.62    1.48
   0  -2  -6    7.93    1.75
   0  -3  -6    8.03    1.74
   0   3   6    6.29    1.96
   0   3  -6    6.96    1.89
   0   4  -6    5.43    1.78
   0  -4  -6    5.55    1.56
   0   5  -6    6.82    2.04
   0  -5  -6    6.93    1.76
   0  -6  -6    4.36    1.49
   0   0  -7    0.38    0.79
   0   0   7    0.05    0.56
   0  -1   7   67.42    5.87
   0   1   7   65.37    5.91
   0   1  -7   57.24    5.12
   0  -1  -7   65.65    5.43
   0   2  -7   64.67    4.97
   0  -2  -7   59.95    5.17
   0  -2   7   46.83    5.16
   0   2   7   58.78    5.70
   0  -3   7   21.35    3.11
   0   3   7   23.87    3.44
   0  -3  -7   15.25    2.43
   0  -4  -7    2.74    1.31
   0  -4   7    4.34    1.75
   0   0  -8   49.09    4.59
   0   0   8   44.92    4.94
   0   1   8  128.07   10.35
   0   1  -8  134.72    9.56
   0  -1  -8  131.77    9.70
   0  -1   8  126.74   10.22
   0   2   8    9.21    2.41
   0  -2   8    9.98    2.38
   0  -2  -8    6.71    1.96
  -1   0   0    0.37    0.10
   1   0   0    0.44    0.14
  -1   0   0    0.15    0.07
  -1   1   0    2.53    0.52
  -1  -1   0    1.67    0.28
   1  -1   0    2.14    0.31
   1   1   0    1.67    0.42
   1  -1   0    1.65    0.20
   1   1   0    1.83    0.31
   1   2   0  172.26   10.63
   1   2   0  176.17   10.43
  -1   2   0  166.41   10.73
   1  -2   0  176.70   10.39
  -1  -2   0  166.84   10.37
  -1   3   0  321.92   19.76
   1  -3   0  318.95   19.35
   1   3   0  332.06   19.63
   1   3   0  318.97   19.35
  -1   4   0  207.09   12.17
   1   4   0  193.97   12.50
   1   4   0  191.34   12.21
   1  -4   0  185.86   12.07
  -1  -4   0  179.31   12.03
  -1   4   0  197.19   12.68
  -1   5   0    0.49    0.74
   1   5   0    1.03    0.77
  -1  -5   0    0.73    0.75
   1  -5   0   -0.26    0.59
   1   5   0    1.22    0.64
   1   6   0   27.95    3.07
  -1   6   0   31.87    3.45
   1  -6   0   29.55    3.06
  -1  -6   0   28.34    3.04
  -1   7   0    5.60    1.70
   1  -7   0    4.77    1.48
  -1  -7   0    5.51    1.56
  -1  -8   0   12.23    2.40
   1  -8   0   10.70    2.26
   1   0  -1   24.32    1.58
  -1   0  -1   23.54    1.56
  -1   0  -1   22.93    1.63
  -1   0  -1   22.69    1.57
  -1  -1  -1   25.14    1.77
   1  -1  -1   23.79    1.62
  -1   1  -1   25.06    1.88
   1  -1  -1   24.24    1.67
   1   1  -1   25.32    1.77
  -1  -1  -1   23.08    1.69
  -1   2  -1  469.33   26.08
   1   2   1  448.84   26.55
  -1   2  -1  442.84   26.62
   1  -2  -1  439.55   26.18
   1   2  -1  439.00   26.37
   1   2  -1  470.67   26.48
  -1  -2   1  470.99   26.57
  -1  -2  -1  448.73   26.39
  -1  -2  -1  434.11   26.53
   1  -2   1  471.64   26.56
   1  -2  -1  435.62   26.49
  -1  -3   1  217.01   12.69
   1   3   1  219.35   12.92
   1  -3  -1  197.41   12.39
   1   3   1  224.88   12.88
   1   3  -1  194.71   12.68
  -1  -3  -1  191.46   12.61
  -1   3  -1  215.34   12.21
   1   3  -1  192.03   12.70
  -1   3   1  217.31   13.28
  -1   3  -1  191.97   12.95
   1  -3   1  222.80   12.72
   1  -3  -1  192.61   12.58
   1   4  -1   45.30    3.98
  -1   4   1   56.59    4.00
  -1  -4   1   52.67    3.93
  -1   4  -1   53.26    3.51
   1   4   1   57.66    4.29
  -1   4  -1   45.76    4.23
   1  -4  -1   43.88    3.77
  -1   4   1   51.99    4.47
   1   4   1   53.47    4.19
   1   4  -1   48.13    3.98
  -1  -4  -1   46.18    3.84
   1  -4   1   53.40    3.94
   1  -5   1   53.49    4.37
  -1   5   1   59.10    5.02
  -1   5  -1   50.85    4.74
   1  -5  -1   49.83    4.29
   1   5   1   59.41    4.71
  -1  -5   1   57.15    4.42
   1   5  -1   49.30    4.45
   1   5   1   67.07    4.96
  -1  -5  -1   49.09    4.32
   1   6   1   51.31    4.64
  -1   6   1   50.09    4.95
   1  -6   1   46.73    4.43
   1  -6  -1   56.19    4.63
  -1  -6   1   47.67    4.44
  -1   6  -1   60.22    5.20
   1   6  -1   61.76    4.95
  -1  -6  -1   62.66    4.85
  -1  -7  -1    4.68    1.56
  -1   7  -1    5.47    1.67
  -1  -7   1    1.96    1.19
   1   7  -1    6.62    1.66
   1  -7  -1    2.88    1.32
   1  -7   1    2.93    1.27
  -1   7   1    2.48    1.13
   1  -8  -1    1.52    1.13
  -1  -8  -1    2.88    1.37
  -1   8  -1    2.82    1.22
   1  -8   1    0.77    0.98
  -1  -8   1    1.26    1.14
  -1   0  -2    0.96    0.38
  -1   0   2    1.33    0.42
   1   0  -2    1.19    0.37
  -1   0  -2    0.74    0.31
  -1   0   2    0.92    0.16
  -1   0  -2    1.22    0.33
  -1  -1  -2   98.32    6.52
   1   1   2  114.33    6.66
   1   1  -2   98.93    6.59
  -1   1  -2  106.64    6.37
  -1   1  -2   96.80    6.61
   1  -1   2  104.25    6.43
  -1  -1  -2  110.18    6.56
   1  -1  -2  101.21    6.47
  -1   1   2  110.25    6.83
   1   1  -2  103.07    6.44
   1  -1  -2  103.93    6.32
  -1  -1   2  114.13    6.38
  -1  -2  -2   52.32    3.54
   1   2  -2   51.71    3.74
  -1  -2  -2   51.18    3.63
  -1   2  -2   54.36    3.92
   1  -2  -2   50.91    3.46
   1  -2  -2   50.89    3.54
   1   3  -2  102.27    6.93
   1  -3  -2   99.21    6.58
  -1   3  -2  100.51    7.12
  -1  -3  -2   97.13    6.67
  -1  -3  -2  100.80    6.75
  -1  -3   2  114.05    6.77
   1   3   2  100.09    7.15
  -1   3   2   87.85    7.27
   1  -3   2  110.26    6.73
   1   3  -2  110.52    6.55
   1  -3  -2   97.58    6.61
  -1   3  -2  109.49    6.23
  -1   4   2   90.31    7.26
   1   4  -2  106.02    7.02
   1  -4  -2  101.00    6.64
  -1   4  -2   86.79    6.98
  -1  -4  -2   98.18    6.68
   1   4   2  102.68    6.95
   1   4   2   99.03    7.04
  -1  -4   2   92.74    6.59
  -1  -5   2   11.62    1.70
  -1   5   2   12.58    2.09
  -1   5  -2   13.53    2.16
   1   5   2   14.07    2.03
  -1   5   2   13.53    1.86
   1   5  -2   11.51    1.86
   1  -5  -2   14.16    1.86
  -1  -5  -2   12.93    1.78
   1  -5   2   10.83    1.72
  -1   6   2   11.33    2.22
   1  -6  -2   11.28    1.88
   1   6  -2   10.88    2.04
  -1   6  -2   12.64    2.36
  -1  -6   2   10.73    1.88
   1  -6   2    9.98    1.77
  -1  -6  -2   10.32    1.89
   1  -7  -2   62.75    5.49
   1   7  -2   62.34    5.59
  -1  -7  -2   62.48    5.50
  -1   7  -2   63.29    5.88
  -1  -7   2   64.99    5.39
   1  -7   2   60.42    5.32
  -1  -8  -2   46.01    4.77
  -1  -8   2   48.68    4.73
  -1   8  -2   45.91    4.98
   1  -8  -2   51.62    4.94
   1  -8   2   43.52    4.50
   1   0  -3   15.67    1.59
  -1   0   3   19.57    1.25
   1   0   3   20.44    1.82
  -1   0  -3   15.54    1.57
  -1   0  -3   16.64    1.47
  -1   0   3   21.66    1.87
   1   1  -3    7.49    1.12
   1   1  -3    6.94    0.95
  -1   1   3    7.36    1.15
  -1  -1  -3    7.58    0.98
  -1  -1  -3    7.05    0.99
  -1   1  -3    7.01    1.10
   1   1   3    7.90    1.11
   1  -1  -3    8.51    0.81
   1  -1  -3    6.51    0.94
  -1  -1   3    8.03    0.76
   1  -1   3    7.67    0.82
  -1   1  -3    7.24    0.91
   1  -2  -3    9.39    1.21
   1   2   3   12.05    1.56
  -1   2  -3    8.47    1.38
   1  -2   3   11.12    1.17
   1  -2  -3    9.44    1.04
  -1   2   3   10.19    1.59
  -1   2  -3   10.14    1.07
  -1  -2   3   11.86    1.14
  -1  -2  -3    9.41    1.30
  -1  -2  -3   10.85    1.21
   1   2  -3    9.40    1.14
   1  -3  -3  234.79   14.38
  -1  -3  -3  233.61   14.51
   1  -3  -3  238.25   14.44
   1  -3   3  239.32   14.43
   1   3  -3  235.71   14.76
  -1  -3  -3  226.58   14.45
  -1   3  -3  222.40   14.88
   1   3  -3  255.67   14.23
   1   4  -3   77.90    5.93
   1   4   3   79.87    6.23
  -1   4  -3   82.45    6.21
   1  -4   3   75.61    5.49
  -1  -4  -3   79.33    5.69
  -1   4   3   64.40    6.20
   1   4  -3   82.64    5.21
  -1  -4   3   80.86    5.55
   1  -4  -3   71.03    5.43
   1  -5  -3   53.59    4.44
  -1   5   3   59.08    5.31
  -1  -5  -3   51.06    4.41
   1   5  -3   52.57    4.80
   1   5   3   53.63    4.81
  -1   5  -3   54.70    5.04
   1   5   3   58.44    4.89
   1  -5   3   57.55    4.52
  -1  -5   3   55.72    4.46
   1  -5  -3   51.50    4.41
   1  -6  -3    4.87    1.44
  -1   6  -3    6.81    1.90
  -1  -6  -3    6.43    1.56
   1   6   3    7.35    1.80
  -1  -6   3    4.77    1.40
   1   6  -3    5.67    1.70
   1  -6   3    4.97    1.39
  -1   6   3    6.66    1.85
   1  -7   3    5.11    1.50
  -1   7  -3    2.94    1.18
  -1  -7   3    7.88    1.73
   1  -7  -3    1.58    1.06
   1   7  -3    4.06    1.35
  -1  -7  -3    0.85    1.05
  -1  -8  -3    0.79    1.00
  -1   8  -3    1.34    0.92
   1  -8  -3    1.40    1.04
   1   0  -4    0.57    0.54
  -1   0   4    0.70    0.21
   1   0   4    0.23    0.48
  -1   0  -4    0.56    0.34
  -1   0  -4    0.48    0.56
  -1   0   4    0.34    0.49
  -1  -1   4   50.15    4.29
  -1   1  -4   55.97    4.38
   1  -1  -4   57.23    4.16
  -1  -1   4   58.13    3.65
  -1  -1  -4   54.45    4.02
  -1   1  -4   60.19    4.07
  -1   1   4   54.03    4.43
   1   1  -4   56.67    4.07
  -1  -1  -4   54.98    4.15
   1  -1   4   52.96    3.74
   1   1   4   56.24    4.37
   1  -1  -4   62.85    3.74
  -1   2  -4   37.34    2.98
  -1   2  -4   33.40    3.39
   1   2  -4   36.20    3.05
   1  -2  -4   38.46    2.95
  -1  -2  -4   37.61    3.14
   1   2   4   49.68    3.87
  -1   2   4   45.94    3.94
   1   3  -4  102.65    6.75
   1  -3  -4  102.18    7.04
  -1  -3  -4   98.82    7.07
   1   3   4   93.51    7.68
   1  -3   4  102.79    6.83
  -1   3  -4  101.54    7.51
  -1  -3   4  101.59    6.80
  -1  -3  -4  106.50    7.01
   1  -3  -4  110.65    6.89
  -1   3  -4  110.38    6.68
   1   3  -4  101.58    7.40
   1  -4  -4   71.65    5.20
  -1   4  -4   70.92    5.94
   1   4  -4   69.55    5.76
   1  -4  -4   75.19    5.42
  -1  -4  -4   68.91    5.44
  -1   4   4   62.92    6.20
  -1  -4  -4   70.25    5.29
   1  -4   4   78.12    5.31
  -1  -5  -4   23.20    2.70
  -1   5  -4   21.16    2.99
   1  -5  -4   22.27    2.60
  -1   5   4   20.65    3.06
  -1  -5   4   22.65    2.47
   1  -5   4   22.30    2.51
  -1  -5  -4   21.84    2.55
   1   5  -4   22.56    2.90
  -1  -6  -4    5.94    1.53
  -1   6  -4    6.25    1.96
   1   6   4    8.70    2.07
  -1  -6   4    7.68    1.63
   1   6  -4    6.85    1.88
   1  -6   4    7.91    1.63
  -1  -7   4   29.66    3.40
   1  -7   4   31.95    3.54
  -1   7  -4   39.22    4.43
   1   7  -4   34.99    4.04
   1   0  -5    3.45    1.00
  -1   0   5    4.70    1.24
   1   0   5    4.58    1.17
  -1   0  -5    4.89    1.11
   1  -1   5    8.57    1.63
   1  -1  -5    5.72    1.32
  -1   1   5    9.97    1.66
   1   1  -5    6.71    1.27
  -1  -1   5   10.95    1.68
  -1   1  -5    7.04    1.25
   1   1   5   11.02    1.70
  -1  -1  -5    5.28    1.25
   1   2   5  188.85   12.69
  -1   2  -5  184.44   11.82
  -1   2  -5  187.39   12.57
   1   2  -5  197.28   11.98
   1  -2  -5  189.78   12.16
  -1  -2   5  189.50   12.58
  -1   2   5  188.32   12.85
  -1  -2  -5  188.89   12.20
  -1   3   5   26.66    3.45
   1  -3  -5   27.88    2.84
   1   3  -5   30.51    2.63
  -1  -3  -5   25.91    2.83
   1   3   5   28.33    3.40
  -1   3  -5   29.40    3.30
   1   3  -5   26.39    3.10
   1  -4  -5    8.66    1.69
   1   4  -5    9.15    2.02
  -1  -4  -5    6.16    1.56
  -1   4  -5    5.31    1.78
  -1   4   5    6.10    2.03
   1   5  -5   40.11    4.40
   1  -5  -5   42.93    4.07
  -1   5  -5   42.30    4.62
  -1  -5  -5   44.74    4.21
   1   6   5   22.32    3.21
  -1   6  -5   20.19    3.15
   1  -6  -5   23.27    2.88
   1   6  -5   21.62    3.12
   1   0   6    0.02    0.56
  -1   0  -6    0.63    0.75
   1   0  -6    0.52    0.75
  -1   0   6    0.22    0.73
  -1  -1   6    7.33    1.67
   1   1  -6    4.84    1.27
  -1   1   6    7.57    1.76
   1   1   6    7.62    1.74
   1  -1  -6    5.45    1.39
  -1  -1  -6    3.28    1.22
   1  -1   6    6.92    1.67
  -1   1  -6    4.45    1.24
  -1   2   6   19.13    2.87
   1   2  -6   25.42    2.53
   1  -2   6   22.69    2.97
  -1  -2   6   21.12    2.85
   1  -2  -6   21.66    2.58
  -1   2  -6   24.86    2.50
   1   2   6   22.90    2.95
  -1  -2  -6   24.65    2.75
  -1   3  -6   93.95    7.63
   1   3  -6   95.53    6.66
  -1   3   6   96.37    8.15
  -1  -3  -6   89.19    7.01
   1   3   6   98.04    7.99
   1  -3  -6   93.18    7.05
  -1  -3   6   85.93    7.42
  -1   4   6   70.86    7.14
  -1  -4  -6   70.47    5.98
   1  -4  -6   69.05    5.89
   1   4  -6   78.20    6.63
  -1   4  -6   75.38    6.70
  -1  -5  -6    3.86    1.48
  -1   5  -6    4.06    1.59
   1  -5  -6    3.11    1.24
   1   5  -6    3.59    1.50
   1   6   6   10.70    2.56
   1  -6  -6   12.81    2.14
  -1   0  -7   10.92    1.93
  -1   0   7    6.47    1.85
   1   0  -7    8.52    1.77
   1   0   7    6.60    1.80
   1  -1   7    2.20    1.11
   1   1   7    4.16    1.46
  -1   1  -7    3.83    1.29
   1  -1  -7    3.47    1.35
  -1  -1   7    2.89    1.27
  -1  -1  -7    2.22    1.14
  -1   1   7    3.68    1.44
   1   1  -7    5.82    1.48
   1  -2   7   43.29    4.86
  -1   2  -7   57.45    4.55
   1   2  -7   53.44    4.49
   1  -2  -7   49.17    4.65
   1   2   7   49.67    5.12
  -1  -2   7   47.72    4.92
  -1  -2  -7   57.31    4.85
  -1   2   7   49.24    5.22
  -1  -3  -7   40.92    4.30
  -1  -3   7   43.01    4.77
  -1   3   7   49.55    5.41
   1  -3   7   51.50    5.19
   1  -3  -7   40.50    4.28
   1  -4  -7   10.97    2.24
  -1  -4   7   12.82    2.68
  -1  -4  -7    9.33    2.12
   1   0  -8    0.60    0.81
  -1   0   8    0.96    0.75
   1   0   8    1.36    0.78
  -1   0  -8    1.05    0.80
  -1  -1  -8   22.12    2.97
   1   1  -8   26.30    3.01
  -1   1  -8   26.26    3.03
  -1   1   8   23.12    3.33
   1   1   8   25.20    3.40
   1  -1  -8   20.38    2.88
   1  -1   8   23.40    3.33
  -1  -1   8   26.11    3.49
   1  -2   8    7.60    2.11
  -1  -2  -8    7.68    2.02
  -1   2   8   11.60    2.67
   1  -2  -8    7.00    1.95
  -1  -2   8    9.06    2.31
   1   2  -8    8.66    1.85
  -2   0   0   75.52    4.65
  -2  -1   0  281.44   16.45
   2   1   0  263.52   16.68
   2  -1   0  284.48   16.43
  -2   1   0  258.71   16.66
   2  -1   0  301.75   16.31
   2   1   0  290.05   16.24
   2  -2   0    4.21    0.65
  -2   2   0    5.24    1.09
   2   2   0    4.96    0.96
  -2  -2   0    4.66    0.69
   2   2   0    5.04    0.66
   2  -2   0    4.94    0.48
  -2   3   0   28.92    2.92
   2   3   0   27.25    2.73
   2   3   0   29.48    2.40
   2  -3   0   28.93    2.37
  -2  -3   0   27.90    2.37
  -2   3   0   33.59    2.27
  -2  -4   0   31.76    2.95
  -2   4   0   39.88    2.96
   2  -4   0   34.17    3.02
   2   4   0   35.75    3.07
  -2   4   0   37.97    3.71
   2   4   0   40.05    3.59
   2   5   0    9.30    1.44
  -2   5   0   10.91    2.06
  -2  -5   0    6.09    1.33
   2   5   0    9.03    1.79
   2  -5   0    8.77    1.48
  -2  -6   0   28.32    2.97
   2   6   0   25.87    2.78
  -2   6   0   26.45    3.24
   2  -6   0   23.66    2.78
  -2   7   0    4.46    1.62
  -2  -7   0    4.17    1.46
   2  -7   0    3.22    1.30
  -2  -8   0    9.02    2.17
  -2   8   0   11.21    2.42
   2  -8   0   11.11    2.20
  -2   0   1    4.06    0.50
   2   0  -1    2.88    0.44
  -2   0  -1    3.33    0.44
  -2   0  -1    3.63    0.53
  -2   0  -1    2.97    0.41
  -2   0   1    3.23    0.32
  -2  -1  -1   65.45    4.39
  -2   1  -1   69.65    4.54
   2  -1  -1   66.58    4.17
  -2   1  -1   68.61    4.09
  -2  -1  -1   69.58    4.36
   2   1  -1   71.82    4.48
  -2   1   1   71.28    4.76
   2   1  -1   65.30    4.26
   2  -1  -1   67.84    4.20
  -2  -2  -1  160.36   10.38
   2   2  -1  174.11   10.68
  -2   2  -1  170.33   10.79
   2  -2  -1  163.16   10.12
   2   2  -1  167.52   10.31
   2   2   1  175.59   10.64
   2  -2   1  174.17   10.40
   2   2   1  179.44   10.41
  -2  -2   1  173.49   10.37
   2  -2  -1  171.79   10.34
   2   3  -1   97.31    6.50
  -2  -3   1  102.53    6.51
   2  -3   1   99.45    6.47
  -2  -3  -1   95.68    6.50
  -2   3   1   91.44    7.10
   2   3   1  106.36    6.62
  -2   3  -1  100.37    7.07
   2   3  -1   92.77    6.83
   2  -3  -1  100.04    6.21
   2   3   1  105.80    6.89
   2  -3  -1  102.28    6.48
  -2   4   1  338.15   21.27
  -2  -4   1  348.07   20.60
   2   4  -1  308.68   20.37
   2   4   1  365.01   20.61
   2  -4  -1  315.84   20.48
  -2   4  -1  323.15   21.07
   2   4   1  372.29   21.06
   2  -4   1  341.50   20.59
   2  -5   1   55.08    4.46
  -2  -5   1   53.25    4.40
  -2   5   1   52.02    5.02
   2   5   1   60.29    4.60
   2   5   1   62.77    5.05
  -2   5  -1   52.08    4.97
   2  -5  -1   57.14    4.48
  -2  -5  -1   57.86    4.56
   2  -6   1   14.59    2.09
  -2   6  -1   17.43    2.58
  -2  -6   1   14.67    2.12
  -2  -6  -1   14.97    2.20
  -2   6   1   18.72    2.67
   2   6  -1   14.83    2.08
   2  -6  -1   14.28    2.04
   2  -7   1   12.11    2.04
  -2   7  -1   10.91    2.34
  -2  -7  -1   12.78    2.15
  -2  -7   1   11.80    2.01
   2  -7  -1    9.29    1.92
  -2   7   1   11.68    2.41
  -2  -8   1   10.14    2.14
   2  -8   1    7.53    1.88
  -2   8  -1    5.56    1.84
   2  -8  -1    4.09    1.58
  -2  -8  -1    4.93    1.72
  -2   0  -2  597.51   33.37
   2   0  -2  571.70   33.36
  -2   0  -2  579.42   33.79
  -2   0  -2  557.72   33.34
  -2   1   2   29.74    2.57
   2  -1  -2   31.72    2.29
   2   1  -2   32.28    2.34
  -2   1  -2   31.05    2.15
   2  -1   2   30.66    2.24
   2  -1  -2   31.20    2.02
  -2  -1  -2   33.84    2.42
   2   1   2   32.71    2.32
  -2   1  -2   31.29    2.48
  -2  -1   2   33.54    2.11
  -2  -1  -2   29.97    2.34
   2   1  -2   29.38    2.36
   2  -2  -2  114.22    7.30
   2  -2   2  124.30    7.49
  -2  -2  -2  116.43    7.58
  -2  -2   2  127.50    7.43
  -2   2   2  108.78    8.14
   2  -2  -2  119.74    7.39
   2   2  -2  119.40    7.58
  -2   2  -2  120.63    7.88
  -2  -2  -2  116.43    7.51
   2   2  -2  124.78    7.52
   2  -3  -2   49.91    3.45
  -2  -3  -2   48.23    3.56
   2   3   2   42.92    3.71
   2  -3   2   42.75    3.46
   2   3  -2   49.28    3.71
  -2   3  -2   54.85    4.19
   2  -3  -2   48.94    3.46
  -2  -3   2   44.47    3.47
   2  -4   2    0.44    0.60
   2  -4  -2    2.40    0.76
  -2  -4  -2    2.70    0.88
   2  -4  -2    2.46    0.79
   2   4   2    0.91    0.62
  -2   4   2    0.21    0.75
   2   4   2    1.42    0.84
  -2  -4   2    1.04    0.64
  -2   4  -2    2.36    1.15
   2   4  -2    3.26    0.85
   2   4  -2    2.14    0.93
   2  -5  -2   76.98    5.59
   2   5  -2   74.67    5.78
   2   5   2   75.93    6.05
   2   5   2   74.33    5.73
  -2   5  -2   77.41    6.34
  -2  -5  -2   78.11    5.72
  -2  -5   2   73.86    5.58
  -2   5   2   70.57    6.31
   2  -5   2   73.23    5.60
  -2  -6  -2   43.62    4.03
   2   6   2   48.08    4.52
  -2   6  -2   46.45    4.61
   2   6  -2   43.89    4.09
   2  -6   2   39.07    3.84
   2  -6  -2   43.19    3.95
  -2  -6   2   35.94    3.69
  -2   6   2   41.62    4.49
   2  -7   2   16.32    2.50
  -2   7  -2   23.91    3.24
   2   7  -2   22.85    2.85
  -2  -7  -2   21.22    2.84
   2  -7  -2   23.21    2.88
  -2   7   2   23.33    3.20
  -2  -7   2   18.81    2.64
  -2   8  -2   22.33    3.19
  -2  -8  -2   21.42    2.97
   2  -8  -2   18.84    2.80
  -2  -8   2   12.02    2.48
  -2   0  -3    0.10    0.30
  -2   0  -3    0.75    0.44
  -2   0   3    1.08    0.56
   2   0  -3    0.46    0.37
   2   1  -3    3.81    0.77
  -2   1  -3    3.45    0.67
   2  -1  -3    4.22    0.45
   2  -1   3    2.82    0.58
   2   1   3    3.22    0.75
   2  -1  -3    4.27    0.81
  -2   1   3    2.26    0.82
  -2  -1   3    2.56    0.75
  -2  -1  -3    3.98    0.81
  -2  -1  -3    4.57    0.85
  -2   1  -3    3.00    0.82
  -2  -1   3    2.79    0.45
   2   2  -3    9.84    1.19
   2  -3  -3   47.72    3.56
  -2   3   3   51.67    4.75
   2   3   3   55.13    4.38
   2  -3  -3   45.24    3.66
   2   3  -3   48.59    3.99
  -2   3  -3   52.23    3.32
   2   3  -3   50.07    3.65
  -2  -3  -3   44.15    3.82
  -2  -3  -3   49.49    3.76
  -2  -4   3   16.94    1.95
   2   4  -3   17.43    2.22
   2  -4   3   19.60    2.04
  -2  -4  -3   20.47    2.12
   2   4   3   21.91    2.45
   2   4  -3   21.01    1.93
  -2   4  -3   18.39    2.53
   2  -4  -3   13.95    1.88
   2  -5   3   93.88    6.46
  -2   5  -3   73.86    6.86
  -2  -5   3   98.08    6.46
  -2  -5  -3   81.66    6.35
   2  -5  -3   84.41    6.33
   2   5  -3   76.59    6.49
  -2   5   3   92.90    7.46
   2   5   3   96.47    6.97
   2  -5  -3   83.94    6.25
  -2  -6  -3   18.22    2.50
   2  -6  -3   22.80    2.68
  -2   6  -3   20.51    3.01
  -2   6   3   23.95    3.25
   2   6   3   22.70    3.01
   2   6  -3   18.54    2.62
  -2  -6   3   19.32    2.47
   2  -6   3   21.52    2.59
   2   7  -3    2.16    1.04
  -2  -7  -3    1.68    1.07
  -2   7  -3    1.81    0.99
   2  -7  -3    1.49    1.01
  -2  -7   3    1.70    1.04
   2  -7   3    1.52    0.96
   2  -8  -3    6.11    1.74
  -2   0  -4  362.61   23.40
   2   0   4  425.76   23.79
   2   0  -4  371.26   23.44
  -2   0  -4  401.56   23.53
  -2   0   4  414.83   23.86
  -2   1   4  106.17    7.60
   2   1   4  111.59    7.42
  -2  -1  -4  112.31    7.28
  -2   1  -4  114.09    7.53
  -2   1  -4  121.21    7.17
   2  -1   4  105.54    6.91
   2  -1  -4  106.31    7.16
  -2  -1  -4  101.56    7.24
  -2  -1   4  104.30    7.42
   2   1  -4  108.89    7.15
  -2  -2   4   77.90    4.73
  -2   2  -4   68.32    5.41
   2  -2   4   71.86    4.83
  -2  -2  -4   63.27    5.03
  -2   2  -4   72.20    4.82
  -2  -2  -4   74.08    5.15
   2   2  -4   71.15    4.97
  -2   2   4   72.91    5.78
   2   2  -4   64.60    5.21
   2  -2  -4   69.63    5.06
   2   2   4   71.13    5.40
  -2  -3  -4   23.41    2.44
   2   3  -4   22.65    2.19
   2   3   4   18.41    2.56
  -2   3  -4   24.81    2.83
  -2  -3  -4   25.63    2.43
   2   3  -4   24.79    2.66
   2  -3  -4   23.33    2.35
  -2   3  -4   22.66    1.99
  -2  -3   4   26.31    2.22
  -2  -4  -4    0.72    0.82
  -2   4   4    1.47    1.00
  -2   4  -4    0.06    0.69
  -2  -4   4    0.83    0.67
   2  -4   4    1.84    0.81
  -2  -4  -4    1.42    0.78
   2  -4  -4    0.62    0.73
   2   4  -4    1.25    0.89
  -2  -5  -4   69.52    5.52
  -2   5   4   70.48    6.56
   2  -5   4   70.53    5.41
  -2  -5   4   78.18    5.48
   2  -5  -4   67.93    5.40
  -2   5  -4   61.85    6.05
   2   5  -4   61.97    5.69
   2   5   4   73.38    6.01
  -2  -6   4   62.14    5.22
   2  -6   4   62.46    5.30
   2   6  -4   66.30    5.83
  -2  -6  -4   69.56    5.61
  -2   6  -4   61.82    6.15
   2   6   4   63.74    5.89
   2   7  -4   23.68    3.14
   2  -7   4   24.86    2.99
  -2  -7  -4   29.15    3.31
  -2   7  -4   22.86    3.49
  -2  -7   4   20.13    2.74
  -2   0   5    0.47    0.67
   2   0  -5    0.74    0.68
  -2   0  -5   -0.17    0.54
   2   0   5    0.24    0.53
  -2  -1   5    8.19    1.70
  -2  -1  -5   16.57    1.93
   2  -1  -5   15.41    1.81
  -2  -2   5   25.62    2.92
  -2   2   5   25.69    3.17
  -2  -2  -5   29.83    2.87
   2   2   5   27.72    3.02
   2   2  -5   28.76    2.63
  -2   2  -5   28.53    3.11
   2  -2  -5   27.42    2.76
  -2   3   5   14.12    2.71
  -2  -3  -5   13.85    2.02
   2  -3   5   16.11    1.77
   2   3  -5   15.19    1.81
   2   3   5   15.54    2.36
   2  -3  -5   14.93    2.01
   2   3  -5   15.58    2.26
  -2   3  -5   15.50    2.38
   2  -4  -5   82.80    6.37
  -2  -4  -5   82.56    6.54
  -2   4  -5   85.24    7.16
   2   4  -5   88.25    6.91
   2  -5   5   23.20    2.53
  -2   5   5   21.95    3.39
  -2   5  -5   19.46    3.03
   2  -5  -5   20.06    2.55
   2   5  -5   19.93    2.87
  -2  -5  -5   18.46    2.61
   2   6  -5    4.32    1.60
  -2   6  -5    4.60    1.72
   2  -6   5    3.83    1.27
   2   6   5    1.71    1.35
   2  -7   5    7.18    1.67
   2   0  -6    4.43    1.26
   2   0   6    5.72    1.49
  -2   0   6    4.91    1.51
  -2   0  -6    5.95    1.41
   2   1  -6   85.56    6.51
   2  -1  -6   83.83    6.62
   2  -1   6   96.65    7.22
  -2   1   6   96.11    7.36
  -2  -1  -6   84.19    6.65
  -2  -1   6   89.51    7.04
   2   1   6  101.34    7.26
  -2   1  -6   92.29    6.59
  -2   2  -6    9.57    1.56
   2  -2  -6    9.91    1.87
  -2  -2  -6    8.47    1.79
  -2   2   6   10.53    2.25
   2   2   6   12.49    2.08
   2   2  -6    9.52    1.59
  -2  -2   6   11.39    2.11
  -2   3  -6    4.95    1.66
   2   3  -6    6.74    1.39
   2  -3  -6    5.11    1.51
  -2  -3  -6    5.37    1.52
  -2   3   6    6.95    2.08
  -2  -3   6    5.95    1.72
  -2   4   6    5.55    1.96
  -2   4  -6    5.77    1.90
  -2  -4  -6    5.17    1.62
   2  -4  -6    4.20    1.45
  -2   5  -6   12.98    2.80
   2  -5  -6   11.92    2.02
   2   5  -6   11.87    2.54
  -2  -5  -6    9.14    2.11
   2  -6  -6   27.29    3.53
   2   6   6   41.37    4.68
   2   0  -7    0.42    0.75
  -2   0  -7    1.07    0.89
  -2   0   7    0.40    0.64
   2   0   7    1.46    0.85
  -2   1   7   19.16    2.78
   2  -1   7   17.24    2.55
   2   1   7   22.47    2.88
  -2  -1   7   19.95    2.78
  -2  -1  -7   14.06    2.26
   2   1  -7   15.85    2.25
   2  -1  -7   14.26    2.27
  -2   1  -7   18.30    2.32
   2  -2   7   25.50    3.44
  -2  -2   7   26.51    3.36
  -2   2   7   23.01    3.38
   2  -2  -7   27.29    3.16
   2   2   7   30.20    3.60
  -2  -2  -7   27.84    3.17
   2   2  -7   31.33    3.09
  -2   3   7   29.64    4.09
  -2  -3   7   28.27    3.66
   2  -3  -7   33.29    3.53
  -2  -3  -7   31.09    3.48
   2  -3   7   28.39    3.82
  -2   4   7   66.88    7.26
  -2  -4  -7   67.03    6.08
  -2   4  -7   69.38    6.81
   2  -4  -7   67.49    5.95
  -2  -4   7   73.60    6.74
   2   0  -8   29.75    3.25
   2   0   8   15.35    2.70
  -2   0  -8   28.80    3.17
  -2   0   8   15.22    3.04
   2  -1  -8   12.81    2.24
   2   1   8   17.02    2.67
   2  -1   8   14.65    2.52
  -2   1   8   16.70    2.80
  -2   1  -8   12.41    2.06
  -2  -1   8   17.70    2.80
  -2  -1  -8   12.89    2.22
   2   1  -8   15.18    2.27
  -2   2   8   21.36    3.34
  -2  -2  -8   22.91    3.06
   2  -2   8   22.71    3.28
   2   2  -8   21.62    2.74
   2  -2  -8   21.75    2.96
  -2  -2   8   20.70    3.15
  -2   3   8    5.22    1.79
  -3   0   0    0.66    0.30
   3   0   0    0.91    0.37
  -3   0   0    0.88    0.31
   3  -1   0   33.79    2.22
  -3  -1   0   34.37    2.26
   3   1   0   31.29    2.67
  -3   1   0   30.12    2.62
   3   2   0  441.98   25.22
   3  -2   0  448.02   25.17
  -3  -2   0  435.27   25.69
   3   2   0  418.98   26.10
   3  -2   0  449.04   25.66
  -3   2   0  424.10   26.14
  -3   3   0  223.41   14.40
   3  -3   0  217.33   13.56
  -3  -3   0  225.31   13.66
   3   3   0  223.57   14.30
   3   3   0  224.20   13.35
  -3   4   0  241.93   16.04
   3  -4   0  246.50   15.18
   3   4   0  236.96   14.90
   3   4   0  260.38   16.05
  -3  -4   0  240.94   15.21
  -3  -5   0  180.38   11.86
   3   5   0  166.74   11.53
   3   5   0  196.81   12.82
   3  -5   0  178.69   11.80
  -3   5   0  188.98   12.80
   3  -6   0   34.51    3.54
  -3  -6   0   42.42    3.84
  -3   6   0   38.86    4.26
   3  -7   0   48.05    4.66
  -3  -7   0   52.91    4.89
  -3   7   0   57.08    5.50
  -3   8   0   16.27    2.73
   3  -8   0   12.05    2.34
  -3  -8   0   16.10    2.62
   3   0   1   86.44    5.75
  -3   0  -1  104.04    5.64
  -3   0   1   85.43    5.71
  -3   0  -1   97.93    5.94
  -3   0   1   87.08    5.59
  -3   1  -1   87.57    5.80
   3   1  -1   87.26    5.80
   3   1   1   89.50    5.80
   3  -1  -1   86.20    5.39
  -3  -1  -1   87.55    5.62
  -3   1   1   76.85    5.91
   3   1   1   90.83    5.30
   3  -1   1   96.39    5.41
   3  -1  -1   86.26    5.36
  -3  -1   1   93.85    5.47
  -3  -1   1   91.62    5.43
   3   2  -1  191.43   10.72
   3   2  -1  191.30   11.43
  -3  -2  -1  186.38   10.91
   3   2   1  166.08   11.14
   3  -2   1  165.03   10.82
  -3  -2   1  166.94   10.78
   3  -2  -1  193.36   10.80
   3   2   1  166.49   10.59
  -3   3  -1  179.93   11.08
   3   3   1  156.35   10.65
   3  -3   1  149.70   10.18
   3  -3  -1  177.78   10.26
  -3  -3  -1  161.76   10.27
   3   3   1  169.13   10.10
   3   3  -1  141.67   10.71
  -3  -3   1  161.12   10.23
   3  -3  -1  171.37    9.87
   3   3  -1  171.23   10.15
   3  -4  -1   54.32    4.24
   3   4  -1   44.90    4.58
   3   4  -1   57.36    4.27
  -3   4  -1   61.36    5.12
  -3  -4   1   60.93    4.37
  -3   4   1   58.12    5.14
   3   4   1   63.17    4.28
   3   5   1   69.45    5.76
   3  -5   1   60.92    5.07
   3   5   1   64.65    4.97
   3  -5  -1   73.05    5.24
   3   5  -1   71.25    5.19
  -3   5   1   62.92    5.87
  -3  -5   1   62.15    5.11
  -3  -5  -1   70.90    5.30
  -3   5  -1   74.55    6.11
   3   6  -1   38.41    3.66
   3  -6   1   38.46    3.72
  -3   6   1   41.70    4.49
   3  -6  -1   39.46    3.77
  -3  -6  -1   40.00    3.84
  -3  -6   1   46.33    3.99
  -3   6  -1   41.82    4.48
  -3   7   1   26.08    3.53
  -3  -7  -1   29.55    3.35
  -3   7  -1   31.89    3.82
   3  -7  -1   32.16    3.31
   3  -7   1   22.13    2.96
  -3  -7   1   20.30    2.91
  -3   8   1   14.02    2.83
  -3   8  -1   21.83    3.16
   3  -8  -1   19.37    2.74
   3  -8   1   14.12    2.47
  -3  -8   1   16.46    2.65
  -3  -8  -1   20.12    2.94
  -3   0  -2    0.19    0.28
   3   0  -2    0.93    0.38
  -3   0  -2    0.41    0.36
  -3   0   2    0.33    0.29
  -3   0  -2    0.48    0.30
  -3   1   2   97.34    5.93
   3   1  -2   80.22    5.44
  -3  -1  -2   83.78    5.56
  -3   1  -2   75.11    5.51
  -3   2   2  124.51    8.99
   3  -2  -2  127.00    8.02
  -3  -2  -2  126.79    8.26
  -3  -2  -2  127.74    8.35
  -3   2  -2  135.38    7.78
   3   2  -2  126.55    8.20
   3  -2  -2  127.80    8.00
  -3   2  -2  127.93    8.62
   3  -2   2  143.39    8.27
   3   2   2  134.59    8.30
   3   2  -2  138.06    8.39
   3  -3   2  275.73   16.55
  -3  -3  -2  253.42   16.52
  -3   3  -2  286.88   15.78
  -3  -3   2  281.37   16.48
   3   3   2  280.11   16.90
   3   3  -2  263.85   16.44
   3   3   2  281.61   16.53
  -3   3  -2  266.54   17.12
   3  -3  -2  261.18   16.19
   3  -3  -2  269.93   16.41
   3  -4  -2  177.20   11.25
  -3  -4  -2  173.98   11.60
   3  -4  -2  179.50   11.53
   3  -4   2  198.15   11.66
   3   4  -2  194.20   11.84
  -3   4  -2  175.07   12.32
   3   4  -2  178.73   11.60
  -3  -5  -2   32.55    3.22
   3  -5   2   37.74    3.32
   3  -5  -2   33.45    3.16
   3   5   2   37.09    3.73
  -3   5  -2   35.37    3.93
  -3   5   2   34.09    3.96
  -3  -5   2   37.20    3.28
   3   5  -2   33.74    3.28
   3   6  -2   10.37    1.81
  -3   6  -2    8.10    2.23
  -3  -6  -2    9.57    1.84
   3   6   2   15.29    2.43
  -3   6   2   16.41    2.60
   3  -6  -2    9.09    1.75
  -3  -6   2   12.37    1.94
   3  -6   2   12.34    1.95
  -3   7   2   27.56    3.58
   3  -7   2   21.78    2.80
  -3  -7   2   23.20    2.89
  -3  -7  -2   20.31    2.81
   3  -7  -2   18.98    2.66
  -3   7  -2   21.81    3.23
   3  -8  -2   32.62    3.83
  -3   8  -2   35.06    4.39
  -3  -8  -2   36.44    4.07
  -3   0  -3  138.71    8.32
  -3   0  -3  132.61    8.21
   3   0  -3  128.26    8.21
  -3   0  -3  132.85    8.36
  -3   0   3  121.53    8.37
  -3   1  -3  181.77   10.90
  -3   1   3  158.67   10.98
  -3  -1   3  155.72   10.71
  -3  -1  -3  172.13   10.94
  -3   1  -3  186.29   10.53
   3  -1  -3  178.73   10.64
   3   1   3  170.58   10.63
  -3  -1  -3  174.95   10.72
  -3  -1   3  164.36   10.22
   3   1  -3  182.85   10.70
   3   2  -3  422.77   25.82
  -3   2  -3  456.84   25.40
   3   2  -3  449.70   25.78
  -3   2   3  413.74   26.53
   3  -2   3  428.25   25.84
  -3  -2  -3  448.71   26.08
  -3   2  -3  438.92   26.21
   3  -2  -3  425.51   25.63
   3  -2  -3  447.72   25.57
  -3  -2  -3  408.24   25.82
  -3  -2   3  445.52   25.65
   3   2   3  440.71   25.90
  -3   3   3   29.10    3.63
   3  -3  -3   34.22    2.86
  -3  -3   3   38.16    2.85
   3  -3   3   36.28    2.92
   3  -3  -3   36.39    2.75
  -3  -3  -3   36.59    3.03
  -3   3  -3   33.06    3.41
   3   3   3   36.11    3.27
   3   3  -3   37.99    3.00
   3  -4  -3    2.63    0.85
   3   4  -3    3.79    1.11
   3   4   3    3.07    1.09
  -3   4   3    2.54    1.28
   3   4  -3    3.79    0.96
  -3  -4   3    2.26    0.84
   3  -4  -3    2.97    0.89
  -3  -4  -3    3.00    0.99
  -3   4  -3    2.23    1.23
   3  -4   3    4.21    1.02
   3   5   3   45.22    4.36
  -3   5   3   43.05    4.72
   3   5  -3   43.42    4.03
  -3  -5   3   49.60    3.95
  -3  -5  -3   45.05    3.98
   3  -5   3   45.01    3.91
   3  -5  -3   47.95    3.93
   3  -5  -3   43.11    3.72
  -3   5  -3   44.58    4.67
   3  -6   3   92.18    7.31
   3   6  -3   97.71    7.53
   3  -6  -3  108.78    7.56
  -3   6  -3   99.74    8.38
  -3  -6   3  100.68    7.36
   3   6   3   97.13    7.97
  -3   6   3   98.08    8.42
  -3  -6  -3  100.68    7.52
   3  -7   3   16.60    2.52
   3  -7  -3   20.86    2.75
  -3   7  -3   18.46    3.06
   3   7  -3   23.41    2.85
  -3  -7   3   19.75    2.64
  -3   7   3   19.30    3.08
  -3  -7  -3   18.87    2.70
  -3   0   4    0.41    0.56
  -3   0  -4    0.28    0.55
   3   0   4    0.28    0.46
  -3   0  -4   -0.04    0.41
   3   0  -4    1.01    0.64
  -3  -1  -4   14.86    1.81
  -3  -1  -4   15.16    1.83
   3   1   4   20.51    2.01
  -3   1   4   18.16    2.19
   3  -1   4   17.62    1.67
  -3   1  -4   15.20    1.67
   3   1  -4   14.79    1.75
  -3   1  -4   17.54    2.04
   3  -2  -4   34.66    3.00
   3   2  -4   39.28    3.09
  -3  -2  -4   33.27    3.07
   3   2   4   32.90    3.16
  -3  -2  -4   41.19    3.26
  -3   2   4   30.63    3.48
  -3   2  -4   37.51    3.45
  -3   3  -4  100.47    7.72
  -3  -3  -4  101.18    7.28
   3   3  -4  109.93    7.08
  -3   3   4  110.13    8.46
   3  -3  -4   99.36    7.04
   3  -3   4   97.38    6.92
   3   3  -4   99.22    7.34
   3   3   4  107.59    7.71
  -3  -3  -4  108.72    7.29
   3  -4   4   89.67    6.52
  -3  -4  -4   94.75    6.77
   3  -4  -4   94.59    6.63
  -3   4   4   85.23    7.83
  -3  -4  -4   91.64    6.90
  -3   4  -4   99.88    7.65
   3   4  -4   89.48    6.94
  -3  -4   4   98.67    6.51
   3  -5   4   14.01    1.88
  -3  -5  -4    8.48    1.69
   3   5   4   13.43    2.21
  -3  -5   4   12.42    1.73
  -3   5   4   10.48    2.51
  -3   5  -4    8.12    2.17
   3   5  -4    7.94    1.85
   3  -5  -4    6.93    1.54
   3  -6   4    1.94    1.04
  -3  -6  -4    3.15    1.21
  -3   6  -4    1.85    1.13
  -3  -6   4    0.80    0.80
   3   6  -4    3.08    1.30
   3   6   4    1.39    1.18
  -3   6   4    0.71    0.82
  -3  -7   4   17.10    2.43
  -3  -7  -4   17.63    2.58
   3   7  -4   14.67    2.44
   3  -7   4   17.38    2.46
  -3   7  -4   18.33    3.09
   3   0   5   95.85    6.70
  -3   0  -5   95.52    6.25
  -3   0  -5   88.99    6.38
   3   0  -5   82.52    6.33
  -3   0   5   92.59    6.81
  -3   1  -5  107.01    7.09
  -3  -1   5   98.70    7.39
  -3   1   5   96.87    7.61
   3  -1   5  105.42    6.86
  -3  -1  -5  103.29    7.23
   3  -1  -5  104.06    7.17
   3   1  -5  103.01    7.13
  -3   1  -5  114.38    7.66
  -3  -2  -5   55.71    4.60
  -3   2   5   63.23    5.40
   3  -2  -5   53.32    4.46
   3   2   5   58.93    4.88
  -3   2  -5   54.79    4.92
   3   2  -5   53.78    4.39
  -3  -2   5   56.39    4.81
   3  -2   5   57.07    4.21
  -3   2  -5   60.92    4.34
   3  -3   5  142.33    8.84
  -3   3   5  145.60   10.57
  -3  -3   5  139.05    9.55
  -3  -3  -5  123.75    9.11
  -3   3  -5  127.76    9.70
   3  -3  -5  125.18    8.97
   3   3  -5  126.58    8.81
   3  -4  -5   31.42    3.20
   3   4  -5   31.32    3.50
  -3  -4  -5   33.05    3.42
   3  -4   5   32.92    3.00
  -3   4   5   32.08    4.26
  -3   4  -5   30.94    3.79
  -3   5  -5   44.54    5.15
   3   5   5   55.91    5.17
  -3   5   5   49.83    5.68
   3   5  -5   45.53    4.72
   3  -5  -5   48.04    4.45
   3  -5   5   58.48    4.54
   3  -6   5   34.38    3.58
  -3   6  -5   36.57    4.55
   3   6   5   31.12    4.02
   3   6  -5   38.60    4.14
   3   0   6    0.39    0.60
   3   0  -6   -0.28    0.65
  -3   0   6   -0.33    0.55
  -3   0  -6    0.44    0.76
  -3   1  -6   12.30    1.76
   3   1   6   11.58    1.93
  -3  -1  -6   12.19    1.83
   3  -1  -6   11.38    1.77
  -3   1   6   10.64    2.19
   3   1  -6   11.31    1.70
  -3  -1   6   11.10    2.07
   3  -1   6    9.12    1.93
  -3  -2  -6   77.56    6.33
  -3   2  -6   85.67    6.92
  -3   2  -6   90.96    6.15
   3  -2  -6   88.17    6.43
  -3   2   6   80.23    7.08
   3   2  -6   83.39    6.22
  -3  -2   6   71.34    6.43
   3   2   6   88.46    6.85
   3   3  -6   42.34    3.75
   3  -3  -6   44.24    4.03
  -3  -3  -6   47.53    4.22
  -3   3  -6   44.09    4.63
  -3  -3   6   37.96    4.21
  -3   3   6   38.35    4.73
  -3   4  -6   50.34    5.24
   3  -4  -6   46.62    4.38
  -3  -4  -6   49.01    4.63
  -3  -4   6   41.43    4.66
  -3   4   6   49.15    5.73
   3  -5  -6   58.71    4.92
  -3   5  -6   50.56    5.60
  -3   5   6   40.89    5.52
   3   0  -7   50.63    4.61
  -3   0  -7   48.69    4.53
  -3   0   7   51.11    5.05
   3   0   7   56.25    5.10
  -3  -1  -7   34.39    3.78
  -3  -1   7   43.70    4.41
   3   1   7   50.80    4.59
  -3   1  -7   35.58    3.66
   3  -1  -7   33.27    3.79
  -3   1   7   45.60    4.66
   3   1  -7   32.76    3.61
   3  -1   7   45.19    4.41
  -3  -2   7   21.94    3.10
   3  -2   7   25.16    3.37
   3   2  -7   26.05    2.88
  -3  -2  -7   25.75    3.10
   3  -2  -7   29.91    3.21
  -3   2   7   25.63    3.52
  -3  -3  -7   34.49    3.78
  -3   3   7   38.13    4.73
  -3  -3   7   30.74    3.84
   3  -3  -7   32.42    3.60
  -3   4  -7   16.85    3.33
  -3   4   7   21.49    4.07
  -3  -4  -7   14.78    2.50
  -3  -4   7   16.90    2.84
   3  -4  -7   18.12    2.59
  -3   0  -8    2.25    0.97
  -3   0   8    0.85    0.86
   3   0   8    0.53    0.58
   3   0  -8    2.23    1.04
   3  -1   8   30.14    3.74
  -3  -1   8   25.78    3.59
  -3   1  -8   31.59    3.35
   3   1  -8   25.05    3.14
  -3  -1  -8   29.08    3.42
  -3   1   8   31.86    4.00
   3  -1  -8   25.01    3.27
   3  -2   8    9.28    2.36
  -3   2   8   14.10    3.05
   3   2  -8   11.33    1.93
  -3   3   8   69.53    7.38
   4   0   0   12.06    1.37
  -4   0   0   12.32    1.23
  -4   0   0   13.78    1.27
  -4  -1   0  331.10   18.83
   4   1   0  300.08   19.66
  -4  -1   0  344.70   19.27
   4  -2   0    0.34    0.16
  -4  -2   0    0.35    0.34
   4   2   0    0.66    0.51
   4   2   0    0.35    0.20
  -4   2   0    1.93    0.86
   4  -2   0    0.64    0.37
  -4   3   0  180.64   12.11
  -4  -3   0  175.01   11.18
   4  -3   0  179.96   11.15
   4   3   0  178.48   12.01
   4   3   0  184.72   10.80
   4  -4   0    2.91    0.84
  -4   4   0    3.32    1.37
  -4  -4   0    1.63    0.81
   4   4   0    4.99    0.87
   4   4   0    3.91    1.37
   4   5   0  126.89    8.57
  -4  -5   0  127.81    8.98
   4   5   0  142.33   10.07
   4  -5   0  130.45    8.92
  -4   5   0  132.80   10.01
   4  -6   0   83.20    6.43
  -4  -6   0   87.75    6.59
  -4   6   0   82.62    7.31
   4  -7   0   13.51    2.23
  -4   7   0   16.51    2.71
  -4  -7   0   13.72    2.24
  -4  -8   0    2.03    1.37
   4  -8   0    1.41    1.08
  -4   8   0    3.00    1.27
  -4   0  -1    0.88    0.44
  -4   0   1    1.04    0.32
   4   0  -1    1.51    0.48
   4   0   1    0.81    0.43
  -4   0   1    1.08    0.39
   4   1  -1  349.98   20.15
  -4  -1   1  314.29   19.65
   4   1   1  308.39   19.97
   4  -1   1  328.71   19.59
  -4   1  -1  358.24   20.08
  -4  -1   1  308.02   19.44
  -4   1  -1  357.23   19.93
   4  -1  -1  352.18   19.64
   4   2   1   17.15    1.82
  -4   2  -1    8.95    1.59
  -4   2   1   16.13    2.01
  -4   3   1    0.43    0.66
   4   3   1    0.57    0.68
   4  -3  -1    2.15    0.47
   4   3  -1    1.64    0.75
   4   3  -1    1.87    0.55
  -4  -3   1    1.05    0.58
   4  -3   1    1.28    0.61
   4   3   1    1.74    0.43
  -4  -3  -1    1.31    0.61
   4  -3  -1    1.84    0.60
  -4   3  -1    2.63    1.09
  -4  -4  -1   16.40    1.86
   4   4  -1   14.61    1.70
   4   4   1   22.18    2.53
  -4   4  -1   15.58    2.40
   4  -4  -1   18.07    1.56
   4  -4  -1   15.53    1.81
   4   4   1   17.96    1.66
  -4  -4   1   12.53    1.74
   4  -4   1   15.48    1.81
  -4   5   1   24.60    3.28
   4  -5  -1   22.65    2.44
   4  -5   1   23.06    2.48
  -4  -5  -1   23.10    2.56
   4   5  -1   25.09    2.45
  -4   5  -1   24.43    3.22
  -4  -5   1   22.32    2.52
   4  -6  -1   85.10    6.59
  -4   6  -1   82.75    7.45
  -4  -6  -1   78.02    6.56
  -4  -6   1   89.09    6.73
   4  -6   1   84.07    6.59
   4   6   1  105.71    7.79
  -4   6   1   85.55    7.57
   4  -7  -1   21.04    2.64
  -4  -7  -1   19.19    2.65
  -4   7  -1   21.48    3.19
   4  -7   1   13.61    2.27
  -4  -7   1   14.31    2.41
  -4   7   1   17.50    3.24
  -4   8   1   16.23    2.88
  -4  -8   1   15.11    2.59
   4  -8  -1   21.15    2.86
  -4   8  -1   25.16    3.56
  -4  -8  -1   22.74    3.10
  -4   0  -2  991.18   55.57
  -4   0   2  976.72   55.80
  -4   0   2 1000.00   56.27
  -4   0  -2  911.64   56.47
   4   0  -2  978.75   55.77
  -4   0  -2  938.55   55.70
  -4   1  -2   61.46    4.39
  -4  -1  -2   59.27    4.35
   4   1  -2   59.80    4.30
  -4   1  -2   58.94    4.24
  -4   1  -2   59.52    3.98
  -4   1   2   66.06    4.68
   4  -1  -2   60.81    3.79
   4  -1  -2   59.83    4.10
  -4  -1   2   68.57    4.24
   4   2  -2   46.50    3.43
   4  -2  -2   46.82    3.23
  -4   2  -2   46.40    3.94
  -4   2   2   44.37    4.19
  -4  -2   2   52.31    3.36
  -4   2  -2   49.19    3.08
   4   2   2   48.58    3.38
   4  -2  -2   46.00    3.32
   4   2  -2   50.50    3.81
   4  -2   2   50.05    3.49
   4   2   2   48.09    3.82
  -4  -2  -2   45.97    3.53
  -4   3   2    4.89    1.56
   4  -3   2    7.71    1.17
   4   3   2    8.61    1.07
   4  -3  -2   10.91    1.21
   4   3  -2    9.66    1.29
  -4   3  -2   11.03    1.83
   4  -3  -2   10.28    1.14
  -4  -3   2    8.61    1.22
   4   3  -2   11.87    1.64
  -4  -3  -2    9.57    1.32
   4   3   2    6.66    1.42
   4   4  -2    8.36    1.33
  -4  -4  -2    8.71    1.36
   4  -4   2    6.19    1.24
   4  -4  -2    9.39    1.20
   4   4  -2    9.67    1.57
  -4   4   2    6.77    1.86
  -4   4  -2    6.91    1.81
   4  -4  -2    9.16    1.30
  -4   5   2    2.08    1.29
   4   5  -2    6.78    1.50
   4  -5   2    2.72    1.06
   4   5  -2    3.65    1.02
   4  -5  -2    6.04    1.27
  -4  -5   2    3.17    1.09
  -4   5  -2    4.75    1.69
   4   5   2    2.71    1.29
  -4  -5  -2    5.16    1.29
   4  -6  -2   13.12    2.10
   4   6  -2   12.49    1.96
   4   6   2   21.92    2.93
  -4   6   2   22.39    3.16
  -4   6  -2   14.45    2.89
   4  -6   2   19.37    2.41
  -4  -6  -2   11.26    2.14
  -4  -6   2   20.46    2.47
  -4   7  -2   65.63    6.44
  -4  -7   2   70.25    5.74
  -4  -7  -2   60.03    5.57
   4  -7  -2   61.81    5.49
  -4   7   2   64.52    6.43
   4  -7   2   64.49    5.57
  -4   8  -2   34.53    4.39
   4  -8  -2   30.53    3.69
   4   0  -3    0.30    0.46
  -4   0  -3    0.22    0.37
  -4   0  -3   -0.01    0.37
  -4   0  -3    1.30    0.64
  -4   0   3    0.17    0.41
  -4  -1  -3   16.14    1.85
   4   1  -3   14.97    1.69
  -4   1  -3   17.51    1.57
  -4   1  -3   14.95    1.77
  -4  -1   3   17.19    1.23
  -4  -1   3   17.14    1.23
  -4   1   3   16.37    1.97
   4   1   3   17.40    1.59
   4  -1  -3   15.63    1.63
  -4  -1  -3   15.12    1.70
  -4   1  -3   16.43    1.69
  -4  -1   3   17.71    1.77
   4  -2   3  198.18   12.47
  -4   2   3  192.90   13.33
  -4   2  -3  211.92   12.11
  -4  -2   3  197.07   12.58
   4   2  -3  202.33   12.58
   4  -2  -3  197.25   12.06
  -4  -2  -3  194.47   12.63
  -4   2  -3  207.17   13.02
   4   2   3  206.38   12.49
  -4  -2  -3  209.00   12.74
   4  -2  -3  197.40   12.35
  -4  -2   3  209.25   12.22
   4   3  -3    5.39    1.18
   4  -3   3    4.62    0.99
  -4   3   3    3.58    1.39
  -4   3  -3    4.80    1.48
   4   3   3    6.80    1.10
  -4  -3   3    5.98    0.97
  -4  -3  -3    5.27    1.11
   4  -3  -3    4.47    0.95
   4  -3  -3    4.52    0.78
   4   3  -3    3.78    1.00
  -4   4   3  143.96   11.55
   4   4  -3  165.93   10.53
   4   4  -3  164.60   10.55
   4  -4  -3  156.79   10.20
  -4  -4   3  154.38   10.28
   4  -4   3  161.58   10.43
  -4   4  -3  167.09   11.50
   4  -4  -3  163.84   10.27
   4   4   3  158.40   10.93
  -4  -4  -3  162.37   10.56
  -4   5   3  113.45    9.72
   4   5   3  130.02    9.36
   4   5  -3  122.93    8.75
   4  -5   3  123.01    8.64
  -4  -5  -3  128.73    8.84
   4  -5  -3  128.49    8.62
  -4   5  -3  126.44    9.78
  -4  -5   3  130.53    8.68
  -4  -6   3   18.85    2.44
   4   6   3   19.99    2.93
  -4   6   3   18.13    3.03
   4  -6  -3   19.91    2.49
   4   6  -3   19.16    2.51
  -4   6  -3   18.83    3.07
  -4  -6  -3   19.41    2.57
   4  -6   3   18.82    2.48
   4  -7  -3    4.59    1.47
  -4   7   3    5.15    1.87
   4  -7   3    2.53    1.26
  -4   7  -3    4.59    1.86
  -4  -7   3    4.21    1.46
  -4  -7  -3    4.55    1.56
   4   1   4   43.34    3.32
  -4  -1  -4   39.37    3.45
   4  -1  -4   38.52    3.20
  -4  -1   4   40.29    3.40
  -4   1  -4   42.36    3.54
  -4   1  -4   40.89    3.13
  -4   1   4   37.60    3.59
   4   1  -4   32.84    3.14
   4  -2  -4   27.37    2.56
   4  -2   4   27.51    2.52
  -4   2  -4   31.14    3.10
  -4  -2   4   25.99    2.75
  -4   2   4   27.57    3.23
  -4  -2  -4   28.24    2.79
   4   2   4   31.63    2.82
  -4   2  -4   30.42    2.44
  -4  -2  -4   30.66    2.86
  -4  -3  -4    2.05    1.06
  -4   3  -4    2.53    1.28
  -4   3   4    3.46    1.48
  -4  -3  -4    1.59    0.83
   4   3  -4    2.64    1.02
   4   3  -4    2.02    0.83
   4  -3  -4    2.27    0.90
   4  -3   4    4.53    1.02
  -4   4  -4    3.65    1.50
   4  -4   4    3.37    1.05
  -4  -4   4    3.25    0.96
   4  -4  -4    3.10    1.02
   4   4   4    4.04    1.46
   4   4  -4    3.39    0.95
  -4   4   4    4.88    1.90
   4   4  -4    2.74    1.16
  -4  -4  -4    2.72    1.08
  -4   5   4   10.91    2.61
   4   5   4   11.97    2.29
  -4  -5  -4    7.98    1.74
   4   5  -4    8.06    1.81
   4  -5  -4    8.91    1.57
   4  -5   4   12.20    1.78
  -4   5  -4    9.08    2.34
  -4  -5   4   12.79    1.78
  -4  -6  -4    3.12    1.25
   4   6   4    4.24    1.66
   4   6  -4    4.33    1.42
  -4  -6   4    3.10    1.24
  -4   6   4    4.07    1.75
   4  -6   4    2.23    1.14
  -4   6  -4    2.78    1.44
   4  -7   4   38.41    4.08
  -4  -7   4   43.05    4.17
  -4  -7  -4   43.19    4.41
  -4   7  -4   39.20    5.01
  -4   0   5    0.19    0.63
   4   0   5   -0.04    0.44
  -4   0  -5    0.56    0.58
   4   0  -5    1.01    0.75
  -4   0  -5    0.40    0.64
   4  -1  -5  124.27    8.93
  -4   1  -5  133.22    8.88
   4   1  -5  126.97    8.97
   4   1   5  151.11    9.36
  -4  -1  -5  127.69    9.10
  -4   1   5  151.04    9.81
  -4   1  -5  128.81    9.31
   4  -1   5  150.57    8.92
  -4  -1   5  137.71    9.37
  -4  -1  -5  122.65    8.98
  -4   2  -5    2.32    0.84
   4   2  -5    2.20    0.92
  -4  -2  -5    3.47    1.19
   4  -2   5    1.07    0.72
   4   2   5    3.68    1.12
  -4  -2   5    1.61    0.91
  -4  -2  -5    3.35    1.06
  -4   2  -5    2.41    1.20
  -4   2   5    2.78    1.30
   4  -2  -5    2.50    1.04
   4  -3   5    5.65    1.18
  -4  -3   5    6.40    1.59
   4   3  -5    5.39    1.28
  -4  -3  -5    4.40    1.40
  -4   3   5    7.36    2.17
   4  -3  -5    6.42    1.47
  -4   3  -5    6.42    1.79
   4  -4  -5   10.61    1.79
   4   4  -5   12.40    1.74
  -4   4  -5   11.38    2.51
  -4  -4  -5    9.67    2.06
   4  -4   5   14.26    1.84
  -4   4   5   14.85    3.09
  -4   5  -5   18.46    3.22
   4  -5   5   29.63    2.96
   4  -5  -5   24.69    2.85
   4   5  -5   21.58    2.98
   4   5   5   31.03    3.63
  -4   5   5   28.91    4.09
   4   6   5   38.47    4.61
   4   6  -5   48.07    4.69
  -4   6   5   41.92    5.25
   4  -6   5   44.51    4.19
  -4   6  -5   43.02    5.20
   4   0   6    2.21    1.09
  -4   0   6    1.49    1.01
  -4   0  -6    2.02    0.99
   4   0  -6    2.75    1.12
  -4  -1   6  111.62    8.52
   4   1   6  121.25    8.52
  -4   1  -6  122.06    8.11
   4  -1   6  109.93    8.55
   4  -1  -6  115.74    8.19
   4   1  -6  118.40    8.21
  -4  -1  -6  116.61    8.26
  -4   1   6  109.61    8.74
  -4   2   6    1.48    1.13
   4   2  -6    1.51    0.91
   4  -2  -6    2.21    1.03
  -4  -2   6    0.48    0.82
  -4   2  -6    1.56    1.09
  -4  -2  -6    1.87    1.05
  -4  -3   6   33.41    3.82
  -4   3  -6   36.90    4.24
  -4  -3  -6   40.12    3.93
  -4   3   6   34.63    4.47
   4  -3  -6   38.43    3.71
   4   3  -6   37.96    3.52
  -4   4  -6    1.52    0.97
  -4  -4  -6    1.10    0.95
  -4  -4   6    2.00    1.09
   4  -4  -6    1.16    0.78
  -4   4   6    1.69    1.17
   4  -5  -6   53.56    4.81
   4   5   6   50.86    5.35
  -4  -5   6   50.72    5.24
  -4   5  -6   49.70    5.71
  -4   5   6   51.53    6.11
  -4   0  -7    1.26    0.84
  -4   0   7    1.48    1.00
   4   0   7    1.40    0.94
   4   0  -7    0.17    0.64
   4  -1  -7   36.94    3.70
   4  -1   7   26.26    3.52
  -4  -1  -7   40.79    3.83
  -4   1   7   30.84    3.92
  -4   1  -7   40.77    3.63
  -4  -1   7   27.87    3.64
   4   1  -7   37.99    3.64
   4  -2  -7    9.27    2.03
  -4  -2  -7    8.20    1.99
   4  -2   7   12.45    2.49
  -4   2   7   12.14    2.69
   4   2  -7    9.34    1.86
  -4  -2   7   12.60    2.45
  -4   3  -7    1.83    1.13
  -4  -3   7    0.50    0.71
  -4  -3  -7    1.64    1.16
  -4   3   7    2.46    1.26
   4  -3  -7    2.10    1.04
   4   3  -7    2.55    0.94
  -4   4  -7    3.09    1.49
  -4   4   7   12.48    3.23
   4  -4  -7    5.26    1.57
  -4  -4   7    8.56    2.18
  -4  -4  -7    4.78    1.70
  -4   0   8  164.73   12.40
   4   0   8  173.15   12.28
  -4   0  -8  159.52   11.47
   4   0  -8  153.90   11.53
  -4   1   8   12.26    2.76
   4  -1   8   11.15    2.40
   4   1  -8    8.25    1.94
  -4  -1   8   12.53    2.65
   4  -1  -8    9.72    2.26
  -4  -1  -8    9.65    2.14
   4   2  -8    3.50    1.27
   4  -2   8    5.30    1.72
  -4   2   8    8.53    2.47
   5   0   0    1.89    0.68
  -5   0   0    1.03    0.45
  -5   0   0    2.81    0.63
  -5  -1   0  175.71   10.55
  -5  -1   0  182.99   10.97
   5  -2   0   12.31    1.24
  -5  -2   0   11.25    1.25
  -5   2   0    9.79    1.66
   5   2   0   12.42    0.91
   5  -2   0   12.31    0.92
   5   2   0   10.77    1.72
  -5  -3   0    0.95    0.57
  -5   3   0    0.72    0.79
   5   3   0    1.39    0.38
   5  -3   0    0.56    0.49
   5  -3   0    1.45    0.27
   5   3   0    1.36    0.81
   5   4   0   13.32    2.18
   5  -4   0   11.27    1.52
  -5   4   0   12.27    2.37
   5   4   0   12.59    1.31
   5  -5   0   16.68    2.07
  -5   5   0   18.63    2.95
  -5  -5   0   17.77    2.21
  -5   6   0   16.16    2.81
  -5  -6   0   17.73    2.40
   5   6   0   20.13    3.01
   5  -6   0   15.37    2.19
   5  -7   0   51.78    4.89
  -5   7   0   55.59    5.79
  -5  -7   0   57.27    5.12
  -5   8   0  117.30    9.85
   5  -8   0  106.17    8.64
  -5   0   1  627.90   38.21
   5   0  -1  640.25   38.35
  -5   0  -1  675.47   38.13
  -5   0   1  675.67   38.51
   5   0   1  672.77   38.47
   5   1   1  273.22   16.35
  -5  -1  -1  272.59   16.15
  -5   1  -1  254.86   16.05
   5  -1  -1  265.33   15.72
   5  -1  -1  259.66   15.76
  -5   1  -1  255.74   16.27
  -5  -1   1  282.01   15.68
  -5   2  -1  122.07    8.72
   5  -2   1  129.86    8.03
  -5   2   1  119.26    8.77
   5  -2  -1  129.01    7.66
   5  -2  -1  126.17    7.85
   5   2   1  128.39    8.58
   5  -2   1  130.19    7.54
  -5  -2   1  129.87    7.91
  -5  -2  -1  121.69    8.04
  -5  -3  -1  207.50   13.38
   5  -3   1  205.18   13.32
  -5   3  -1  218.97   14.37
  -5  -3   1  210.94   13.30
   5   3   1  215.87   12.68
   5   3   1  218.96   14.05
   5  -3  -1  221.99   13.27
   5  -3  -1  225.93   12.81
   5   3  -1  219.78   12.98
   5   4  -1   58.73    3.88
  -5   4   1   41.51    4.68
  -5  -4  -1   52.04    4.07
   5  -4  -1   57.00    4.08
  -5   4  -1   58.20    5.16
   5  -4   1   47.71    3.97
   5   4   1   52.83    4.73
  -5  -4   1   45.19    3.95
   5  -5   1    1.87    0.91
   5   5   1    2.04    1.16
  -5   5  -1    3.32    1.60
   5   5  -1    3.14    0.91
   5   5  -1    2.25    1.24
  -5   5   1    1.19    1.20
  -5  -5   1    2.06    0.95
   5  -5  -1    1.93    0.98
  -5  -5  -1    1.95    0.96
   5   6   1   45.72    4.62
   5  -6  -1   31.68    3.43
  -5   6  -1   32.21    4.24
   5  -6   1   40.48    3.72
  -5   6   1   41.16    4.63
  -5  -6   1   39.44    3.77
  -5  -6  -1   30.05    3.45
   5  -7   1  114.16    8.64
  -5   7  -1  125.15    9.96
   5  -7  -1  108.93    8.55
  -5  -7  -1  110.20    8.68
  -5  -7   1  117.82    8.75
  -5   7   1  118.76    9.84
   5  -8  -1   61.31    5.75
  -5   8  -1   66.31    6.77
  -5   8   1   66.68    6.73
  -5   0   2    0.24    0.35
  -5   0   2    0.54    0.23
  -5   0  -2    0.59    0.33
  -5   0  -2    0.68    0.51
   5   0   2    0.36    0.35
   5   0  -2    1.42    0.56
   5   1   2  192.86   13.11
  -5  -1   2  197.82   12.80
  -5   1   2  190.98   13.31
  -5   1  -2  231.19   13.23
  -5  -1  -2  219.30   13.28
   5   1  -2  219.26   13.19
   5  -1  -2  225.46   12.85
  -5   1  -2  217.23   13.16
   5  -1  -2  226.86   12.58
  -5  -1   2  205.20   12.64
   5   1   2  223.66   12.53
   5  -1   2  200.28   12.77
   5   2   2  426.83   27.69
   5  -2   2  455.99   27.55
   5  -2  -2  465.92   27.10
   5   2   2  450.69   26.97
   5  -2   2  488.73   26.99
   5  -2  -2  470.81   27.23
  -5   2  -2  468.79   27.99
  -5  -2   2  468.00   27.22
  -5  -2  -2  469.78   27.71
   5   2  -2  486.90   27.90
  -5  -2   2  448.69   27.28
   5   3  -2    4.70    0.95
   5   3   2    5.46    1.33
   5  -3  -2    5.26    0.89
  -5  -3  -2    4.35    1.02
   5   3  -2    8.77    1.63
   5  -3  -2    6.47    0.99
  -5   3  -2    4.90    1.50
  -5   3   2    5.61    1.66
   5  -3   2    5.32    1.05
  -5  -3   2    6.89    1.04
   5  -4   2    2.97    0.95
   5  -4  -2    1.72    0.77
  -5   4  -2    1.43    1.12
   5  -4  -2    2.24    0.71
  -5   4   2    1.73    1.19
  -5  -4  -2    2.20    0.92
   5   4   2    4.35    1.34
  -5  -4   2    3.94    0.99
   5   4  -2    1.95    0.81
   5   4  -2    2.44    1.09
  -5  -5   2   47.64    4.55
   5   5   2   51.72    5.17
  -5   5  -2   64.82    5.94
   5  -5  -2   65.01    4.80
   5   5  -2   62.14    4.65
  -5  -5  -2   63.10    4.92
  -5  -6  -2   89.47    6.77
   5  -6  -2   87.59    6.61
  -5  -6   2   84.18    6.63
   5   6   2   91.22    7.48
  -5   6   2   75.30    7.45
  -5   6  -2   95.97    7.97
   5  -6   2   77.37    6.48
  -5   7  -2   29.77    3.93
  -5   7   2   21.34    3.43
   5  -7  -2   25.43    2.96
  -5  -7  -2   24.56    3.05
  -5  -7   2   19.50    2.78
   5  -7   2   17.36    2.69
  -5   8   2   17.35    3.40
   5  -8  -2   18.48    2.67
  -5   0  -3  243.31   15.51
  -5   0  -3  259.51   15.12
  -5   0  -3  246.47   15.14
  -5   0   3  251.45   15.39
   5   0  -3  248.22   15.19
  -5  -1   3  214.45   13.10
  -5   1   3  208.51   13.50
  -5   1  -3  210.68   12.82
   5   1  -3  207.34   13.14
  -5   1  -3  215.93   13.25
  -5   1  -3  217.34   13.26
   5  -1  -3  216.83   12.99
  -5  -1  -3  205.54   13.46
  -5  -1  -3  208.06   13.13
  -5   2  -3  198.79   12.48
  -5   2  -3  194.61   11.46
   5   2   3  192.81   11.69
  -5  -2   3  193.44   11.52
  -5  -2  -3  198.53   12.18
   5   2  -3  191.24   12.08
  -5  -2   3  185.41   11.88
   5  -2  -3  187.24   11.72
  -5   2   3  176.90   12.70
   5  -2  -3  187.02   11.39
   5   2   3  177.36   12.17
   5  -2   3  193.54   11.91
   5  -3  -3   16.13    1.78
   5  -3  -3   17.61    1.67
   5   3  -3   15.95    1.91
  -5   3  -3   17.99    2.50
   5   3  -3   18.95    2.21
  -5   4  -3   11.44    2.38
   5  -4  -3    8.74    1.40
   5   4  -3   10.87    1.67
  -5  -4   3   16.47    1.81
   5   4  -3   11.68    1.70
  -5   4   3   10.88    2.53
  -5  -4  -3   10.37    1.63
   5  -4  -3   11.11    1.50
   5   4   3   13.60    2.10
   5  -4   3   14.41    1.77
   5   5  -3   17.77    2.26
  -5   5  -3   17.75    2.91
   5  -5   3   19.59    2.31
  -5  -5   3   19.99    2.29
   5  -5  -3   16.56    2.06
  -5   5   3   15.91    3.07
  -5  -5  -3   17.56    2.31
   5   5   3   18.81    2.73
  -5  -6   3    6.19    1.51
   5  -6  -3    4.22    1.36
   5   6   3    4.98    1.81
  -5   6   3    5.96    1.92
   5   6  -3    3.13    1.29
   5  -6   3    4.93    1.46
  -5  -6  -3    4.85    1.51
  -5   6  -3    4.13    1.74
  -5  -7  -3   65.17    5.84
  -5  -7   3   67.58    5.74
  -5   7   3   65.22    6.75
  -5   7  -3   63.74    6.72
   5  -7   3   65.08    5.74
  -5   0   4    0.66    0.66
  -5   0  -4    0.33    0.57
  -5   0  -4   -0.40    0.49
   5   0  -4    0.31    0.54
  -5   0  -4    1.00    0.65
  -5   1   4  170.13   11.37
  -5  -1  -4  165.48   11.22
  -5   1  -4  173.21   11.13
  -5  -1   4  170.56   11.02
  -5   1  -4  181.06   11.01
  -5   1  -4  175.58   10.68
  -5  -1  -4  165.12   10.89
   5  -1  -4  163.33   10.75
   5   1  -4  164.24   10.85
  -5   2  -4  274.64   16.90
  -5   2  -4  282.37   15.97
   5   2   4  277.69   16.35
  -5   2   4  245.13   17.15
  -5  -2  -4  265.88   16.52
   5   2  -4  259.60   16.36
  -5  -2   4  236.00   16.29
  -5  -2  -4  273.33   16.78
   5  -2  -4  268.93   16.23
   5  -2   4  258.49   16.29
   5   3   4    4.16    1.36
   5   3  -4    9.50    1.50
  -5   3  -4    8.80    1.99
   5  -3  -4    7.91    1.34
  -5  -3   4    4.12    1.21
  -5   3   4    5.78    1.95
   5   4   4    5.79    1.64
  -5   4   4    4.89    1.92
  -5  -4  -4    5.04    1.36
   5   4  -4    3.50    1.23
   5  -4   4    5.05    1.23
  -5   4  -4    2.65    1.42
   5  -4  -4    3.89    1.12
   5   4  -4    4.22    1.22
  -5   5   4   57.86    6.15
   5  -5   4   55.33    4.78
  -5   5  -4   58.63    5.95
   5   5  -4   59.99    5.07
   5   5   4   59.25    5.46
  -5  -5  -4   58.77    5.03
   5  -5  -4   59.14    4.75
   5   6   4   79.66    7.04
   5  -6   4   79.55    6.32
  -5  -6  -4   77.99    6.48
   5   6  -4   78.52    6.44
  -5   6   4   76.07    7.57
  -5   6  -4   75.93    7.43
  -5  -7  -4   48.18    4.88
   5   7   4   47.02    5.26
   5  -7   4   49.26    4.75
  -5   7   4   50.27    5.80
  -5   0   5   75.90    6.35
  -5   0  -5   93.05    6.31
   5   0   5   78.64    6.18
   5   0  -5   84.89    6.16
  -5   0  -5   89.89    6.17
   5   1  -5   37.69    3.32
  -5  -1  -5   36.65    3.33
  -5   1  -5   38.39    3.15
  -5  -1   5   28.55    3.22
  -5   1   5   28.76    3.41
   5   1   5   30.92    3.13
  -5   1  -5   36.51    3.50
   5  -1  -5   34.98    3.22
  -5  -1  -5   36.53    3.36
  -5   2  -5   26.98    3.14
  -5  -2  -5   26.27    2.91
  -5  -2  -5   26.97    2.91
   5  -2  -5   26.17    2.70
  -5   2  -5   26.39    2.48
   5   2  -5   26.37    2.76
  -5  -3  -5   81.64    6.52
   5  -3   5   84.87    6.12
   5   3  -5   86.10    6.32
   5  -3  -5   81.50    6.23
  -5  -3   5   84.47    6.59
  -5  -3  -5   85.66    6.56
  -5   3   5   81.89    7.52
  -5   3  -5   87.97    7.15
  -5   4   5   28.53    4.02
  -5   4  -5   23.29    3.35
  -5  -4  -5   23.50    2.85
   5   4  -5   25.30    2.73
   5  -4   5   24.85    2.70
  -5  -4   5   24.45    3.00
   5   4   5   26.96    3.33
   5  -4  -5   22.08    2.65
   5   5   5    6.99    2.04
   5  -5  -5    5.78    1.51
  -5   5  -5    5.78    2.08
  -5   5   5    7.04    2.40
   5  -5   5    7.68    1.56
  -5   6  -5   11.43    2.92
  -5   6   5   14.89    3.26
   5   6  -5   12.85    2.16
   5  -6   5   12.87    2.02
   5   6   5   12.55    2.74
  -5   0  -6   -0.04    0.70
  -5   0   6   -0.32    0.54
   5   0  -6    0.18    0.71
   5   0   6    1.41    0.84
   5   1  -6  102.49    7.79
   5  -1   6  114.35    8.39
  -5  -1   6  107.81    8.23
  -5   1   6  114.61    8.63
   5   1   6  124.14    8.25
  -5   1  -6  106.06    7.67
   5  -1  -6   96.83    7.71
  -5  -1  -6  109.25    7.94
  -5   2   6   17.99    2.91
  -5  -2   6   21.07    2.67
  -5   2  -6   16.10    2.59
   5   2  -6   18.63    2.35
   5  -2  -6   14.67    2.22
  -5  -2  -6   19.57    2.53
  -5  -3   6   24.83    2.98
   5  -3  -6   18.60    2.50
   5   3  -6   17.74    2.38
  -5  -3  -6   15.97    2.54
  -5   3  -6   21.90    3.15
  -5   3   6   27.08    3.77
  -5   4   6   14.61    3.33
  -5  -4   6   12.94    2.45
  -5   4  -6    6.17    2.11
   5   4   6   12.34    2.51
   5  -4  -6    6.51    1.72
   5  -5  -6   16.53    2.38
  -5   5   6   17.25    3.71
  -5   5  -6   18.52    3.60
  -5  -5   6   15.97    2.69
   5   5   6   20.79    3.23
  -5   0   7   89.98    7.43
   5   0  -7   79.63    6.66
  -5   0  -7   92.73    6.87
   5   0   7   82.71    6.99
  -5   1   7   58.72    5.93
   5  -1   7   53.27    5.53
  -5   1  -7   73.68    5.48
   5   1  -7   66.86    5.52
  -5  -1   7   52.66    5.55
   5  -1  -7   64.92    5.50
  -5  -1  -7   73.90    5.75
   5   2  -7   24.20    2.98
   5  -2  -7   24.85    3.10
  -5  -2  -7   24.34    3.11
  -5  -2   7   25.07    3.29
  -5   2   7   29.40    3.88
   5  -2   7   29.73    3.68
  -5  -3  -7   70.81    6.07
  -5  -3   7   63.22    6.00
  -5   3   7   64.00    6.88
   5  -3  -7   59.90    5.60
  -5   3  -7   68.69    6.61
   5   3  -7   65.04    5.54
  -5   4  -7   12.96    3.03
   5  -4  -7   12.45    2.34
  -5  -4   7   10.65    2.44
  -5   4   7   10.75    2.98
   5   0  -8    2.09    1.11
  -5   0   8    1.21    0.83
  -5   0  -8    1.46    0.98
   5   1  -8   18.09    2.65
  -5   1   8   20.73    3.28
  -5  -1  -8   25.59    3.13
   5  -1   8   17.90    2.86
   5   2  -8   59.47    5.38
   5  -2   8   58.66    6.07
  -6   0   0  168.17   10.42
  -6   0   0  169.32   10.39
   6   0   0  160.26   10.63
  -6  -1   0  132.61    7.72
   6  -1   0  124.83    7.96
  -6  -1   0  133.82    8.08
   6   1   0  110.82    8.57
  -6   1   0  130.08    8.03
  -6  -2   0  298.79   17.33
   6  -2   0  293.95   17.26
  -6  -2   0  297.78   16.62
   6   2   0  255.97   18.07
   6   3   0   56.41    5.18
  -6   3   0   48.65    4.97
   6  -3   0   62.46    3.57
   6   3   0   62.69    3.71
  -6  -3   0   56.53    4.24
   6  -3   0   60.59    4.24
  -6   4   0    7.01    1.97
   6  -4   0    8.04    1.35
   6   4   0    9.04    2.07
  -6  -4   0    8.62    1.34
  -6   5   0  179.64   13.48
   6  -5   0  179.73   12.14
  -6  -5   0  183.30   12.23
   6   5   0  204.97   13.73
  -6   6   0   36.88    4.63
  -6  -6   0   34.83    3.72
   6  -6   0   33.80    3.64
   6   6   0   51.93    5.13
   6  -7   0   26.55    3.17
  -6   7   0   27.29    3.88
  -6  -7   0   26.09    3.23
  -6   8   0   10.90    2.77
   6   0   1    0.52    0.46
  -6   0  -1    0.41    0.47
   6   0  -1    0.43    0.49
  -6   0   1    0.47    0.37
  -6   0   1    0.35    0.34
  -6   0  -1    0.96    0.42
  -6   1  -1   97.49    6.62
  -6   1   1   82.96    6.54
  -6  -1   1   91.61    5.96
  -6  -1  -1  100.81    6.33
  -6  -1   1   89.01    5.84
   6   1  -1   88.21    6.62
   6   1   1   88.31    6.51
   6  -1   1   87.09    6.10
   6  -1  -1  100.74    6.03
  -6   1  -1  101.18    6.30
  -6   1   1   94.80    5.95
  -6   2  -1   71.64    5.96
   6  -2   1   76.40    5.26
  -6   2   1   77.45    6.10
   6  -2  -1   77.36    5.09
  -6  -2   1   79.12    5.16
  -6  -2  -1   72.62    5.30
  -6  -2   1   83.91    4.96
   6  -2   1   77.48    4.87
   6   2   1   78.38    5.91
   6  -2  -1   78.61    4.94
   6  -3  -1  175.74   10.06
  -6   3  -1  161.05   11.65
  -6   3   1  143.79   11.42
   6  -3   1  166.88   10.62
  -6  -3   1  165.64   10.53
   6   3   1  181.35   11.54
  -6  -3  -1  161.52   10.64
   6   3  -1  175.44   10.19
   6  -3  -1  173.47   10.52
  -6  -4   1  291.08   17.94
  -6   4   1  256.11   18.91
   6  -4   1  296.30   17.98
  -6  -4  -1  302.73   18.08
   6   4   1  308.52   18.95
   6  -5   1  148.31    9.59
   6   5  -1  136.47   10.67
  -6  -5   1  158.31    9.75
  -6   5   1  143.41   10.90
  -6   5  -1  126.18   10.56
   6  -5  -1  132.85    9.45
   6   6   1   24.65    3.37
  -6   6   1   23.67    3.53
  -6   6  -1   23.64    3.50
  -6  -6   1   21.70    2.73
   6  -6  -1   22.55    2.70
  -6  -6  -1   21.68    2.73
   6  -6   1   20.76    2.66
  -6  -7  -1   12.61    2.19
  -6   7   1   13.29    2.98
   6  -7   1   11.75    2.19
  -6   7  -1   12.11    2.87
  -6  -7   1   11.10    2.17
   6  -7  -1   10.48    2.08
   6  -8  -1    1.74    1.04
  -6   8   1    2.24    1.20
  -6   0   2  440.11   25.57
  -6   0  -2  426.98   25.21
  -6   0   2  427.64   25.29
   6   0   2  453.91   25.67
   6   0  -2  405.33   25.48
  -6  -1   2  344.53   21.04
   6  -1   2  333.20   21.12
   6  -1  -2  368.58   21.16
   6   1   2  321.83   21.48
   6   1  -2  359.34   21.62
  -6   1  -2  364.22   21.62
  -6   1  -2  380.59   21.58
   6  -1  -2  367.11   20.94
  -6  -1  -2  369.45   21.75
   6   2   2  138.93    9.43
   6  -2   2  148.77    9.07
  -6  -2  -2  130.77    9.06
   6  -2  -2  138.38    8.69
   6  -2  -2  135.00    8.60
  -6  -2   2  151.95    8.75
   6  -2   2  153.32    8.64
  -6   2   2  128.08    9.78
  -6   2  -2  131.95    9.55
  -6  -2   2  144.99    8.78
   6   2  -2  134.24    9.48
  -6   3   2   80.30    6.73
   6   4  -2   21.33    2.08
   6  -4  -2   21.24    1.88
   6   4   2   16.37    2.48
  -6   4  -2   22.37    3.11
  -6  -4  -2   20.93    2.25
  -6   4   2   15.29    2.68
  -6  -4   2   17.54    2.04
   6  -4   2   16.14    2.06
   6  -4  -2   20.41    2.09
   6   5  -2  144.85    9.62
   6  -5   2  145.79    9.95
  -6   5   2  131.55   11.05
  -6   5  -2  155.24   11.41
   6  -5  -2  150.98    9.91
   6   5   2  150.15   10.78
  -6  -5  -2  138.64    9.97
  -6  -5   2  156.00   10.01
  -6   6   2  100.03    9.03
  -6  -6  -2  109.95    8.08
  -6   6  -2  118.03    9.46
   6   6   2  109.42    8.77
   6  -6   2   95.55    7.78
   6  -6  -2  112.22    7.94
  -6  -6   2  103.68    7.88
  -6  -7   2   24.40    2.97
  -6   7  -2   18.90    3.34
   6  -7   2   22.87    2.92
  -6   7   2   28.54    3.93
  -6  -7  -2   15.10    2.63
   6  -7  -2   20.68    2.77
   6  -8  -2   20.04    2.84
   6   0  -3    0.32    0.55
  -6   0  -3    0.44    0.43
  -6   0  -3    0.78    0.65
  -6   0   3    0.67    0.55
  -6   1   3   26.22    2.68
  -6  -1   3   28.35    2.38
   6   1   3   28.21    2.56
   6  -1  -3   18.77    2.08
  -6   1  -3   17.96    2.18
  -6   1  -3   18.50    2.22
   6   2  -3   33.40    3.10
  -6  -2  -3   32.65    2.99
   6  -2  -3   32.97    2.30
  -6  -2   3   26.78    2.62
  -6   2  -3   32.77    3.29
   6  -2   3   31.31    2.50
  -6  -2   3   28.41    2.33
   6  -2   3   29.54    2.73
   6  -2  -3   33.27    2.69
   6   3  -3  159.04   10.39
   6   3   3  140.07   10.34
  -6  -3  -3  154.99   10.15
   6  -3  -3  158.54    9.70
  -6   3   3  141.96   11.10
  -6  -3   3  145.61    9.87
   6  -3   3  146.50    9.94
   6  -3  -3  168.22    9.65
  -6   3  -3  156.91   10.90
  -6  -4  -3  351.09   21.64
   6  -4   3  345.22   21.49
   6   4  -3  346.89   21.24
  -6   4  -3  353.30   22.68
   6   4   3  333.24   21.98
  -6   4   3  364.70   23.12
  -6   5  -3   10.14    2.55
  -6  -5  -3   10.70    1.83
   6   5  -3   10.99    1.84
   6   5   3   11.97    2.38
  -6   5   3   10.30    2.55
  -6  -5   3    9.42    1.66
   6  -5   3    9.01    1.71
   6   5  -3   10.49    1.68
  -6   6   3    3.64    1.64
  -6  -6   3    5.46    1.47
   6   6   3    4.35    1.71
  -6   6  -3    6.44    2.21
   6  -6   3    4.57    1.44
  -6  -6  -3    5.59    1.60
  -6   7   3    6.64    2.23
   6  -7   3    4.41    1.51
  -6  -7   3    5.61    1.59
  -6  -7  -3    3.00    1.40
   6   7   3    7.18    2.17
  -6   7  -3    4.59    1.81
  -6   0  -4   99.54    7.16
  -6   0  -4  107.76    6.99
   6   0  -4   93.51    6.88
  -6   0  -4  102.13    6.94
  -6   1  -4  124.56    8.14
  -6  -1   4  138.81    8.59
  -6   1   4  133.67    8.96
  -6   1  -4  125.21    8.55
   6   1  -4  121.43    8.39
   6  -1  -4  120.23    8.24
  -6  -1  -4  114.95    8.64
  -6   1  -4  118.05    8.40
  -6  -1  -4  121.36    8.40
  -6  -2  -4  121.71    9.00
  -6   2  -4  138.51    8.40
  -6   2   4  134.63    9.76
   6  -2   4  131.56    8.70
   6  -2  -4  123.46    8.58
  -6   2  -4  131.69    9.28
  -6  -2   4  131.73    8.79
   6   2  -4  129.33    8.88
   6  -3   4   46.28    3.90
  -6   3   4   48.87    5.13
   6  -3  -4   45.70    3.81
   6   3  -4   49.77    4.20
  -6   3  -4   48.26    4.73
   6   3   4   44.51    4.33
  -6  -3  -4   45.58    4.10
  -6  -3   4   46.34    4.04
   6   4  -4    5.20    1.43
   6   4   4    4.75    1.62
  -6   4   4    6.57    2.21
  -6  -4   4    5.85    1.39
  -6   4  -4    6.70    2.04
  -6  -4  -4    4.31    1.32
   6  -4  -4    4.21    1.17
   6  -4   4    6.54    1.38
  -6   5  -4  118.54    9.83
   6  -5   4  110.32    8.34
   6   5   4  114.05    9.09
   6   5  -4  117.21    8.49
  -6   5   4  121.67   10.11
  -6  -5  -4  120.86    8.72
  -6   6  -4   64.64    7.05
  -6  -6  -4   67.24    6.09
  -6   6   4   78.22    7.58
   6  -6   4   74.00    6.06
   6   6   4   78.31    6.87
  -6   7   4    4.97    1.89
   6   7   4    6.26    2.04
  -6  -7  -4    8.25    1.98
  -6   0   5    0.67    0.78
  -6   0  -5    0.77    0.65
   6   0  -5    1.56    0.92
  -6   0  -5    0.05    0.66
   6   0   5    0.31    0.48
  -6  -1   5   24.64    2.85
  -6   1   5   25.97    3.13
   6  -1  -5   24.59    2.70
   6   1  -5   26.75    2.82
  -6   1  -5   26.80    2.95
  -6   1  -5   28.38    2.68
  -6  -1  -5   25.45    2.77
   6   1   5   28.47    2.75
   6  -2  -5   35.70    3.35
   6  -2   5   35.11    3.24
  -6  -2  -5   38.42    3.72
   6   2  -5   34.50    3.40
  -6  -2   5   28.89    3.33
  -6   2  -5   43.19    4.06
  -6  -2  -5   38.76    3.65
  -6   2   5   34.63    4.05
   6   3  -5  138.63    9.97
  -6  -3  -5  146.16   10.33
  -6  -3   5  141.79   10.11
   6  -3  -5  145.99    9.89
  -6   3  -5  150.84   10.94
   6  -3   5  152.30    9.91
  -6   3   5  150.82   11.55
   6   3   5  143.47   10.48
   6  -4  -5  137.57    9.40
  -6   4  -5  128.94   10.56
   6  -4   5  135.95    9.37
   6   4  -5  132.33    9.45
  -6   4   5  133.94   11.21
  -6  -4   5  133.56    9.73
   6   4   5  140.77   10.19
  -6  -4  -5  137.41    9.79
   6  -5   5   87.85    6.97
  -6  -5  -5   97.67    7.48
   6  -5  -5   98.34    7.12
  -6  -5   5   90.05    7.39
  -6   5  -5   91.01    8.44
  -6   5   5   99.82    9.04
   6   5   5   80.46    7.53
   6  -6   5   17.42    2.42
   6   6   5   17.06    2.95
  -6   6   5   18.61    3.75
  -6   6  -5   15.22    3.47
  -6   0  -6   73.24    5.69
  -6   0   6   71.94    6.11
   6   0  -6   67.36    5.64
   6   0   6   71.00    5.78
  -6  -1   6    4.02    1.52
   6   1  -6    8.59    1.78
  -6   1  -6   10.77    1.76
  -6   1   6    3.94    1.58
  -6  -1  -6   11.39    2.02
   6  -1  -6    7.90    1.73
   6   2  -6   98.78    7.52
  -6  -2  -6  105.73    7.77
  -6  -2   6   91.27    7.63
  -6   2  -6  108.16    8.24
  -6   2   6  101.88    8.52
   6  -2  -6   98.19    7.44
  -6   3   6   18.23    3.41
   6  -3  -6   10.55    2.05
  -6   3  -6   11.60    2.57
  -6  -3   6   15.89    2.33
   6   3  -6   10.91    1.89
   6  -4  -6    3.21    1.16
  -6   4   6    4.36    2.02
  -6   4  -6    2.71    1.30
  -6  -4   6    4.13    1.56
   6   4  -6    3.09    1.11
   6   4   6    5.42    1.87
  -6  -5   6   84.84    7.28
   6  -5  -6   80.52    6.79
   6   5   6   81.19    7.49
  -6   5   6   87.77    8.70
  -6   5  -6   88.77    8.40
  -6   0   7    0.83    0.82
  -6   0  -7    0.88    0.81
   6   0  -7    0.49    0.79
   6   1  -7   14.98    2.28
  -6   1   7   12.12    2.67
   6  -1  -7   15.05    2.31
  -6   1  -7   17.45    2.29
   6  -1   7   14.06    2.35
  -6  -1   7   11.40    2.43
  -6  -1  -7   16.05    2.44
  -6  -2  -7   37.67    4.08
  -6  -2   7   41.18    4.33
  -6   2   7   41.76    4.85
   6  -2   7   37.72    4.39
   6   2  -7   31.73    3.66
   6  -2  -7   34.40    3.81
  -6   3  -7   55.21    6.09
   6  -3  -7   57.52    5.43
  -6  -3   7   66.56    6.01
  -6  -3  -7   58.46    5.67
   6   3  -7   53.08    5.19
  -6   3   7   79.16    7.42
  -6   4   7   96.60    9.57
   6  -4  -7   98.15    7.84
  -6   0  -8   23.96    3.09
  -6  -1  -8   73.67    6.48
   6  -2   8   21.40    3.26
   7   0   0    0.48    0.58
  -7   0   0    0.85    0.45
  -7   0   0    0.11    0.44
  -7  -1   0  173.83   10.26
   7   1   0  162.71   11.27
  -7   1   0  172.79   10.58
  -7   1   0  158.42   10.96
   7  -1   0  161.97   10.49
  -7  -1   0  178.34   10.62
   7  -2   0   19.20    1.47
   7  -2   0   15.92    1.64
  -7  -2   0   17.73    1.25
   7   2   0   17.05    2.40
  -7  -2   0   16.82    1.75
  -7   2   0   14.43    2.24
  -7  -3   0    5.98    0.61
   7   3   0    4.50    1.56
   7  -3   0    4.33    0.98
  -7  -3   0    5.22    1.06
  -7   3   0    4.05    1.43
  -7  -4   0    2.22    0.90
   7  -4   0    3.46    1.00
  -7   4   0    1.38    1.17
   7   4   0    2.64    1.44
   7   5   0    6.99    2.10
  -7  -5   0    5.59    1.40
  -7   5   0    7.67    2.34
   7  -5   0    5.98    1.38
  -7   6   0    8.06    2.45
   7   6   0    9.63    2.55
  -7  -6   0    5.83    1.57
   7  -6   0    6.98    1.66
  -7  -7   0   77.18    6.64
  -7   7   0   85.61    7.98
   7  -7   0   80.89    6.67
   7   0   1   37.16    3.17
  -7   0  -1   29.27    2.91
  -7   0   1   35.95    2.99
  -7   0   1   38.51    2.83
  -7   0  -1   31.83    2.78
   7  -1  -1   32.87    2.43
  -7   1   1   24.83    2.18
  -7   1  -1   30.81    2.60
  -7  -1  -1   31.31    2.64
   7   1  -1   26.40    2.86
   7  -1   1   24.91    2.40
  -7   1   1   21.23    2.61
   7   1   1   26.98    2.78
  -7  -1   1   26.36    2.26
  -7  -1   1   25.80    2.15
  -7   1  -1   31.57    2.93
  -7  -2   1   91.84    5.63
  -7  -2   1   92.54    5.93
   7   2   1   87.76    6.70
  -7   2  -1   85.35    6.85
  -7   2   1   86.09    6.84
   7  -2   1   87.03    5.67
   7   2  -1   75.19    6.77
   7  -2   1   90.71    6.08
  -7  -2  -1   92.14    6.16
   7  -2  -1   94.39    5.88
   7  -2  -1   93.63    5.72
  -7   3  -1   88.48    7.05
   7   3   1   74.96    6.46
  -7  -3   1   77.13    5.31
  -7  -3   1   72.61    5.62
  -7  -3  -1   87.17    5.91
   7   3  -1   95.31    7.27
   7  -4   1   32.55    3.06
  -7  -4  -1   36.47    3.20
  -7   4  -1   35.45    4.16
  -7  -4   1   31.84    2.98
   7   4  -1   32.91    4.03
  -7   4   1   26.15    3.70
   7  -4  -1   39.59    3.10
   7   5   1    1.83    1.31
  -7   5   1    1.08    1.12
   7  -5   1    3.11    1.16
  -7   5  -1    2.13    1.36
  -7  -5   1    1.26    0.92
   7   5  -1    1.88    1.32
  -7  -5  -1    0.55    0.83
   7  -5  -1    2.28    1.03
  -7   6   1    9.71    2.63
   7   6   1    9.91    2.56
   7  -6  -1    8.99    1.83
  -7   6  -1   11.10    2.73
  -7  -6   1    8.02    1.77
   7  -6   1    7.89    1.77
   7   6  -1   13.00    2.75
  -7  -6  -1    5.78    1.66
   7  -7  -1    6.52    1.77
  -7   7   1   11.57    2.90
   7  -7   1   11.18    2.20
  -7  -7  -1    6.62    1.90
  -7   7  -1    7.70    2.50
  -7  -7   1    9.51    2.01
  -7   0  -2    0.26    0.62
  -7   0  -2    0.77    0.47
   7   0   2   -0.12    0.48
   7   0  -2    0.81    0.73
  -7   0   2   -0.04    0.48
  -7   0   2    0.30    0.37
   7  -1   2   12.47    1.42
  -7   1  -2    8.06    1.42
  -7  -1  -2    9.12    0.90
  -7  -1   2   13.21    1.39
  -7  -1  -2    6.26    1.37
  -7   1   2   13.49    1.87
   7   1   2   14.46    1.80
   7   1  -2    7.70    1.54
   7  -2   2  139.29    8.56
   7   2  -2  116.84    8.94
  -7  -2   2  129.61    8.12
   7  -2  -2  128.57    8.11
  -7   2  -2  129.89    9.15
   7  -2   2  132.37    8.07
  -7  -2  -2  121.21    8.51
  -7   2   2  121.38    9.24
   7  -2  -2  129.02    8.02
   7   2   2  123.19    8.86
  -7  -2   2  135.49    8.13
   7  -3  -2    5.66    0.99
  -7  -3  -2    3.73    1.05
  -7   3   2    6.41    1.83
   7   3   2    8.47    1.74
  -7  -3   2    8.31    1.11
   7   3  -2    3.67    1.46
  -7   3  -2    5.61    1.76
   7  -3  -2    3.90    0.86
   7   4   2    2.34    1.22
   7  -4   2    2.65    1.04
   7  -4  -2    0.97    0.76
  -7   4  -2    2.24    1.36
  -7  -4  -2    1.57    0.91
  -7   4   2    1.91    1.41
   7   4  -2    1.30    0.68
  -7  -4   2    2.70    0.91
   7   4  -2    0.45    0.83
  -7   5   2   16.72    3.17
   7   5   2   15.61    2.59
  -7  -5  -2   14.55    2.16
   7  -5   2   16.21    2.19
  -7  -5   2   17.79    2.18
   7  -5  -2   15.52    2.05
  -7   5  -2   14.16    2.98
  -7  -6  -2   13.64    2.17
  -7   6   2   10.77    2.85
   7   6   2   18.99    2.95
   7  -6  -2   12.91    2.07
   7  -6   2   13.73    2.15
  -7   6  -2   16.86    3.36
  -7  -6   2   13.91    2.14
   7  -7  -2   13.40    2.24
  -7   7  -2    9.83    2.85
  -7   7   2   19.36    3.64
  -7  -7  -2   10.15    2.26
   7  -7   2   14.27    2.33
  -7  -7   2   15.52    2.34
  -7   0  -3   37.34    2.83
   7   0   3   31.32    2.96
  -7   0  -3   32.04    3.14
   7   0  -3   36.00    3.07
  -7   0   3   30.27    2.99
   7  -1   3   31.16    2.65
   7  -1  -3   27.50    2.59
  -7   1  -3   27.21    2.78
  -7  -1   3   31.71    2.21
   7   1  -3   26.73    2.77
  -7   1   3   27.50    3.01
  -7  -1   3   27.35    2.61
  -7   1  -3   31.04    2.87
   7   1   3   32.96    2.34
  -7  -1  -3   26.48    2.86
   7   1   3   27.96    2.86
   7   2   3   88.61    6.91
   7   2  -3   92.08    6.93
   7  -2  -3   94.66    6.42
  -7   2   3   95.27    7.53
   7  -2   3   97.49    6.68
   7  -2   3   99.46    6.30
  -7   2  -3  100.90    7.30
  -7  -2   3   89.06    6.43
  -7  -3  -3   94.49    6.90
   7   3  -3   94.68    7.24
  -7   3   3   94.29    7.93
   7   3   3   96.45    7.32
   7  -3   3   98.71    6.80
  -7   3  -3   93.70    7.62
   7   4   3   17.12    2.55
  -7   4  -3   15.42    2.95
  -7  -4  -3   14.26    2.13
  -7  -4   3   18.59    2.10
   7   4  -3   14.51    2.28
  -7   4   3   18.13    3.01
  -7  -4   3   18.61    2.05
   7  -4   3   19.21    2.26
   7  -4  -3   16.33    1.89
   7   5   3    2.19    1.38
  -7  -5  -3    4.31    1.40
  -7  -5   3    2.97    1.12
  -7   5   3    1.87    1.37
   7   5  -3    5.25    1.28
   7  -5   3    2.23    1.14
  -7   5  -3    4.03    1.84
   7   5  -3    4.38    1.48
  -7   6   3    4.62    1.87
   7  -6   3    5.64    1.59
  -7  -6  -3    7.22    1.80
  -7   6  -3    7.13    2.31
   7   6   3    6.15    2.04
  -7  -6   3    6.91    1.60
   7   7   3   16.70    3.17
   7  -7   3   12.57    2.40
  -7   7   3   15.91    3.43
  -7   7  -3   13.70    3.28
  -7  -7   3   15.25    2.32
  -7  -7  -3   15.23    2.52
   7   0  -4    0.30    0.62
  -7   0  -4    0.27    0.60
  -7   0  -4    0.84    0.79
  -7   0   4    0.23    0.64
  -7   1  -4    2.93    1.06
  -7   1  -4    3.75    1.15
   7  -1  -4    4.59    1.14
  -7  -1   4    6.06    1.35
  -7  -1  -4    3.99    1.27
   7   1   4    5.75    1.41
   7   1  -4    4.18    1.25
  -7   1   4    6.40    1.58
   7  -2   4   60.05    4.80
  -7  -2  -4   67.52    5.29
  -7   2   4   55.18    5.51
  -7   2  -4   71.88    5.57
   7   2   4   56.52    5.10
  -7  -2   4   54.70    4.74
   7   2  -4   65.73    5.15
   7  -2  -4   63.90    4.77
   7   3  -4   10.07    1.84
  -7  -3  -4    7.35    1.59
   7  -3  -4    8.08    1.43
  -7  -3   4    5.25    1.33
  -7   3   4    4.23    1.85
   7  -3   4    5.98    1.38
  -7   3  -4    9.57    2.17
   7   3   4    3.66    1.46
  -7  -4  -4    0.23    0.81
   7   4   4    1.10    1.16
  -7   4  -4    0.75    0.96
  -7   4   4    3.03    1.55
   7  -4   4    2.13    1.05
   7  -4  -4    1.09    0.84
  -7  -4   4    2.80    1.06
   7   4  -4    1.12    0.82
  -7   5   4   10.01    2.74
  -7  -5   4    9.60    1.88
  -7  -5  -4   16.71    2.36
   7   5  -4   16.65    2.27
  -7   5  -4   14.13    3.10
   7  -5   4    8.74    1.84
   7   5   4    7.61    2.22
   7  -6   4    9.53    2.00
  -7   6   4   11.23    2.94
  -7  -6  -4   13.12    2.39
   7   6   4   13.88    2.80
  -7   6  -4   10.63    2.92
   7   7   4   16.93    3.27
   7   0  -5    1.76    0.91
  -7   0   5    1.77    1.03
  -7   0  -5    1.29    0.92
  -7   0  -5    1.00    0.88
   7   0   5    1.70    0.78
  -7   1  -5    7.69    1.68
  -7   1  -5   12.87    1.72
  -7   1  -5    7.82    1.60
   7  -1  -5    6.51    1.52
  -7   1   5    8.65    1.97
  -7  -1   5    9.49    1.82
  -7  -1  -5    9.89    1.82
  -7  -1  -5    6.06    1.53
   7   1  -5    9.36    1.79
   7  -2  -5   18.79    2.27
  -7  -2  -5   19.70    2.53
   7   2   5   13.17    2.29
   7   2  -5   17.57    2.33
  -7  -2   5   15.12    2.19
  -7   2   5   15.03    2.86
   7  -2   5   16.30    2.10
  -7   2  -5   19.81    2.67
   7  -3  -5   59.66    5.14
  -7   3   5   72.76    6.82
   7   3   5   68.82    5.92
   7   3  -5   60.61    5.40
  -7   3  -5   60.33    5.97
   7  -3   5   70.95    5.38
  -7  -3   5   70.56    5.53
  -7  -3  -5   64.37    5.64
   7  -4   5   14.73    2.14
  -7  -4  -5   15.68    2.34
  -7   4   5   17.36    3.46
  -7   4  -5   16.69    2.89
   7   4   5   14.21    2.48
  -7  -4   5   15.44    2.29
   7   4  -5   14.98    2.22
   7  -4  -5   14.91    2.10
  -7  -5   5    4.35    1.44
  -7  -5  -5    4.42    1.50
  -7   5  -5    3.70    1.66
   7  -5   5    2.37    1.17
  -7   5   5    4.95    2.17
   7   5   5    5.13    1.91
  -7   6   5   11.00    3.06
  -7  -6  -5   10.87    2.25
   7  -6   5    8.23    1.89
   7   6   5   10.69    2.63
  -7   0   6    0.45    0.71
   7   0  -6    0.47    0.81
  -7   0  -6    0.18    0.70
  -7   1  -6   52.78    4.34
   7  -1  -6   49.58    4.44
  -7  -1   6   45.15    4.55
  -7  -1  -6   50.16    4.53
   7   1  -6   46.71    4.43
  -7   1   6   45.53    4.83
  -7  -2   6    3.49    1.36
   7  -2  -6    3.82    1.35
  -7   2   6    4.47    1.84
  -7   2  -6    5.31    1.68
   7   2  -6    3.37    1.25
   7   3   6    8.98    2.25
  -7  -3   6   12.03    2.04
   7  -3  -6    8.56    1.87
   7   3  -6    8.95    1.93
  -7   3  -6   10.09    2.43
  -7   3   6   11.32    2.86
  -7   4   6   10.84    3.08
   7  -4  -6   11.41    1.90
   7   4  -6   10.68    1.84
   7   4   6    8.93    2.41
  -7  -4   6   12.74    2.10
  -7   4  -6   11.42    2.83
  -7   5   6    3.91    1.76
  -7  -5   6    6.23    1.90
  -7   0  -7    3.71    1.34
  -7   0   7    4.50    1.68
   7   0  -7    1.89    1.09
  -7  -1   7   12.46    2.61
  -7  -1  -7   23.02    2.89
   7   1  -7   19.36    2.59
   7  -1   7   14.69    2.45
   7  -1  -7   17.76    2.52
  -7   1   7   17.89    2.89
  -7   2   7   18.82    3.50
  -7  -2   7   16.48    2.64
   7  -2  -7   13.53    2.29
  -7  -2  -7   16.55    2.57
   7   2  -7   16.73    2.44
   7   3  -7   17.08    2.54
  -7   3  -7   20.03    3.23
  -7   3   7   24.57    3.86
   7   3   7   16.57    3.17
  -7  -3   7   19.10    2.87
   7  -3  -7   21.90    2.90
  -7   0  -8    1.45    0.96
  -7  -1  -8    7.51    2.01
   7  -2   8   25.15    3.57
  -8   0   0  178.14   10.86
  -8   0   0  162.66   10.79
   8   0   0  166.12   11.17
  -8  -1   0  189.20   11.87
   8   1   0  193.28   12.67
   8  -1   0  168.84   11.72
  -8  -1   0  202.62   11.56
  -8   1   0  190.23   11.87
  -8   1   0  183.84   12.28
  -8   2   0   51.14    5.02
   8  -2   0   61.65    4.38
   8  -2   0   61.64    4.07
  -8  -2   0   60.06    4.43
  -8  -2   0   64.14    3.84
   8  -3   0   13.70    1.58
   8   3   0    9.65    2.28
  -8  -3   0    8.01    1.35
  -8   3   0   10.57    2.26
  -8   4   0   10.25    2.51
   8  -4   0   12.46    1.70
   8   4   0   12.29    2.58
  -8  -4   0    9.29    1.60
   8   5   0    0.78    1.18
  -8   5   0    0.91    1.06
   8  -5   0    0.69    0.79
  -8  -5   0    0.80    0.87
  -8  -6   0   92.39    7.39
  -8   6   0  102.59    8.96
   8  -6   0   96.52    7.39
   8  -7   0    1.65    1.16
  -8   7   0    2.24    1.41
  -8  -7   0    2.12    1.21
  -8   0   1    0.37    0.49
  -8   0   1    0.38    0.52
   8   0  -1    0.30    0.63
   8   0   1    1.30    0.78
  -8   0  -1   -0.03    0.56
  -8   0  -1    0.53    0.43
  -8   1  -1   41.56    3.68
  -8   1   1   30.64    3.39
  -8  -1   1   33.13    2.95
   8   1   1   31.13    3.41
  -8  -1  -1   45.60    3.48
   8   1  -1   42.19    3.86
  -8   1  -1   45.32    3.46
  -8   2   1   24.19    2.84
   8  -2   1   23.07    1.86
  -8  -2   1   22.37    1.74
   8   2   1   23.23    2.69
   8  -2  -1   14.95    1.67
  -8  -2   1   20.43    1.97
  -8  -2  -1   13.92    1.92
   8  -2   1   22.90    2.16
   8   2  -1   12.79    2.39
   8  -3  -1  169.73    9.71
  -8   3   1  169.72   11.56
  -8  -3   1  165.16    9.67
  -8  -3   1  166.18   10.24
   8  -3  -1  150.53   10.09
   8   3   1  160.89   11.26
   8   3  -1  143.71   11.43
  -8   3  -1  137.33   11.22
   8  -3   1  162.64   10.34
  -8   4  -1  266.77   18.85
  -8  -4   1  275.19   17.45
  -8   4   1  265.85   18.76
   8  -4   1  282.91   17.57
   8   4   1  298.44   18.76
   8   4  -1  299.60   19.26
  -8  -4  -1  270.94   17.55
   8  -4  -1  285.04   17.42
  -8  -5  -1    8.98    1.77
   8   5   1   14.29    2.76
  -8  -5   1   12.52    1.90
   8  -5  -1   11.53    1.78
   8  -5   1   10.40    1.83
  -8   5  -1   12.42    2.86
  -8   5   1   11.75    2.78
   8   5  -1   12.33    2.82
  -8  -6   1   29.49    3.20
   8  -6  -1   27.17    3.12
   8   6   1   34.95    4.30
   8   6  -1   32.84    4.26
  -8  -6  -1   26.63    3.20
   8  -6   1   28.62    3.21
  -8   6  -1   20.72    3.59
  -8   6   1   28.58    4.07
   8  -7  -1    4.99    1.59
   8  -7   1    2.98    1.37
  -8   7  -1    3.95    1.84
  -8   7   1    3.11    1.61
  -8  -7  -1    4.34    1.70
  -8  -7   1    2.92    1.34
   8   0   2  373.24   24.03
   8   0  -2  413.71   24.12
  -8   0   2  374.97   23.66
  -8   0  -2  433.31   24.54
   8   1   2    5.99    1.33
  -8   1  -2    2.01    0.90
   8  -1   2    6.75    1.11
  -8  -1   2    7.62    1.08
   8  -1  -2    2.45    0.88
  -8   1   2    8.11    1.61
   8  -1  -2    2.80    0.63
  -8  -1  -2    3.34    0.52
  -8   1  -2    3.13    1.05
   8   1  -2    2.71    1.10
  -8  -2  -2   84.38    6.18
  -8  -2   2   89.13    5.76
  -8   2   2   77.76    6.75
   8   2  -2   87.58    6.81
   8  -2   2   87.87    5.76
  -8  -2   2   84.48    5.71
  -8  -3   2   68.67    4.46
   8  -3  -2   56.51    4.27
  -8   3   2   68.86    5.95
  -8   3  -2   49.70    5.37
   8  -3  -2   59.68    4.42
  -8  -3   2   70.89    4.64
   8   3   2   64.49    5.41
  -8  -3  -2   52.79    4.70
  -8  -4   2    9.28    1.28
   8  -4   2    8.65    1.48
  -8  -4   2    9.98    1.49
   8   4   2    9.46    2.12
  -8   4   2   11.95    2.59
  -8   4  -2    4.75    1.82
  -8  -4  -2    4.83    1.36
   8   4  -2    5.45    1.79
   8  -4  -2    6.52    1.27
  -8   5  -2   94.74    8.34
   8  -5  -2   95.72    6.76
   8   5   2   94.87    7.73
   8   5  -2   77.71    7.52
   8  -5   2   86.61    6.77
  -8   5   2   94.05    8.24
  -8  -5  -2   86.82    6.84
  -8  -5   2   93.08    6.73
   8  -6   2    5.45    1.58
   8  -6  -2    7.83    1.72
  -8   6  -2   13.11    3.10
  -8  -6   2    7.48    1.69
  -8   6   2    5.96    2.21
  -8  -6  -2    7.20    1.75
   8   6   2    6.79    2.16
  -8  -7   2   28.32    3.56
  -8   7   2   32.94    4.68
  -8   7  -2   38.28    5.03
   8  -7  -2   40.55    4.00
   8  -7   2   30.01    3.71
  -8  -7  -2   39.10    4.14
   8   7   2   32.87    4.43
  -8   0  -3   -0.06    0.62
  -8   0   3    1.10    0.73
   8   0  -3    0.00    0.55
  -8   0  -3    0.29    0.42
   8   0   3    0.44    0.65
  -8  -1   3   50.06    4.02
   8   1  -3   52.15    4.36
  -8   1  -3   50.10    4.26
  -8   1   3   48.08    4.47
   8  -1   3   52.26    4.02
  -8   2   3   55.43    5.03
   8   2  -3   44.12    4.32
  -8  -2  -3   45.22    4.15
   8   2   3   51.60    4.47
   8  -3  -3   82.28    5.99
   8  -3   3   90.80    6.45
   8   3   3   87.26    6.93
  -8  -3   3   87.25    6.11
   8   3  -3   82.28    6.89
  -8  -3   3   97.61    6.08
  -8   3   3   87.41    7.53
  -8   3  -3   86.84    7.30
  -8  -3  -3   80.54    6.42
  -8  -4   3    4.47    1.11
   8  -4   3    5.85    1.40
  -8  -4  -3    2.71    1.19
  -8  -4   3    6.00    1.21
  -8   4   3    7.47    2.27
  -8   4  -3    3.21    1.59
   8   4  -3    3.32    1.37
   8   4   3    6.45    1.86
   8  -4  -3    3.02    0.95
  -8   5   3  156.41   11.47
   8  -5   3  134.19    9.57
   8   5  -3  121.33   10.05
   8   5   3  132.93   10.28
  -8  -5  -3  126.06    9.60
  -8   5  -3  137.25   11.10
  -8  -5   3  138.31    9.36
   8  -6   3    2.29    1.27
  -8  -6   3    3.52    1.28
  -8  -6  -3    2.91    1.39
  -8   6  -3    3.62    1.65
  -8   6   3    3.27    1.61
   8   6   3    4.75    1.90
   8   7   3   22.45    3.47
  -8   7   3   26.58    4.08
  -8  -7  -3   21.51    3.13
  -8  -7   3   22.81    2.93
  -8   0  -4  170.09   11.77
   8   0  -4  192.04   11.66
  -8   0   4  170.95   11.68
   8   0   4  170.00   11.53
   8   1  -4   56.29    4.80
  -8  -1   4   57.13    4.69
  -8   1   4   55.55    5.06
  -8   1  -4   60.99    4.84
  -8   1  -4   51.26    4.71
   8  -1  -4   58.22    4.61
  -8  -1  -4   63.30    5.12
   8   1   4   58.31    4.88
  -8   2   4   60.68    5.62
   8  -2  -4   56.12    4.51
   8   2   4   55.13    4.98
  -8  -2  -4   57.32    5.03
   8  -2   4   62.53    4.79
  -8   2  -4   58.13    5.18
  -8  -2   4   57.45    4.65
   8   2  -4   53.06    4.87
   8   3   4   37.52    4.24
  -8   3  -4   50.31    4.94
   8  -3  -4   54.83    4.03
  -8  -3  -4   53.60    4.45
   8  -3   4   37.25    3.84
  -8  -3   4   39.34    3.80
   8  -4  -4    9.00    1.56
  -8  -4   4    7.07    1.57
  -8   4   4    6.98    2.30
   8   4   4    8.05    2.08
   8   4  -4    9.90    2.09
  -8   4  -4    9.52    2.52
   8  -4   4    6.18    1.54
  -8  -4  -4   10.15    1.94
   8  -5   4   45.73    4.43
  -8  -5   4   44.70    4.35
   8   5  -4   53.44    4.93
  -8  -5  -4   55.05    4.84
  -8   5  -4   48.64    5.68
  -8   5   4   52.40    5.86
   8   5   4   41.99    4.83
   8   6   4   33.50    4.11
   8  -6   4   31.50    3.49
  -8   6   4   32.38    4.55
  -8  -6  -4   27.20    3.48
  -8   6  -4   25.46    4.17
   8   0   5   -0.12    0.55
   8   0  -5    0.09    0.78
  -8   0  -5   -0.34    0.54
  -8   0   5   -0.03    0.63
  -8   1   5   20.97    2.84
  -8   1  -5   15.80    2.31
   8  -1  -5   16.85    2.28
   8  -1   5   19.18    2.34
   8   1  -5   16.88    2.34
  -8  -1   5   17.70    2.39
  -8  -1  -5   15.69    2.39
  -8   1  -5   18.29    2.44
   8   1   5   21.08    2.66
  -8   2  -5    0.24    0.76
   8  -2  -5    0.80    0.90
   8   2  -5   -0.03    0.71
   8  -2   5    1.60    0.93
  -8  -2   5    3.10    1.21
  -8  -2  -5    0.40    0.89
  -8   2   5    2.25    1.36
   8   2   5    3.34    1.32
  -8  -3  -5   23.65    2.91
   8  -3   5   18.88    2.45
  -8  -3   5   17.66    2.48
  -8   3  -5   24.76    3.32
   8  -3  -5   21.81    2.49
   8   3   5   15.69    2.65
  -8   3   5   17.58    3.47
   8   3  -5   20.73    2.70
   8  -4   5  110.35    8.16
   8  -4  -5  115.74    8.10
   8   4   5  102.53    8.67
  -8  -4  -5  114.36    8.56
  -8  -4   5  110.19    8.20
   8   4  -5  103.92    8.32
  -8   4  -5  108.47    9.44
  -8   4   5  115.14    9.95
   8   5   5   18.98    3.01
  -8   5  -5   11.10    3.08
   8  -5   5   17.88    2.49
  -8  -5   5   21.25    2.69
  -8   5   5   25.37    3.94
  -8  -5  -5   12.29    2.43
  -8  -6  -5   11.36    2.31
   8  -6   5    6.29    1.73
  -8   0   6   18.80    2.77
   8   0  -6   14.85    2.38
  -8   0  -6   23.27    2.73
  -8  -1   6  120.76    9.38
   8   1  -6  120.74    9.21
   8   1   6  131.03    9.57
  -8   1   6  124.36    9.82
  -8   1  -6  131.78    9.51
   8  -1   6  139.31    9.24
   8  -1  -6  121.63    9.13
   8  -2  -6   34.28    3.63
   8  -2   6   42.18    3.76
   8   2  -6   33.10    3.74
  -8   2   6   39.15    4.63
   8   2   6   34.31    4.02
  -8   2  -6   36.16    4.14
  -8  -2   6   34.43    3.82
   8   3  -6    4.43    1.38
  -8   3  -6    4.89    1.76
  -8   3   6    4.04    1.83
   8  -3  -6    5.36    1.54
   8   3   6    3.53    1.59
  -8  -3   6    3.01    1.27
   8  -3   6    4.78    1.36
  -8   4   6    8.32    2.70
  -8  -4   6    7.20    1.90
  -8   4  -6    9.58    2.67
   8   4  -6    6.85    1.75
   8   4   6    4.70    1.90
   8  -4  -6    7.70    1.79
   8  -4   6    5.53    1.54
  -8  -5   6    3.38    1.32
   8  -5   6    3.39    1.21
  -8   0   7    0.69    0.80
  -8   0  -7    1.03    0.88
   8   0  -7    0.74    0.85
   8  -1  -7    5.18    1.58
  -8   1   7    1.00    0.89
   8   1  -7    5.26    1.63
   8   2  -7    8.65    2.07
  -8   2   7   11.23    2.77
   8   2   7    8.46    2.31
   8  -2  -7    8.21    1.95
  -8  -2   7    7.90    2.08
  -8   2  -7    8.36    2.20
  -8   3   7   50.04    6.01
  -8   3  -7   51.24    5.66
   8   3  -7   48.05    4.81
   8   3   7   45.21    5.13
  -8  -3   7   38.61    4.61
   8  -3  -7   49.83    4.78
  -9   0   0    1.02    0.70
   9   0   0    0.84    0.79
  -9   0   0    0.37    0.58
  -9  -1   0  131.09    8.67
   9   1   0  130.71    9.43
  -9   1   0  140.52    9.22
  -9   1   0  126.41    8.62
   9  -1   0  121.83    8.59
  -9   2   0  334.27   21.45
   9  -2   0  346.38   20.11
   9  -2   0  331.58   20.53
  -9  -2   0  338.44   20.60
  -9   3   0    2.21    1.26
   9  -3   0    2.72    0.94
  -9  -3   0    2.55    0.91
   9   3   0    4.35    1.73
   9  -4   0   17.15    2.13
  -9  -4   0   17.41    2.20
  -9   4   0   15.56    3.10
   9   4   0   23.14    3.28
   9   5   0   64.80    6.21
   9  -5   0   58.39    4.72
  -9  -5   0   49.47    4.57
  -9   5   0   45.46    5.55
  -9   6   0  101.77    9.21
  -9  -6   0  101.90    7.78
   9  -6   0   98.90    7.66
  -9  -7   0    1.19    1.10
   9  -7   0    2.25    1.25
  -9   7   0    1.26    1.17
  -9   0   1  403.84   24.19
  -9   0  -1  380.80   23.93
   9   0   1  387.61   24.39
  -9   0  -1  404.51   24.39
  -9   0   1  416.68   24.07
   9  -1   1  213.73   12.92
   9  -1  -1  199.63   12.66
  -9  -1  -1  192.50   12.93
  -9   1  -1  186.75   12.86
  -9   1   1  216.49   13.36
  -9   1   1  209.92   12.61
   9   1   1  194.88   13.31
  -9  -1   1  205.27   12.47
  -9  -1   1  211.42   12.69
   9   1  -1  181.60   13.33
   9  -2   1   84.92    5.59
  -9  -2   1   77.78    5.67
  -9   2  -1   80.22    6.72
  -9   2   1   83.64    6.68
   9  -2   1   78.61    5.88
   9   2  -1   69.33    6.65
  -9  -2  -1   93.01    6.11
  -9  -2   1   79.50    5.34
   9  -2  -1   90.05    5.71
  -9   3  -1   84.60    8.00
  -9  -3  -1   89.53    7.11
   9   3  -1   96.38    8.37
   9   3   1  121.01    8.47
   9  -3  -1  105.83    6.59
   9  -3   1  109.44    7.26
   9  -3  -1   95.66    6.93
  -9   3   1  120.79    8.57
  -9   4  -1   22.07    3.43
  -9  -4   1   27.36    2.69
   9   4  -1   24.47    3.62
   9  -4   1   26.56    2.74
   9   4   1   26.29    3.45
  -9  -4  -1   20.50    2.57
   9  -4  -1   22.98    2.49
  -9   4   1   28.45    3.75
  -9   5  -1    2.27    1.49
  -9  -5  -1    3.86    1.39
  -9  -5   1    6.56    1.53
  -9   5   1    6.21    2.29
   9   5  -1    2.07    1.55
   9  -5   1    8.65    1.70
   9   5   1   11.05    2.55
   9  -5  -1    3.90    1.30
  -9  -6   1   32.95    3.66
  -9   6  -1   39.01    4.93
  -9   6   1   28.36    4.33
   9   6  -1   46.46    5.18
   9  -6  -1   36.37    3.74
   9   6   1   42.01    4.88
  -9  -6  -1   33.35    3.73
   9  -6   1   32.76    3.63
  -9  -7  -1   94.43    7.95
  -9  -7   1   93.91    7.85
  -9   7   1   92.72    9.19
   9  -7   1   94.27    7.88
   9   7   1  120.38    9.65
  -9   7  -1  107.19    9.63
   9  -7  -1   93.77    7.78
  -9   0   2    0.17    0.43
  -9   0  -2    0.14    0.68
  -9   0   2    0.23    0.56
   9   0  -2    0.24    0.67
   9   0   2    0.12    0.63
  -9   0  -2   -0.24    0.35
   9  -1  -2  214.17   13.03
   9  -1   2  225.59   13.20
   9   1  -2  192.27   13.59
  -9   1   2  201.88   13.69
   9   1   2  205.88   13.53
  -9  -1   2  219.93   12.91
  -9  -1  -2  190.32   13.39
  -9  -1   2  205.15   12.89
  -9  -2   2  157.46    9.73
   9  -2   2  151.29   10.21
   9   2   2  142.74   10.57
   9  -2  -2  166.03    9.86
  -9   2   2  142.56   10.85
  -9  -2   2  162.88    9.84
  -9   2  -2  152.57   10.93
   9  -3  -2   54.15    3.67
  -9   3  -2   45.62    4.85
  -9  -3  -2   49.31    4.11
   9   3  -2   40.22    4.62
  -9  -3   2   45.81    3.54
  -9   3   2   51.06    5.03
   9  -3   2   46.19    3.99
  -9  -3   2   45.43    3.70
   9   3   2   42.55    4.43
   9  -4   2    6.29    1.54
   9   4   2    8.27    2.08
   9  -4  -2   14.16    1.69
   9   4  -2    8.62    2.32
  -9  -4  -2   13.28    1.94
  -9   4   2    6.51    2.19
  -9  -4   2    6.53    1.42
  -9   4  -2   13.73    2.85
   9  -5  -2   67.00    5.12
  -9   5  -2   60.83    6.46
   9   5   2   63.22    6.00
  -9  -5   2   62.94    5.08
   9  -5   2   59.61    5.17
  -9   5   2   64.63    6.49
   9   5  -2   50.42    5.79
  -9  -5  -2   62.07    5.27
  -9   6   2   55.38    6.05
   9   6   2   57.04    5.75
   9   6  -2   49.00    5.48
  -9  -6  -2   46.48    4.69
  -9  -6   2   53.09    4.71
   9  -6   2   50.19    4.74
   9  -6  -2   46.20    4.53
  -9   6  -2   50.10    5.96
  -9   7   2   45.08    5.76
   9  -7   2   43.96    4.69
  -9   7  -2   50.84    6.07
  -9  -7  -2   46.71    4.84
   9   7   2   51.31    5.68
  -9  -7   2   43.90    4.55
  -9   0   3  293.43   18.94
   9   0  -3  311.75   18.99
   9   0   3  304.31   19.01
  -9   0  -3  312.89   19.36
   9   1  -3   77.10    5.95
   9  -1   3   73.97    5.49
  -9   1   3   71.09    6.02
  -9  -1   3   70.93    5.45
  -9  -1  -3   77.19    5.99
  -9   1  -3   77.18    5.89
  -9   1  -3   81.26    5.83
   9   1   3   64.24    5.68
   9  -1  -3   74.29    5.50
  -9   2  -3   34.58    3.68
   9  -2  -3   31.92    2.99
   9  -2   3   37.67    3.41
   9   2  -3   31.51    3.59
   9   2   3   33.28    3.56
  -9  -2  -3   34.31    3.45
  -9   2   3   37.54    4.08
   9   3  -3   59.50    5.78
  -9   3  -3   65.42    6.13
  -9  -3  -3   64.17    5.36
  -9  -3   3   70.11    4.89
   9   3   3   62.16    5.67
  -9   3   3   70.80    6.42
   9  -3  -3   65.53    4.88
  -9  -3   3   71.62    5.05
   9  -3   3   68.16    5.32
  -9   4   3   20.78    3.30
   9   4  -3   19.22    2.91
  -9  -4  -3   17.49    2.45
   9   4   3   20.47    2.92
   9  -4   3   18.52    2.40
  -9  -4   3   20.03    2.22
  -9  -4   3   21.15    2.23
  -9   4  -3   17.94    3.13
  -9   5  -3    0.87    1.09
  -9  -5   3    0.77    0.74
   9   5   3    1.38    1.18
   9   5  -3    0.97    0.94
  -9  -5  -3   -0.03    0.75
  -9   5   3    1.28    1.15
   9  -5   3    1.07    0.97
  -9   6  -3   24.99    4.06
   9   6   3   31.82    4.03
  -9  -6   3   28.53    3.17
  -9  -6  -3   25.40    3.31
  -9   6   3   33.32    4.55
   9  -6   3   24.28    3.20
   9   7   3   69.21    6.88
  -9  -7   3   65.12    5.84
   9   0  -4   -0.10    0.68
  -9   0   4    0.92    0.70
   9   0   4    0.77    0.72
  -9   0  -4    0.62    0.55
  -9   0  -4    0.05    0.77
  -9   1  -4  150.66   10.35
   9  -1   4  143.88    9.88
  -9  -1   4  152.55   10.07
   9   1  -4  140.36   10.18
  -9   1   4  150.87   10.64
  -9  -1  -4  155.26   10.53
   9   1   4  143.03   10.23
   9  -1  -4  145.04    9.93
  -9  -2   4  104.59    7.68
  -9   2   4  104.67    8.71
  -9  -2  -4  112.47    8.30
   9   2  -4  108.17    8.19
  -9   2  -4  120.94    8.58
   9   2   4   98.42    8.07
   9  -2  -4  109.68    7.66
   9  -2   4  114.37    7.99
   9   3  -4   27.04    3.37
  -9   3  -4   28.51    3.72
  -9  -3  -4   27.67    3.25
   9  -3  -4   26.78    2.84
   9   3   4   33.57    3.65
   9  -3   4   32.79    3.25
  -9   3   4   29.57    3.98
  -9  -3   4   29.31    3.00
   9   4   4   31.24    3.62
  -9   4  -4   17.45    3.51
   9   4  -4   20.99    3.05
  -9   4   4   34.02    4.31
   9  -4   4   28.41    3.05
   9  -4  -4   19.02    2.44
  -9  -4   4   28.82    2.90
  -9  -4  -4   17.97    2.70
  -9   5   4   27.06    4.04
   9   5  -4   23.79    3.24
  -9   5  -4   24.84    3.93
  -9  -5  -4   25.50    3.16
   9  -5   4   23.38    2.99
   9   5   4   27.34    3.63
  -9  -6  -4   38.78    4.32
  -9   6  -4   37.23    5.26
   9  -6   4   37.52    4.15
  -9   6   4   47.84    5.72
   9   6   4   42.78    4.90
  -9   0   5  171.35   11.78
   9   0   5  162.42   11.46
  -9   0  -5  170.70   11.78
   9   0  -5  170.00   11.51
  -9  -1  -5  138.35    9.56
  -9   1   5  123.04    9.61
   9  -1   5  124.38    8.93
   9   1  -5  125.85    9.23
  -9   1  -5  137.73    9.33
  -9   1  -5  131.80    9.34
   9  -1  -5  131.34    9.09
  -9  -1   5  120.20    9.11
   9   1   5  115.63    9.17
   9  -2   5   34.48    3.39
  -9  -2   5   30.89    3.32
   9   2   5   33.18    3.71
  -9   2   5   31.61    4.00
   9   2  -5   29.64    3.44
  -9   2  -5   33.20    3.73
   9  -2  -5   26.96    3.10
  -9  -2  -5   29.29    3.50
   9  -3  -5   31.79    3.12
   9   3  -5   31.14    3.47
   9  -3   5   22.35    2.90
  -9  -3   5   20.47    2.83
  -9  -3  -5   32.44    3.60
  -9   3   5   22.43    3.69
  -9   3  -5   36.71    4.16
   9   3   5   24.05    3.36
  -9  -4   5    9.36    1.94
  -9   4   5    6.67    2.41
  -9  -4  -5    9.17    2.08
  -9   4  -5   11.12    2.81
   9   4   5    8.71    2.26
   9  -4  -5   10.63    1.77
   9   4  -5   10.89    2.23
   9  -4   5    8.28    1.81
  -9   5  -5    3.48    1.63
  -9  -5  -5    3.67    1.35
   9   5   5    1.91    1.34
  -9   5   5    2.80    1.48
   9  -5   5    2.70    1.16
  -9  -6  -5   25.29    3.37
  -9   0   6    0.27    0.73
   9   0   6    0.89    0.96
  -9   0  -6    0.32    0.84
   9   0  -6    1.22    1.01
  -9   1   6   35.74    4.13
   9   1   6   29.72    3.63
  -9  -1   6   30.91    3.64
  -9  -1  -6   30.55    3.56
   9   1  -6   36.69    3.76
   9  -1  -6   30.21    3.46
   9  -2   6  120.01    8.41
   9   2  -6  104.96    8.55
  -9   2   6  117.72    9.65
  -9  -2   6  109.36    8.55
  -9   2  -6  114.59    9.05
   9   2   6  106.38    8.76
   9  -2  -6  108.44    8.32
   9   3  -6    2.05    1.06
  -9   3  -6    1.74    1.14
  -9   3   6    2.15    1.30
   9  -3  -6    3.13    1.16
  -9  -3   6    2.45    1.11
   9   3   6    2.18    1.47
   9  -3   6    3.06    1.20
   9   4   6    4.07    1.76
   9   4  -6    5.95    1.70
  -9   4   6    2.91    1.65
  -9   4  -6    7.01    2.31
  -9  -4   6    4.40    1.54
   9  -4  -6    4.12    1.35
   9  -4   6    4.23    1.38
  -9  -5   6   25.82    3.27
   9  -5   6   27.36    3.29
  -9   0   7  137.13   10.86
   9   0  -7  134.21   10.37
   9   0   7  149.95   10.68
   9   1   7   48.75    4.96
   9  -1  -7   43.31    4.53
  -9   1   7   44.44    5.10
  -9  -1   7   43.29    4.77
   9   1  -7   42.12    4.54
  -9  -2   7   12.79    2.52
   9  -2  -7   14.19    2.28
   9   2   7    9.61    2.49
  -9   2   7   10.95    2.90
   9   2  -7   14.46    2.38
  -9   3  -7   51.47    5.80
   9   3  -7   45.57    4.95
   9  -3  -7   52.05    5.00
  -9  -3   7   53.39    5.30
  10   0   0  683.59   39.81
 -10   0   0  641.76   39.48
 -10  -1   0   10.80    1.30
  10  -1   0    5.97    1.35
 -10   1   0    6.53    1.35
 -10   1   0    8.94    1.78
  10   1   0    6.89    1.84
 -10  -1   0    8.04    1.40
  10   2   0   16.87    2.62
 -10  -2   0   11.09    1.72
  10  -2   0   14.19    1.62
 -10   2   0   15.78    2.48
 -10  -3   0   63.25    5.09
 -10   3   0   66.19    6.18
  10   3   0   71.54    6.47
  10  -3   0   67.89    5.12
 -10  -4   0   11.38    1.85
 -10   4   0   13.61    2.92
  10   4   0   15.61    3.09
  10  -4   0   10.91    1.78
  10  -5   0   20.44    2.53
 -10  -5   0   19.19    2.51
  10   5   0   21.50    3.40
 -10   5   0   19.24    3.63
 -10  -6   0   16.16    2.54
 -10   6   0   19.97    3.83
  10  -6   0   16.61    2.48
  10   6   0   24.99    3.79
  10  -7   0   45.19    4.61
 -10   7   0   46.10    5.76
 -10  -7   0   43.21    4.62
 -10   0   1    0.72    0.65
 -10   0   1    0.94    0.68
 -10   0  -1    0.78    0.52
  10   0   1    3.86    1.34
  10   0  -1    0.08    0.66
 -10   0  -1    0.34    0.71
 -10  -1   1  152.76    9.00
  10   1   1  135.06    9.62
 -10   1   1  142.09    8.81
  10  -1  -1  121.88    8.80
 -10  -1  -1  130.56    9.13
  10   1  -1  126.31    9.63
 -10   1  -1  118.89    8.98
  10  -2  -1   10.44    1.42
  10  -2  -1   11.55    1.42
 -10   2  -1    7.49    1.89
  10   2  -1   10.88    2.29
  10   2   1   12.25    2.10
 -10  -2   1   10.44    1.51
 -10  -2   1    9.54    1.15
 -10   2   1    7.47    1.87
  10  -2   1   10.49    1.39
  10   3  -1   43.25    4.90
  10  -3  -1   44.16    3.63
 -10   3   1   47.13    4.77
  10   3   1   49.31    4.81
 -10  -3  -1   39.78    3.72
 -10   3  -1   35.34    4.45
 -10  -3   1   44.43    3.69
  10  -3   1   44.05    3.81
  10   4  -1  251.30   16.22
 -10   4  -1  189.26   15.26
  10   4   1  224.88   15.42
  10  -4  -1  216.87   13.93
 -10  -4   1  205.92   13.92
 -10   4   1  227.93   15.61
 -10  -4  -1  214.65   14.17
  10  -4   1  207.96   14.05
  10  -5   1   46.17    4.23
  10   5  -1   53.18    5.71
 -10  -5  -1   40.16    4.09
  10   5   1   46.49    5.21
 -10  -5   1   44.06    4.12
 -10   5   1   47.10    5.37
 -10   5  -1   40.16    5.13
  10  -5  -1   40.59    3.93
  10  -6  -1   14.25    2.25
  10   6   1   17.47    3.40
 -10  -6   1   13.61    2.21
 -10   6  -1   13.74    3.25
 -10  -6  -1   12.46    2.37
  10   6  -1   20.25    3.69
 -10   6   1   15.45    3.42
  10  -6   1   13.37    2.24
 -10   7  -1   20.87    4.04
  10   7   1   17.69    3.57
 -10   7   1   20.49    4.01
  10  -7   1   13.96    2.40
 -10  -7  -1   13.03    2.58
  10  -7  -1   10.90    2.32
 -10  -7   1   15.54    2.54
  10   0   2  135.44    9.48
 -10   0   2  139.21    9.48
 -10   0   2  139.94    8.92
 -10   1   2   32.38    2.54
  10  -1   2   28.93    2.81
 -10  -1   2   28.97    2.65
 -10  -1   2   27.48    2.54
 -10   1  -2   27.90    2.98
  10  -1  -2   27.96    2.75
  10   1   2   22.85    2.90
 -10   1   2   28.70    3.23
 -10  -1  -2   27.26    2.99
 -10   1  -2   22.08    2.74
  10   2   2   61.15    5.59
  10  -2  -2   74.11    4.84
  10  -2  -2   71.37    4.97
 -10   2   2   70.31    6.01
 -10  -2   2   70.12    4.93
  10   2  -2   57.30    5.76
 -10  -2  -2   66.05    5.33
 -10  -2   2   65.24    4.78
 -10  -3   2   50.92    4.10
  10   3  -2   55.00    5.50
 -10   3  -2   54.97    5.45
 -10  -3  -2   53.48    4.52
  10   3   2   46.92    4.87
 -10   3   2   55.92    5.41
  10  -3   2   49.56    4.40
 -10  -4  -2    2.22    1.11
  10   4  -2    4.41    1.91
  10  -4   2    4.63    1.37
 -10   4   2    4.93    2.02
  10  -4  -2    4.04    1.14
 -10   4  -2    2.94    1.66
 -10  -4   2    3.80    1.13
  10   4   2    3.78    1.60
 -10  -5   2   87.79    6.72
  10   5   2   95.86    7.97
  10  -5  -2   98.77    6.84
 -10  -5  -2   84.61    6.93
  10  -5   2   84.16    6.87
 -10   5   2   92.37    8.31
  10   5  -2   78.78    7.83
 -10   5  -2   84.25    8.24
 -10   6   2   10.05    2.83
  10  -6   2    7.11    1.86
  10  -6  -2    8.21    1.86
  10   6  -2    9.41    2.65
 -10  -6  -2    8.17    2.00
 -10  -6   2    7.93    1.82
  10   6   2    9.76    2.60
 -10   6  -2    9.38    2.73
  10   7   2   19.20    3.67
 -10  -7   2   17.84    2.64
  10   0   3    0.61    0.77
  10   0  -3    0.40    0.74
 -10   0  -3    0.34    0.89
 -10   0   3    0.39    0.66
  10   1   3   55.10    5.09
  10   1  -3   59.33    5.30
 -10   1   3   64.82    5.54
 -10  -1   3   57.11    4.79
 -10  -1  -3   68.10    5.46
  10  -1  -3   67.70    5.03
 -10   1  -3   59.03    5.21
 -10   1  -3   67.70    5.23
  10  -1   3   61.62    4.89
 -10   2  -3    5.34    1.62
 -10  -2   3    7.32    1.34
  10  -2   3    7.22    1.56
 -10   2   3    6.37    1.92
  10   2  -3    6.31    1.77
  10  -2  -3    4.46    1.22
  10   2   3    6.84    1.76
 -10  -2  -3    6.49    1.61
 -10  -3  -3   20.32    2.70
 -10   3   3   27.70    3.64
 -10  -3   3   27.48    2.55
  10  -3   3   25.65    2.85
 -10   3  -3   23.27    3.34
  10   3  -3   20.17    3.07
  10  -3  -3   22.99    2.39
  10   3   3   22.61    3.03
 -10  -4  -3    2.33    1.16
 -10   4  -3    2.74    1.67
  10   4  -3    2.17    1.29
 -10   4   3    2.65    1.53
  10  -4   3    2.94    1.24
  10   4   3    4.39    1.68
  10   5  -3   16.31    2.95
 -10   5  -3   18.25    3.73
 -10  -5  -3   15.94    2.54
 -10   5   3   32.72    4.27
  10  -5   3   23.71    2.96
  10   5   3   24.30    3.38
 -10   6   3   95.55    8.55
  10  -6   3   80.41    6.71
  10   6   3   72.97    7.19
 -10   6  -3   72.78    7.92
 -10  -6  -3   70.49    6.58
 -10   0  -4  103.24    7.74
  10   0  -4   95.33    7.38
 -10   0   4  105.47    7.66
  10   0   4   96.58    7.40
  10   1  -4   52.52    5.05
  10  -1   4   55.90    4.76
 -10   1  -4   56.28    5.13
 -10  -1   4   64.19    5.04
  10  -1  -4   55.98    4.84
 -10  -1  -4   58.82    5.25
 -10   1  -4   60.76    4.99
  10   1   4   60.31    5.20
 -10   1   4   65.36    5.61
  10  -2  -4   60.59    5.13
  10   2  -4   64.15    5.76
  10  -2   4   69.78    5.59
 -10  -2  -4   62.54    5.65
  10   2   4   60.15    5.65
 -10  -2   4   67.55    5.31
 -10   2   4   68.65    6.33
 -10   2  -4   74.07    6.05
  10   3   4   39.07    4.32
 -10  -3   4   43.66    3.88
 -10  -3  -4   42.35    4.22
 -10   3  -4   44.39    4.87
  10  -3   4   39.63    4.00
  10   3  -4   40.76    4.44
 -10   3   4   40.80    4.91
  10  -3  -4   46.07    3.87
 -10  -4  -4    2.51    1.25
  10   4   4    1.28    1.15
  10  -4   4    0.87    0.99
  10   4  -4    2.76    1.27
 -10   4   4    1.25    1.23
 -10   4  -4    2.79    1.52
  10  -5   4   66.67    6.03
 -10  -5  -4   68.71    6.18
 -10   5   4   78.82    7.63
  10   5   4   67.15    6.59
  10   5  -4   67.39    6.52
 -10   5  -4   77.34    7.71
  10  -6   4   25.25    3.30
 -10  -6  -4   21.76    3.15
  10   6   4   26.45    3.75
 -10   6   4   29.41    4.43
 -10   6  -4   22.76    4.53
  10   0  -5    0.63    0.86
 -10   0   5    0.05    0.66
 -10   0  -5    0.58    0.82
  10   0   5    0.51    0.77
  10  -1  -5   59.42    5.05
 -10  -1  -5   62.67    5.39
 -10  -1   5   48.26    4.85
  10   1   5   52.14    5.08
  10   1  -5   57.98    5.22
 -10   1  -5   61.46    5.30
 -10   1   5   55.98    5.49
  10   2   5   19.65    2.94
  10  -2   5   24.65    2.91
 -10  -2  -5   19.51    2.87
 -10   2   5   25.49    3.58
 -10   2  -5   22.19    3.02
  10   2  -5   21.16    2.92
  10  -2  -5   20.19    2.60
 -10  -2   5   23.59    2.81
  10   3  -5    5.43    1.68
  10   3   5    3.16    1.49
 -10  -3   5    4.44    1.39
  10  -3   5    2.80    1.25
 -10   3  -5    5.84    1.96
  10  -3  -5    7.84    1.67
 -10   3   5    4.60    1.92
 -10  -3  -5    4.47    1.60
  10  -4   5   66.62    6.05
 -10   4   5   75.16    7.63
  10   4  -5   66.86    6.49
 -10   4  -5   86.53    7.85
  10   4   5   64.78    6.57
  10  -4  -5   80.50    6.08
 -10  -4   5   72.51    6.10
 -10  -4  -5   77.59    6.59
 -10  -5  -5   23.14    3.13
  10  -5   5   23.32    3.04
  10   5   5   20.63    3.33
 -10   5  -5   17.42    3.85
 -10   5   5   25.63    4.10
  10   5  -5   21.17    3.03
  10   0   6   92.02    7.52
 -10   0  -6   96.65    7.69
 -10   0   6   93.05    7.83
  10   0  -6   96.74    7.64
  10   1   6   24.43    3.22
 -10  -1   6   25.07    3.22
 -10  -1  -6   23.67    3.13
  10   1  -6   18.95    2.89
 -10   1  -6   24.15    3.11
  10  -1  -6   23.76    3.04
 -10   1   6   31.46    3.83
  10   2   6   19.79    3.01
 -10  -2  -6   20.93    2.93
  10  -2   6   20.54    2.70
  10  -2  -6   19.18    2.68
  10   2  -6   19.31    2.88
 -10  -2   6   20.36    2.81
 -10   2   6   20.02    3.27
 -10   2  -6   21.87    3.08
 -10  -3   6   22.16    2.92
  10  -3   6   24.80    2.96
  10   3   6   19.28    3.12
 -10   3   6   19.90    3.91
 -10   3  -6   22.84    3.45
  10  -3  -6   18.73    2.60
  10   3  -6   18.61    2.86
 -10   4   6    4.30    1.75
  10  -4  -6    3.65    1.25
  10  -4   6    4.18    1.43
  10   4   6    2.17    1.27
 -10   4  -6    2.19    1.38
 -10  -4   6    2.84    1.22
  10   4  -6    3.07    1.30
 -10   0   7    0.84    0.93
  10   0  -7    1.39    0.99
  10   1   7   30.60    3.90
 -10   1   7   36.32    4.49
 -10  -1   7   32.54    4.00
  10   1  -7   29.04    3.74
  10  -1  -7   28.99    3.64
 -10  -2   7   10.58    2.46
  10  -2  -7   14.30    2.30
  10   2  -7   12.91    2.65
  10   2   7   12.91    2.78
 -10   3  -7   22.10    3.48
 -11   0   0    2.85    1.07
 -11   0   0    4.00    1.08
  11   0   0    2.32    1.12
  11  -1   0   17.54    2.20
 -11   1   0   21.02    2.60
 -11   1   0   15.84    2.13
  11   2   0   93.45    7.42
  11  -2   0   84.95    6.10
 -11  -2   0   81.96    6.11
 -11   2   0   79.42    6.84
  11  -2   0   75.66    5.75
 -11  -3   0  162.73   11.43
 -11   3   0  183.32   12.85
  11  -3   0  160.52   11.37
  11   3   0  192.04   13.18
 -11   4   0  231.29   16.48
 -11  -4   0  218.69   14.94
  11   4   0  263.85   16.94
  11  -4   0  212.31   14.82
  11   5   0   -0.27    0.77
  11  -5   0    0.69    0.86
 -11   5   0    1.62    1.32
 -11  -5   0    1.05    1.01
  11  -6   0   17.33    2.56
  11   6   0   24.91    3.80
 -11  -6   0   15.49    2.57
 -11   6   0   18.79    3.82
  11  -7   0   14.88    2.49
 -11  -7   0   12.92    2.56
  11   7   0   19.02    3.77
  11   0   1   39.79    3.87
 -11   0   1   37.18    3.56
 -11  -1  -1   65.52    5.04
 -11   1  -1   59.91    4.92
  11   1  -1   63.02    5.51
  11   1   1   49.84    5.07
 -11  -1   1   54.22    4.58
 -11   1   1   61.81    5.21
  11  -1   1   61.96    4.89
 -11   1   1   53.26    4.49
 -11  -1   1   60.04    4.59
  11   3  -1   43.80    5.02
 -11  -3  -1   39.65    3.85
  11  -3  -1   37.25    3.57
  11  -3   1   48.86    4.04
 -11   3  -1   33.17    4.44
 -11   3   1   55.13    5.14
  11   3   1   45.10    4.78
 -11  -3   1   46.11    3.82
 -11   4   1   23.07    3.49
  11   4   1   19.37    3.19
  11   4  -1   22.00    3.52
 -11   4  -1   18.04    3.13
 -11  -4   1   18.24    2.34
  11  -4  -1   15.26    2.15
 -11  -4  -1   17.45    2.42
  11  -4   1   21.61    2.58
  11   5   1   66.39    6.29
 -11   5   1   59.61    6.21
  11  -5  -1   46.44    4.49
 -11   5  -1   38.73    5.40
  11   5  -1   49.24    5.85
 -11  -5   1   57.58    4.84
  11  -5   1   56.37    4.91
 -11   6   1   85.32    8.76
  11   6   1   96.25    8.82
 -11  -6  -1   98.22    7.73
 -11   6  -1   91.64    8.94
  11  -6  -1  108.72    7.75
 -11  -7   1    6.01    1.75
  11   7   1    7.19    2.53
  11  -7  -1    4.98    1.67
 -11   0   2    0.65    0.74
 -11   0  -2   -0.32    0.75
 -11   0   2    0.03    0.47
  11   0  -2    0.70    0.78
  11   0   2   -0.39    0.58
 -11  -1  -2   29.10    3.30
  11   1   2   36.55    3.69
 -11   1  -2   26.00    3.23
 -11  -1   2   36.35    3.20
  11  -1   2   39.39    3.46
 -11   1  -2   30.94    3.39
 -11   1   2   38.53    3.04
 -11   2  -2   49.55    5.18
  11   2   2   51.96    5.14
  11   2  -2   56.34    5.55
 -11   2  -2   62.00    5.12
 -11  -2   2   58.33    4.38
  11  -2  -2   60.99    4.35
 -11  -2  -2   58.33    4.96
 -11  -2   2   61.93    4.52
 -11   2   2   60.27    5.51
  11   3   2  105.96    8.44
 -11   3  -2   88.46    8.41
 -11  -3  -2  106.33    7.79
  11   3  -2  107.69    8.91
  11  -3  -2  115.08    7.23
 -11  -3   2  108.94    7.39
  11  -3   2  106.99    7.74
 -11  -4   2   69.39    5.84
 -11   4   2   79.66    7.37
  11   4   2   68.72    6.80
 -11   4  -2   82.13    7.60
 -11  -4  -2   89.06    6.49
  11  -4   2   70.47    6.16
  11   4  -2   91.51    7.83
  11   5   2   37.22    4.47
  11   5  -2   35.51    4.62
 -11  -5  -2   29.78    3.57
 -11  -5   2   33.64    3.47
  11  -5   2   37.51    3.81
 -11   5   2   34.75    4.63
 -11   5  -2   30.28    4.45
 -11  -6  -2    9.26    2.12
 -11  -6   2    5.21    1.63
  11   6   2    4.38    1.91
 -11   6   2    5.40    2.15
  11  -6   2    6.63    1.91
  11   6  -2    8.87    2.65
 -11   6  -2    9.14    2.90
  11   7   2   61.30    6.64
 -11  -7   2   56.97    5.49
 -11   0  -3   63.03    5.38
  11   0  -3   58.15    5.20
 -11   0   3   65.32    5.37
  11   0   3   66.24    5.31
  11   1   3   18.85    2.49
 -11   1  -3   11.53    2.22
 -11   1  -3   14.08    2.09
 -11  -1  -3   13.96    2.29
  11   1  -3   14.52    2.32
 -11  -1   3   18.67    2.17
  11  -1  -3   13.26    2.02
 -11   1   3   19.91    2.70
  11   2  -3    3.70    1.52
 -11  -2   3    6.39    1.29
 -11   2  -3    4.09    1.49
  11   2   3    6.47    1.77
 -11  -2  -3    2.81    1.27
  11  -2  -3    2.64    1.03
 -11   2   3    6.19    1.88
 -11   3  -3  190.34   14.20
  11   3  -3  176.51   13.96
  11   3   3  187.81   13.69
 -11   3   3  208.68   14.46
 -11  -3  -3  203.66   13.41
  11  -3   3  200.46   13.29
  11  -3  -3  215.65   12.76
  11  -4   3   69.95    5.80
 -11   4  -3   59.46    6.55
  11   4  -3   62.84    6.47
  11   4   3   66.06    6.25
 -11  -4  -3   70.07    5.82
 -11   4   3   73.98    6.93
  11   5  -3   59.67    6.72
  11   5   3   79.87    7.07
 -11   5   3   85.85    7.81
 -11  -5  -3   73.21    6.27
 -11   5  -3   69.63    7.45
  11  -5   3   71.19    6.22
  11  -6   3    2.64    1.36
 -11  -6  -3    2.35    1.32
 -11   6   3   14.44    3.37
  11   6   3    4.38    1.74
  11   6  -3    2.61    1.46
 -11   6  -3    3.36    1.82
  11   0   4    1.16    0.89
  11   0  -4   -0.01    0.69
 -11   0  -4   -0.05    0.80
 -11   0   4    0.49    0.79
 -11   1  -4    9.50    1.98
 -11  -1   4    8.03    1.71
 -11   1   4    5.04    1.76
  11  -1  -4    9.36    1.83
  11   1   4    5.48    1.65
 -11  -1  -4    9.62    2.04
  11   1  -4    8.61    2.00
  11  -2   4   27.30    3.24
 -11   2  -4   34.29    3.74
  11   2  -4   30.39    3.63
  11   2   4   24.94    3.31
 -11  -2  -4   30.09    3.49
  11  -2  -4   28.43    3.04
 -11   2   4   28.48    3.80
 -11  -2   4   26.82    2.98
  11  -3   4  123.66    9.25
 -11   3   4  126.94   10.41
 -11   3  -4  140.55   10.48
 -11  -3  -4  127.17    9.54
  11   3   4  113.49    9.53
  11   3  -4  126.28    9.96
 -11  -3   4  121.93    8.86
  11  -3  -4  136.20    8.95
 -11  -4  -4   87.53    7.43
  11  -4   4  101.46    7.61
 -11   4  -4   75.50    8.13
 -11   4   4  116.87    9.29
  11   4   4   99.87    8.14
  11   4  -4   79.60    7.78
  11  -5   4   37.04    4.23
 -11  -5  -4   45.42    4.55
  11   5  -4   42.26    4.90
  11   5   4   34.57    4.54
 -11   5  -4   42.31    5.48
 -11   5   4   46.96    5.56
  11   0   5    2.17    1.06
 -11   0  -5    1.34    1.06
  11   0  -5    1.21    1.02
 -11   0   5    2.31    1.14
 -11   1   5    7.72    2.12
 -11   1  -5    3.24    1.42
 -11  -1   5    8.60    1.87
  11   1  -5    2.37    1.32
  11  -1  -5    3.43    1.37
 -11  -1  -5    3.36    1.42
  11   1   5    6.17    1.74
 -11  -2   5  156.31   11.14
  11   2   5  146.05   11.47
 -11  -2  -5  168.62   11.76
  11  -2  -5  151.98   10.96
  11  -2   5  168.51   11.42
  11   2  -5  153.20   11.62
 -11   2   5  160.96   12.33
 -11   2  -5  170.90   11.85
 -11   3   5   10.24    2.77
 -11  -3   5   12.75    2.00
  11  -3  -5    8.75    1.89
 -11   3  -5    9.11    2.49
  11   3   5   11.26    2.51
 -11  -3  -5   11.19    2.30
  11   3  -5   10.05    2.41
  11  -3   5   12.09    2.18
  11  -4   5    5.05    1.57
 -11  -4  -5    2.98    1.36
  11   4  -5    4.50    1.63
 -11   4   5    3.89    1.79
 -11   4  -5    4.15    1.71
  11   4   5    4.38    1.81
 -11  -5  -5   30.76    3.76
  11  -5   5   25.45    3.36
 -11   5  -5   30.30    4.57
  11   5  -5   26.27    3.70
  11   0   6    0.78    0.87
 -11   0  -6    1.77    1.11
 -11   0   6    0.35    0.82
  11   0  -6    1.41    1.05
 -11  -1   6   15.94    2.54
  11   1  -6   13.27    2.37
 -11   1  -6   17.73    2.73
 -11   1   6   17.28    2.88
 -11  -1  -6   16.20    2.52
  11  -1  -6   14.66    2.42
  11   1   6   15.48    2.58
  11  -2   6   16.27    2.49
  11   2   6   15.01    2.85
  11   2  -6   15.88    2.62
  11  -2  -6   16.04    2.45
 -11  -2   6   14.36    2.42
 -11   2   6   16.91    3.39
 -11  -2  -6   17.71    2.66
 -11  -3  -6  104.37    8.41
 -11   3  -6  104.95    8.96
  11  -3  -6   93.50    7.60
 -11  -3   6   99.29    7.95
  11  -3   6  106.13    8.00
  11   3  -6   85.01    8.01
  11   3   6   95.76    8.39
 -11   3   6   93.49    9.16
  11  -4  -6  121.63    8.88
 -11   4  -6  115.56   10.35
  11  -4   6  118.16    9.01
 -11  -4   6  112.78    8.94
  11   4  -6  102.72    9.18
  11   0  -7    3.90    1.51
 -11   0   7    7.02    2.13
  11   1   7   12.96    2.72
 -11  -1   7   12.67    2.69
 -12   0   0  756.95   45.16
  12   1   0    1.71    1.21
 -12   1   0    2.21    1.12
  12  -1   0    2.09    0.93
 -12   1   0    1.01    0.85
 -12  -1   0    1.84    1.02
  12  -2   0   36.93    3.53
 -12  -2   0   35.02    3.50
 -12   2   0   44.03    4.39
  12   2   0   40.89    4.57
 -12   3   0   20.15    3.14
 -12  -3   0   19.82    2.44
  12  -3   0   20.72    2.43
  12   3   0   20.93    3.28
  12   4   0    1.12    1.27
  12  -4   0    0.85    0.86
 -12  -4   0   -0.20    0.75
 -12   4   0    0.59    0.96
  12   5   0   69.88    6.79
  12  -5   0   49.87    4.89
 -12  -5   0   51.00    4.99
 -12   5   0   59.43    6.42
  12  -6   0    1.09    0.89
 -12   6   0    0.94    1.19
  12   6   0   -0.17    0.91
 -12  -6   0    0.54    0.84
  12   7   0  138.40   11.97
  12   0   1   -0.17    0.65
  12   0  -1    0.33    0.83
 -12   0   1    0.43    0.68
 -12   0  -1   -0.42    0.65
 -12   0   1    0.69    0.60
 -12   1  -1   14.61    2.29
  12   1  -1   16.62    2.77
 -12   1   1   21.56    2.73
 -12  -1   1   22.92    2.33
 -12   1   1   19.23    2.26
  12   1   1   17.63    2.68
  12  -1   1   23.81    2.62
  12  -2  -1   60.56    4.76
  12   2   1   57.15    5.75
 -12  -2   1   58.05    4.87
 -12  -2  -1   65.43    5.26
 -12   2  -1   65.22    5.93
 -12   2   1   68.14    5.85
  12  -2  -1   60.11    4.79
  12   2  -1   68.82    6.28
 -12  -3   1   65.58    5.34
  12  -3   1   66.52    5.52
 -12   3  -1   72.38    6.71
  12   3  -1   79.34    7.10
  12   3   1   59.71    6.27
  12  -3  -1   69.02    5.34
 -12  -3  -1   65.14    5.52
 -12   3   1   76.56    6.65
  12  -4  -1   24.60    2.60
  12   4  -1   30.56    4.09
 -12  -4  -1   19.91    2.60
  12   4   1   16.37    3.27
 -12   4   1   14.36    3.17
  12  -4   1   15.06    2.37
 -12  -4   1   13.62    2.19
 -12   4  -1   18.59    3.20
  12   5   1   88.67    8.16
 -12  -5   1   79.11    6.68
  12  -5   1   77.31    6.77
 -12  -5  -1   79.19    6.83
  12   5  -1  105.20    8.89
 -12   5  -1   82.64    8.18
 -12   5   1   89.44    8.30
  12  -5  -1   91.08    6.85
  12   6   1   19.99    3.75
  12  -6   1   16.48    2.62
 -12   6   1   14.82    3.54
  12  -6  -1   20.22    2.67
 -12  -6  -1   16.02    2.64
 -12   6  -1   17.87    3.78
 -12  -6   1   15.77    2.49
  12   6  -1   25.59    3.98
  12   7   1    1.68    1.36
  12  -7  -1    2.24    1.16
  12   0  -2   74.61    6.23
  12   0   2   80.10    6.29
  12  -1  -2  132.04    9.68
 -12  -1  -2  142.45   10.14
 -12   1   2  149.20    9.48
 -12   1  -2  150.25   10.25
  12   1  -2  128.09   10.34
 -12   1   2  154.21   10.49
 -12   1  -2  139.23   10.11
  12  -1   2  143.22    9.89
  12   1   2  148.35   10.40
 -12   2  -2   16.75    2.54
  12  -2  -2   18.41    2.03
 -12  -2  -2   18.53    2.56
  12   2  -2   16.67    2.88
 -12   2   2   24.14    3.14
  12   2   2   21.00    2.87
 -12   2  -2   16.55    2.62
 -12  -3   2    3.47    1.11
  12   3  -2    1.67    1.50
  12  -3  -2    2.09    0.91
 -12   3   2    5.39    1.84
  12   3   2    3.71    1.68
 -12  -3  -2    3.60    1.36
  12  -3   2    4.09    1.42
 -12   3  -2    1.35    1.11
  12  -4   2    4.35    1.48
 -12  -4   2    4.06    1.31
  12   4  -2    5.63    2.16
 -12  -4  -2    3.94    1.44
 -12   4  -2    5.29    2.00
  12   4   2    3.42    1.61
 -12   4   2    4.45    1.85
  12   5   2    4.92    1.95
 -12   5   2    6.87    2.46
  12  -5   2    5.69    1.69
 -12  -5   2    4.20    1.37
  12   5  -2    1.86    1.42
 -12  -5  -2    1.47    1.16
 -12   5  -2    2.30    1.51
  12  -6   2   69.97    6.31
 -12  -6   2   70.19    6.05
 -12  -6  -2   64.32    6.21
 -12   6  -2   55.74    7.08
  12   6   2   81.59    7.54
  12   6  -2   73.36    7.45
 -12   6   2   78.95    7.77
  12   0  -3    0.10    0.79
 -12   0  -3   -0.14    0.76
 -12   0   3    0.59    0.84
  12   0   3    0.60    0.71
  12   1   3  106.51    8.21
  12   1  -3  104.06    8.37
 -12   1  -3  113.32    8.36
 -12   1   3  106.51    8.46
  12  -1  -3  109.40    7.90
 -12  -1   3  108.22    7.83
  12   2  -3    8.01    2.23
 -12   2  -3    9.27    2.10
 -12  -2   3    8.82    1.49
  12   2   3    8.45    2.06
 -12   2   3   13.11    2.57
 -12  -2  -3    8.23    1.97
  12  -2  -3    8.41    1.65
  12   3  -3   26.52    3.93
  12   3   3   28.06    3.74
  12  -3  -3   36.54    3.25
  12  -3   3   30.62    3.50
 -12  -3  -3   37.76    3.80
 -12   3  -3   37.93    4.42
 -12   3   3   35.07    4.33
  12  -4   3  138.79    9.78
 -12  -4  -3  126.19    9.60
  12   4   3  126.97   10.21
 -12   4   3  150.75   11.13
 -12   4  -3  110.12   10.48
 -12  -5  -3    4.80    1.65
  12   5  -3    3.64    1.76
  12  -5   3    4.15    1.58
 -12   5  -3    8.93    2.75
 -12   5   3    7.08    2.56
  12   5   3    4.60    1.87
 -12   6  -3   38.15    5.42
  12   6  -3   38.59    5.00
  12   6   3   42.37    5.10
 -12  -6  -3   40.25    4.49
 -12   0   4   65.15    5.95
  12   0   4   61.95    5.70
  12   0  -4   70.50    6.02
 -12   0  -4   84.25    6.42
  12   1  -4   97.65    8.07
 -12   1  -4   88.92    7.83
  12  -1  -4   91.90    7.54
  12   1   4  107.56    8.08
 -12  -1   4  109.98    7.84
 -12   1   4  111.76    8.51
 -12  -1  -4  106.90    8.13
  12  -2  -4   12.97    1.96
  12   2   4    7.45    2.03
 -12  -2  -4   12.85    2.35
 -12   2   4    7.81    2.30
 -12   2  -4   13.15    2.22
  12   2  -4   11.11    2.45
  12  -2   4    8.07    1.97
 -12  -2   4    7.43    1.68
 -12  -3  -4    2.38    1.32
  12   3  -4    4.06    1.69
  12   3   4    2.96    1.41
  12  -3   4    4.30    1.51
 -12   3   4    3.03    1.51
 -12   3  -4    2.47    1.40
  12  -3  -4    4.14    1.31
  12   4   4    8.56    2.30
  12   4  -4    6.03    2.03
 -12   4   4   10.28    2.77
 -12   4  -4    5.33    2.15
  12  -4   4    9.22    2.02
 -12  -4  -4    6.35    1.88
  12  -5   4    0.50    1.09
 -12   5   4    2.04    1.39
 -12  -5  -4    3.95    1.51
  12   5  -4    3.74    1.65
  12   5   4    1.12    1.20
 -12   5  -4    3.77    1.70
  12   0   5    0.44    0.84
 -12   0  -5    1.06    1.04
  12   0  -5    0.79    0.84
 -12   0   5   -0.66    0.63
  12   1  -5    6.02    1.87
  12  -1  -5    5.23    1.67
 -12  -1  -5    5.72    1.81
 -12   1   5    3.80    1.56
  12   1   5    2.23    1.33
 -12  -1   5    2.91    1.25
 -12   1  -5    5.83    1.79
  12  -2  -5   51.01    4.82
 -12  -2   5   58.45    5.09
  12   2  -5   45.73    5.19
 -12  -2  -5   54.49    5.30
  12  -2   5   55.50    5.15
  12   2   5   56.90    5.47
 -12   2   5   55.57    5.92
 -12   3  -5   57.82    6.00
  12  -3  -5   55.49    4.96
  12   3   5   56.10    5.64
 -12  -3  -5   58.55    5.57
 -12   3   5   57.08    6.25
 -12  -3   5   54.70    5.02
  12   3  -5   47.64    5.47
  12  -3   5   54.56    5.19
  12   4  -5   11.55    2.74
 -12   4  -5    9.74    2.78
  12   4   5   13.65    2.83
  12  -4   5   15.69    2.47
 -12   4   5   14.98    3.42
 -12  -4  -5   12.08    2.50
  12   5  -5   58.74    6.14
 -12   0  -6  188.17   13.58
  12   0  -6  185.76   13.43
 -12   0   6  193.77   13.81
  12  -1  -6    5.29    1.72
  12   1   6    2.56    1.34
 -12   1   6    1.71    1.20
  12   1  -6    6.24    1.92
 -12   1  -6    6.19    1.93
 -12  -1   6    2.51    1.20
 -12  -1  -6    5.03    1.67
 -12   2   6    7.51    2.36
  12  -2   6    6.10    1.75
 -12  -2  -6    5.73    1.84
 -12  -2   6    7.26    1.89
  12  -2  -6    3.89    1.46
  12   2  -6    5.03    1.78
  12   2   6    5.61    1.90
  12  -3   6   14.97    2.48
  12  -3  -6   18.49    2.56
 -12  -3   6   17.17    2.61
  12   3   6   13.40    2.93
  12   3  -6   19.31    3.05
 -12  -3  -6   20.03    2.93
 -12  -4  -6    3.90    1.57
  12   1   7   15.86    2.76
 -13   0   0    3.17    1.19
  13   0   0    2.35    1.23
 -13   1   0   28.01    3.21
 -13  -1   0   22.46    2.75
 -13   1   0   21.63    2.73
  13   1   0   29.90    3.59
  13  -2   0    9.68    1.81
 -13   2   0   11.22    2.34
 -13  -2   0   12.12    1.93
  13   2   0   13.24    2.75
 -13  -3   0    1.07    0.97
  13  -3   0    1.55    1.00
 -13   3   0    1.27    1.26
  13   3   0    2.13    1.39
 -13  -4   0   48.28    4.61
  13   4   0   54.08    5.94
 -13   4   0   60.48    6.09
  13  -4   0   48.24    4.58
  13   5   0   10.58    3.01
 -13  -5   0   10.93    2.15
 -13   5   0    9.92    2.89
  13  -5   0   10.25    2.04
  13  -6   0    1.33    1.02
  13   6   0    1.01    1.27
 -13   6   0   -1.62    0.74
 -13  -6   0    1.11    1.00
 -13   0   1   54.69    4.24
 -13   0  -1   41.67    4.23
  13  -1   1    5.53    1.53
 -13   1   1    6.14    1.53
 -13  -1   1    4.26    1.23
 -13  -1  -1    3.86    1.41
  13   1  -1    6.81    2.06
 -13   1  -1    6.31    1.54
 -13   1   1    3.82    1.19
  13   1   1    8.81    2.08
  13  -1  -1    7.87    1.65
 -13   1  -1    4.97    1.53
 -13   2  -1  107.88    8.34
  13  -2  -1   92.85    6.98
 -13  -2  -1   92.12    7.38
 -13  -2   1   98.41    7.20
  13   2   1  100.98    8.28
 -13   2  -1   88.73    7.41
  13   2  -1  108.09    8.64
  13   3  -1   69.72    6.84
  13  -3  -1   62.67    5.32
  13   3   1   76.07    6.85
  13  -3   1   69.67    5.65
 -13   3  -1   66.22    6.57
 -13  -3  -1   59.88    5.51
 -13  -3   1   76.90    5.62
 -13   4  -1   28.77    4.18
  13  -4  -1   26.35    3.12
  13  -4   1   31.56    3.47
  13   4  -1   34.02    4.59
 -13   4   1   43.87    4.85
  13   4   1   34.19    4.42
 -13  -4   1   28.39    3.24
  13  -5  -1    7.61    1.75
 -13  -5  -1    5.78    1.71
  13   5  -1    8.91    2.79
 -13  -5   1    6.35    1.66
 -13   5  -1    7.10    2.49
  13   5   1    6.42    2.28
  13  -5   1    4.49    1.57
 -13   5   1    7.49    2.54
  13   6  -1   31.13    4.50
  13  -6   1   25.25    3.35
 -13   6   1   22.40    3.98
 -13  -6  -1   25.80    3.40
 -13   6  -1   26.94    4.30
 -13  -6   1   24.44    3.23
  13  -6  -1   24.58    3.19
  13   6   1   33.73    4.56
 -13   0   2    0.18    0.66
  13   0  -2    0.20    0.82
 -13   0  -2    0.13    0.78
 -13   0   2    0.43    0.65
  13   0   2    0.44    0.78
  13   1   2   13.36    2.37
  13  -1  -2   15.49    2.20
 -13   1   2   13.02    2.27
 -13   1  -2   17.76    2.48
  13   1  -2   16.18    2.68
 -13  -1   2   13.44    1.99
 -13  -1  -2   18.97    2.58
  13   2  -2   89.43    7.50
  13   2   2   73.30    6.80
 -13   2   2   80.47    6.96
 -13   2  -2   76.17    6.87
 -13  -2  -2   88.64    6.73
  13  -2  -2   76.62    5.96
 -13   2  -2   82.18    6.67
 -13  -2   2   72.56    5.89
 -13   3   2   15.56    2.90
 -13  -3  -2    6.67    1.79
  13  -3   2    9.47    1.98
  13   3   2   10.59    2.51
  13   3  -2    8.38    2.57
 -13  -3   2   12.07    1.80
 -13   3  -2    9.27    2.46
 -13   4   2    3.00    1.71
 -13   4  -2    2.05    1.39
 -13  -4  -2    2.10    1.18
  13   4  -2    3.13    1.74
 -13  -4   2    2.96    1.23
  13  -4   2    3.22    1.34
  13   4   2    3.41    1.65
  13   5  -2   16.99    3.60
  13   5   2   15.97    3.22
 -13   5  -2   13.57    3.37
 -13   5   2   15.22    3.40
  13  -5   2   11.51    2.34
 -13  -5  -2   13.16    2.34
 -13  -5   2   14.88    2.21
 -13  -6  -2   23.44    3.26
  13   6  -2   34.10    4.64
 -13  -6   2   20.95    2.93
  13  -6   2   20.50    3.14
  13   6   2   26.33    4.00
 -13   6  -2   23.84    4.56
  13   0  -3   10.27    2.23
 -13   0   3   19.43    2.60
 -13   0  -3   10.45    2.20
  13   0   3   17.15    2.37
  13   1  -3    1.33    1.22
 -13   1  -3    3.19    1.49
 -13  -1   3    3.13    1.19
 -13   1   3    2.86    1.35
  13   1   3    3.01    1.29
 -13  -1  -3    2.60    1.33
  13  -1  -3    3.41    1.30
 -13  -2  -3   41.30    4.21
 -13   2  -3   43.30    4.45
 -13   2   3   37.69    4.39
  13   2  -3   30.90    4.20
  13   2   3   35.80    4.13
 -13   2  -3   42.52    4.31
  13  -2  -3   38.46    3.67
 -13   3  -3    5.45    2.07
  13  -3   3    9.52    2.02
  13   3  -3    6.41    2.25
  13   3   3    9.23    2.32
 -13   3   3   11.26    2.61
 -13  -3  -3    7.51    1.97
  13   4   3    8.34    2.27
 -13   4   3    4.31    2.05
  13   4  -3    4.05    1.90
  13  -4   3    3.33    1.43
 -13  -4  -3    2.96    1.47
 -13   4  -3    4.80    1.95
  13   5   3   20.05    3.32
 -13   5   3   21.66    3.60
  13  -5   3   19.43    2.86
 -13  -5  -3   16.43    2.70
 -13   5  -3   14.17    3.46
  13   5  -3   14.97    3.42
  13   6  -3    0.71    1.17
  13   0   4    0.62    0.73
  13   0  -4    0.71    0.86
 -13   0   4    0.42    0.78
 -13   0  -4    0.56    0.96
 -13   1   4   46.36    4.62
 -13  -1   4   39.72    3.87
 -13   1  -4   30.04    3.80
  13   1  -4   26.04    3.67
  13   1   4   36.18    3.93
  13  -1  -4   30.30    3.56
 -13  -1  -4   34.78    3.93
  13  -2   4   56.71    5.26
  13   2  -4   50.42    5.50
  13  -2  -4   54.32    4.87
 -13   2   4   56.52    5.85
 -13  -2   4   58.40    4.96
  13   2   4   50.47    5.28
 -13  -2  -4   61.90    5.55
  13  -3   4    6.32    1.80
 -13   3   4    6.01    2.11
 -13   3  -4    4.17    1.69
 -13  -3  -4    3.67    1.50
  13   3  -4    1.23    1.26
  13  -3  -4    2.64    1.10
  13   3   4    4.06    1.61
 -13  -4  -4   13.41    2.59
  13   4   4   17.33    2.88
 -13   4  -4   10.71    3.00
  13   4  -4   12.68    3.06
  13  -4   4   17.87    2.70
 -13   4   4   19.71    3.36
 -13   5  -4    8.88    2.97
  13   5  -4   13.86    3.19
  13  -5   4   10.68    2.38
 -13  -5  -4   11.47    2.48
 -13   0  -5   19.56    2.85
  13   0  -5   18.08    2.74
  13   0   5   13.73    2.33
 -13   0   5   15.32    2.64
 -13   1   5   13.71    2.84
  13  -1  -5   11.51    2.35
  13   1   5   10.04    2.30
 -13   1  -5   13.11    2.51
  13   1  -5   13.71    2.71
 -13  -1   5   12.86    2.23
 -13  -1  -5   15.21    2.45
 -13  -2   5   26.05    3.18
 -13   2   5   25.40    3.79
  13  -2  -5   29.41    3.30
  13   2  -5   24.08    3.49
  13   2   5   23.31    3.34
  13  -2   5   25.64    3.31
 -13  -2  -5   30.45    3.65
  13   3  -5   40.15    5.03
 -13  -3  -5   52.03    5.18
  13  -3  -5   47.28    4.53
 -13   3   5   54.26    5.95
  13   3   5   42.98    5.01
  13  -3   5   46.69    4.80
  13  -4   5   13.18    2.54
 -13  -4  -5   13.45    2.67
 -13   4  -5   13.02    3.23
  13   4  -5   10.36    2.74
  13   0  -6    0.90    0.90
 -13   0   6    0.33    0.73
 -13   0  -6    1.19    1.02
  13  -1  -6   18.40    2.87
 -13   1   6   24.38    3.56
 -13   1  -6   17.35    2.94
  13   1   6   20.93    3.04
 -13  -1  -6   20.41    3.04
 -13  -1   6   21.41    3.06
  13   1  -6   19.06    3.08
  13  -2   6    3.03    1.24
 -13  -2   6    3.47    1.46
  13   2   6    3.86    1.64
  13  -2  -6    1.49    0.97
  13   2  -6    2.98    1.42
 -13  -2  -6    3.42    1.38
 -13   2   6    3.43    1.91
 -13  -3  -6    4.20    1.56
  13  -3   6    6.15    1.82
  13  -3  -6    5.61    1.63
 -14   0   0   27.16    3.04
  14   0   0   30.39    3.52
 -14   1   0  230.23   16.27
 -14  -1   0  243.13   16.38
 -14   1   0  286.75   16.98
  14  -1   0  239.08   16.27
  14   1   0  266.91   17.39
  14  -2   0    8.67    1.79
 -14   2   0   12.52    2.44
 -14  -2   0    6.86    1.69
  14   2   0    9.97    2.62
 -14  -3   0    9.08    1.87
 -14   3   0   12.59    2.78
  14   3   0   10.34    2.83
  14  -3   0   10.03    1.90
 -14   4   0    1.80    1.38
  14   4   0    3.00    1.73
 -14  -4   0    1.85    1.12
  14  -4   0    1.33    1.00
  14   5   0   16.08    3.50
 -14  -5   0   12.60    2.24
  14  -5   0   13.26    2.29
 -14   5   0   14.34    3.33
  14   6   0   71.38    7.32
 -14   6   0   59.09    6.89
 -14  -6   0   54.40    5.48
  14  -6   0   51.18    5.33
 -14   0  -1   -0.44    0.71
  14   0  -1   -0.07    0.78
 -14   0   1    0.56    0.70
 -14   0   1    1.00    0.78
  14   0   1    0.84    0.88
 -14  -1  -1  126.20    9.36
 -14  -1   1  122.74    9.05
  14  -1  -1  112.87    9.06
  14   1  -1  136.17   10.14
  14  -1   1  138.81    9.43
  14   1   1  131.85    9.95
 -14   1   1  121.78    8.98
 -14   1  -1  130.41    9.46
 -14   1   1  145.68    9.78
 -14   2   1  130.28    9.14
  14   2   1  109.04    9.05
 -14  -2  -1   99.31    8.19
  14  -2  -1   99.11    7.75
 -14  -2   1  106.01    8.03
 -14   2  -1   99.03    8.27
  14   2  -1  119.35    9.47
 -14   2  -1  126.50    9.28
  14  -3   1   13.93    2.26
  14  -3  -1   16.28    2.18
  14   3   1   16.60    3.21
 -14   3   1   19.01    3.05
 -14  -3  -1   13.74    2.30
  14   3  -1   19.33    3.28
 -14  -3   1   12.44    2.13
 -14   3  -1   17.59    2.96
  14   4   1   80.23    7.31
 -14  -4  -1   57.23    5.68
 -14   4   1   84.29    7.37
  14  -4   1   65.15    5.89
 -14  -4   1   67.81    5.77
 -14   4  -1   68.82    7.06
  14   4  -1   64.39    7.04
  14   5   1   41.27    5.22
  14  -5   1   34.70    4.06
  14   5  -1   53.78    5.93
 -14  -5   1   36.41    3.99
 -14   5  -1   44.25    5.43
 -14   5   1   42.49    5.28
  14  -5  -1   34.10    3.87
 -14  -5  -1   35.19    4.11
 -14  -6   1   72.76    6.80
  14  -6   1   76.45    6.98
  14   6   1   93.97    8.56
  14  -6  -1   69.18    6.59
  14   6  -1   95.99    8.83
  14   0  -2  353.99   23.79
 -14   0  -2  409.42   24.05
 -14   0   2  380.15   23.73
  14   0   2  364.77   23.81
  14  -1  -2   43.33    4.38
 -14   1  -2   50.53    4.81
 -14   1   2   53.19    4.99
  14   1  -2   50.47    5.21
  14   1   2   45.72    4.87
 -14  -1  -2   57.03    4.95
 -14   2   2    2.65    1.32
  14   2  -2    1.02    1.18
  14   2   2    2.41    1.32
 -14  -2  -2    0.62    0.93
 -14   2  -2    0.94    1.01
  14  -2  -2    1.54    0.88
 -14   2  -2    1.78    1.09
  14   3   2   11.16    2.70
 -14   3   2   15.40    2.98
  14  -3   2   11.73    2.26
 -14  -3  -2   16.93    2.47
  14   3  -2   20.79    3.43
 -14   3  -2   17.71    2.96
 -14  -3   2   11.19    1.90
  14   4   2    2.09    1.37
 -14  -4   2    1.42    0.88
 -14   4   2    1.45    1.25
  14  -4   2    1.54    1.19
 -14   4  -2    1.75    1.37
  14   4  -2    3.29    1.84
 -14  -4  -2    2.23    1.23
  14  -5   2    5.54    1.88
 -14  -5   2    7.28    1.80
 -14   5   2   10.23    2.92
  14   5   2    6.86    2.45
 -14  -5  -2    9.61    2.17
  14   5  -2   13.84    3.44
 -14   5  -2   13.69    3.31
  14   6  -2   19.78    4.02
  14   0  -3    0.99    1.02
 -14   0  -3    0.78    1.06
 -14   0   3    0.33    0.79
  14   0   3   -0.07    0.70
  14   1  -3   37.72    4.56
 -14  -1   3   48.07    4.42
 -14   1  -3   43.21    4.55
  14   1   3   45.13    4.61
 -14  -1  -3   51.25    4.77
  14  -1  -3   40.28    4.21
 -14   1   3   49.86    4.92
  14   2  -3   94.83    8.49
 -14   2  -3   95.74    8.04
 -14   2   3  108.42    8.57
  14  -2  -3   93.97    7.35
 -14  -2  -3  100.53    7.98
  14   2   3  102.37    8.28
  14  -3   3   18.32    2.65
 -14   3   3   21.78    3.30
 -14  -3  -3   15.50    2.63
  14   3   3   21.80    3.19
  14   3  -3   16.17    3.37
 -14   3  -3   14.07    3.02
  14   4   3    5.78    2.07
  14  -4   3    4.99    1.70
 -14   4   3    7.08    2.30
 -14   4  -3    3.79    1.70
 -14  -4  -3    4.59    1.73
  14   4  -3    3.90    1.97
 -14  -5  -3   88.64    7.70
  14   5   3   95.63    8.57
  14   5  -3   86.73    8.76
 -14   5   3  110.87    9.34
 -14   5  -3   75.53    8.51
  14  -5   3   95.71    7.89
 -14   0  -4  325.21   20.17
 -14   0   4  317.81   20.04
  14   0  -4  266.57   19.56
  14   0   4  297.58   19.55
 -14  -1   4   77.26    6.55
 -14   1  -4   84.71    7.03
  14  -1  -4   72.64    6.41
 -14   1   4   78.06    7.10
  14   1  -4   68.76    6.75
 -14  -1  -4   87.36    6.97
 -14   2   4    2.67    1.33
  14  -2   4    3.15    1.47
  14   2   4    1.19    1.08
 -14  -2  -4    1.54    1.16
  14  -2  -4    1.64    0.96
  14   2  -4    2.69    1.31
  14   3  -4    6.91    2.27
  14  -3   4   14.24    2.33
 -14  -3  -4    6.35    1.94
 -14   3   4   15.89    3.19
  14   3   4   10.08    2.45
  14   4   4    1.80    1.25
 -14   4  -4    2.19    1.28
  14   4  -4    3.10    1.68
 -14  -4  -4    1.94    1.22
 -14   4   4    4.01    1.87
  14  -4   4    3.68    1.47
 -14   0   5    0.15    0.72
  14   0  -5    0.31    0.84
 -14   0  -5   -0.21    0.75
  14   1   5   58.63    5.80
 -14   1   5   71.84    6.66
 -14  -1   5   73.21    6.18
 -14  -1  -5   67.02    6.09
 -14   1  -5   64.59    6.12
  14   1  -5   49.81    5.75
  14  -1  -5   58.88    5.72
 -14  -2   5   36.99    4.09
  14  -2   5   36.08    4.23
 -14  -2  -5   40.87    4.49
  14   2  -5   37.32    4.66
 -14   2   5   42.13    5.05
  14  -2  -5   41.48    4.22
  14   2   5   40.53    4.55
  14  -3  -5    3.89    1.34
 -14   3   5   10.82    2.81
 -14  -3  -5    5.58    1.88
  14   3   5    4.98    1.85
  14  -3   5    7.71    2.01
  14   3  -5    2.80    1.58
 -14   4  -5   24.82    3.95
 -14   0  -6   35.07    4.22
  14   0  -6   31.00    4.02
 -14   0   6   34.82    4.33
 -14   1   6  121.60    9.78
  14  -1  -6   91.72    8.42
 -14   1  -6   99.32    8.84
 -14  -1  -6  111.81    8.98
  14   1   6  104.68    8.76
 -14  -1   6  107.17    8.91
  14   2   6    2.64    1.38
  14  -2  -6    1.72    0.92
 -14  -2   6    1.38    0.95
 -14  -2  -6    0.98    1.05
  14  -2   6    0.68    0.89
 -15   0   0    0.29    0.81
  15   0   0    1.33    1.03
  15  -1   0   73.22    6.15
 -15   1   0   74.81    6.19
 -15  -1   0   71.70    6.10
  15   1   0   86.56    7.20
  15   2   0  138.21   10.55
 -15  -2   0  115.62    9.12
 -15   3   0  136.60    9.93
 -15  -3   0   97.13    8.26
  15  -3   0   97.47    8.19
  15   3   0  123.05   10.03
  15  -4   0   61.90    6.02
  15   4   0   85.15    7.96
 -15  -4   0   69.25    6.19
 -15   4   0   86.03    7.75
  15   5   0   85.62    8.00
 -15   5   0   74.09    7.45
  15  -5   0   55.43    5.70
 -15  -5   0   57.15    5.78
  15  -6   0    2.16    1.41
 -15   0  -1   27.14    3.17
 -15   1   1   14.73    2.28
 -15   1   1   13.27    2.04
  15   1  -1   10.72    2.56
 -15   1  -1   10.59    2.17
  15  -1  -1    8.01    1.89
  15   1   1   11.01    2.50
  15  -1   1   17.40    2.33
 -15  -1  -1    7.18    1.84
 -15  -1   1   14.17    2.03
  15   2   1   52.58    5.52
  15  -2  -1   43.43    4.30
 -15   2  -1   60.53    5.62
 -15  -2   1   44.21    4.45
  15   2  -1   56.59    5.81
 -15   2   1   56.06    5.35
 -15  -2  -1   49.01    4.80
 -15   3   1  134.51    9.88
 -15  -3   1  102.40    8.32
 -15  -3  -1  106.74    8.62
  15   3  -1  132.36   10.35
  15   3   1  107.81    9.55
  15  -3  -1  109.05    8.31
  15  -4  -1   34.35    3.77
  15  -4   1   32.75    3.97
 -15   4  -1   52.28    5.61
 -15   4   1   40.63    4.97
 -15  -4   1   33.11    3.81
 -15  -4  -1   36.82    4.10
  15   4  -1   50.07    5.71
  15   4   1   39.60    5.00
 -15   5   1   93.51    8.58
  15   5   1   82.71    8.24
 -15  -5  -1   78.42    7.08
 -15   5  -1   92.68    8.65
  15  -5  -1   81.95    6.93
 -15   0  -2    0.20    0.87
 -15   0   2    0.61    0.75
  15   0   2    0.21    0.80
  15   0  -2    0.25    0.95
  15   1   2    2.46    1.24
 -15   1   2    1.68    1.06
  15   1  -2    1.79    1.36
  15  -1  -2    0.82    0.92
 -15  -1  -2    1.55    1.16
 -15   1  -2    1.25    1.09
  15   2   2   26.89    3.53
 -15   2   2   26.62    3.36
  15   2  -2   18.82    3.51
 -15  -2  -2   16.29    2.68
 -15   2  -2   15.46    2.75
  15   3   2  116.70   10.18
  15  -3   2  114.12    9.38
 -15   3  -2  133.26   10.63
 -15  -3  -2  124.44    9.65
  15   3  -2  127.30   10.76
 -15   3   2  153.80   10.80
  15  -4   2  199.04   13.95
 -15   4  -2  198.10   15.20
  15   4   2  202.59   14.96
  15   4  -2  196.67   15.32
  15   5   2   13.27    3.21
 -15  -5  -2   10.33    2.43
 -15   5   2   19.24    3.73
  15  -5   2   11.85    2.48
  15   5  -2   17.68    3.80
 -15   5  -2   15.93    3.52
  15   0  -3    8.71    2.22
 -15   0  -3   12.09    2.35
  15   0   3   13.24    2.21
 -15   0   3   12.62    2.42
  15   1   3   22.26    3.20
 -15  -1  -3   27.03    3.34
 -15   1   3   24.66    3.35
  15  -1  -3   26.92    3.20
 -15   1  -3   26.01    3.36
  15   1  -3   22.16    3.36
  15   2  -3  260.34   18.76
  15   2   3  253.62   18.25
 -15   2   3  289.54   18.72
 -15  -2  -3  291.87   18.32
  15  -2  -3  256.45   17.35
 -15   3   3    4.25    1.76
 -15   3  -3    4.48    1.84
  15   3  -3    4.85    2.09
 -15  -3  -3    3.04    1.54
  15   3   3    4.61    1.76
  15  -3   3    3.41    1.50
 -15   4  -3    2.30    1.52
 -15  -4  -3    1.66    1.26
  15   4   3    3.58    1.63
 -15   4   3    2.51    1.34
  15   4  -3    2.16    1.59
  15  -4   3    1.47    1.11
 -15   5  -3   34.18    5.00
  15   0  -4    0.90    0.86
 -15   0  -4    0.92    1.10
 -15   0   4    0.67    0.71
 -15  -1   4   12.74    2.37
  15   1  -4    4.98    1.94
 -15   1  -4    7.41    2.09
  15  -1  -4    6.63    1.90
  15   1   4   10.53    2.27
 -15   1   4   11.95    2.60
 -15  -1  -4    5.89    1.87
  15   2   4    1.57    1.03
  15   2  -4    3.68    1.69
 -15   2   4    2.39    1.26
  15  -2  -4    5.63    1.62
  15  -2   4    1.72    1.18
 -15  -2  -4    5.62    1.82
 -15  -3  -4   69.11    6.45
  15   3  -4   56.89    6.69
  15   3   4   66.11    6.62
 -15   3   4   75.66    7.22
  15  -3   4   80.11    6.63
 -15   4   4   87.36    8.52
  15   4  -4   78.18    8.37
 -15   4  -4  101.90    9.19
 -15  -4  -4   98.38    8.12
 -15   0  -5   27.57    3.66
 -15   0   5   32.56    3.97
  15   0  -5   21.72    3.33
 -15  -1   5   27.83    3.50
 -15   1  -5   25.69    3.53
  15  -1  -5   23.37    3.21
  15   1  -5   20.54    3.32
 -15   1   5   24.32    3.65
 -15  -1  -5   24.50    3.38
  15   1   5   22.92    3.24
  15  -2  -5   20.95    2.88
  15   2  -5   19.28    3.26
 -15   2   5   20.97    3.47
  15   2   5   20.12    3.12
  15  -2   5   20.12    3.06
 -15  -2  -5   21.24    3.13
 -15  -3  -5  107.67    8.99
 -15   0   6    0.85    0.94
 -15   0  -6    0.69    0.98
 -15  -1   6   38.95    4.62
  16   0   0   53.45    5.15
 -16   0   0   49.10    4.64
 -16   1   0    7.64    1.83
  16  -1   0   10.03    1.94
 -16  -1   0    8.16    1.80
  16   1   0    7.42    2.24
 -16  -2   0   25.81    3.22
 -16   2   0   37.56    4.09
  16   2   0   25.74    3.82
  16  -2   0   26.28    3.19
 -16   3   0   52.01    5.29
 -16  -3   0   34.78    4.00
  16   3   0   43.31    5.19
  16  -3   0   33.19    3.85
 -16  -4   0    3.41    1.44
 -16   4   0    5.04    2.03
  16  -4   0    1.89    1.13
  16   4   0    2.64    1.73
 -16  -5   0   68.98    6.91
 -16   5   0  100.06    8.96
  16   5   0   92.50    8.86
 -16   0   1   -0.01    0.80
  16   0  -1   -0.24    0.84
  16   0   1   -0.42    0.78
 -16   0  -1    0.47    0.86
  16   1  -1   62.57    5.75
  16   1   1   48.07    5.15
 -16   1   1   44.15    4.38
 -16  -1  -1   49.44    4.75
 -16   1  -1   49.48    4.84
  16  -1  -1   49.21    4.68
 -16  -1   1   44.68    4.37
  16   2   1    1.41    1.23
 -16  -2  -1    0.38    0.91
  16  -2  -1   -0.18    0.73
 -16   2   1    3.40    1.59
 -16  -2   1    2.16    1.15
  16   2  -1    1.56    1.32
  16  -3  -1    5.92    1.56
  16  -3   1    3.75    1.49
  16   3   1    4.04    1.85
 -16  -3  -1    6.22    1.78
 -16   3   1    7.13    2.16
 -16  -3   1    4.85    1.53
  16   3  -1    8.01    2.62
 -16   3  -1   10.13    2.52
 -16  -4   1   22.62    3.03
  16  -4  -1   24.91    3.05
 -16   4   1   32.29    4.28
  16  -4   1   25.32    3.30
 -16  -4  -1   22.62    3.23
  16   4  -1   31.35    4.53
 -16   4  -1   30.26    4.27
  16   4   1   26.86    4.03
  16   5  -1   21.36    4.22
 -16  -5  -1   17.14    2.86
 -16  -5   1   19.64    2.82
  16  -5   1   19.62    2.95
 -16   5   1   26.42    4.04
 -16   5  -1   23.68    3.87
  16   5   1   22.34    4.09
  16   0   2  168.60   11.52
  16   0  -2  147.61   11.34
 -16   0  -2  151.48   11.22
 -16   1  -2   17.86    2.75
  16  -1  -2   13.86    2.34
 -16  -1  -2   17.27    2.62
  16   1  -2   17.06    2.97
  16   1   2   17.11    2.75
 -16   1   2   22.28    3.01
  16   2  -2   20.14    3.45
 -16  -2  -2   18.61    2.86
  16   2   2   26.60    3.56
 -16   2  -2   18.97    3.01
  16   3  -2   11.30    3.09
  16   3   2    9.03    2.58
 -16  -3  -2   10.34    2.28
 -16   3  -2   15.06    3.04
  16  -3   2    6.81    1.94
 -16   3   2    9.34    2.46
  16  -4   2    2.51    1.35
  16   4   2    2.04    1.35
 -16  -4  -2    3.34    1.46
  16   4  -2    4.91    2.28
 -16   4  -2    6.28    2.25
 -16   4   2    3.39    1.68
 -16   5  -2   23.88    4.02
  16   0   3    0.63    0.93
  16   0  -3    0.32    0.81
 -16   0  -3   -0.45    0.80
 -16   1   3    2.10    1.19
  16  -1  -3    1.84    1.09
 -16  -1  -3    1.14    1.15
  16   1   3    2.93    1.33
  16   1  -3    2.76    1.39
 -16   1  -3    1.54    1.27
  16   2   3   12.26    2.69
  16  -2  -3   11.94    2.06
 -16   2   3   15.28    2.90
  16   2  -3    9.25    2.72
 -16  -2  -3   13.39    2.62
  16  -3   3    8.52    2.17
 -16  -3  -3   14.22    2.64
 -16   3   3   11.48    2.75
  16   3   3   10.55    2.71
  16   3  -3   13.66    3.29
 -16  -4  -3  115.35    9.51
 -16   4   3  132.53   10.58
  16   4  -3  128.18   11.00
  16   4   3  108.46    9.94
 -16   4  -3  121.72   10.60
  16  -4   3  107.53    9.32
  16   0  -4   67.02    6.55
 -16   0  -4   83.21    6.96
 -16   0   4   69.06    6.63
  16   1  -4   12.81    2.91
 -16  -1  -4   15.72    2.71
  16  -1  -4   15.10    2.50
 -16   1  -4   18.03    3.00
 -16   1   4   25.01    3.45
  16   1   4   23.23    3.12
  16   2  -4   10.58    2.79
 -16  -2  -4   11.25    2.47
  16   2   4   10.81    2.44
  16  -2   4    9.45    2.28
  16  -2  -4   13.26    2.20
 -16   2   4   11.64    2.72
  16   3   4    3.04    1.51
 -16  -3  -4    3.83    1.68
 -16   3   4    5.12    2.07
  16   3  -4    4.07    1.88
  16  -3   4    3.01    1.41
 -16   0  -5    0.92    0.98
  16   0  -5    1.27    1.10
 -16   0   5    0.67    0.88
  16   1   5   21.45    3.08
  16  -1  -5   15.67    2.70
 -16  -1  -5   20.89    3.14
 -16   1  -5   22.07    3.28
  16   1  -5   18.44    3.12
 -16   1   5   20.33    3.34
 -16   2   5    5.08    2.01
  16  -2  -5    3.42    1.39
  16   2   5    5.09    1.80
  17   0   0    0.69    0.95
 -17   0   0   -0.09    0.81
  17   1   0   30.62    3.91
 -17   1   0   27.06    3.32
 -17  -1   0   27.06    3.23
  17  -2   0   21.72    2.88
 -17  -2   0   20.33    2.87
  17   2   0   29.73    3.99
 -17  -3   0   58.45    5.88
 -17   3   0   78.48    7.08
  17   3   0   73.04    7.25
  17   4   0   15.91    3.55
  17  -4   0   13.03    2.30
 -17  -4   0   12.72    2.42
 -17   4   0   16.83    3.40
  17  -5   0   20.84    2.99
  17   0  -1  133.43    9.88
  17   0   1  126.85    9.72
 -17   0   1  117.47    9.05
 -17   0  -1  125.74    9.43
 -17  -1  -1   47.46    4.79
  17  -1  -1   51.55    4.89
 -17  -1   1   50.21    4.65
 -17   1   1   48.10    4.66
  17   1  -1   55.11    5.61
 -17   1  -1   49.36    4.98
  17   1   1   60.32    5.73
  17   2   1   88.11    7.59
 -17  -2  -1   64.40    6.27
  17   2  -1   74.50    7.35
 -17  -2   1   79.35    6.40
  17   3  -1   59.06    6.30
  17  -3   1   43.63    4.76
 -17  -3   1   44.74    4.71
 -17  -3  -1   44.04    4.89
  17   3   1   53.60    5.89
 -17   3   1   65.75    6.06
 -17  -4   1   14.72    2.38
 -17   4  -1   23.01    3.53
  17   4   1   16.57    3.52
  17  -4   1   11.78    2.50
 -17  -4  -1   14.34    2.69
  17   4  -1   19.74    3.93
 -17   4   1   17.80    3.47
 -17  -5   1   23.99    3.16
 -17   0  -2    0.20    0.78
  17   0   2    0.74    0.88
  17   0  -2    0.08    0.83
 -17  -1  -2   25.40    3.30
  17  -1  -2   23.66    3.12
  17   1  -2   29.42    3.90
 -17   1  -2   25.28    3.40
  17   1   2   22.42    3.31
  17   2   2   87.47    8.32
 -17  -2  -2  103.32    8.17
 -17   2   2  100.78    8.38
  17   2  -2  103.88    9.04
  17   3  -2   18.85    3.77
  17   3   2   18.07    3.45
 -17  -3  -2   13.95    2.50
 -17   3   2   21.98    3.32
  17  -3   2   15.70    2.64
 -17  -4  -2   47.78    5.28
  17  -4   2   44.28    5.11
 -17   4  -2   59.58    6.42
  17   4   2   53.85    6.11
 -17   4   2   59.70    6.24
  17   4  -2   60.08    6.70
  17   0  -3   25.16    3.49
 -17   0  -3   29.67    3.68
 -17  -1  -3   81.04    6.98
  17   1  -3   73.63    7.25
 -17   1   3   91.11    7.46
  17   1   3   82.49    7.26
  17  -1  -3   71.24    6.64
 -17   1  -3   82.50    7.18
  17   2  -3    1.61    1.35
 -17  -2  -3    1.43    1.14
  17   2   3    1.87    1.10
 -17   2   3    0.79    0.90
  17   3  -3   22.07    4.20
 -17  -3  -3   17.56    3.01
  17   3   3   27.64    3.88
 -17   3   3   26.84    3.77
  17  -3   3   24.73    3.36
  17   0  -4    1.09    1.00
 -17   0  -4    0.74    1.08
 -17   1  -4   31.64    4.02
 -17  -1  -4   32.29    3.92
  17  -1  -4   25.60    3.43
  17   1  -4   27.46    3.94
  17   1   4   29.98    3.82
 -17   1   4   28.85    3.90
  17  -2   4   84.33    7.30
  17  -2  -4   74.93    6.74
  17   2   4   81.15    7.50
 -17  -2  -4   80.53    7.22
 -17   2   4   93.47    8.03
  17   2  -4   72.13    7.64
 -17   0   5   61.73    6.33
 -17   1   5   24.41    3.72
  18   0   0  244.19   16.25
 -18   0   0  225.43   15.70
 -18  -1   0   17.75    2.61
  18   1   0   22.44    3.31
 -18   1   0   20.14    2.83
  18  -2   0   10.71    2.11
  18   2   0   13.21    2.96
 -18  -2   0   10.05    2.11
  18   3   0   11.15    3.01
  18  -3   0    7.58    1.96
 -18  -3   0    7.62    1.96
 -18   4   0    1.14    1.17
  18  -4   0    1.97    1.08
 -18  -4   0    1.79    1.09
  18   0  -1    1.12    1.09
 -18   0  -1    0.96    0.85
  18   0   1    1.66    1.10
 -18  -1   1   10.94    2.00
  18   1  -1    9.08    2.43
 -18  -1  -1    9.62    2.11
 -18   1  -1    8.80    2.11
  18   1   1   10.91    2.53
  18  -2   1   33.86    4.05
  18   2  -1   48.37    5.36
 -18  -2  -1   40.71    4.38
 -18  -2   1   37.14    4.02
  18   2   1   42.66    5.06
 -18  -3   1    4.74    1.50
  18  -3   1    3.23    1.37
  18   3  -1    5.40    2.09
  18   3   1    4.91    2.08
 -18  -3  -1    3.63    1.42
 -18   3   1    5.91    2.12
 -18   4  -1   53.06    5.61
 -18  -4  -1   36.69    4.34
  18  -4   1   30.54    4.03
 -18  -4   1   31.03    3.89
 -18   4   1   39.75    5.00
 -18   0  -2  104.56    8.38
  18   0  -2  100.55    8.45
  18  -1  -2   88.92    7.74
 -18  -1  -2   93.20    7.93
  18   1  -2  103.66    8.79
 -18   1  -2   94.43    8.10
  18   1   2  112.77    8.73
  18   2   2    9.13    2.42
 -18   2   2   13.88    2.71
  18   2  -2    4.63    2.00
 -18  -3  -2    2.99    1.48
 -18   3   2    6.94    2.17
  18   3  -2    3.12    1.75
  18  -3   2    3.26    1.59
  18   3   2    5.25    2.14
  18   0  -3    0.28    0.93
 -18   0  -3    0.26    0.90
 -18  -1  -3   43.25    4.76
  18  -1  -3   42.28    4.63
  18   1   3   43.09    4.90
  18   1  -3   48.05    5.36
 -18   1  -3   50.61    5.16
 -18  -2  -3   30.91    3.88
 -18   2   3   33.34    4.17
  18  -2   3   30.92    3.91
  18   2   3   29.00    4.05
  18   2  -3   34.50    4.58
 -18   3   3   13.75    2.98
  18   0  -4   40.46    4.74
  18  -1  -4   24.55    3.55
 -18   1   4   40.31    4.54
  18   1   4   30.90    3.99
 -18   2   4    3.91    1.73
  18   2   4    2.26    1.25
  19   0   0    2.74    1.27
 -19   0   0    1.96    1.02
  19   1   0    1.41    1.11
 -19   1   0    1.38    0.96
 -19  -1   0    0.46    0.88
  19   2   0  124.87    9.97
  19  -2   0  102.39    8.46
 -19  -2   0  107.68    8.65
 -19  -3   0    2.04    1.15
  19  -3   0    4.16    1.47
  19   3   0    4.60    1.96
 -19   4   0   23.40    3.62
  19  -4   0   17.60    2.78
  19   0  -1   73.01    6.57
 -19   0  -1   65.42    6.13
 -19   1  -1    4.82    1.68
 -19  -1  -1    6.23    1.79
  19   1   1    8.32    2.26
  19   1  -1    4.72    1.78
  19   2  -1   61.00    6.23
 -19  -2  -1   49.76    5.03
  19   2   1   47.03    5.54
  19  -2   1   45.42    4.84
  19   3   1    5.63    2.15
  19  -3   1    2.82    1.39
 -19  -3  -1    4.92    1.68
  19   0  -2    0.48    0.89
 -19   0  -2    0.06    0.76
 -19  -1  -2   66.75    6.50
  19   1  -2   70.60    7.10
  19   1   2   94.37    7.60
 -19   1  -2   73.92    6.87
  19   2  -2    7.29    2.46
  19  -2   2    8.82    2.23
  19   2   2    9.63    2.58
 -19  -2  -2    5.89    1.95
 -19   3   2    1.93    1.12
 -19   0  -3   14.32    2.77
  19   0  -3   17.11    2.82
  19   1  -3   17.10    3.34
  19   1   3   11.85    2.68
  19  -1  -3   13.56    2.37
  19   2   3   15.66    3.16
 -20   0   0   30.99    3.73
  20   0   0   35.01    4.09
 -20  -1   0   44.79    4.72
  20   1   0   52.47    5.53
 -20   1   0   53.34    5.09
  20  -2   0   59.01    5.70
 -20  -2   0   63.78    5.90
  20   2   0   73.41    7.00
 -20  -3   0   16.16    2.59
  20  -3   0   17.64    2.60
 -20   0  -1    0.73    0.84
  20   0  -1    0.48    0.95
  20   1  -1    6.33    2.21
  20   1   1   14.42    2.88
 -20  -1  -1    8.03    1.98
 -20   1  -1    7.22    2.00
  20  -2   1    5.17    1.69
  20   2   1    5.45    1.99
 -20  -2  -1    5.03    1.75
 -20   0  -2   75.92    6.82
  20   0  -2   71.34    6.77
  20   1  -2   14.32    3.16
  20   1   2   23.89    3.42
 -21   0   0    2.00    1.04
 -21  -1   0   29.02    3.60
 -21   1   0   28.57    3.65
  21   1   0   34.87    4.31
  21  -2   0   77.77    6.66
  21   0  -1   39.20    4.54
  21   1   1   25.99    3.76
   0   0   0    0.00    0.00
;
_shelx_hkl_checksum              94045
loop_
_space_group_symop_operation_xyz
'x, y, z'
'-x+1/2, -y, z+1/2'
'x+1/2, -y, z+1/2'
'-x, y, z'
loop_
_atom_site_label
_atom_site_type_symbol
_atom_site_fract_x
_atom_site_fract_y
_atom_site_fract_z
_atom_site_U_iso_or_equiv
_atom_site_adp_type
_atom_site_occupancy
_atom_site_site_symmetry_order
_atom_site_calc_flag
_atom_site_refinement_flags_posn
_atom_site_refinement_flags_adp
_atom_site_refinement_flags_occupancy
_atom_site_disorder_assembly
_atom_site_disorder_group
Sr1 Sr 0.5000 0.66533(13) 0.58571(16) 0.0083(2) Uani 1 2 d S T P . .
Sr2 Sr 0.67322(4) 0.92950(10) 0.91572(12) 0.00846(16) Uani 1 1 d . . . . .
Cu1 Cu 0.5000 0.53006(18) 0.0902(2) 0.0082(3) Uani 1 2 d S T P . .
Cu2 Cu 0.60103(5) 0.20259(12) 0.41021(16) 0.0079(2) Uani 1 1 d . . . . .
Cl1 Cl 0.5000 0.0606(4) 0.0276(4) 0.0145(6) Uani 1 2 d S T P . .
Cl2 Cl 0.73663(12) 0.3239(3) 0.7333(3) 0.0128(4) Uani 1 1 d . . . . .
O1 O 0.5822(3) 0.4849(8) 0.3060(8) 0.0080(11) Uani 1 1 d D . . . .
O2 O 0.5000 0.2536(11) 0.5687(13) 0.0103(15) Uani 1 2 d DS T P . .
O3 O 0.6959(3) 0.1612(8) 0.2278(9) 0.0096(11) Uani 1 1 d D . . . .
O4 O 0.5863(3) 0.6070(8) 0.8979(10) 0.0100(10) Uani 1 1 d D . . . .
O5 O 0.6159(3) 0.9332(8) 0.5387(8) 0.0099(11) Uani 1 1 d D . . . .
H1 H 0.629(3) 0.525(13) 0.285(15) 0.01(2) Uiso 1 1 d D . . . .
H2 H 0.5000 0.168(17) 0.661(15) 0.03(5) Uiso 1 2 d DS . P . .
H3 H 0.710(6) 0.269(8) 0.176(13) 0.02(3) Uiso 1 1 d D . . . .
H4 H 0.616(4) 0.507(8) 0.901(17) 0.01(2) Uiso 1 1 d D . . . .
H5 H 0.658(5) 0.943(18) 0.607(16) 0.040 Uiso 1 1 d D U . . .
loop_
_atom_site_aniso_label
_atom_site_aniso_U_11
_atom_site_aniso_U_22
_atom_site_aniso_U_33
_atom_site_aniso_U_23
_atom_site_aniso_U_13
_atom_site_aniso_U_12
Sr1 0.0067(5) 0.0092(4) 0.0090(4) -0.0006(4) 0.000 0.000
Sr2 0.0054(3) 0.0103(3) 0.0096(3) 0.0004(3) 0.0001(3) -0.0005(2)
Cu1 0.0046(6) 0.0099(5) 0.0102(6) 0.0014(6) 0.000 0.000
Cu2 0.0050(4) 0.0081(4) 0.0106(4) 0.0017(4) 0.0011(4) 0.0007(3)
Cl1 0.0076(13) 0.0177(13) 0.0181(14) -0.0026(10) 0.000 0.000
Cl2 0.0119(9) 0.0097(8) 0.0167(9) -0.0019(7) 0.0032(8) -0.0010(7)
O1 0.005(3) 0.011(3) 0.008(2) 0.001(2) 0.000(2) -0.002(2)
O2 0.006(4) 0.011(4) 0.014(4) 0.000(4) 0.000 0.000
O3 0.007(3) 0.009(2) 0.014(3) 0.000(2) 0.005(2) 0.001(2)
O4 0.006(2) 0.009(2) 0.015(3) 0.005(3) -0.001(3) 0.000(2)
O5 0.008(3) 0.008(2) 0.014(3) 0.003(2) -0.002(2) -0.003(2)
loop_
_atom_type_symbol
_atom_type_description
_atom_type_scat_dispersion_real
_atom_type_scat_dispersion_imag
_atom_type_scat_source
O O 0.0106 0.0060 'International Tables Vol C Tables 4.2.6.8 and 6.1.1.4'
H H 0.0000 0.0000 'International Tables Vol C Tables 4.2.6.8 and 6.1.1.4'
Cl Cl 0.1484 0.1585 'International Tables Vol C Tables 4.2.6.8 and 6.1.1.4'
Cu Cu 0.3201 1.2651 'International Tables Vol C Tables 4.2.6.8 and 6.1.1.4'
Sr Sr -1.5307 3.2498 'International Tables Vol C Tables 4.2.6.8 and 6.1.1.4'
loop_
_geom_angle_atom_site_label_1
_geom_angle_atom_site_label_2
_geom_angle_atom_site_label_3
_geom_angle
_geom_angle_site_symmetry_1
_geom_angle_site_symmetry_3
_geom_angle_publ_flag
O4 Sr1 O4 67.7(3) . 4_655 y
O4 Sr1 O1 143.92(18) . 4_655 y
O4 Sr1 O1 103.15(18) 4_655 4_655 y
O4 Sr1 O1 103.15(18) . . y
O4 Sr1 O1 143.92(18) 4_655 . y
O1 Sr1 O1 62.8(2) 4_655 . y
O4 Sr1 O5 78.13(16) . . y
O4 Sr1 O5 127.24(18) 4_655 . y
O1 Sr1 O5 127.13(17) 4_655 . y
O1 Sr1 O5 81.07(17) . . y
O4 Sr1 O5 127.24(18) . 4_655 y
O4 Sr1 O5 78.13(16) 4_655 4_655 y
O1 Sr1 O5 81.07(17) 4_655 4_655 y
O1 Sr1 O5 127.13(17) . 4_655 y
O5 Sr1 O5 93.4(2) . 4_655 y
O4 Sr1 O2 83.28(19) . . y
O4 Sr1 O2 83.28(19) 4_655 . y
O1 Sr1 O2 60.7(2) 4_655 . y
O1 Sr1 O2 60.72(19) . . y
O5 Sr1 O2 132.04(13) . . y
O5 Sr1 O2 132.04(13) 4_655 . y
O4 Sr1 Cu1 138.49(13) . . n
O4 Sr1 Cu1 138.49(13) 4_655 . n
O1 Sr1 Cu1 35.50(12) 4_655 . n
O1 Sr1 Cu1 35.50(12) . . n
O5 Sr1 Cu1 93.49(12) . . n
O5 Sr1 Cu1 93.49(12) 4_655 . n
O2 Sr1 Cu1 72.48(19) . . n
O4 Sr1 Cu1 34.10(12) . 1_556 n
O4 Sr1 Cu1 34.10(12) 4_655 1_556 n
O1 Sr1 Cu1 125.25(12) 4_655 1_556 n
O1 Sr1 Cu1 125.25(12) . 1_556 n
O5 Sr1 Cu1 106.79(12) . 1_556 n
O5 Sr1 Cu1 106.79(12) 4_655 1_556 n
O2 Sr1 Cu1 77.52(19) . 1_556 n
Cu1 Sr1 Cu1 150.00(5) . 1_556 n
O4 Sr1 Cu2 83.23(13) . . n
O4 Sr1 Cu2 112.76(12) 4_655 . n
O1 Sr1 Cu2 67.94(12) 4_655 . n
O1 Sr1 Cu2 32.02(12) . . n
O5 Sr1 Cu2 101.21(12) . . n
O5 Sr1 Cu2 148.62(12) 4_655 . n
O2 Sr1 Cu2 32.31(10) . . n
Cu1 Sr1 Cu2 58.33(3) . . n
Cu1 Sr1 Cu2 95.42(3) 1_556 . n
O4 Sr1 Cu2 112.76(12) . 4_655 n
O4 Sr1 Cu2 83.23(13) 4_655 4_655 n
O1 Sr1 Cu2 32.02(12) 4_655 4_655 n
O1 Sr1 Cu2 67.94(12) . 4_655 n
O5 Sr1 Cu2 148.62(12) . 4_655 n
O5 Sr1 Cu2 101.21(12) 4_655 4_655 n
O2 Sr1 Cu2 32.31(10) . 4_655 n
Cu1 Sr1 Cu2 58.33(3) . 4_655 n
Cu1 Sr1 Cu2 95.42(3) 1_556 4_655 n
Cu2 Sr1 Cu2 53.87(3) . 4_655 n
O4 Sr1 Sr2 38.74(11) . . n
O4 Sr1 Sr2 90.78(13) 4_655 . n
O1 Sr1 Sr2 165.27(12) 4_655 . n
O1 Sr1 Sr2 102.97(12) . . n
O5 Sr1 Sr2 41.65(12) . . n
O5 Sr1 Sr2 106.85(12) 4_655 . n
O2 Sr1 Sr2 117.29(11) . . n
Cu1 Sr1 Sr2 130.14(2) . . n
Cu1 Sr1 Sr2 65.19(2) 1_556 . n
Cu2 Sr1 Sr2 102.45(2) . . n
Cu2 Sr1 Sr2 149.43(3) 4_655 . n
O3 Sr2 O4 104.56(18) 2_665 . y
O3 Sr2 O3 114.00(10) 2_665 1_566 y
O4 Sr2 O3 127.08(19) . 1_566 y
O3 Sr2 O5 80.77(18) 2_665 . y
O4 Sr2 O5 76.62(18) . . y
O3 Sr2 O5 142.31(16) 1_566 . y
O3 Sr2 Cl2 73.62(13) 2_665 1_565 y
O4 Sr2 Cl2 151.39(15) . 1_565 y
O3 Sr2 Cl2 76.63(13) 1_566 1_565 y
O5 Sr2 Cl2 74.92(12) . 1_565 y
O3 Sr2 Cl1 164.73(14) 2_665 1_566 y
O4 Sr2 Cl1 74.22(13) . 1_566 y
O3 Sr2 Cl1 76.93(13) 1_566 1_566 y
O5 Sr2 Cl1 84.18(13) . 1_566 y
Cl2 Sr2 Cl1 99.98(7) 1_565 1_566 y
O3 Sr2 Cl2 78.72(13) 2_665 2_665 y
O4 Sr2 Cl2 81.34(13) . 2_665 y
O3 Sr2 Cl2 72.63(13) 1_566 2_665 y
O5 Sr2 Cl2 144.88(12) . 2_665 y
Cl2 Sr2 Cl2 124.88(4) 1_565 2_665 y
Cl1 Sr2 Cl2 115.67(7) 1_566 2_665 y
O3 Sr2 Cu2 28.81(13) 2_665 2_665 n
O4 Sr2 Cu2 110.62(11) . 2_665 n
O3 Sr2 Cu2 90.14(12) 1_566 2_665 n
O5 Sr2 Cu2 109.58(12) . 2_665 n
Cl2 Sr2 Cu2 81.88(4) 1_565 2_665 n
Cl1 Sr2 Cu2 166.01(6) 1_566 2_665 n
Cl2 Sr2 Cu2 54.09(4) 2_665 2_665 n
O3 Sr2 Cu2 140.29(13) 2_665 1_566 n
O4 Sr2 Cu2 104.50(14) . 1_566 n
O3 Sr2 Cu2 26.86(12) 1_566 1_566 n
O5 Sr2 Cu2 132.31(12) . 1_566 n
Cl2 Sr2 Cu2 92.62(4) 1_565 1_566 n
Cl1 Sr2 Cu2 52.27(5) 1_566 1_566 n
Cl2 Sr2 Cu2 79.54(5) 2_665 1_566 n
Cu2 Sr2 Cu2 113.95(3) 2_665 1_566 n
O3 Sr2 Sr1 103.16(13) 2_665 . n
O4 Sr2 Sr1 38.39(13) . . n
O3 Sr2 Sr1 142.76(12) 1_566 . n
O5 Sr2 Sr1 40.43(11) . . n
Cl2 Sr2 Sr1 113.31(5) 1_565 . n
Cl1 Sr2 Sr1 66.12(5) 1_566 . n
Cl2 Sr2 Sr1 118.97(4) 2_665 . n
Cu2 Sr2 Sr1 126.05(3) 2_665 . n
Cu2 Sr2 Sr1 116.42(2) 1_566 . n
O3 Sr2 Cu2 86.73(13) 2_665 1_565 n
O4 Sr2 Cu2 99.75(14) . 1_565 n
O3 Sr2 Cu2 116.72(12) 1_566 1_565 n
O5 Sr2 Cu2 26.28(11) . 1_565 n
Cl2 Sr2 Cu2 51.88(4) 1_565 1_565 n
Cl1 Sr2 Cu2 78.59(5) 1_566 1_565 n
Cl2 Sr2 Cu2 165.17(5) 2_665 1_565 n
Cu2 Sr2 Cu2 112.56(3) 2_665 1_565 n
Cu2 Sr2 Cu2 114.13(3) 1_566 1_565 n
Sr1 Sr2 Cu2 61.44(2) . 1_565 n
O3 Sr2 Sr2 34.40(12) 2_665 2_674 n
O4 Sr2 Sr2 118.20(15) . 2_674 n
O3 Sr2 Sr2 114.11(12) 1_566 2_674 n
O5 Sr2 Sr2 58.46(12) . 2_674 n
Cl2 Sr2 Sr2 45.93(4) 1_565 2_674 n
Cl1 Sr2 Sr2 132.45(6) 1_566 2_674 n
Cl2 Sr2 Sr2 111.65(5) 2_665 2_674 n
Cu2 Sr2 Sr2 57.87(2) 2_665 2_674 n
Cu2 Sr2 Sr2 136.81(3) 1_566 2_674 n
Sr1 Sr2 Sr2 94.99(2) . 2_674 n
Cu2 Sr2 Sr2 54.693(18) 1_565 2_674 n
O3 Sr2 H4 91.7(14) 2_665 . n
O4 Sr2 H4 15.4(10) . . n
O3 Sr2 H4 129(2) 1_566 . n
O5 Sr2 H4 82(2) . . n
Cl2 Sr2 H4 155(2) 1_565 . n
Cl1 Sr2 H4 88.9(11) 1_566 . n
Cl2 Sr2 H4 70.1(17) 2_665 . n
Cu2 Sr2 H4 95.3(10) 2_665 . n
Cu2 Sr2 H4 111(2) 1_566 . n
Sr1 Sr2 H4 48.9(17) . . n
Cu2 Sr2 H4 108(2) 1_565 . n
Sr2 Sr2 H4 111.6(19) 2_674 . n
O3 Sr2 H5 68(3) 2_665 . n
O4 Sr2 H5 85(3) . . n
O3 Sr2 H5 142(3) 1_566 . n
O5 Sr2 H5 14(2) . . n
Cl2 Sr2 H5 67(3) 1_565 . n
Cl1 Sr2 H5 97(3) 1_566 . n
Cl2 Sr2 H5 140(3) 2_665 . n
Cu2 Sr2 H5 97(3) 2_665 . n
Cu2 Sr2 H5 141(3) 1_566 . n
Sr1 Sr2 H5 52(3) . . n
Cu2 Sr2 H5 27(3) 1_565 . n
Sr2 Sr2 H5 45(2) 2_674 . n
H4 Sr2 H5 88(4) . . n
O4 Cu1 O4 91.7(3) 4_654 1_554 y
O4 Cu1 O1 172.2(3) 4_654 . y
O4 Cu1 O1 91.1(2) 1_554 . y
O4 Cu1 O1 91.1(2) 4_654 4_655 y
O4 Cu1 O1 172.2(3) 1_554 4_655 y
O1 Cu1 O1 85.2(3) . 4_655 y
O4 Cu1 Sr1 123.94(18) 4_654 . n
O4 Cu1 Sr1 123.94(18) 1_554 . n
O1 Cu1 Sr1 48.94(17) . . n
O1 Cu1 Sr1 48.94(17) 4_655 . n
O4 Cu1 Sr1 46.22(17) 4_654 1_554 n
O4 Cu1 Sr1 46.22(17) 1_554 1_554 n
O1 Cu1 Sr1 137.30(16) . 1_554 n
O1 Cu1 Sr1 137.30(16) 4_655 1_554 n
Sr1 Cu1 Sr1 150.00(5) . 1_554 n
O5 Cu2 O3 92.5(2) 1_545 . y
O5 Cu2 O2 91.4(3) 1_545 . y
O3 Cu2 O2 174.3(3) . . y
O5 Cu2 O1 174.5(2) 1_545 . y
O3 Cu2 O1 92.1(2) . . y
O2 Cu2 O1 84.1(3) . . y
O5 Cu2 Sr1 131.50(16) 1_545 . n
O3 Cu2 Sr1 131.44(15) . . n
O2 Cu2 Sr1 46.7(2) . . n
O1 Cu2 Sr1 43.05(16) . . n
O5 Cu2 Sr2 70.85(16) 1_545 2_664 n
O3 Cu2 Sr2 38.18(17) . 2_664 n
O2 Cu2 Sr2 147.5(2) . 2_664 n
O1 Cu2 Sr2 111.42(16) . 2_664 n
Sr1 Cu2 Sr2 128.92(3) . 2_664 n
O5 Cu2 Sr2 85.08(16) 1_545 1_544 n
O3 Cu2 Sr2 36.16(16) . 1_544 n
O2 Cu2 Sr2 140.4(2) . 1_544 n
O1 Cu2 Sr2 100.46(16) . 1_544 n
Sr1 Cu2 Sr2 141.64(3) . 1_544 n
Sr2 Cu2 Sr2 67.051(19) 2_664 1_544 n
O5 Cu2 Sr2 36.68(15) 1_545 1_545 n
O3 Cu2 Sr2 102.66(16) . 1_545 n
O2 Cu2 Sr2 83.0(2) . 1_545 n
O1 Cu2 Sr2 138.88(16) . 1_545 n
Sr1 Cu2 Sr2 103.95(3) . 1_545 n
Sr2 Cu2 Sr2 66.43(2) 2_664 1_545 n
Sr2 Cu2 Sr2 114.13(3) 1_544 1_545 n
Sr2 Cl1 Sr2 136.31(10) 4_644 1_544 n
Sr2 Cl2 Sr2 88.57(5) 1_545 2_664 n
Cu1 O1 Cu2 119.4(3) . . y
Cu1 O1 Sr1 95.6(2) . . n
Cu2 O1 Sr1 104.9(2) . . n
Cu1 O1 H1 117(7) . . y
Cu2 O1 H1 102(6) . . y
Sr1 O1 H1 117(7) . . n
Cu2 O2 Cu2 112.6(4) . 4_655 y
Cu2 O2 Sr1 101.0(2) . . n
Cu2 O2 Sr1 101.0(2) 4_655 . n
Cu2 O2 H2 106(5) . . y
Cu2 O2 H2 106(5) 4_655 . y
Sr1 O2 H2 130(10) . . n
Cu2 O3 Sr2 113.0(2) . 2_664 n
Cu2 O3 Sr2 117.0(2) . 1_544 n
Sr2 O3 Sr2 111.90(19) 2_664 1_544 n
Cu2 O3 H3 110(7) . . y
Sr2 O3 H3 100(7) 2_664 . n
Sr2 O3 H3 103(7) 1_544 . n
Cu1 O4 Sr1 99.7(2) 1_556 . n
Cu1 O4 Sr2 125.6(3) 1_556 . n
Sr1 O4 Sr2 102.86(19) . . n
Cu1 O4 H4 102(7) 1_556 . y
Sr1 O4 H4 119(8) . . n
Sr2 O4 H4 109(6) . . n
Cu2 O5 Sr1 124.5(3) 1_565 . n
Cu2 O5 Sr2 117.0(2) 1_565 . n
Sr1 O5 Sr2 97.91(17) . . n
Cu2 O5 H5 106(8) 1_565 . y
Sr1 O5 H5 126(9) . . n
Sr2 O5 H5 36(9) . . n
loop_
_geom_bond_atom_site_label_1
_geom_bond_atom_site_label_2
_geom_bond_distance
_geom_bond_site_symmetry_2
_geom_bond_publ_flag
Sr1 O4 2.499(6) . y
Sr1 O4 2.499(6) 4_655 y
Sr1 O1 2.542(6) 4_655 y
Sr1 O1 2.542(6) . y
Sr1 O5 2.568(5) . y
Sr1 O5 2.568(5) 4_655 y
Sr1 O2 2.668(7) . y
Sr1 Cu1 3.3552(18) . n
Sr1 Cu1 3.4116(18) 1_556 n
Sr1 Cu2 3.5979(12) . n
Sr1 Cu2 3.5979(12) 4_655 n
Sr1 Sr2 3.9222(11) . n
Sr2 O3 2.512(6) 2_665 y
Sr2 O4 2.518(5) . y
Sr2 O3 2.558(6) 1_566 y
Sr2 O5 2.632(5) . y
Sr2 Cl2 2.998(2) 1_565 y
Sr2 Cl1 3.0102(13) 1_566 y
Sr2 Cl2 3.019(2) 2_665 y
Sr2 Cu2 3.7406(11) 2_665 n
Sr2 Cu2 3.8636(13) 1_566 n
Sr2 Cu2 3.9241(14) 1_565 n
Sr2 Sr2 4.2012(9) 2_674 n
Sr2 H4 2.89(7) . n
Sr2 H5 2.04(10) . n
Cu1 O4 1.940(6) 4_654 y
Cu1 O4 1.940(6) 1_554 y
Cu1 O1 1.957(5) . y
Cu1 O1 1.958(5) 4_655 y
Cu1 Sr1 3.4116(18) 1_554 n
Cu2 O5 1.950(5) 1_545 y
Cu2 O3 1.959(5) . y
Cu2 O2 1.959(5) . y
Cu2 O1 1.974(5) . y
Cu2 Sr2 3.7407(11) 2_664 n
Cu2 Sr2 3.8636(13) 1_544 n
Cu2 Sr2 3.9241(14) 1_545 n
Cl1 Sr2 3.0103(12) 4_644 n
Cl1 Sr2 3.0103(12) 1_544 n
Cl2 Sr2 2.998(2) 1_545 n
Cl2 Sr2 3.019(2) 2_664 n
O1 H1 0.81(3) . n
O2 Cu2 1.959(5) 4_655 n
O2 H2 0.82(3) . n
O3 Sr2 2.512(6) 2_664 n
O3 Sr2 2.558(6) 1_544 n
O3 H3 0.81(3) . n
O4 Cu1 1.940(6) 1_556 n
O4 H4 0.81(3) . n
O5 Cu2 1.950(5) 1_565 n
O5 H5 0.81(3) . n
loop_
_geom_hbond_atom_site_label_D
_geom_hbond_atom_site_label_H
_geom_hbond_atom_site_label_A
_geom_hbond_distance_DH
_geom_hbond_distance_HA
_geom_hbond_distance_DA
_geom_hbond_angle_DHA
_geom_hbond_site_symmetry_A
O1 H1 Cl2 0.81(3) 2.40(3) 3.210(6) 175(8) 2_664
O2 H2 Cl1 0.82(3) 2.49(7) 3.249(9) 154(13) 1_556
O3 H3 Cl2 0.81(3) 2.95(8) 3.462(6) 123(8) 1_554
O3 H3 Cl2 0.81(3) 2.80(6) 3.506(6) 148(8) 2_664
O4 H4 Cl2 0.81(3) 2.52(6) 3.224(5) 145(9) .
O5 H5 Cl2 0.81(3) 2.90(9) 3.436(5) 126(9) 1_565
O5 H5 O3 0.81(3) 2.58(6) 3.334(8) 155(11) 2_665
