#------------------------------------------------------------------------------
#$Date: 2019-09-04 06:26:17 +0300 (Wed, 04 Sep 2019) $
#$Revision: 217956 $
#$URL: file:///home/coder/svn-repositories/cod/cif/7/23/36/7233629.cif $
#------------------------------------------------------------------------------
#
# This file is available in the Crystallography Open Database (COD),
# http://www.crystallography.net/
#
# All data on this site have been placed in the public domain by the
# contributors.
#
data_7233629
loop_
_publ_author_name
'Wiedemann, Dennis'
'Suard, Emmanuelle'
'Lerch, Martin'
_publ_section_title
;
 Structural complexities and sodium-ion diffusion in the intercalates
 NaxTiS2: move it, change it, re-diffract it
;
_journal_issue                   48
_journal_name_full               'RSC Advances'
_journal_page_first              27780
_journal_paper_doi               10.1039/C9RA05690D
_journal_volume                  9
_journal_year                    2019
_chemical_compound_source        synthetic
_chemical_formula_iupac          'Na0.5 Ti S2'
_chemical_formula_sum            'Na0.5 S2 Ti'
_chemical_formula_weight         123.5
_chemical_name_systematic
;
sodium titanium disulfide, sodium deficient
;
_space_group_IT_number           166
_space_group_name_Hall           '-R 3 2"'
_space_group_name_H-M_alt        'R -3 m :H'
_symmetry_cell_setting           trigonal
_symmetry_Int_Tables_number      166
_symmetry_space_group_name_Hall  '-R 3 2"'
_symmetry_space_group_name_H-M   'R -3 m :H'
_audit_update_record
;
2019-07-22 deposited with the CCDC.    2019-08-26 downloaded from the CCDC.
;
_cell_angle_alpha                90
_cell_angle_beta                 90
_cell_angle_gamma                120
_cell_formula_units_Z            3
_cell_length_a                   3.43273(9)
_cell_length_b                   3.43273(9)
_cell_length_c                   21.0014(9)
_cell_measurement_temperature    293.15
_cell_volume                     214.318(12)
_computing_cell_refinement       'JANA2006 (Pet\<r\'i\<cek et al., 2014)'
_computing_data_collection       'X'Pert Data Collector (PANalytical, 2008)'
_computing_data_reduction        'X'Pert Data Collector (PANalytical, 2008)'
_computing_molecular_graphics    'Diamond 4.5 (Brandenbrug, 2019)'
_computing_publication_material  'JANA2006 (Pet\<r\'i\<cek et al., 2014)'
_computing_structure_refinement  'JANA2006 (Pet\<r\'i\<cek et al., 2014)'
_diffrn_ambient_temperature      293.15
_diffrn_detector                 'solid-state RTMS detector'
_diffrn_detector_type            'PANalytical PIXcel'
_diffrn_measurement_device       '\q-\q geometry diffractometer'
_diffrn_measurement_device_type  'PANalytical X'Pert Pro'
_diffrn_measurement_method       'profile data from \q/2\q scans'
_diffrn_radiation_monochromator  'Ni filter'
_diffrn_radiation_probe          x-ray
_diffrn_radiation_type           'Cu K\a'
_diffrn_source                   'sealed X-ray tube'
_diffrn_source_current           40
_diffrn_source_take-off_angle    6.0
_diffrn_source_target            Cu
_diffrn_source_type              'Philips PW3373-10'
_diffrn_source_voltage           40
_exptl_absorpt_coefficient_mu    36.969
_exptl_absorpt_correction_type   refdelf
_exptl_absorpt_process_details
;
roughness correction according to Pitschke et al. (1993) in two-parameter
 formulation (Sidey, 2004) as implemented in JANA2006: p = 0.32(8),
 q = 0.093415
;
_exptl_crystal_density_diffrn    2.8705
_exptl_crystal_density_method    'not measured'
_exptl_crystal_F_000             178.5
_pd_calc_method                  'Rietveld refinement'
_pd_char_colour                  grey-black
_pd_instr_cons_illum_flag        no
_pd_instr_dist_spec/detc         240.00
_pd_instr_dist_src/spec          240.00
_pd_instr_divg_eq_spec/detc      0.5
_pd_instr_divg_eq_src/spec       0.5
_pd_instr_geometry               Bragg-Brentano
_pd_instr_monochr_post_spec      'Ni filter'
_pd_instr_monochr_pre_spec       none
_pd_instr_slit_ax_src/spec       6.60
_pd_instr_slit_eq_src/spec       1.52
_pd_instr_soller_eq_spec/detc    2.29
_pd_instr_soller_eq_src/spec     2.29
_pd_instr_source_size_ax         12.0
_pd_instr_source_size_eq         0.4
_pd_meas_2theta_range_inc        0.026
_pd_meas_2theta_range_max        79.985
_pd_meas_2theta_range_min        5.013
_pd_meas_number_of_points        2856
_pd_meas_scan_method             step
_pd_proc_2theta_range_inc        0.026
_pd_proc_2theta_range_max        79.985
_pd_proc_2theta_range_min        6.011
_pd_proc_ls_background_function
;
manual background (visual estimation, unrefined) interpolated by 15 Legendre
 polynomials [1st: 2(3), 2nd: -16(7), 3rd: 7(8), 4th: 2(9), 5th: -11(10),
 6th: 10(12), 7th: -9(13), 8th: 16(13), 9th: -23(14), 10th: 13(15),
 11th: -23(16), 12th: 14(16), 13th: 22(17), 14th: -57(16), 15th: 56(13)]
;
_pd_proc_ls_pref_orient_corr     none
_pd_proc_ls_profile_function
;
pseudo-Voigt profile according to Thompson, Cox & Hastings (1987):
 G~U~ = 96(4), G~V~ = -40.21104, G~W~ = 23.3(7), L~X~ = 5.26(13), L~Y~ = 0;
asymmetry correction according to B\'erar & Baldinozzi (1993):
 P~1~ = -0.431(6), P~2~ = 1.356807, P~3~ = -0.046862, P~4~ = 0.205(2) 
;
_pd_proc_ls_prof_R_factor        0.0363
_pd_proc_ls_prof_wR_expected     0.0186
_pd_proc_ls_prof_wR_factor       0.0621
_pd_proc_wavelength              1.54187
_pd_spec_mounting                'drifted powder on off-cut Si'
_pd_spec_mount_mode              reflection
_pd_spec_size_axial              10
_pd_spec_size_thick              0.2
_refine_diff_density_max         0.35
_refine_diff_density_min         -0.49
_refine_ls_extinction_method     none
_refine_ls_goodness_of_fit_all   3.35
_refine_ls_matrix_type           fullcycle
_refine_ls_number_constraints    0
_refine_ls_number_parameters     29
_refine_ls_number_restraints     0
_refine_ls_R_factor_all          0.0428
_refine_ls_R_factor_gt           0.0405
_refine_ls_R_I_factor            0.0660
_refine_ls_shift/su_max          0.0078
_refine_ls_shift/su_mean         0.0009
_refine_ls_structure_factor_coef Inet
_refine_ls_weighting_details     w=1/[\s^2^(I)+(0.01*I)^2^]
_refine_ls_weighting_scheme      sigma
_refine_ls_wR_factor_all         0.0505
_refine_ls_wR_factor_gt          0.0504
_reflns_number_gt                24
_reflns_number_total             28
_reflns_threshold_expression     I>3\s(I)
_cod_data_source_file            c9ra05690d2.cif
_cod_data_source_block           xrd-rt
_cod_original_cell_volume        214.318(17)
_cod_original_sg_symbol_H-M      'R -3 m'
_cod_database_code               7233629
loop_
_space_group_symop_id
_space_group_symop_operation_xyz
1 x,y,z
2 -y,x-y,z
3 -x+y,-x,z
4 y,x,-z
5 x-y,-y,-z
6 -x,-x+y,-z
7 -x,-y,-z
8 y,-x+y,-z
9 x-y,x,-z
10 -y,-x,z
11 -x+y,y,z
12 x,x-y,z
13 x+2/3,y+1/3,z+1/3
14 -y+2/3,x-y+1/3,z+1/3
15 -x+y+2/3,-x+1/3,z+1/3
16 y+2/3,x+1/3,-z+1/3
17 x-y+2/3,-y+1/3,-z+1/3
18 -x+2/3,-x+y+1/3,-z+1/3
19 -x+2/3,-y+1/3,-z+1/3
20 y+2/3,-x+y+1/3,-z+1/3
21 x-y+2/3,x+1/3,-z+1/3
22 -y+2/3,-x+1/3,z+1/3
23 -x+y+2/3,y+1/3,z+1/3
24 x+2/3,x-y+1/3,z+1/3
25 x+1/3,y+2/3,z+2/3
26 -y+1/3,x-y+2/3,z+2/3
27 -x+y+1/3,-x+2/3,z+2/3
28 y+1/3,x+2/3,-z+2/3
29 x-y+1/3,-y+2/3,-z+2/3
30 -x+1/3,-x+y+2/3,-z+2/3
31 -x+1/3,-y+2/3,-z+2/3
32 y+1/3,-x+y+2/3,-z+2/3
33 x-y+1/3,x+2/3,-z+2/3
34 -y+1/3,-x+2/3,z+2/3
35 -x+y+1/3,y+2/3,z+2/3
36 x+1/3,x-y+2/3,z+2/3
loop_
_atom_site_label
_atom_site_type_symbol
_atom_site_fract_x
_atom_site_fract_y
_atom_site_fract_z
_atom_site_adp_type
_atom_site_U_iso_or_equiv
_atom_site_site_symmetry_multiplicity
_atom_site_occupancy
_atom_site_calc_flag
Ti1 Ti 0 0 0 Uiso 0.0158(11) 3 1 d
Na1 Na 0 0 0.166667 Uiso 0.035(6) 6 0.25 d
S1 S 0 0 0.40126(10) Uiso 0.0096(11) 6 1 d
loop_
_atom_type_symbol
_atom_type_scat_dispersion_real
_atom_type_scat_dispersion_imag
_atom_type_scat_source
Na 0.1353 0.1239 'International Tables Vol C tables 4.2.6.8 and 6.1.1.1'
S 0.3331 0.5567 'International Tables Vol C tables 4.2.6.8 and 6.1.1.1'
Ti 0.2191 1.8069 'International Tables Vol C tables 4.2.6.8 and 6.1.1.1'
loop_
_diffrn_radiation_wavelength_id
_diffrn_radiation_wavelength
_diffrn_radiation_wavelength_wt
_diffrn_radiation_wavelength_determination
\a1 1.54060 0.6667 fundamental
\a2 1.54443 0.3333 fundamental
loop_
_geom_angle_atom_site_label_1
_geom_angle_atom_site_label_2
_geom_angle_atom_site_label_3
_geom_angle_site_symmetry_1
_geom_angle_site_symmetry_3
_geom_angle
S1 Ti1 S1 25_444 25_544 89.32(4)
S1 Ti1 S1 25_444 25_554 89.32(4)
S1 Ti1 S1 25_444 16_445 90.68(4)
S1 Ti1 S1 25_444 16_455 90.68(4)
S1 Ti1 S1 25_444 16_555 180
S1 Ti1 S1 25_544 25_554 89.32(4)
S1 Ti1 S1 25_544 16_445 90.68(4)
S1 Ti1 S1 25_544 16_455 180
S1 Ti1 S1 25_544 16_555 90.68(4)
S1 Ti1 S1 25_554 16_445 180
S1 Ti1 S1 25_554 16_455 90.68(4)
S1 Ti1 S1 25_554 16_555 90.68(4)
S1 Ti1 S1 16_445 16_455 89.32(4)
S1 Ti1 S1 16_445 16_555 89.32(4)
S1 Ti1 S1 16_455 16_555 89.32(4)
S1 Na1 S1 25_444 25_544 73.51(3)
S1 Na1 S1 25_444 25_554 73.51(3)
S1 Na1 S1 25_444 28_445 92.59(4)
S1 Na1 S1 25_444 28_545 139.579(16)
S1 Na1 S1 25_444 28_555 139.579(16)
S1 Na1 S1 25_544 25_554 73.51(3)
S1 Na1 S1 25_544 28_445 139.579(16)
S1 Na1 S1 25_544 28_545 92.59(4)
S1 Na1 S1 25_544 28_555 139.579(16)
S1 Na1 S1 25_554 28_445 139.579(16)
S1 Na1 S1 25_554 28_545 139.579(16)
S1 Na1 S1 25_554 28_555 92.59(4)
S1 Na1 S1 28_445 28_545 73.51(3)
S1 Na1 S1 28_445 28_555 73.51(3)
S1 Na1 S1 28_545 28_555 73.51(3)
loop_
_geom_bond_atom_site_label_1
_geom_bond_atom_site_label_2
_geom_bond_site_symmetry_2
_geom_bond_distance
Ti1 S1 25_444 2.4419(13)
Ti1 S1 25_544 2.4419(13)
Ti1 S1 25_554 2.4419(13)
Ti1 S1 16_445 2.4419(13)
Ti1 S1 16_455 2.4419(13)
Ti1 S1 16_555 2.4419(13)
Na1 S1 25_444 2.8684(16)
Na1 S1 25_544 2.8684(16)
Na1 S1 25_554 2.8684(16)
Na1 S1 28_445 2.8684(16)
Na1 S1 28_545 2.8684(16)
Na1 S1 28_555 2.8684(16)
loop_
_pd_proc_point_id
_pd_proc_2theta_corrected
_pd_proc_d_spacing
_pd_proc_intensity_net
_pd_calc_intensity_net
_pd_proc_ls_weight
1 6.2009 14.253666 6804.00 6918.09 82.00
2 6.2272 14.193467 6899.00 6916.71 83.00
3 6.2536 14.133778 6950.00 6915.32 83.00
4 6.2799 14.074589 6760.00 6914.04 82.00
5 6.3062 14.015891 6865.00 6913.00 83.00
6 6.3325 13.957683 6850.00 6912.19 83.00
7 6.3589 13.899959 7001.00 6911.60 84.00
8 6.3852 13.842710 6872.00 6911.23 83.00
9 6.4115 13.785930 6977.00 6911.08 84.00
10 6.4378 13.729614 6881.00 6911.13 83.00
11 6.4642 13.673761 6931.00 6911.39 83.00
12 6.4905 13.618358 6840.00 6911.84 83.00
13 6.5168 13.563405 6854.00 6912.49 83.00
14 6.5431 13.508894 7085.00 6913.32 84.00
15 6.5695 13.454820 6907.00 6914.33 83.00
16 6.5958 13.401175 6918.00 6915.52 83.00
17 6.6221 13.347960 6875.00 6916.89 83.00
18 6.6484 13.295167 7068.00 6918.42 84.00
19 6.6748 13.242790 7077.00 6920.11 84.00
20 6.7011 13.190825 6918.00 6921.97 83.00
21 6.7274 13.139266 6877.00 6923.97 83.00
22 6.7537 13.088110 7051.00 6926.13 84.00
23 6.7801 13.037350 6830.00 6928.43 83.00
24 6.8064 12.986984 6779.00 6930.88 82.00
25 6.8327 12.937005 6898.00 6933.46 83.00
26 6.8591 12.887412 6929.00 6936.17 83.00
27 6.8854 12.838199 6972.00 6939.02 83.00
28 6.9117 12.789359 6923.00 6941.99 83.00
29 6.9380 12.740892 6981.00 6945.08 84.00
30 6.9644 12.692789 6979.00 6948.28 84.00
31 6.9907 12.645051 7136.00 6951.60 84.00
32 7.0170 12.597671 7005.00 6955.04 84.00
33 7.0433 12.550645 7218.00 6958.58 85.00
34 7.0697 12.503967 6972.00 6962.22 83.00
35 7.0960 12.457639 6953.00 6965.96 83.00
36 7.1223 12.411653 6915.00 6969.80 83.00
37 7.1486 12.366005 6999.00 6973.73 84.00
38 7.1750 12.320693 7068.00 6977.75 84.00
39 7.2013 12.275712 6972.00 6981.86 83.00
40 7.2276 12.231060 6917.00 6986.05 83.00
41 7.2539 12.186730 6917.00 6990.33 83.00
42 7.2803 12.142724 7038.00 6994.68 84.00
43 7.3066 12.099031 6999.00 6995.00 84.00
44 7.3329 12.055657 6958.00 6992.23 83.00
45 7.3592 12.012589 6939.00 6989.52 83.00
46 7.3856 11.969833 7168.00 6986.88 85.00
47 7.4119 11.927379 6970.00 6984.31 83.00
48 7.4382 11.885223 6996.00 6981.80 84.00
49 7.4645 11.843366 6883.00 6979.34 83.00
50 7.4909 11.801806 6901.00 6976.95 83.00
51 7.5172 11.760535 7001.00 6974.60 84.00
52 7.5435 11.719553 7048.00 6972.31 84.00
53 7.5698 11.678855 6973.00 6970.07 84.00
54 7.5962 11.638441 7094.00 6967.87 84.00
55 7.6225 11.598306 7049.00 6965.72 84.00
56 7.6488 11.558445 7013.00 6963.61 84.00
57 7.6751 11.518861 6943.00 6961.54 83.00
58 7.7015 11.479546 6973.00 6959.51 84.00
59 7.7278 11.440501 7017.00 6957.52 84.00
60 7.7541 11.401719 7051.00 6955.56 84.00
61 7.7804 11.363202 7105.00 6953.63 84.00
62 7.8068 11.324943 7047.00 6951.74 84.00
63 7.8331 11.286941 7045.00 6949.87 84.00
64 7.8594 11.249195 7100.00 6948.03 84.00
65 7.8857 11.211701 7007.00 6946.21 84.00
66 7.9121 11.174457 6927.00 6944.42 83.00
67 7.9384 11.137461 6779.00 6942.64 82.00
68 7.9647 11.100707 6968.00 6940.89 83.00
69 7.9910 11.064198 7010.00 6939.16 84.00
70 8.0174 11.027927 6959.00 6937.44 83.00
71 8.0437 10.991896 7061.00 6935.74 84.00
72 8.0700 10.956099 6946.00 6934.05 83.00
73 8.0963 10.920534 6941.00 6932.38 83.00
74 8.1226 10.885202 6831.00 6930.71 83.00
75 8.1490 10.850096 6841.00 6929.06 83.00
76 8.1753 10.815219 6770.00 6927.41 82.00
77 8.2016 10.780562 6915.00 6925.77 83.00
78 8.2279 10.746130 6828.00 6924.14 83.00
79 8.2543 10.711918 6767.00 6922.51 82.00
80 8.2806 10.677923 6989.00 6920.88 84.00
81 8.3069 10.644146 6717.00 6919.26 82.00
82 8.3332 10.610579 7008.00 6917.63 84.00
83 8.3596 10.577225 6853.00 6916.01 83.00
84 8.3859 10.544082 6833.00 6914.38 83.00
85 8.4122 10.511143 7002.00 6912.51 84.00
86 8.4385 10.478413 6840.00 6909.60 83.00
87 8.4649 10.445886 7002.00 6906.70 84.00
88 8.4912 10.413559 6852.00 6903.79 83.00
89 8.5175 10.381435 6761.00 6900.87 82.00
90 8.5438 10.349507 6812.00 6897.95 83.00
91 8.5702 10.317777 6945.00 6895.02 83.00
92 8.5965 10.286240 6781.00 6892.08 82.00
93 8.6228 10.254895 6823.00 6889.13 83.00
94 8.6491 10.223744 6936.00 6886.17 83.00
95 8.6755 10.192780 6752.00 6883.20 82.00
96 8.7018 10.162005 6802.00 6880.22 82.00
97 8.7281 10.131415 6808.00 6877.23 83.00
98 8.7544 10.101009 7027.00 6874.22 84.00
99 8.7808 10.070786 6631.00 6871.20 81.00
100 8.8071 10.040743 6747.00 6868.17 82.00
101 8.8334 10.010880 6816.00 6865.12 83.00
102 8.8597 9.981194 6805.00 6862.05 82.00
103 8.8861 9.951684 6794.00 6858.97 82.00
104 8.9124 9.922351 6833.00 6855.88 83.00
105 8.9387 9.893188 6675.00 6852.76 82.00
106 8.9650 9.864197 6806.00 6849.63 82.00
107 8.9914 9.835377 6786.00 6846.48 82.00
108 9.0177 9.806724 6737.00 6843.31 82.00
109 9.0440 9.778239 6669.00 6840.12 82.00
110 9.0703 9.749920 6645.00 6836.92 82.00
111 9.0967 9.721764 6823.00 6833.69 83.00
112 9.1230 9.693771 6805.00 6830.45 82.00
113 9.1493 9.665939 6767.00 6827.18 82.00
114 9.1756 9.638268 6807.00 6823.89 83.00
115 9.2019 9.610755 6757.00 6820.58 82.00
116 9.2283 9.583400 6608.00 6817.25 81.00
117 9.2546 9.556198 6769.00 6813.90 82.00
118 9.2809 9.529152 6764.00 6810.53 82.00
119 9.3072 9.502260 6726.00 6807.14 82.00
120 9.3336 9.475519 6729.00 6803.72 82.00
121 9.3599 9.448929 6704.00 6797.87 82.00
122 9.3862 9.422488 6781.00 6790.64 82.00
123 9.4125 9.396196 6722.00 6783.39 82.00
124 9.4389 9.370050 6625.00 6776.12 81.00
125 9.4652 9.344049 6494.00 6768.82 81.00
126 9.4915 9.318193 6810.00 6761.50 83.00
127 9.5178 9.292480 6648.00 6754.16 82.00
128 9.5442 9.266911 6702.00 6746.80 82.00
129 9.5705 9.241481 6676.00 6739.41 82.00
130 9.5968 9.216190 6670.00 6731.99 82.00
131 9.6231 9.191038 6495.00 6724.56 81.00
132 9.6495 9.166024 6659.00 6717.09 82.00
133 9.6758 9.141147 6683.00 6709.61 82.00
134 9.7021 9.116404 6723.00 6702.10 82.00
135 9.7284 9.091795 6634.00 6694.56 81.00
136 9.7548 9.067319 6672.00 6687.01 82.00
137 9.7811 9.042975 6739.00 6679.42 82.00
138 9.8074 9.018763 6803.00 6678.30 82.00
139 9.8337 8.994679 6504.00 6677.18 81.00
140 9.8600 8.970726 6544.00 6685.89 81.00
141 9.8864 8.946898 6600.00 6689.78 81.00
142 9.9127 8.923199 6779.00 6688.85 82.00
143 9.9390 8.899624 6891.00 6687.91 83.00
144 9.9653 8.876174 6563.00 6686.95 81.00
145 9.9917 8.852849 6599.00 6685.97 81.00
146 10.0180 8.829646 6672.00 6684.98 82.00
147 10.0443 8.806564 6739.00 6683.98 82.00
148 10.0706 8.783605 6818.00 6682.96 83.00
149 10.0970 8.760762 6646.00 6681.92 82.00
150 10.1233 8.738043 6776.00 6680.88 82.00
151 10.1496 8.715438 6630.00 6679.82 81.00
152 10.1759 8.692952 6915.00 6678.75 83.00
153 10.2023 8.670582 6887.00 6677.67 83.00
154 10.2286 8.648327 7080.00 6676.58 84.00
155 10.2549 8.626186 7114.00 6675.48 84.00
156 10.2812 8.604159 7267.00 6674.37 85.00
157 10.3075 8.582245 7385.00 6673.25 86.00
158 10.3339 8.560443 7424.00 6672.13 86.00
159 10.3602 8.538751 7223.00 6671.00 85.00
160 10.3865 8.517170 7291.00 6669.86 85.00
161 10.4128 8.495698 7199.00 6668.72 85.00
162 10.4392 8.474334 7208.00 6667.57 85.00
163 10.4655 8.453077 6891.00 6666.42 83.00
164 10.4918 8.431928 6720.00 6665.27 82.00
165 10.5181 8.410886 6917.00 6664.12 83.00
166 10.5445 8.389947 6598.00 6662.97 81.00
167 10.5708 8.369114 6578.00 6661.82 81.00
168 10.5971 8.348384 6740.00 6660.68 82.00
169 10.6234 8.327756 6621.00 6659.54 81.00
170 10.6497 8.307233 6596.00 6658.41 81.00
171 10.6761 8.286809 6631.00 6657.28 81.00
172 10.7024 8.266486 6661.00 6656.16 82.00
173 10.7287 8.246264 6694.00 6655.06 82.00
174 10.7550 8.226139 6517.00 6653.97 81.00
175 10.7814 8.206113 6637.00 6652.90 81.00
176 10.8077 8.186185 6648.00 6651.84 82.00
177 10.8340 8.166355 6516.00 6650.80 81.00
178 10.8603 8.146621 6532.00 6649.79 81.00
179 10.8867 8.126981 6500.00 6648.80 81.00
180 10.9130 8.107438 6718.00 6647.84 82.00
181 10.9393 8.087988 6623.00 6646.91 81.00
182 10.9656 8.068630 6628.00 6646.02 81.00
183 10.9920 8.049369 6489.00 6645.16 81.00
184 11.0183 8.030196 6396.00 6644.35 80.00
185 11.0446 8.011118 6604.00 6643.58 81.00
186 11.0709 7.992128 6679.00 6642.87 82.00
187 11.0972 7.973231 6610.00 6642.21 81.00
188 11.1236 7.954422 6540.00 6641.61 81.00
189 11.1499 7.935701 6722.00 6641.46 82.00
190 11.1762 7.917070 6596.00 6641.71 81.00
191 11.2025 7.898526 6479.00 6642.03 80.00
192 11.2289 7.880069 6359.00 6642.43 80.00
193 11.2552 7.861699 6458.00 6642.94 80.00
194 11.2815 7.843414 6688.00 6643.54 82.00
195 11.3078 7.825215 6661.00 6644.26 82.00
196 11.3342 7.807101 6595.00 6645.10 81.00
197 11.3605 7.789070 6582.00 6646.08 81.00
198 11.3868 7.771123 6682.00 6647.20 82.00
199 11.4131 7.753259 6689.00 6648.49 82.00
200 11.4394 7.735477 6616.00 6649.95 81.00
201 11.4658 7.717777 6655.00 6651.60 82.00
202 11.4921 7.700159 6758.00 6653.47 82.00
203 11.5184 7.682621 6481.00 6655.58 81.00
204 11.5447 7.665164 6375.00 6657.94 80.00
205 11.5711 7.647785 6555.00 6660.59 81.00
206 11.5974 7.630486 6490.00 6663.55 81.00
207 11.6237 7.613265 6540.00 6666.86 81.00
208 11.6500 7.596123 6547.00 6670.56 81.00
209 11.6763 7.579058 6650.00 6674.70 82.00
210 11.7027 7.562069 6654.00 6685.02 82.00
211 11.7290 7.545156 6488.00 6705.58 81.00
212 11.7553 7.528321 6703.00 6726.75 82.00
213 11.7816 7.511560 6534.00 6748.59 81.00
214 11.8080 7.494874 6580.00 6771.21 81.00
215 11.8343 7.478263 6683.00 6794.69 82.00
216 11.8606 7.461725 6668.00 6819.16 82.00
217 11.8869 7.445261 6563.00 6844.75 81.00
218 11.9132 7.428870 6525.00 6871.64 81.00
219 11.9396 7.412550 6801.00 6900.01 82.00
220 11.9659 7.396304 6712.00 6930.10 82.00
221 11.9922 7.380128 6714.00 6962.18 82.00
222 12.0185 7.364024 6861.00 6996.60 83.00
223 12.0449 7.347990 6913.00 7033.76 83.00
224 12.0712 7.332026 6702.00 7074.18 82.00
225 12.0975 7.316131 7044.00 7118.49 84.00
226 12.1238 7.300307 7149.00 7167.51 85.00
227 12.1502 7.284550 7104.00 7222.33 84.00
228 12.1765 7.268862 7428.00 7284.55 86.00
229 12.2028 7.253241 7648.00 7356.75 87.00
230 12.2291 7.237688 7777.00 7443.53 88.00
231 12.2554 7.222202 8243.00 7553.47 91.00
232 12.2818 7.206782 8685.00 7702.55 93.00
233 12.3081 7.191430 9091.00 7918.90 95.00
234 12.3344 7.176141 9379.00 8247.53 97.00
235 12.3607 7.160918 10391.00 8751.26 102.00
236 12.3871 7.145761 11128.00 9504.04 105.00
237 12.4134 7.130668 12144.00 10583.20 110.00
238 12.4397 7.115638 13549.00 12098.50 116.00
239 12.4660 7.100673 15039.00 14299.40 123.00
240 12.4923 7.085771 17471.00 17577.40 132.00
241 12.5187 7.070931 20550.00 21883.00 143.00
242 12.5450 7.056153 24548.00 26059.60 157.00
243 12.5713 7.041439 30572.00 29664.50 175.00
244 12.5976 7.026785 39194.00 36656.90 198.00
245 12.6240 7.012192 49836.00 51697.20 223.00
246 12.6503 6.997660 59544.00 67520.50 244.00
247 12.6766 6.983190 75348.00 68868.30 274.00
248 12.7029 6.968779 59035.00 52984.40 243.00
249 12.7292 6.954427 30811.00 31733.10 176.00
250 12.7556 6.940135 12940.00 16375.80 114.00
251 12.7819 6.925903 9664.00 9117.49 98.00
252 12.8082 6.911728 8686.00 6871.52 93.00
253 12.8345 6.897613 8115.00 6633.61 90.00
254 12.8609 6.883554 7897.00 6972.34 89.00
255 12.8872 6.869554 7841.00 7385.22 89.00
256 12.9135 6.855611 7520.00 7704.02 87.00
257 12.9398 6.841724 7538.00 7889.11 87.00
258 12.9661 6.827894 7363.00 7961.30 86.00
259 12.9925 6.814121 7476.00 7960.74 86.00
260 13.0188 6.800402 7246.00 7923.42 85.00
261 13.0451 6.786740 7320.00 7873.30 86.00
262 13.0714 6.773133 7392.00 7823.26 86.00
263 13.0978 6.759580 7316.00 7778.80 86.00
264 13.1241 6.746083 7483.00 7741.45 87.00
265 13.1504 6.732639 7387.00 7710.94 86.00
266 13.1767 6.719249 7403.00 7686.45 86.00
267 13.2030 6.705912 7302.00 7667.06 85.00
268 13.2294 6.692628 7297.00 7651.93 85.00
269 13.2557 6.679399 7290.00 7640.38 85.00
270 13.2820 6.666221 7381.00 7631.83 86.00
271 13.3083 6.653095 7373.00 7625.85 86.00
272 13.3346 6.640022 7337.00 7622.04 86.00
273 13.3610 6.627000 7404.00 7620.10 86.00
274 13.3873 6.614029 7459.00 7620.99 86.00
275 13.4136 6.601109 7561.00 7641.00 87.00
276 13.4399 6.588241 7556.00 7662.23 87.00
277 13.4663 6.575422 7626.00 7684.52 87.00
278 13.4926 6.562654 7507.00 7707.75 87.00
279 13.5189 6.549935 7495.00 7731.81 87.00
280 13.5452 6.537266 7628.00 7756.61 87.00
281 13.5715 6.524647 7700.00 7782.06 88.00
282 13.5979 6.512076 7720.00 7808.09 88.00
283 13.6242 6.499554 7540.00 7834.65 87.00
284 13.6505 6.487081 7819.00 7861.68 88.00
285 13.6768 6.474656 7945.00 7889.13 89.00
286 13.7031 6.462278 7847.00 7916.96 89.00
287 13.7295 6.449948 7897.00 7945.14 89.00
288 13.7558 6.437665 7917.00 7973.64 89.00
289 13.7821 6.425429 7777.00 8002.42 88.00
290 13.8084 6.413240 8052.00 8031.47 90.00
291 13.8348 6.401098 8109.00 8060.75 90.00
292 13.8611 6.389002 8073.00 8090.26 90.00
293 13.8874 6.376951 8251.00 8119.96 91.00
294 13.9137 6.364947 8147.00 8149.86 90.00
295 13.9400 6.352988 8211.00 8179.92 91.00
296 13.9664 6.341074 8193.00 8210.15 91.00
297 13.9927 6.329206 8230.00 8240.52 91.00
298 14.0190 6.317381 8321.00 8271.03 91.00
299 14.0453 6.305602 8330.00 8301.67 91.00
300 14.0716 6.293866 8337.00 8332.43 91.00
301 14.0980 6.282174 8343.00 8363.29 91.00
302 14.1243 6.270526 8421.00 8394.27 92.00
303 14.1506 6.258922 8563.00 8425.33 93.00
304 14.1769 6.247361 8284.00 8456.49 91.00
305 14.2033 6.235843 8510.00 8487.74 92.00
306 14.2296 6.224366 8628.00 8519.06 93.00
307 14.2559 6.212934 8467.00 8545.55 92.00
308 14.2822 6.201543 8474.00 8567.83 92.00
309 14.3085 6.190195 8581.00 8590.18 93.00
310 14.3349 6.178887 8657.00 8612.59 93.00
311 14.3612 6.167622 8610.00 8635.06 93.00
312 14.3875 6.156397 8622.00 8657.59 93.00
313 14.4138 6.145215 8566.00 8680.17 93.00
314 14.4401 6.134073 8690.00 8702.81 93.00
315 14.4665 6.122971 8852.00 8725.49 94.00
316 14.4928 6.111910 8836.00 8748.22 94.00
317 14.5191 6.100889 8623.00 8771.00 93.00
318 14.5454 6.089908 8885.00 8793.82 94.00
319 14.5717 6.078968 8721.00 8816.68 93.00
320 14.5981 6.068067 8888.00 8839.58 94.00
321 14.6244 6.057204 8769.00 8862.52 94.00
322 14.6507 6.046381 8923.00 8885.49 94.00
323 14.6770 6.035596 8888.00 8908.50 94.00
324 14.7034 6.024852 8928.00 8931.54 94.00
325 14.7297 6.014145 8882.00 8942.79 94.00
326 14.7560 6.003476 9098.00 8934.54 95.00
327 14.7823 5.992846 8870.00 8926.31 94.00
328 14.8086 5.982254 8923.00 8918.11 94.00
329 14.8350 5.971699 8916.00 8909.93 94.00
330 14.8613 5.961182 8861.00 8901.79 94.00
331 14.8876 5.950702 8860.00 8893.67 94.00
332 14.9139 5.940259 8977.00 8885.58 95.00
333 14.9402 5.929853 8920.00 8877.51 94.00
334 14.9666 5.919485 8849.00 8869.47 94.00
335 14.9929 5.909152 8848.00 8861.45 94.00
336 15.0192 5.898855 8830.00 8853.45 94.00
337 15.0455 5.888595 8897.00 8845.47 94.00
338 15.0718 5.878370 8896.00 8837.52 94.00
339 15.0982 5.868182 8747.00 8829.58 94.00
340 15.1245 5.858029 8814.00 8821.67 94.00
341 15.1508 5.847911 8718.00 8813.78 93.00
342 15.1771 5.837829 8838.00 8805.90 94.00
343 15.2034 5.827781 8867.00 8798.05 94.00
344 15.2298 5.817769 8832.00 8781.95 94.00
345 15.2561 5.807791 8907.00 8756.31 94.00
346 15.2824 5.797848 8670.00 8730.69 93.00
347 15.3087 5.787939 8592.00 8705.09 93.00
348 15.3350 5.778063 8609.00 8679.51 93.00
349 15.3614 5.768222 8814.00 8653.94 94.00
350 15.3877 5.758415 8523.00 8628.39 92.00
351 15.4140 5.748641 8712.00 8602.85 93.00
352 15.4403 5.738902 8657.00 8568.73 93.00
353 15.4666 5.729195 8529.00 8539.09 92.00
354 15.4930 5.719520 8554.00 8513.84 92.00
355 15.5193 5.709880 8497.00 8488.60 92.00
356 15.5456 5.700272 8578.00 8463.36 93.00
357 15.5719 5.690696 8535.00 8438.13 92.00
358 15.5983 5.681153 8533.00 8412.91 92.00
359 15.6246 5.671641 8415.00 8387.69 92.00
360 15.6509 5.662163 8388.00 8362.49 92.00
361 15.6772 5.652717 8282.00 8337.62 91.00
362 15.7035 5.643301 8269.00 8317.55 91.00
363 15.7299 5.633918 8318.00 8297.49 91.00
364 15.7562 5.624566 8346.00 8277.44 91.00
365 15.7825 5.615244 8340.00 8257.40 91.00
366 15.8088 5.605955 8160.00 8237.36 90.00
367 15.8351 5.596697 8254.00 8217.34 91.00
368 15.8615 5.587469 8333.00 8197.32 91.00
369 15.8878 5.578271 8036.00 8177.31 90.00
370 15.9141 5.569106 8229.00 8157.30 91.00
371 15.9404 5.559969 8015.00 8137.31 90.00
372 15.9667 5.550863 8070.00 8117.32 90.00
373 15.9931 5.541788 8072.00 8097.34 90.00
374 16.0194 5.532741 7971.00 8077.36 89.00
375 16.0457 5.523725 8071.00 8057.40 90.00
376 16.0720 5.514738 7963.00 8037.44 89.00
377 16.0983 5.505782 8020.00 8017.49 90.00
378 16.1247 5.496853 8067.00 7997.54 90.00
379 16.1510 5.487955 8066.00 7977.60 90.00
380 16.1773 5.479086 7950.00 7957.67 89.00
381 16.2036 5.470245 7964.00 7937.75 89.00
382 16.2299 5.461434 7828.00 7917.84 88.00
383 16.2563 5.452650 7715.00 7897.93 88.00
384 16.2826 5.443895 7896.00 7878.02 89.00
385 16.3089 5.435169 7895.00 7858.13 89.00
386 16.3352 5.426472 7912.00 7842.33 89.00
387 16.3615 5.417802 7770.00 7827.24 88.00
388 16.3879 5.409159 7839.00 7812.16 89.00
389 16.4142 5.400545 7783.00 7797.08 88.00
390 16.4405 5.391959 7726.00 7782.01 88.00
391 16.4668 5.383400 7722.00 7766.95 88.00
392 16.4931 5.374868 7746.00 7751.89 88.00
393 16.5194 5.366364 7811.00 7736.84 88.00
394 16.5458 5.357887 7643.00 7721.80 87.00
395 16.5721 5.349436 7630.00 7706.76 87.00
396 16.5984 5.341013 7608.00 7691.73 87.00
397 16.6247 5.332617 7540.00 7676.70 87.00
398 16.6510 5.324248 7410.00 7661.68 86.00
399 16.6774 5.315905 7537.00 7646.66 87.00
400 16.7037 5.307587 7635.00 7631.65 87.00
401 16.7300 5.299296 7548.00 7616.65 87.00
402 16.7563 5.291032 7530.00 7601.65 87.00
403 16.7826 5.282794 7541.00 7586.66 87.00
404 16.8090 5.274581 7522.00 7571.67 87.00
405 16.8353 5.266394 7456.00 7556.69 86.00
406 16.8616 5.258233 7676.00 7541.72 88.00
407 16.8879 5.250098 7601.00 7526.75 87.00
408 16.9142 5.241988 7476.00 7511.78 86.00
409 16.9406 5.233903 7464.00 7496.82 86.00
410 16.9669 5.225843 7378.00 7481.87 86.00
411 16.9932 5.217809 7441.00 7466.92 86.00
412 17.0195 5.209800 7334.00 7451.97 86.00
413 17.0458 5.201814 7358.00 7437.03 86.00
414 17.0722 5.193854 7381.00 7422.10 86.00
415 17.0985 5.185918 7368.00 7407.17 86.00
416 17.1248 5.178007 7496.00 7392.24 87.00
417 17.1511 5.170121 7455.00 7377.32 86.00
418 17.1774 5.162259 7502.00 7362.40 87.00
419 17.2038 5.154420 7338.00 7349.17 86.00
420 17.2301 5.146606 7291.00 7337.23 85.00
421 17.2564 5.138816 7356.00 7325.30 86.00
422 17.2827 5.131050 7233.00 7313.37 85.00
423 17.3090 5.123307 7343.00 7301.45 86.00
424 17.3354 5.115588 7426.00 7289.52 86.00
425 17.3617 5.107892 7306.00 7277.61 85.00
426 17.3880 5.100220 7334.00 7265.69 86.00
427 17.4143 5.092571 7357.00 7253.78 86.00
428 17.4406 5.084946 7143.00 7241.87 85.00
429 17.4669 5.077343 7190.00 7229.97 85.00
430 17.4933 5.069763 7144.00 7218.07 85.00
431 17.5196 5.062206 7049.00 7206.17 84.00
432 17.5459 5.054673 7196.00 7194.28 85.00
433 17.5722 5.047161 7183.00 7182.39 85.00
434 17.5985 5.039672 7172.00 7170.51 85.00
435 17.6249 5.032206 7121.00 7158.62 84.00
436 17.6512 5.024762 7223.00 7146.74 85.00
437 17.6775 5.017341 7026.00 7134.86 84.00
438 17.7038 5.009940 7134.00 7122.99 84.00
439 17.7301 5.002563 7058.00 7111.12 84.00
440 17.7565 4.995207 7244.00 7099.25 85.00
441 17.7828 4.987874 7116.00 7087.38 84.00
442 17.8091 4.980562 7123.00 7075.52 84.00
443 17.8354 4.973272 6913.00 7063.65 83.00
444 17.8617 4.966003 6933.00 7051.79 83.00
445 17.8880 4.958756 7130.00 7039.94 84.00
446 17.9144 4.951530 7157.00 7028.08 85.00
447 17.9407 4.944325 7026.00 7016.23 84.00
448 17.9670 4.937142 7095.00 7004.38 84.00
449 17.9933 4.929980 6964.00 6992.53 83.00
450 18.0196 4.922839 7050.00 6980.68 84.00
451 18.0460 4.915719 7012.00 6968.83 84.00
452 18.0723 4.908619 6823.00 6956.99 83.00
453 18.0986 4.901541 7103.00 6945.15 84.00
454 18.1249 4.894483 7069.00 6933.31 84.00
455 18.1512 4.887445 7193.00 6922.72 85.00
456 18.1776 4.880428 7041.00 6912.13 84.00
457 18.2039 4.873432 7053.00 6901.54 84.00
458 18.2302 4.866455 7102.00 6890.96 84.00
459 18.2565 4.859499 7069.00 6880.37 84.00
460 18.2828 4.852563 6923.00 6869.79 83.00
461 18.3091 4.845647 6921.00 6859.21 83.00
462 18.3355 4.838751 6843.00 6848.63 83.00
463 18.3618 4.831875 6945.00 6838.05 83.00
464 18.3881 4.825019 6884.00 6827.47 83.00
465 18.4144 4.818182 7015.00 6816.89 84.00
466 18.4407 4.811365 6890.00 6806.31 83.00
467 18.4671 4.804567 6852.00 6795.73 83.00
468 18.4934 4.797789 6812.00 6785.15 83.00
469 18.5197 4.791030 6751.00 6774.58 82.00
470 18.5460 4.784291 6822.00 6764.00 83.00
471 18.5723 4.777570 6891.00 6753.42 83.00
472 18.5986 4.770869 6651.00 6742.85 82.00
473 18.6250 4.764187 6782.00 6732.27 82.00
474 18.6513 4.757524 6614.00 6721.70 81.00
475 18.6776 4.750879 6968.00 6711.12 83.00
476 18.7039 4.744254 6855.00 6700.54 83.00
477 18.7302 4.737647 6687.00 6689.97 82.00
478 18.7566 4.731059 6681.00 6679.39 82.00
479 18.7829 4.724489 6684.00 6668.81 82.00
480 18.8092 4.717937 6646.00 6658.24 82.00
481 18.8355 4.711405 6791.00 6647.66 82.00
482 18.8618 4.704891 6641.00 6637.08 81.00
483 18.8881 4.698394 6527.00 6626.50 81.00
484 18.9145 4.691916 6521.00 6615.92 81.00
485 18.9408 4.685456 6494.00 6605.34 81.00
486 18.9671 4.679014 6623.00 6594.76 81.00
487 18.9934 4.672590 6579.00 6584.18 81.00
488 19.0197 4.666184 6530.00 6573.59 81.00
489 19.0461 4.659795 6558.00 6563.01 81.00
490 19.0724 4.653425 6478.00 6552.58 80.00
491 19.0987 4.647071 6676.00 6543.26 82.00
492 19.1250 4.640737 6657.00 6533.94 82.00
493 19.1513 4.634419 6495.00 6524.62 81.00
494 19.1776 4.628118 6513.00 6515.30 81.00
495 19.2040 4.621835 6482.00 6505.97 81.00
496 19.2303 4.615569 6464.00 6496.65 80.00
497 19.2566 4.609320 6365.00 6487.32 80.00
498 19.2829 4.603089 6469.00 6477.99 80.00
499 19.3092 4.596875 6474.00 6468.67 80.00
500 19.3355 4.590677 6432.00 6459.33 80.00
501 19.3619 4.584496 6609.00 6450.00 81.00
502 19.3882 4.578332 6445.00 6440.67 80.00
503 19.4145 4.572186 6578.00 6431.33 81.00
504 19.4408 4.566056 6446.00 6421.99 80.00
505 19.4671 4.559942 6428.00 6412.65 80.00
506 19.4935 4.553845 6406.00 6403.31 80.00
507 19.5198 4.547765 6478.00 6393.97 80.00
508 19.5461 4.541701 6379.00 6384.62 80.00
509 19.5724 4.535654 6277.00 6375.27 79.00
510 19.5987 4.529623 6512.00 6365.92 81.00
511 19.6250 4.523608 6259.00 6356.57 79.00
512 19.6514 4.517609 6338.00 6347.21 80.00
513 19.6777 4.511627 6222.00 6337.86 79.00
514 19.7040 4.505660 6338.00 6328.50 80.00
515 19.7303 4.499710 6325.00 6319.13 80.00
516 19.7566 4.493774 6418.00 6309.77 80.00
517 19.7829 4.487856 6423.00 6300.40 80.00
518 19.8093 4.481953 6470.00 6291.03 80.00
519 19.8356 4.476066 6478.00 6281.66 80.00
520 19.8619 4.470194 6353.00 6272.28 80.00
521 19.8882 4.464338 6559.00 6262.91 81.00
522 19.9145 4.458498 6357.00 6253.53 80.00
523 19.9408 4.452673 6564.00 6244.14 81.00
524 19.9672 4.446864 6405.00 6234.76 80.00
525 19.9935 4.441070 6355.00 6225.37 80.00
526 20.0198 4.435292 6324.00 6215.97 80.00
527 20.0461 4.429528 6360.00 6206.58 80.00
528 20.0724 4.423780 6212.00 6197.18 79.00
529 20.0988 4.418047 6164.00 6187.78 79.00
530 20.1251 4.412329 6186.00 6178.37 79.00
531 20.1514 4.406626 6180.00 6168.97 79.00
532 20.1777 4.400938 6096.00 6159.56 78.00
533 20.2040 4.395266 6160.00 6150.14 78.00
534 20.2303 4.389607 6207.00 6140.73 79.00
535 20.2567 4.383964 6145.00 6131.30 78.00
536 20.2830 4.378335 6188.00 6121.88 79.00
537 20.3093 4.372720 5999.00 6112.45 77.00
538 20.3356 4.367121 6066.00 6103.02 78.00
539 20.3619 4.361537 6087.00 6093.59 78.00
540 20.3882 4.355966 5933.00 6084.15 77.00
541 20.4146 4.350410 6087.00 6074.71 78.00
542 20.4409 4.344868 6037.00 6065.27 78.00
543 20.4672 4.339341 6047.00 6060.07 78.00
544 20.4935 4.333828 6125.00 6055.26 78.00
545 20.5198 4.328329 5890.00 6050.44 77.00
546 20.5461 4.322845 5941.00 6045.62 77.00
547 20.5725 4.317374 5969.00 6040.80 77.00
548 20.5988 4.311918 6132.00 6035.97 78.00
549 20.6251 4.306476 6022.00 6031.14 78.00
550 20.6514 4.301047 5974.00 6026.30 77.00
551 20.6777 4.295632 6010.00 6021.46 78.00
552 20.7040 4.290232 5930.00 6016.62 77.00
553 20.7304 4.284845 6001.00 6011.77 77.00
554 20.7567 4.279472 6022.00 6006.92 78.00
555 20.7830 4.274113 5899.00 6002.06 77.00
556 20.8093 4.268766 5939.00 5997.21 77.00
557 20.8356 4.263434 5891.00 5992.34 77.00
558 20.8619 4.258115 6005.00 5987.48 77.00
559 20.8883 4.252810 5901.00 5982.61 77.00
560 20.9146 4.247518 6115.00 5977.73 78.00
561 20.9409 4.242240 5950.00 5972.85 77.00
562 20.9672 4.236975 5874.00 5967.97 77.00
563 20.9935 4.231723 6002.00 5963.09 77.00
564 21.0198 4.226485 6000.00 5958.20 77.00
565 21.0462 4.221259 5965.00 5953.30 77.00
566 21.0725 4.216047 5970.00 5948.40 77.00
567 21.0988 4.210847 5973.00 5943.50 77.00
568 21.1251 4.205661 6068.00 5938.59 78.00
569 21.1514 4.200488 5960.00 5933.68 77.00
570 21.1777 4.195328 5926.00 5928.77 77.00
571 21.2041 4.190180 5923.00 5923.85 77.00
572 21.2304 4.185046 5810.00 5918.93 76.00
573 21.2567 4.179924 6028.00 5914.36 78.00
574 21.2830 4.174816 5993.00 5911.47 77.00
575 21.3093 4.169719 5945.00 5908.57 77.00
576 21.3356 4.164636 5975.00 5905.67 77.00
577 21.3619 4.159564 5778.00 5902.77 76.00
578 21.3883 4.154506 5793.00 5899.86 76.00
579 21.4146 4.149460 5960.00 5896.95 77.00
580 21.4409 4.144426 5890.00 5894.04 77.00
581 21.4672 4.139406 5871.00 5891.11 77.00
582 21.4935 4.134397 5905.00 5888.19 77.00
583 21.5198 4.129400 5911.00 5885.26 77.00
584 21.5462 4.124417 5907.00 5882.33 77.00
585 21.5725 4.119444 6015.00 5879.39 78.00
586 21.5988 4.114485 5867.00 5876.45 77.00
587 21.6251 4.109537 5957.00 5873.50 77.00
588 21.6514 4.104602 5847.00 5870.55 76.00
589 21.6777 4.099679 5890.00 5867.60 77.00
590 21.7041 4.094768 5864.00 5864.64 77.00
591 21.7304 4.089868 6014.00 5861.68 78.00
592 21.7567 4.084980 5962.00 5858.71 77.00
593 21.7830 4.080105 6078.00 5855.74 78.00
594 21.8093 4.075242 5859.00 5852.77 77.00
595 21.8356 4.070389 5666.00 5849.79 75.00
596 21.8620 4.065549 5785.00 5846.81 76.00
597 21.8883 4.060721 5851.00 5843.82 76.00
598 21.9146 4.055904 5816.00 5840.83 76.00
599 21.9409 4.051099 5834.00 5837.83 76.00
600 21.9672 4.046305 5664.00 5834.83 75.00
601 21.9935 4.041523 5879.00 5831.83 77.00
602 22.0198 4.036753 5764.00 5826.56 76.00
603 22.0462 4.031994 5628.00 5811.00 75.00
604 22.0725 4.027246 5673.00 5795.43 75.00
605 22.0988 4.022510 5893.00 5779.86 77.00
606 22.1251 4.017785 5720.00 5764.29 76.00
607 22.1514 4.013072 5649.00 5748.71 75.00
608 22.1777 4.008369 5657.00 5733.13 75.00
609 22.2041 4.003678 5829.00 5717.54 76.00
610 22.2304 3.998998 5666.00 5701.95 75.00
611 22.2567 3.994329 5677.00 5686.36 75.00
612 22.2830 3.989672 5825.00 5670.76 76.00
613 22.3093 3.985025 5556.00 5655.16 75.00
614 22.3356 3.980390 5592.00 5639.55 75.00
615 22.3619 3.975765 5737.00 5623.94 76.00
616 22.3883 3.971152 5447.00 5608.33 74.00
617 22.4146 3.966549 5618.00 5592.71 75.00
618 22.4409 3.961957 5567.00 5577.09 75.00
619 22.4672 3.957376 5570.00 5561.46 75.00
620 22.4935 3.952806 5518.00 5545.83 74.00
621 22.5198 3.948246 5528.00 5530.20 74.00
622 22.5462 3.943697 5425.00 5514.56 74.00
623 22.5725 3.939159 5433.00 5498.92 74.00
624 22.5988 3.934632 5498.00 5483.27 74.00
625 22.6251 3.930115 5362.00 5467.63 73.00
626 22.6514 3.925609 5456.00 5451.97 74.00
627 22.6777 3.921113 5454.00 5424.19 74.00
628 22.7040 3.916627 5310.00 5394.45 73.00
629 22.7304 3.912153 5358.00 5364.70 73.00
630 22.7567 3.907689 5322.00 5334.95 73.00
631 22.7830 3.903235 5141.00 5305.19 72.00
632 22.8093 3.898791 5181.00 5275.43 72.00
633 22.8356 3.894358 5294.00 5245.67 73.00
634 22.8619 3.889935 5229.00 5215.91 72.00
635 22.8883 3.885522 5182.00 5186.14 72.00
636 22.9146 3.881119 5162.00 5156.36 72.00
637 22.9409 3.876727 5033.00 5126.58 71.00
638 22.9672 3.872344 5062.00 5096.80 71.00
639 22.9935 3.867972 4978.00 5067.02 71.00
640 23.0198 3.863611 5047.00 5037.23 71.00
641 23.0461 3.859259 4952.00 5007.44 70.00
642 23.0725 3.854916 4980.00 4977.65 71.00
643 23.0988 3.850584 4923.00 4947.85 70.00
644 23.1251 3.846262 4881.00 4918.05 70.00
645 23.1514 3.841950 4830.00 4889.26 69.00
646 23.1777 3.837647 4855.00 4866.04 70.00
647 23.2040 3.833355 4798.00 4842.82 69.00
648 23.2303 3.829072 4715.00 4819.59 69.00
649 23.2567 3.824799 4852.00 4796.37 70.00
650 23.2830 3.820536 4835.00 4773.14 70.00
651 23.3093 3.816282 4739.00 4749.90 69.00
652 23.3356 3.812038 4726.00 4726.66 69.00
653 23.3619 3.807804 4668.00 4703.42 68.00
654 23.3882 3.803579 4704.00 4680.18 69.00
655 23.4145 3.799364 4683.00 4656.93 68.00
656 23.4409 3.795159 4429.00 4633.68 67.00
657 23.4672 3.790962 4601.00 4610.43 68.00
658 23.4935 3.786776 4493.00 4587.17 67.00
659 23.5198 3.782599 4626.00 4563.91 68.00
660 23.5461 3.778431 4558.00 4540.65 68.00
661 23.5724 3.774273 4430.00 4517.39 67.00
662 23.5987 3.770124 4551.00 4497.59 67.00
663 23.6251 3.765984 4384.00 4483.35 66.00
664 23.6514 3.761853 4403.00 4469.09 66.00
665 23.6777 3.757732 4392.00 4454.84 66.00
666 23.7040 3.753621 4362.00 4440.58 66.00
667 23.7303 3.749517 4460.00 4426.32 67.00
668 23.7566 3.745424 4499.00 4412.06 67.00
669 23.7829 3.741339 4330.00 4397.79 66.00
670 23.8093 3.737264 4433.00 4383.53 67.00
671 23.8356 3.733198 4299.00 4369.26 66.00
672 23.8619 3.729140 4436.00 4354.98 67.00
673 23.8882 3.725092 4285.00 4340.71 65.00
674 23.9145 3.721053 4155.00 4326.43 64.00
675 23.9408 3.717023 4193.00 4312.15 65.00
676 23.9671 3.713001 4281.00 4297.87 65.00
677 23.9935 3.708988 4237.00 4283.58 65.00
678 24.0198 3.704985 4264.00 4269.29 65.00
679 24.0461 3.700990 4172.00 4255.01 65.00
680 24.0724 3.697004 4270.00 4240.71 65.00
681 24.0987 3.693027 4215.00 4226.42 65.00
682 24.1250 3.689058 4097.00 4212.12 64.00
683 24.1513 3.685098 4159.00 4197.83 64.00
684 24.1777 3.681147 4124.00 4183.52 64.00
685 24.2040 3.677205 4094.00 4169.22 64.00
686 24.2303 3.673271 4068.00 4154.92 64.00
687 24.2566 3.669346 4112.00 4140.61 64.00
688 24.2829 3.665429 3932.00 4126.30 63.00
689 24.3092 3.661521 3969.00 4111.99 63.00
690 24.3355 3.657622 3947.00 4097.68 63.00
691 24.3619 3.653731 3989.00 4083.37 63.00
692 24.3882 3.649848 4008.00 4069.05 63.00
693 24.4145 3.645973 3905.00 4054.74 62.00
694 24.4408 3.642108 4082.00 4040.42 64.00
695 24.4671 3.638251 4082.00 4026.10 64.00
696 24.4934 3.634402 4016.00 4011.78 63.00
697 24.5197 3.630561 3978.00 3997.45 63.00
698 24.5460 3.626729 3991.00 3983.13 63.00
699 24.5724 3.622905 3971.00 3968.80 63.00
700 24.5987 3.619089 3845.00 3954.47 62.00
701 24.6250 3.615281 3837.00 3940.71 62.00
702 24.6513 3.611481 3853.00 3938.89 62.00
703 24.6776 3.607690 3939.00 3937.07 63.00
704 24.7039 3.603907 3906.00 3935.25 62.00
705 24.7302 3.600132 3841.00 3933.43 62.00
706 24.7566 3.596365 3932.00 3931.60 63.00
707 24.7829 3.592607 3873.00 3929.78 62.00
708 24.8092 3.588856 3898.00 3927.95 62.00
709 24.8355 3.585113 3876.00 3926.13 62.00
710 24.8618 3.581378 3719.00 3924.30 61.00
711 24.8881 3.577651 3886.00 3922.48 62.00
712 24.9144 3.573932 3894.00 3920.65 62.00
713 24.9408 3.570221 3907.00 3918.83 63.00
714 24.9671 3.566518 3922.00 3917.01 63.00
715 24.9934 3.562823 3803.00 3915.19 62.00
716 25.0197 3.559136 3805.00 3913.37 62.00
717 25.0460 3.555456 3849.00 3911.56 62.00
718 25.0723 3.551784 3799.00 3909.75 62.00
719 25.0986 3.548120 3907.00 3907.97 63.00
720 25.1249 3.544464 3859.00 3906.20 62.00
721 25.1513 3.540816 3785.00 3904.46 62.00
722 25.1776 3.537175 3882.00 3902.78 62.00
723 25.2039 3.533541 3776.00 3901.15 61.00
724 25.2302 3.529916 3746.00 3899.63 61.00
725 25.2565 3.526298 4016.00 3898.29 63.00
726 25.2828 3.522688 3890.00 3897.27 62.00
727 25.3091 3.519085 3855.00 3896.72 62.00
728 25.3354 3.515490 3908.00 3896.68 63.00
729 25.3618 3.511902 3659.00 3897.30 60.00
730 25.3881 3.508322 3863.00 3899.03 62.00
731 25.4144 3.504749 3919.00 3901.89 63.00
732 25.4407 3.501184 3897.00 3903.80 62.00
733 25.4670 3.497626 3922.00 3902.37 63.00
734 25.4933 3.494076 3826.00 3898.30 62.00
735 25.5196 3.490533 3822.00 3892.86 62.00
736 25.5459 3.486997 3962.00 3887.32 63.00
737 25.5723 3.483469 3878.00 3882.75 62.00
738 25.5986 3.479948 3886.00 3879.53 62.00
739 25.6249 3.476434 3876.00 3877.40 62.00
740 25.6512 3.472928 3858.00 3875.87 62.00
741 25.6775 3.469429 3886.00 3874.60 62.00
742 25.7038 3.465937 3816.00 3873.40 62.00
743 25.7301 3.462452 3792.00 3872.23 62.00
744 25.7565 3.458974 3939.00 3871.06 63.00
745 25.7828 3.455504 3771.00 3869.89 61.00
746 25.8091 3.452041 3802.00 3868.71 62.00
747 25.8354 3.448585 3913.00 3867.53 63.00
748 25.8617 3.445136 3907.00 3866.35 63.00
749 25.8880 3.441694 3810.00 3865.18 62.00
750 25.9143 3.438258 3820.00 3864.01 62.00
751 25.9406 3.434831 3814.00 3862.84 62.00
752 25.9670 3.431410 3765.00 3861.68 61.00
753 25.9933 3.427996 3767.00 3860.51 61.00
754 26.0196 3.424589 3902.00 3859.35 62.00
755 26.0459 3.421189 3853.00 3858.20 62.00
756 26.0722 3.417796 3767.00 3857.04 61.00
757 26.0985 3.414410 3863.00 3855.89 62.00
758 26.1248 3.411031 3848.00 3853.54 62.00
759 26.1511 3.407659 3784.00 3839.50 62.00
760 26.1775 3.404293 3809.00 3825.46 62.00
761 26.2038 3.400935 3740.00 3811.42 61.00
762 26.2301 3.397583 3852.00 3797.37 62.00
763 26.2564 3.394238 3822.00 3783.34 62.00
764 26.2827 3.390899 3814.00 3769.30 62.00
765 26.3090 3.387568 3975.00 3755.26 63.00
766 26.3353 3.384243 3825.00 3741.22 62.00
767 26.3616 3.380925 3641.00 3727.19 60.00
768 26.3879 3.377613 3813.00 3713.15 62.00
769 26.4143 3.374308 3682.00 3699.12 61.00
770 26.4406 3.371010 3846.00 3685.09 62.00
771 26.4669 3.367718 3803.00 3671.06 62.00
772 26.4932 3.364434 3731.00 3657.03 61.00
773 26.5195 3.361155 3798.00 3643.00 62.00
774 26.5458 3.357883 3774.00 3628.97 61.00
775 26.5721 3.354618 3731.00 3614.94 61.00
776 26.5984 3.351359 3765.00 3600.92 61.00
777 26.6248 3.348107 3855.00 3586.90 62.00
778 26.6511 3.344861 3927.00 3572.87 63.00
779 26.6774 3.341622 4010.00 3558.85 63.00
780 26.7037 3.338389 4084.00 3544.83 64.00
781 26.7300 3.335163 4141.00 3530.81 64.00
782 26.7563 3.331943 4107.00 3516.79 64.00
783 26.7826 3.328729 3774.00 3502.78 61.00
784 26.8089 3.325522 3836.00 3488.76 62.00
785 26.8352 3.322321 3709.00 3474.75 61.00
786 26.8616 3.319126 3637.00 3460.73 60.00
787 26.8879 3.315938 3508.00 3446.72 59.00
788 26.9142 3.312756 3601.00 3432.71 60.00
789 26.9405 3.309581 3451.00 3418.70 59.00
790 26.9668 3.306411 3387.00 3404.70 58.00
791 26.9931 3.303248 3312.00 3390.69 58.00
792 27.0194 3.300091 3309.00 3376.69 58.00
793 27.0457 3.296940 3383.00 3362.68 58.00
794 27.0721 3.293796 3265.00 3348.68 57.00
795 27.0984 3.290657 3488.00 3334.68 59.00
796 27.1247 3.287525 3393.00 3320.69 58.00
797 27.1510 3.284399 3331.00 3306.16 58.00
798 27.1773 3.281279 3325.00 3291.13 58.00
799 27.2036 3.278165 3249.00 3276.10 57.00
800 27.2299 3.275057 3269.00 3261.07 57.00
801 27.2562 3.271955 3236.00 3246.04 57.00
802 27.2825 3.268860 3372.00 3231.02 58.00
803 27.3089 3.265770 3254.00 3216.00 57.00
804 27.3352 3.262686 3268.00 3200.97 57.00
805 27.3615 3.259609 3336.00 3185.95 58.00
806 27.3878 3.256537 3340.00 3170.93 58.00
807 27.4141 3.253471 3288.00 3155.92 57.00
808 27.4404 3.250412 3334.00 3140.90 58.00
809 27.4667 3.247358 3305.00 3125.89 57.00
810 27.4930 3.244309 3344.00 3110.89 58.00
811 27.5193 3.241267 3485.00 3095.88 59.00
812 27.5457 3.238231 3270.00 3080.88 57.00
813 27.5720 3.235201 3381.00 3065.88 58.00
814 27.5983 3.232176 3147.00 3050.87 56.00
815 27.6246 3.229158 3075.00 3035.87 55.00
816 27.6509 3.226145 3032.00 3020.87 55.00
817 27.6772 3.223138 2943.00 3005.88 54.00
818 27.7035 3.220136 2977.00 2990.88 55.00
819 27.7298 3.217141 2906.00 2975.89 54.00
820 27.7561 3.214151 3047.00 2960.90 55.00
821 27.7825 3.211167 2901.00 2945.91 54.00
822 27.8088 3.208189 2996.00 2930.93 55.00
823 27.8351 3.205216 2887.00 2915.94 54.00
824 27.8614 3.202249 2919.00 2900.96 54.00
825 27.8877 3.199287 2968.00 2885.98 54.00
826 27.9140 3.196332 2859.00 2871.00 53.00
827 27.9403 3.193382 2861.00 2856.03 53.00
828 27.9666 3.190437 2874.00 2841.05 54.00
829 27.9929 3.187498 2770.00 2826.08 53.00
830 28.0192 3.184565 2765.00 2811.11 53.00
831 28.0456 3.181637 2760.00 2796.15 53.00
832 28.0719 3.178715 2638.00 2781.18 51.00
833 28.0982 3.175798 2729.00 2766.22 52.00
834 28.1245 3.172887 2761.00 2751.26 53.00
835 28.1508 3.169981 2696.00 2736.30 52.00
836 28.1771 3.167081 2839.00 2721.35 53.00
837 28.2034 3.164186 2670.00 2706.39 52.00
838 28.2297 3.161297 2742.00 2691.44 52.00
839 28.2560 3.158414 2738.00 2676.49 52.00
840 28.2824 3.155535 2592.00 2661.55 51.00
841 28.3087 3.152662 2536.00 2646.60 50.00
842 28.3350 3.149795 2608.00 2631.66 51.00
843 28.3613 3.146933 2663.00 2616.72 52.00
844 28.3876 3.144076 2590.00 2605.02 51.00
845 28.4139 3.141224 2583.00 2590.15 51.00
846 28.4402 3.138378 2660.00 2575.28 52.00
847 28.4665 3.135537 2570.00 2562.03 51.00
848 28.4928 3.132702 2564.00 2547.20 51.00
849 28.5191 3.129871 2620.00 2538.64 51.00
850 28.5455 3.127047 2534.00 2530.10 50.00
851 28.5718 3.124227 2522.00 2521.56 50.00
852 28.5981 3.121413 2495.00 2513.02 50.00
853 28.6244 3.118603 2588.00 2504.49 51.00
854 28.6507 3.115799 2533.00 2495.97 50.00
855 28.6770 3.113000 2554.00 2487.45 51.00
856 28.7033 3.110207 2416.00 2478.94 49.00
857 28.7296 3.107419 2458.00 2470.43 50.00
858 28.7559 3.104635 2521.00 2461.94 50.00
859 28.7822 3.101857 2484.00 2453.44 50.00
860 28.8086 3.099084 2423.00 2444.96 49.00
861 28.8349 3.096316 2374.00 2436.48 49.00
862 28.8612 3.093554 2463.00 2428.01 50.00
863 28.8875 3.090796 2419.00 2419.55 49.00
864 28.9138 3.088043 2521.00 2411.09 50.00
865 28.9401 3.085296 2416.00 2402.64 49.00
866 28.9664 3.082553 2401.00 2394.20 49.00
867 28.9927 3.079816 2518.00 2385.77 50.00
868 29.0190 3.077083 2368.00 2377.35 49.00
869 29.0453 3.074356 2300.00 2368.94 48.00
870 29.0717 3.071633 2425.00 2360.54 49.00
871 29.0980 3.068916 2383.00 2352.14 49.00
872 29.1243 3.066203 2427.00 2343.76 49.00
873 29.1506 3.063496 2355.00 2335.39 49.00
874 29.1769 3.060794 2294.00 2327.02 48.00
875 29.2032 3.058096 2241.00 2318.67 47.00
876 29.2295 3.055403 2306.00 2310.33 48.00
877 29.2558 3.052715 2365.00 2302.01 49.00
878 29.2821 3.050032 2240.00 2293.70 47.00
879 29.3084 3.047354 2287.00 2285.40 48.00
880 29.3347 3.044681 2275.00 2277.11 48.00
881 29.3611 3.042013 2288.00 2268.84 48.00
882 29.3874 3.039349 2258.00 2260.58 48.00
883 29.4137 3.036691 2311.00 2252.34 48.00
884 29.4400 3.034037 2325.00 2244.12 48.00
885 29.4663 3.031388 2187.00 2235.92 47.00
886 29.4926 3.028744 2182.00 2228.45 47.00
887 29.5189 3.026104 2134.00 2223.32 46.00
888 29.5452 3.023469 2192.00 2218.20 47.00
889 29.5715 3.020839 2158.00 2213.11 46.00
890 29.5978 3.018214 2144.00 2208.04 46.00
891 29.6242 3.015593 2220.00 2202.99 47.00
892 29.6505 3.012978 2125.00 2197.97 46.00
893 29.6768 3.010366 2162.00 2192.99 46.00
894 29.7031 3.007760 2292.00 2188.03 48.00
895 29.7294 3.005158 2114.00 2183.10 46.00
896 29.7557 3.002561 2100.00 2178.21 46.00
897 29.7820 2.999968 2104.00 2173.36 46.00
898 29.8083 2.997380 2156.00 2168.55 46.00
899 29.8346 2.994797 2128.00 2163.78 46.00
900 29.8609 2.992218 2159.00 2159.06 46.00
901 29.8872 2.989644 2075.00 2154.39 46.00
902 29.9136 2.987075 2088.00 2149.79 46.00
903 29.9399 2.984510 2042.00 2145.25 45.00
904 29.9662 2.981950 2014.00 2140.79 45.00
905 29.9925 2.979394 2009.00 2136.42 45.00
906 30.0188 2.976843 2052.00 2132.17 45.00
907 30.0451 2.974296 2070.00 2128.06 45.00
908 30.0714 2.971754 2033.00 2124.14 45.00
909 30.0977 2.969216 2055.00 2120.46 45.00
910 30.1240 2.966683 2167.00 2117.08 47.00
911 30.1503 2.964154 2134.00 2114.17 46.00
912 30.1766 2.961630 2109.00 2112.06 46.00
913 30.2029 2.959110 2155.00 2111.32 46.00
914 30.2293 2.956595 2201.00 2112.46 47.00
915 30.2556 2.954084 2102.00 2115.78 46.00
916 30.2819 2.951577 2190.00 2122.02 47.00
917 30.3082 2.949075 2129.00 2132.21 46.00
918 30.3345 2.946577 2174.00 2143.69 47.00
919 30.3608 2.944084 2129.00 2148.13 46.00
920 30.3871 2.941595 2144.00 2142.10 46.00
921 30.4134 2.939110 2091.00 2130.31 46.00
922 30.4397 2.936630 2079.00 2116.35 46.00
923 30.4660 2.934155 2002.00 2101.93 45.00
924 30.4923 2.931683 2005.00 2089.76 45.00
925 30.5186 2.929215 2100.00 2081.82 46.00
926 30.5450 2.926753 2083.00 2077.91 46.00
927 30.5713 2.924294 1990.00 2076.97 45.00
928 30.5976 2.921839 1994.00 2077.89 45.00
929 30.6239 2.919389 2160.00 2080.05 46.00
930 30.6502 2.916944 2074.00 2083.31 46.00
931 30.6765 2.914502 2074.00 2087.72 46.00
932 30.7028 2.912064 1989.00 2093.45 45.00
933 30.7291 2.909631 2027.00 2100.76 45.00
934 30.7554 2.907202 2149.00 2109.99 46.00
935 30.7817 2.904778 2099.00 2121.59 46.00
936 30.8080 2.902357 2093.00 2136.25 46.00
937 30.8343 2.899941 2188.00 2154.95 47.00
938 30.8607 2.897529 2162.00 2179.28 46.00
939 30.8870 2.895121 2131.00 2211.85 46.00
940 30.9133 2.892717 2138.00 2256.72 46.00
941 30.9396 2.890317 2163.00 2320.02 47.00
942 30.9659 2.887922 2259.00 2410.02 48.00
943 30.9922 2.885530 2452.00 2537.36 50.00
944 31.0185 2.883143 2568.00 2717.09 51.00
945 31.0448 2.880760 2832.00 2979.77 53.00
946 31.0711 2.878380 3241.00 3398.44 57.00
947 31.0974 2.876005 3925.00 4109.36 63.00
948 31.1237 2.873635 5002.00 5268.22 71.00
949 31.1500 2.871268 6835.00 6972.46 83.00
950 31.1763 2.868905 9541.00 9357.01 98.00
951 31.2027 2.866546 13267.00 12722.00 115.00
952 31.2290 2.864191 17950.00 16811.70 134.00
953 31.2553 2.861840 20933.00 19695.80 145.00
954 31.2816 2.859493 20624.00 19619.40 144.00
955 31.3079 2.857151 17419.00 17415.60 132.00
956 31.3342 2.854812 13517.00 14401.30 116.00
957 31.3605 2.852477 10107.00 11004.10 101.00
958 31.3868 2.850146 7116.00 7717.65 84.00
959 31.4131 2.847819 4355.00 5146.97 66.00
960 31.4394 2.845496 2972.00 3556.09 55.00
961 31.4657 2.843178 2522.00 2765.84 50.00
962 31.4920 2.840862 2325.00 2428.38 48.00
963 31.5183 2.838551 2175.00 2287.46 47.00
964 31.5447 2.836244 2198.00 2219.10 47.00
965 31.5710 2.833941 1982.00 2174.51 45.00
966 31.5973 2.831641 2028.00 2136.47 45.00
967 31.6236 2.829345 1954.00 2100.09 44.00
968 31.6499 2.827054 1895.00 2065.05 44.00
969 31.6762 2.824766 1870.00 2032.15 43.00
970 31.7025 2.822482 1880.00 2002.08 43.00
971 31.7288 2.820202 1726.00 1975.09 42.00
972 31.7551 2.817925 1868.00 1951.16 43.00
973 31.7814 2.815653 1829.00 1929.79 43.00
974 31.8077 2.813384 1744.00 1910.71 42.00
975 31.8340 2.811119 1845.00 1893.61 43.00
976 31.8603 2.808858 1798.00 1878.08 42.00
977 31.8866 2.806601 1793.00 1864.92 42.00
978 31.9130 2.804347 1697.00 1854.09 41.00
979 31.9393 2.802098 1782.00 1844.24 42.00
980 31.9656 2.799852 1716.00 1835.21 41.00
981 31.9919 2.797609 1685.00 1826.89 41.00
982 32.0182 2.795371 1794.00 1819.18 42.00
983 32.0445 2.793136 1758.00 1812.00 42.00
984 32.0708 2.790905 1756.00 1805.28 42.00
985 32.0971 2.788677 1806.00 1798.96 42.00
986 32.1234 2.786454 1744.00 1793.00 42.00
987 32.1497 2.784234 1816.00 1787.35 43.00
988 32.1760 2.782017 1764.00 1781.98 42.00
989 32.2023 2.779805 1764.00 1776.86 42.00
990 32.2286 2.777596 1746.00 1771.96 42.00
991 32.2549 2.775391 1802.00 1767.25 42.00
992 32.2812 2.773189 1864.00 1762.72 43.00
993 32.3076 2.770991 1948.00 1758.35 44.00
994 32.3339 2.768797 1960.00 1754.12 44.00
995 32.3602 2.766606 2084.00 1750.03 46.00
996 32.3865 2.764419 2055.00 1746.05 45.00
997 32.4128 2.762235 1938.00 1742.18 44.00
998 32.4391 2.760056 1968.00 1738.40 44.00
999 32.4654 2.757879 1955.00 1734.72 44.00
1000 32.4917 2.755706 1953.00 1731.12 44.00
1001 32.5180 2.753537 1881.00 1727.60 43.00
1002 32.5443 2.751371 1857.00 1724.14 43.00
1003 32.5706 2.749209 1858.00 1720.75 43.00
1004 32.5969 2.747051 1870.00 1717.41 43.00
1005 32.6232 2.744896 1852.00 1714.14 43.00
1006 32.6495 2.742744 1840.00 1710.91 43.00
1007 32.6758 2.740596 1797.00 1707.73 42.00
1008 32.7022 2.738451 1758.00 1704.59 42.00
1009 32.7285 2.736310 1713.00 1701.49 41.00
1010 32.7548 2.734173 1765.00 1698.43 42.00
1011 32.7811 2.732039 1782.00 1695.40 42.00
1012 32.8074 2.729909 1820.00 1692.41 43.00
1013 32.8337 2.727782 1790.00 1689.45 42.00
1014 32.8600 2.725658 1828.00 1686.52 43.00
1015 32.8863 2.723538 1712.00 1683.61 41.00
1016 32.9126 2.721421 1638.00 1680.73 40.00
1017 32.9389 2.719308 1708.00 1677.87 41.00
1018 32.9652 2.717198 1656.00 1675.04 41.00
1019 32.9915 2.715091 1705.00 1672.22 41.00
1020 33.0178 2.712988 1712.00 1669.43 41.00
1021 33.0441 2.710889 1673.00 1666.65 41.00
1022 33.0704 2.708792 1584.00 1662.79 40.00
1023 33.0967 2.706700 1708.00 1658.71 41.00
1024 33.1231 2.704610 1699.00 1654.63 41.00
1025 33.1494 2.702524 1657.00 1650.58 41.00
1026 33.1757 2.700441 1602.00 1646.54 40.00
1027 33.2020 2.698362 1593.00 1642.50 40.00
1028 33.2283 2.696286 1582.00 1638.48 40.00
1029 33.2546 2.694213 1679.00 1634.48 41.00
1030 33.2809 2.692143 1577.00 1630.49 40.00
1031 33.3072 2.690077 1629.00 1626.51 40.00
1032 33.3335 2.688015 1592.00 1622.54 40.00
1033 33.3598 2.685955 1632.00 1618.59 40.00
1034 33.3861 2.683899 1620.00 1614.64 40.00
1035 33.4124 2.681846 1625.00 1610.71 40.00
1036 33.4387 2.679797 1640.00 1606.78 40.00
1037 33.4650 2.677751 1564.00 1602.87 40.00
1038 33.4913 2.675707 1569.00 1598.96 40.00
1039 33.5176 2.673667 1610.00 1595.06 40.00
1040 33.5439 2.671631 1492.00 1591.17 39.00
1041 33.5702 2.669598 1582.00 1587.30 40.00
1042 33.5965 2.667567 1529.00 1583.43 39.00
1043 33.6229 2.665541 1492.00 1579.57 39.00
1044 33.6492 2.663517 1521.00 1575.71 39.00
1045 33.6755 2.661497 1582.00 1571.87 40.00
1046 33.7018 2.659479 1496.00 1568.04 39.00
1047 33.7281 2.657466 1565.00 1564.22 40.00
1048 33.7544 2.655455 1594.00 1560.40 40.00
1049 33.7807 2.653447 1538.00 1556.60 39.00
1050 33.8070 2.651442 1519.00 1552.81 39.00
1051 33.8333 2.649441 1556.00 1549.03 39.00
1052 33.8596 2.647443 1488.00 1545.27 39.00
1053 33.8859 2.645448 1544.00 1541.51 39.00
1054 33.9122 2.643456 1500.00 1537.78 39.00
1055 33.9385 2.641468 1515.00 1534.06 39.00
1056 33.9648 2.639482 1524.00 1530.36 39.00
1057 33.9911 2.637499 1496.00 1526.68 39.00
1058 34.0174 2.635520 1553.00 1523.02 39.00
1059 34.0437 2.633544 1417.00 1519.39 38.00
1060 34.0700 2.631571 1503.00 1522.48 39.00
1061 34.0964 2.629601 1521.00 1519.04 39.00
1062 34.1227 2.627634 1471.00 1512.44 38.00
1063 34.1490 2.625670 1460.00 1509.16 38.00
1064 34.1753 2.623710 1468.00 1509.29 38.00
1065 34.2016 2.621752 1497.00 1504.62 39.00
1066 34.2279 2.619797 1473.00 1501.69 38.00
1067 34.2542 2.617845 1417.00 1498.90 38.00
1068 34.2805 2.615897 1528.00 1496.32 39.00
1069 34.3068 2.613951 1448.00 1496.08 38.00
1070 34.3331 2.612009 1519.00 1496.46 39.00
1071 34.3594 2.610069 1484.00 1497.46 39.00
1072 34.3857 2.608133 1436.00 1499.34 38.00
1073 34.4120 2.606200 1475.00 1502.41 38.00
1074 34.4383 2.604269 1469.00 1507.37 38.00
1075 34.4646 2.602342 1491.00 1515.83 39.00
1076 34.4909 2.600417 1534.00 1531.06 39.00
1077 34.5172 2.598496 1638.00 1557.50 40.00
1078 34.5435 2.596577 1587.00 1598.69 40.00
1079 34.5698 2.594662 1755.00 1657.69 42.00
1080 34.5961 2.592749 1771.00 1740.63 42.00
1081 34.6224 2.590839 1870.00 1846.53 43.00
1082 34.6487 2.588933 2034.00 1937.47 45.00
1083 34.6750 2.587029 2082.00 1957.53 46.00
1084 34.7014 2.585128 1938.00 1910.59 44.00
1085 34.7277 2.583231 1912.00 1840.19 44.00
1086 34.7540 2.581336 1910.00 1763.27 44.00
1087 34.7803 2.579444 1874.00 1679.72 43.00
1088 34.8066 2.577554 1709.00 1600.71 41.00
1089 34.8329 2.575668 1613.00 1540.47 40.00
1090 34.8592 2.573785 1658.00 1503.73 41.00
1091 34.8855 2.571904 1477.00 1485.02 38.00
1092 34.9118 2.570027 1517.00 1476.17 39.00
1093 34.9381 2.568152 1458.00 1471.63 38.00
1094 34.9644 2.566281 1430.00 1468.76 38.00
1095 34.9907 2.564412 1406.00 1466.50 37.00
1096 35.0170 2.562546 1447.00 1464.49 38.00
1097 35.0433 2.560683 1364.00 1462.59 37.00
1098 35.0696 2.558822 1416.00 1460.79 38.00
1099 35.0959 2.556965 1410.00 1459.09 38.00
1100 35.1222 2.555110 1503.00 1457.50 39.00
1101 35.1485 2.553258 1385.00 1456.02 37.00
1102 35.1748 2.551409 1412.00 1454.65 38.00
1103 35.2011 2.549563 1401.00 1453.37 37.00
1104 35.2274 2.547719 1445.00 1452.18 38.00
1105 35.2537 2.545879 1311.00 1451.08 36.00
1106 35.2800 2.544041 1474.00 1450.05 38.00
1107 35.3063 2.542206 1310.00 1449.09 36.00
1108 35.3326 2.540374 1429.00 1448.20 38.00
1109 35.3590 2.538544 1438.00 1447.38 38.00
1110 35.3853 2.536717 1357.00 1446.48 37.00
1111 35.4116 2.534894 1381.00 1445.53 37.00
1112 35.4379 2.533072 1449.00 1444.64 38.00
1113 35.4642 2.531254 1432.00 1443.81 38.00
1114 35.4905 2.529438 1379.00 1443.06 37.00
1115 35.5168 2.527625 1440.00 1442.37 38.00
1116 35.5431 2.525815 1402.00 1441.76 37.00
1117 35.5694 2.524007 1376.00 1441.23 37.00
1118 35.5957 2.522202 1409.00 1440.82 38.00
1119 35.6220 2.520401 1391.00 1440.45 37.00
1120 35.6483 2.518601 1398.00 1440.18 37.00
1121 35.6746 2.516804 1480.00 1440.02 38.00
1122 35.7009 2.515010 1424.00 1439.96 38.00
1123 35.7272 2.513219 1419.00 1440.00 38.00
1124 35.7535 2.511431 1535.00 1440.17 39.00
1125 35.7798 2.509645 1573.00 1440.46 40.00
1126 35.8061 2.507861 1554.00 1440.90 39.00
1127 35.8324 2.506081 1574.00 1441.50 40.00
1128 35.8587 2.504303 1539.00 1442.25 39.00
1129 35.8850 2.502527 1459.00 1443.20 38.00
1130 35.9113 2.500755 1558.00 1444.34 39.00
1131 35.9376 2.498985 1499.00 1445.69 39.00
1132 35.9639 2.497217 1529.00 1447.29 39.00
1133 35.9902 2.495453 1619.00 1449.15 40.00
1134 36.0165 2.493691 1547.00 1451.29 39.00
1135 36.0428 2.491931 1544.00 1453.76 39.00
1136 36.0691 2.490174 1525.00 1456.58 39.00
1137 36.0954 2.488420 1536.00 1459.80 39.00
1138 36.1217 2.486669 1650.00 1463.45 41.00
1139 36.1480 2.484920 1631.00 1467.60 40.00
1140 36.1744 2.483173 1654.00 1472.30 41.00
1141 36.2007 2.481429 1570.00 1477.61 40.00
1142 36.2270 2.479688 1560.00 1483.63 39.00
1143 36.2533 2.477949 1598.00 1490.44 40.00
1144 36.2796 2.476213 1665.00 1498.17 41.00
1145 36.3059 2.474479 1617.00 1506.92 40.00
1146 36.3322 2.472748 1602.00 1516.87 40.00
1147 36.3585 2.471020 1623.00 1528.20 40.00
1148 36.3848 2.469294 1486.00 1541.12 39.00
1149 36.4111 2.467571 1544.00 1555.91 39.00
1150 36.4374 2.465850 1654.00 1572.90 41.00
1151 36.4637 2.464131 1589.00 1592.49 40.00
1152 36.4900 2.462415 1513.00 1615.19 39.00
1153 36.5163 2.460702 1650.00 1641.65 41.00
1154 36.5426 2.458992 1642.00 1672.75 41.00
1155 36.5689 2.457283 1693.00 1709.68 41.00
1156 36.5952 2.455577 1791.00 1754.24 42.00
1157 36.6215 2.453874 1658.00 1809.13 41.00
1158 36.6478 2.452174 1683.00 1878.61 41.00
1159 36.6741 2.450475 1890.00 1969.12 43.00
1160 36.7004 2.448779 2043.00 2090.14 45.00
1161 36.7267 2.447086 2206.00 2254.45 47.00
1162 36.7530 2.445395 2588.00 2478.68 51.00
1163 36.7793 2.443707 2809.00 2786.82 53.00
1164 36.8056 2.442021 3332.00 3227.42 58.00
1165 36.8319 2.440337 4354.00 3917.41 66.00
1166 36.8582 2.438656 5616.00 5094.64 75.00
1167 36.8845 2.436978 7633.00 7090.97 87.00
1168 36.9108 2.435302 11385.00 10195.60 107.00
1169 36.9371 2.433628 16329.00 14643.50 128.00
1170 36.9634 2.431957 22115.00 20818.80 149.00
1171 36.9897 2.430288 27715.00 28659.10 166.00
1172 37.0160 2.428621 32563.00 35673.70 180.00
1173 37.0423 2.426957 35877.00 37762.90 189.00
1174 37.0686 2.425296 36274.00 34723.50 190.00
1175 37.0949 2.423637 31459.00 29836.60 177.00
1176 37.1212 2.421980 23876.00 24824.60 155.00
1177 37.1475 2.420325 18859.00 19311.70 137.00
1178 37.1738 2.418673 14897.00 13580.00 122.00
1179 37.2001 2.417024 10164.00 8707.05 101.00
1180 37.2264 2.415376 6012.00 5415.08 78.00
1181 37.2527 2.413732 3827.00 3614.05 62.00
1182 37.2790 2.412089 2833.00 2762.13 53.00
1183 37.3053 2.410449 2495.00 2373.79 50.00
1184 37.3316 2.408811 2140.00 2179.13 46.00
1185 37.3579 2.407176 1954.00 2060.35 44.00
1186 37.3843 2.405543 1851.00 1971.15 43.00
1187 37.4106 2.403912 1662.00 1894.78 41.00
1188 37.4369 2.402283 1713.00 1826.13 41.00
1189 37.4632 2.400657 1639.00 1764.23 40.00
1190 37.4895 2.399034 1545.00 1709.03 39.00
1191 37.5158 2.397412 1517.00 1660.44 39.00
1192 37.5421 2.395793 1469.00 1617.98 38.00
1193 37.5684 2.394176 1487.00 1580.91 39.00
1194 37.5947 2.392561 1486.00 1548.65 39.00
1195 37.6210 2.390949 1487.00 1520.39 39.00
1196 37.6473 2.389340 1476.00 1495.45 38.00
1197 37.6736 2.387732 1514.00 1473.39 39.00
1198 37.6999 2.386127 1426.00 1453.73 38.00
1199 37.7262 2.384523 1394.00 1436.09 37.00
1200 37.7525 2.382923 1431.00 1420.19 38.00
1201 37.7788 2.381324 1501.00 1405.78 39.00
1202 37.8051 2.379728 1490.00 1392.66 39.00
1203 37.8314 2.378134 1431.00 1380.65 38.00
1204 37.8577 2.376542 1491.00 1369.62 39.00
1205 37.8840 2.374953 1435.00 1359.44 38.00
1206 37.9103 2.373366 1567.00 1350.01 40.00
1207 37.9366 2.371781 1490.00 1341.25 39.00
1208 37.9629 2.370198 1496.00 1333.09 39.00
1209 37.9892 2.368618 1405.00 1325.46 37.00
1210 38.0155 2.367039 1438.00 1318.31 38.00
1211 38.0418 2.365463 1457.00 1311.59 38.00
1212 38.0681 2.363890 1372.00 1305.26 37.00
1213 38.0944 2.362318 1313.00 1299.30 36.00
1214 38.1207 2.360749 1378.00 1293.67 37.00
1215 38.1470 2.359182 1323.00 1288.37 36.00
1216 38.1733 2.357617 1314.00 1283.39 36.00
1217 38.1996 2.356054 1328.00 1278.73 36.00
1218 38.2259 2.354494 1262.00 1274.41 36.00
1219 38.2522 2.352935 1233.00 1270.48 35.00
1220 38.2785 2.351379 1333.00 1267.00 37.00
1221 38.3048 2.349825 1233.00 1264.06 35.00
1222 38.3311 2.348273 1208.00 1261.85 35.00
1223 38.3574 2.346724 1276.00 1260.84 36.00
1224 38.3837 2.345176 1261.00 1262.08 36.00
1225 38.4100 2.343631 1342.00 1267.20 37.00
1226 38.4363 2.342088 1303.00 1277.84 36.00
1227 38.4626 2.340547 1262.00 1295.22 36.00
1228 38.4889 2.339008 1279.00 1320.98 36.00
1229 38.5152 2.337471 1372.00 1355.92 37.00
1230 38.5415 2.335937 1423.00 1391.56 38.00
1231 38.5678 2.334404 1481.00 1407.30 38.00
1232 38.5941 2.332874 1611.00 1394.59 40.00
1233 38.6204 2.331346 1553.00 1367.67 39.00
1234 38.6467 2.329820 1390.00 1340.16 37.00
1235 38.6730 2.328296 1409.00 1311.76 38.00
1236 38.6993 2.326775 1324.00 1280.42 36.00
1237 38.7256 2.325255 1361.00 1250.26 37.00
1238 38.7519 2.323737 1236.00 1226.51 35.00
1239 38.7782 2.322222 1188.00 1210.84 34.00
1240 38.8045 2.320709 1174.00 1201.43 34.00
1241 38.8308 2.319197 1169.00 1195.53 34.00
1242 38.8571 2.317688 1213.00 1191.26 35.00
1243 38.8834 2.316181 1127.00 1187.67 34.00
1244 38.9097 2.314676 1106.00 1184.37 33.00
1245 38.9360 2.313174 1148.00 1181.22 34.00
1246 38.9623 2.311672 1106.00 1178.14 33.00
1247 38.9886 2.310174 1120.00 1175.14 33.00
1248 39.0149 2.308677 1158.00 1172.19 34.00
1249 39.0412 2.307182 1115.00 1169.30 33.00
1250 39.0675 2.305690 1148.00 1166.47 34.00
1251 39.0938 2.304199 1130.00 1163.71 34.00
1252 39.1201 2.302711 1098.00 1161.56 33.00
1253 39.1464 2.301224 1151.00 1159.45 34.00
1254 39.1727 2.299740 1090.00 1157.38 33.00
1255 39.1990 2.298258 1077.00 1155.34 33.00
1256 39.2253 2.296777 1145.00 1153.33 34.00
1257 39.2516 2.295299 1134.00 1151.35 34.00
1258 39.2779 2.293823 1118.00 1149.39 33.00
1259 39.3042 2.292348 1175.00 1147.45 34.00
1260 39.3305 2.290876 1137.00 1145.53 34.00
1261 39.3568 2.289406 1119.00 1143.63 33.00
1262 39.3831 2.287938 1152.00 1141.75 34.00
1263 39.4094 2.286472 1224.00 1139.88 35.00
1264 39.4357 2.285007 1197.00 1138.03 35.00
1265 39.4620 2.283545 1143.00 1136.19 34.00
1266 39.4883 2.282085 1113.00 1134.36 33.00
1267 39.5146 2.280627 1092.00 1132.55 33.00
1268 39.5409 2.279170 1142.00 1130.75 34.00
1269 39.5672 2.277716 1079.00 1128.95 33.00
1270 39.5935 2.276264 1128.00 1127.17 34.00
1271 39.6198 2.274813 1084.00 1125.39 33.00
1272 39.6461 2.273365 1125.00 1123.63 34.00
1273 39.6724 2.271919 1059.00 1121.87 33.00
1274 39.6987 2.270474 1029.00 1120.12 32.00
1275 39.7250 2.269032 1070.00 1120.01 33.00
1276 39.7513 2.267591 1112.00 1118.31 33.00
1277 39.7776 2.266153 1087.00 1116.61 33.00
1278 39.8039 2.264716 1132.00 1114.92 34.00
1279 39.8302 2.263281 1083.00 1113.23 33.00
1280 39.8565 2.261848 1119.00 1112.37 33.00
1281 39.8828 2.260418 1101.00 1110.72 33.00
1282 39.9091 2.258989 1046.00 1109.07 32.00
1283 39.9354 2.257562 1046.00 1107.42 32.00
1284 39.9617 2.256137 1074.00 1105.78 33.00
1285 39.9880 2.254714 1102.00 1097.53 33.00
1286 40.0143 2.253293 1040.00 1096.02 32.00
1287 40.0406 2.251873 1059.00 1094.51 33.00
1288 40.0669 2.250456 1095.00 1089.68 33.00
1289 40.0932 2.249041 1076.00 1088.23 33.00
1290 40.1195 2.247627 1121.00 1086.79 33.00
1291 40.1458 2.246215 1161.00 1085.35 34.00
1292 40.1721 2.244805 1201.00 1083.90 35.00
1293 40.1984 2.243397 1097.00 1082.46 33.00
1294 40.2247 2.241991 1142.00 1081.02 34.00
1295 40.2509 2.240587 1101.00 1079.59 33.00
1296 40.2772 2.239185 1151.00 1078.15 34.00
1297 40.3035 2.237785 1110.00 1076.72 33.00
1298 40.3298 2.236386 1091.00 1075.28 33.00
1299 40.3561 2.234989 1026.00 1073.85 32.00
1300 40.3824 2.233595 1069.00 1072.42 33.00
1301 40.4087 2.232202 1074.00 1071.00 33.00
1302 40.4350 2.230811 1001.00 1069.66 32.00
1303 40.4613 2.229421 1038.00 1068.50 32.00
1304 40.4876 2.228034 1047.00 1067.35 32.00
1305 40.5139 2.226649 1043.00 1066.19 32.00
1306 40.5402 2.225265 956.00 1065.04 31.00
1307 40.5665 2.223883 1052.00 1063.89 32.00
1308 40.5928 2.222503 1010.00 1062.74 32.00
1309 40.6191 2.221125 972.00 1061.60 31.00
1310 40.6454 2.219748 1030.00 1060.46 32.00
1311 40.6717 2.218374 1025.00 1059.32 32.00
1312 40.6980 2.217001 991.00 1058.19 31.00
1313 40.7243 2.215630 999.00 1057.06 32.00
1314 40.7506 2.214261 982.00 1055.94 31.00
1315 40.7769 2.212894 1037.00 1054.82 32.00
1316 40.8032 2.211528 986.00 1053.71 31.00
1317 40.8295 2.210164 915.00 1052.60 30.00
1318 40.8558 2.208803 939.00 1051.50 31.00
1319 40.8821 2.207443 1005.00 1050.40 32.00
1320 40.9084 2.206084 1056.00 1049.31 32.00
1321 40.9347 2.204728 936.00 1048.22 31.00
1322 40.9610 2.203373 1042.00 1047.15 32.00
1323 40.9873 2.202020 1018.00 1046.08 32.00
1324 41.0136 2.200669 1034.00 1045.01 32.00
1325 41.0399 2.199319 1016.00 1043.96 32.00
1326 41.0662 2.197972 1035.00 1042.92 32.00
1327 41.0925 2.196626 1016.00 1041.88 32.00
1328 41.1188 2.195282 1010.00 1040.86 32.00
1329 41.1451 2.193940 1008.00 1039.84 32.00
1330 41.1714 2.192599 1022.00 1038.84 32.00
1331 41.1977 2.191260 1096.00 1037.85 33.00
1332 41.2240 2.189923 1091.00 1036.88 33.00
1333 41.2503 2.188588 1085.00 1035.92 33.00
1334 41.2766 2.187254 1072.00 1034.97 33.00
1335 41.3029 2.185922 1120.00 1034.04 33.00
1336 41.3292 2.184592 1061.00 1033.13 33.00
1337 41.3555 2.183264 1086.00 1032.23 33.00
1338 41.3818 2.181937 1122.00 1031.36 33.00
1339 41.4081 2.180612 1060.00 1030.51 33.00
1340 41.4344 2.179289 1047.00 1029.68 32.00
1341 41.4607 2.177968 1091.00 1028.88 33.00
1342 41.4869 2.176648 1047.00 1028.11 32.00
1343 41.5132 2.175330 1098.00 1027.36 33.00
1344 41.5395 2.174013 1069.00 1026.62 33.00
1345 41.5658 2.172699 1063.00 1025.94 33.00
1346 41.5921 2.171386 1123.00 1025.30 34.00
1347 41.6184 2.170075 1099.00 1024.70 33.00
1348 41.6447 2.168766 1089.00 1024.13 33.00
1349 41.6710 2.167458 1124.00 1023.63 34.00
1350 41.6973 2.166151 1024.00 1023.19 32.00
1351 41.7236 2.164847 1068.00 1022.80 33.00
1352 41.7499 2.163544 1068.00 1022.47 33.00
1353 41.7762 2.162243 1024.00 1022.22 32.00
1354 41.8025 2.160944 977.00 1022.05 31.00
1355 41.8288 2.159646 1041.00 1021.97 32.00
1356 41.8551 2.158350 1037.00 1021.98 32.00
1357 41.8814 2.157056 1005.00 1022.11 32.00
1358 41.9077 2.155763 955.00 1022.35 31.00
1359 41.9340 2.154472 928.00 1022.74 30.00
1360 41.9603 2.153183 1006.00 1023.27 32.00
1361 41.9866 2.151895 995.00 1023.98 32.00
1362 42.0129 2.150609 1010.00 1024.89 32.00
1363 42.0392 2.149324 996.00 1026.01 32.00
1364 42.0655 2.148042 940.00 1027.39 31.00
1365 42.0918 2.146760 975.00 1028.87 31.00
1366 42.1181 2.145481 960.00 1030.53 31.00
1367 42.1444 2.144203 981.00 1032.58 31.00
1368 42.1707 2.142927 1006.00 1035.08 32.00
1369 42.1970 2.141653 931.00 1038.11 31.00
1370 42.2233 2.140379 1056.00 1041.77 32.00
1371 42.2495 2.139108 1104.00 1046.17 33.00
1372 42.2758 2.137838 1002.00 1051.47 32.00
1373 42.3021 2.136570 1053.00 1057.88 32.00
1374 42.3284 2.135304 1010.00 1065.66 32.00
1375 42.3547 2.134039 1033.00 1075.21 32.00
1376 42.3810 2.132776 1066.00 1087.12 33.00
1377 42.4073 2.131514 1089.00 1102.27 33.00
1378 42.4336 2.130254 1157.00 1121.93 34.00
1379 42.4599 2.128996 1111.00 1147.91 33.00
1380 42.4862 2.127739 1211.00 1182.64 35.00
1381 42.5125 2.126484 1229.00 1229.28 35.00
1382 42.5388 2.125230 1290.00 1292.65 36.00
1383 42.5651 2.123978 1455.00 1382.72 38.00
1384 42.5914 2.122728 1544.00 1523.40 39.00
1385 42.6177 2.121479 1821.00 1764.28 43.00
1386 42.6440 2.120231 2234.00 2181.48 47.00
1387 42.6703 2.118986 2886.00 2854.27 54.00
1388 42.6966 2.117742 4034.00 3845.99 64.00
1389 42.7229 2.116499 5388.00 5218.37 73.00
1390 42.7492 2.115258 7277.00 6975.43 85.00
1391 42.7755 2.114019 8160.00 8753.04 90.00
1392 42.8018 2.112781 8333.00 9692.60 91.00
1393 42.8281 2.111545 7832.00 9356.37 88.00
1394 42.8544 2.110310 7636.00 8302.74 87.00
1395 42.8807 2.109076 7601.00 7251.69 87.00
1396 42.9069 2.107845 6497.00 6321.58 81.00
1397 42.9332 2.106615 5095.00 5249.29 71.00
1398 42.9595 2.105386 3943.00 4034.53 63.00
1399 42.9858 2.104160 3238.00 2918.19 57.00
1400 43.0121 2.102934 2587.00 2100.61 51.00
1401 43.0384 2.101710 1972.00 1610.51 44.00
1402 43.0647 2.100488 1541.00 1356.63 39.00
1403 43.0910 2.099267 1247.00 1231.80 35.00
1404 43.1173 2.098047 1154.00 1167.11 34.00
1405 43.1436 2.096830 1139.00 1128.41 34.00
1406 43.1699 2.095613 1082.00 1100.99 33.00
1407 43.1962 2.094399 1019.00 1078.93 32.00
1408 43.2225 2.093186 979.00 1059.92 31.00
1409 43.2488 2.091974 979.00 1043.11 31.00
1410 43.2751 2.090764 979.00 1028.18 31.00
1411 43.3014 2.089555 982.00 1014.93 31.00
1412 43.3277 2.088348 943.00 1003.21 31.00
1413 43.3540 2.087142 903.00 992.83 30.00
1414 43.3803 2.085938 962.00 983.62 31.00
1415 43.4066 2.084735 981.00 975.40 31.00
1416 43.4329 2.083534 981.00 968.02 31.00
1417 43.4591 2.082335 911.00 961.35 30.00
1418 43.4854 2.081136 874.00 955.29 30.00
1419 43.5117 2.079940 939.00 949.73 31.00
1420 43.5380 2.078745 896.00 944.62 30.00
1421 43.5643 2.077551 947.00 939.88 31.00
1422 43.5906 2.076359 880.00 935.47 30.00
1423 43.6169 2.075168 950.00 931.34 31.00
1424 43.6432 2.073978 960.00 927.46 31.00
1425 43.6695 2.072791 940.00 923.80 31.00
1426 43.6958 2.071604 939.00 920.33 31.00
1427 43.7221 2.070420 923.00 917.02 30.00
1428 43.7484 2.069236 911.00 913.87 30.00
1429 43.7747 2.068054 902.00 910.91 30.00
1430 43.8010 2.066874 864.00 908.07 29.00
1431 43.8273 2.065695 903.00 905.33 30.00
1432 43.8536 2.064517 910.00 902.70 30.00
1433 43.8799 2.063341 831.00 900.15 29.00
1434 43.9062 2.062166 863.00 897.68 29.00
1435 43.9324 2.060993 867.00 895.28 29.00
1436 43.9587 2.059821 823.00 892.96 29.00
1437 43.9850 2.058651 874.00 890.69 30.00
1438 44.0113 2.057482 870.00 888.48 29.00
1439 44.0376 2.056315 872.00 886.32 30.00
1440 44.0639 2.055149 848.00 884.21 29.00
1441 44.0902 2.053984 887.00 882.14 30.00
1442 44.1165 2.052821 846.00 880.11 29.00
1443 44.1428 2.051659 843.00 878.12 29.00
1444 44.1691 2.050499 853.00 876.17 29.00
1445 44.1954 2.049340 807.00 874.25 28.00
1446 44.2217 2.048182 828.00 872.36 29.00
1447 44.2480 2.047026 827.00 870.51 29.00
1448 44.2743 2.045872 836.00 868.67 29.00
1449 44.3006 2.044718 832.00 866.87 29.00
1450 44.3269 2.043566 813.00 865.09 29.00
1451 44.3532 2.042416 830.00 863.34 29.00
1452 44.3794 2.041267 831.00 861.60 29.00
1453 44.4057 2.040119 854.00 859.89 29.00
1454 44.4320 2.038973 792.00 858.21 28.00
1455 44.4583 2.037828 824.00 856.54 29.00
1456 44.4846 2.036685 764.00 854.89 28.00
1457 44.5109 2.035543 870.00 853.26 29.00
1458 44.5372 2.034402 856.00 851.65 29.00
1459 44.5635 2.033263 820.00 850.07 29.00
1460 44.5898 2.032125 794.00 848.49 28.00
1461 44.6161 2.030989 828.00 846.94 29.00
1462 44.6424 2.029853 838.00 845.41 29.00
1463 44.6687 2.028720 835.00 843.90 29.00
1464 44.6950 2.027587 760.00 842.40 28.00
1465 44.7213 2.026456 841.00 840.92 29.00
1466 44.7476 2.025326 809.00 839.47 28.00
1467 44.7739 2.024198 773.00 838.03 28.00
1468 44.8001 2.023072 768.00 836.62 28.00
1469 44.8264 2.021946 870.00 835.22 29.00
1470 44.8527 2.020822 814.00 833.85 29.00
1471 44.8790 2.019699 803.00 832.50 28.00
1472 44.9053 2.018577 863.00 831.18 29.00
1473 44.9316 2.017457 798.00 829.88 28.00
1474 44.9579 2.016339 820.00 828.61 29.00
1475 44.9842 2.015221 812.00 827.36 28.00
1476 45.0105 2.014105 833.00 826.15 29.00
1477 45.0368 2.012990 855.00 824.97 29.00
1478 45.0631 2.011877 822.00 824.02 29.00
1479 45.0894 2.010765 794.00 823.24 28.00
1480 45.1157 2.009654 859.00 822.51 29.00
1481 45.1420 2.008545 791.00 821.82 28.00
1482 45.1683 2.007437 833.00 821.18 29.00
1483 45.1945 2.006330 814.00 820.60 29.00
1484 45.2208 2.005224 847.00 820.08 29.00
1485 45.2471 2.004120 783.00 819.63 28.00
1486 45.2734 2.003018 785.00 819.25 28.00
1487 45.2997 2.001916 846.00 818.96 29.00
1488 45.3260 2.000816 831.00 818.76 29.00
1489 45.3523 1.999717 850.00 818.67 29.00
1490 45.3786 1.998620 763.00 818.70 28.00
1491 45.4049 1.997524 816.00 818.88 29.00
1492 45.4312 1.996429 813.00 819.21 29.00
1493 45.4575 1.995335 835.00 819.74 29.00
1494 45.4838 1.994243 817.00 820.48 29.00
1495 45.5101 1.993152 850.00 821.47 29.00
1496 45.5364 1.992062 844.00 822.77 29.00
1497 45.5626 1.990974 826.00 824.42 29.00
1498 45.5889 1.989887 838.00 826.51 29.00
1499 45.6152 1.988801 840.00 829.14 29.00
1500 45.6415 1.987717 789.00 832.44 28.00
1501 45.6678 1.986633 820.00 836.63 29.00
1502 45.6941 1.985551 846.00 842.00 29.00
1503 45.7204 1.984471 869.00 848.98 29.00
1504 45.7467 1.983392 861.00 858.18 29.00
1505 45.7730 1.982313 843.00 870.40 29.00
1506 45.7993 1.981236 944.00 886.71 31.00
1507 45.8256 1.980161 961.00 908.64 31.00
1508 45.8519 1.979087 1010.00 937.42 32.00
1509 45.8781 1.978014 1022.00 983.17 32.00
1510 45.9044 1.976942 1161.00 1059.33 34.00
1511 45.9307 1.975872 1217.00 1192.77 35.00
1512 45.9570 1.974802 1567.00 1417.99 40.00
1513 45.9833 1.973734 1963.00 1765.83 44.00
1514 46.0096 1.972668 2497.00 2262.88 50.00
1515 46.0359 1.971602 2916.00 2924.32 54.00
1516 46.0622 1.970538 3143.00 3695.76 56.00
1517 46.0885 1.969475 3495.00 4331.79 59.00
1518 46.1148 1.968414 4018.00 4504.80 63.00
1519 46.1411 1.967353 4345.00 4207.95 66.00
1520 46.1674 1.966294 4076.00 3740.15 64.00
1521 46.1936 1.965236 3411.00 3345.20 58.00
1522 46.2199 1.964180 2799.00 3008.87 53.00
1523 46.2462 1.963124 2581.00 2599.39 51.00
1524 46.2725 1.962070 2374.00 2113.47 49.00
1525 46.2988 1.961017 1929.00 1650.94 44.00
1526 46.3251 1.959965 1470.00 1298.59 38.00
1527 46.3514 1.958915 1180.00 1077.39 34.00
1528 46.3777 1.957866 1052.00 957.04 32.00
1529 46.4040 1.956818 880.00 895.64 30.00
1530 46.4303 1.955771 892.00 863.25 30.00
1531 46.4566 1.954725 832.00 843.98 29.00
1532 46.4829 1.953681 844.00 830.62 29.00
1533 46.5092 1.952638 795.00 820.12 28.00
1534 46.5354 1.951596 797.00 811.23 28.00
1535 46.5617 1.950555 803.00 803.45 28.00
1536 46.5880 1.949516 732.00 796.53 27.00
1537 46.6143 1.948477 842.00 790.38 29.00
1538 46.6406 1.947440 762.00 784.88 28.00
1539 46.6669 1.946404 808.00 779.97 28.00
1540 46.6932 1.945370 785.00 775.57 28.00
1541 46.7195 1.944336 800.00 771.59 28.00
1542 46.7458 1.943304 770.00 767.98 28.00
1543 46.7721 1.942273 793.00 764.68 28.00
1544 46.7984 1.941243 812.00 761.65 28.00
1545 46.8246 1.940214 803.00 758.84 28.00
1546 46.8509 1.939187 870.00 756.22 29.00
1547 46.8772 1.938161 823.00 753.77 29.00
1548 46.9035 1.937136 795.00 751.46 28.00
1549 46.9298 1.936112 780.00 749.28 28.00
1550 46.9561 1.935089 804.00 747.21 28.00
1551 46.9824 1.934067 844.00 745.23 29.00
1552 47.0087 1.933047 783.00 743.34 28.00
1553 47.0350 1.932028 750.00 741.52 27.00
1554 47.0613 1.931010 792.00 739.77 28.00
1555 47.0876 1.929993 792.00 738.08 28.00
1556 47.1138 1.928977 749.00 736.44 27.00
1557 47.1401 1.927963 758.00 734.86 28.00
1558 47.1664 1.926950 719.00 733.31 27.00
1559 47.1927 1.925938 732.00 731.80 27.00
1560 47.2190 1.924927 722.00 730.33 27.00
1561 47.2453 1.923917 740.00 728.89 27.00
1562 47.2716 1.922908 743.00 727.48 27.00
1563 47.2979 1.921900 770.00 726.10 28.00
1564 47.3242 1.920894 735.00 724.77 27.00
1565 47.3505 1.919889 736.00 723.50 27.00
1566 47.3768 1.918885 745.00 722.26 27.00
1567 47.4030 1.917882 711.00 721.03 27.00
1568 47.4293 1.916880 713.00 719.83 27.00
1569 47.4556 1.915880 761.00 718.64 28.00
1570 47.4819 1.914880 712.00 717.46 27.00
1571 47.5082 1.913882 737.00 716.30 27.00
1572 47.5345 1.912885 748.00 715.15 27.00
1573 47.5608 1.911889 758.00 714.02 28.00
1574 47.5871 1.910894 772.00 712.89 28.00
1575 47.6134 1.909900 728.00 711.78 27.00
1576 47.6397 1.908908 702.00 710.67 26.00
1577 47.6659 1.907916 736.00 709.58 27.00
1578 47.6922 1.906926 698.00 708.50 26.00
1579 47.7185 1.905937 735.00 707.42 27.00
1580 47.7448 1.904949 709.00 706.35 27.00
1581 47.7711 1.903962 738.00 705.29 27.00
1582 47.7974 1.902976 728.00 704.23 27.00
1583 47.8237 1.901991 792.00 703.19 28.00
1584 47.8500 1.901008 746.00 702.15 27.00
1585 47.8763 1.900025 793.00 701.11 28.00
1586 47.9025 1.899044 740.00 700.08 27.00
1587 47.9288 1.898063 731.00 699.06 27.00
1588 47.9551 1.897084 739.00 698.04 27.00
1589 47.9814 1.896106 729.00 697.03 27.00
1590 48.0077 1.895129 708.00 696.02 27.00
1591 48.0340 1.894154 771.00 695.01 28.00
1592 48.0603 1.893179 701.00 694.01 26.00
1593 48.0866 1.892205 696.00 693.01 26.00
1594 48.1129 1.891233 758.00 692.02 28.00
1595 48.1392 1.890261 744.00 691.03 27.00
1596 48.1654 1.889291 700.00 690.05 26.00
1597 48.1917 1.888322 663.00 689.07 26.00
1598 48.2180 1.887354 732.00 688.09 27.00
1599 48.2443 1.886387 687.00 687.11 26.00
1600 48.2706 1.885421 702.00 686.14 26.00
1601 48.2969 1.884456 719.00 685.17 27.00
1602 48.3232 1.883492 704.00 684.21 27.00
1603 48.3495 1.882530 727.00 683.24 27.00
1604 48.3758 1.881568 693.00 682.28 26.00
1605 48.4020 1.880608 688.00 681.32 26.00
1606 48.4283 1.879648 713.00 680.37 27.00
1607 48.4546 1.878690 720.00 679.41 27.00
1608 48.4809 1.877733 694.00 678.46 26.00
1609 48.5072 1.876776 683.00 677.51 26.00
1610 48.5335 1.875821 677.00 676.68 26.00
1611 48.5598 1.874867 685.00 676.37 26.00
1612 48.5861 1.873914 710.00 676.07 27.00
1613 48.6124 1.872962 654.00 675.77 26.00
1614 48.6386 1.872012 664.00 675.47 26.00
1615 48.6649 1.871062 684.00 675.17 26.00
1616 48.6912 1.870113 676.00 674.88 26.00
1617 48.7175 1.869165 664.00 674.58 26.00
1618 48.7438 1.868219 706.00 674.29 27.00
1619 48.7701 1.867273 689.00 674.00 26.00
1620 48.7964 1.866329 652.00 673.71 26.00
1621 48.8227 1.865386 718.00 673.42 27.00
1622 48.8490 1.864443 681.00 673.14 26.00
1623 48.8752 1.863502 671.00 672.85 26.00
1624 48.9015 1.862561 721.00 672.57 27.00
1625 48.9278 1.861622 647.00 672.58 25.00
1626 48.9541 1.860684 681.00 672.31 26.00
1627 48.9804 1.859747 641.00 672.03 25.00
1628 49.0067 1.858811 669.00 671.76 26.00
1629 49.0330 1.857876 677.00 671.49 26.00
1630 49.0593 1.856942 656.00 671.36 26.00
1631 49.0856 1.856009 632.00 671.10 25.00
1632 49.1118 1.855077 675.00 670.83 26.00
1633 49.1381 1.854146 663.00 670.57 26.00
1634 49.1644 1.853216 720.00 670.31 27.00
1635 49.1907 1.852287 670.00 670.04 26.00
1636 49.2170 1.851359 676.00 669.78 26.00
1637 49.2433 1.850433 701.00 668.83 26.00
1638 49.2696 1.849507 709.00 668.58 27.00
1639 49.2959 1.848582 705.00 668.33 27.00
1640 49.3221 1.847659 731.00 668.09 27.00
1641 49.3484 1.846736 651.00 667.85 26.00
1642 49.3747 1.845814 724.00 667.26 27.00
1643 49.4010 1.844893 714.00 667.02 27.00
1644 49.4273 1.843974 647.00 666.78 25.00
1645 49.4536 1.843055 660.00 666.55 26.00
1646 49.4799 1.842138 694.00 666.32 26.00
1647 49.5062 1.841221 694.00 666.08 26.00
1648 49.5325 1.840305 693.00 665.85 26.00
1649 49.5587 1.839391 680.00 665.62 26.00
1650 49.5850 1.838477 683.00 665.39 26.00
1651 49.6113 1.837565 681.00 665.16 26.00
1652 49.6376 1.836653 663.00 664.93 26.00
1653 49.6639 1.835743 675.00 664.70 26.00
1654 49.6902 1.834833 687.00 664.47 26.00
1655 49.7165 1.833925 647.00 664.24 25.00
1656 49.7428 1.833017 722.00 664.02 27.00
1657 49.7690 1.832110 668.00 663.79 26.00
1658 49.7953 1.831205 635.00 663.56 25.00
1659 49.8216 1.830300 658.00 663.34 26.00
1660 49.8479 1.829397 671.00 663.11 26.00
1661 49.8742 1.828494 614.00 662.89 25.00
1662 49.9005 1.827592 642.00 662.67 25.00
1663 49.9268 1.826692 671.00 662.45 26.00
1664 49.9530 1.825792 707.00 662.23 27.00
1665 49.9793 1.824893 702.00 663.78 26.00
1666 50.0056 1.823996 681.00 663.59 26.00
1667 50.0319 1.823099 727.00 663.40 27.00
1668 50.0582 1.822203 690.00 663.21 26.00
1669 50.0845 1.821308 680.00 663.02 26.00
1670 50.1108 1.820415 645.00 662.84 25.00
1671 50.1371 1.819522 686.00 664.98 26.00
1672 50.1633 1.818630 640.00 665.50 25.00
1673 50.1896 1.817739 669.00 665.37 26.00
1674 50.2159 1.816849 633.00 665.25 25.00
1675 50.2422 1.815960 670.00 664.95 26.00
1676 50.2685 1.815073 638.00 664.62 25.00
1677 50.2948 1.814186 640.00 664.30 25.00
1678 50.3211 1.813299 661.00 663.98 26.00
1679 50.3474 1.812414 658.00 663.67 26.00
1680 50.3736 1.811530 663.00 663.36 26.00
1681 50.3999 1.810647 659.00 663.05 26.00
1682 50.4262 1.809765 621.00 662.75 25.00
1683 50.4525 1.808884 706.00 662.46 27.00
1684 50.4788 1.808003 651.00 662.16 26.00
1685 50.5051 1.807124 656.00 661.88 26.00
1686 50.5314 1.806246 701.00 661.60 26.00
1687 50.5576 1.805368 597.00 661.32 24.00
1688 50.5839 1.804492 617.00 661.05 25.00
1689 50.6102 1.803616 683.00 660.78 26.00
1690 50.6365 1.802742 628.00 660.53 25.00
1691 50.6628 1.801868 666.00 660.27 26.00
1692 50.6891 1.800995 602.00 660.03 25.00
1693 50.7154 1.800124 658.00 659.79 26.00
1694 50.7416 1.799253 624.00 659.56 25.00
1695 50.7679 1.798383 669.00 659.34 26.00
1696 50.7942 1.797514 641.00 659.12 25.00
1697 50.8205 1.796646 614.00 658.91 25.00
1698 50.8468 1.795779 606.00 658.72 25.00
1699 50.8731 1.794912 618.00 658.53 25.00
1700 50.8994 1.794047 709.00 658.35 27.00
1701 50.9257 1.793183 678.00 658.19 26.00
1702 50.9519 1.792320 680.00 658.04 26.00
1703 50.9782 1.791457 707.00 657.90 27.00
1704 51.0045 1.790596 651.00 657.77 26.00
1705 51.0308 1.789735 670.00 657.66 26.00
1706 51.0571 1.788876 722.00 657.56 27.00
1707 51.0834 1.788017 656.00 657.47 26.00
1708 51.1097 1.787159 662.00 657.41 26.00
1709 51.1359 1.786302 640.00 657.37 25.00
1710 51.1622 1.785446 652.00 657.34 26.00
1711 51.1885 1.784591 629.00 657.34 25.00
1712 51.2148 1.783737 687.00 657.36 26.00
1713 51.2411 1.782884 713.00 657.40 27.00
1714 51.2674 1.782031 676.00 657.48 26.00
1715 51.2937 1.781180 649.00 657.62 25.00
1716 51.3199 1.780329 616.00 659.98 25.00
1717 51.3462 1.779480 656.00 662.38 26.00
1718 51.3725 1.778631 625.00 664.81 25.00
1719 51.3988 1.777783 683.00 667.29 26.00
1720 51.4251 1.776936 662.00 669.82 26.00
1721 51.4514 1.776090 681.00 672.40 26.00
1722 51.4777 1.775245 691.00 675.04 26.00
1723 51.5039 1.774401 662.00 677.75 26.00
1724 51.5302 1.773558 683.00 680.53 26.00
1725 51.5565 1.772715 689.00 683.40 26.00
1726 51.5828 1.771874 689.00 686.37 26.00
1727 51.6091 1.771033 691.00 689.45 26.00
1728 51.6354 1.770193 718.00 693.27 27.00
1729 51.6617 1.769354 696.00 696.64 26.00
1730 51.6879 1.768516 700.00 700.18 26.00
1731 51.7142 1.767680 667.00 703.93 26.00
1732 51.7405 1.766843 666.00 707.94 26.00
1733 51.7668 1.766008 710.00 712.26 27.00
1734 51.7931 1.765174 672.00 717.28 26.00
1735 51.8194 1.764340 710.00 722.51 27.00
1736 51.8456 1.763507 729.00 728.40 27.00
1737 51.8719 1.762675 726.00 735.17 27.00
1738 51.8982 1.761845 695.00 743.09 26.00
1739 51.9245 1.761015 711.00 752.52 27.00
1740 51.9508 1.760185 749.00 764.04 27.00
1741 51.9771 1.759357 764.00 778.84 28.00
1742 52.0034 1.758530 758.00 799.63 28.00
1743 52.0296 1.757703 831.00 832.27 29.00
1744 52.0559 1.756878 839.00 886.91 29.00
1745 52.0822 1.756053 853.00 977.21 29.00
1746 52.1085 1.755229 899.00 1116.83 30.00
1747 52.1348 1.754406 1168.00 1316.40 34.00
1748 52.1611 1.753584 1509.00 1580.21 39.00
1749 52.1873 1.752762 2153.00 1891.43 46.00
1750 52.2136 1.751942 2771.00 2177.80 53.00
1751 52.2399 1.751122 3586.00 2318.30 60.00
1752 52.2662 1.750304 4056.00 2261.80 64.00
1753 52.2925 1.749486 3912.00 2087.61 63.00
1754 52.3188 1.748669 2450.00 1911.27 49.00
1755 52.3451 1.747853 2116.00 1790.62 46.00
1756 52.3713 1.747037 2217.00 1694.48 47.00
1757 52.3976 1.746223 2385.00 1563.07 49.00
1758 52.4239 1.745409 2381.00 1389.27 49.00
1759 52.4502 1.744596 1637.00 1209.47 40.00
1760 52.4765 1.743784 1112.00 1060.81 33.00
1761 52.5028 1.742973 950.00 959.88 31.00
1762 52.5290 1.742163 824.00 902.13 29.00
1763 52.5553 1.741354 825.00 873.77 29.00
1764 52.5816 1.740545 756.00 862.02 27.00
1765 52.6079 1.739738 734.00 858.80 27.00
1766 52.6342 1.738931 684.00 859.97 26.00
1767 52.6605 1.738125 781.00 863.68 28.00
1768 52.6867 1.737319 745.00 869.18 27.00
1769 52.7130 1.736515 742.00 876.21 27.00
1770 52.7393 1.735712 722.00 884.74 27.00
1771 52.7656 1.734909 801.00 893.23 28.00
1772 52.7919 1.734107 684.00 901.98 26.00
1773 52.8182 1.733306 739.00 912.72 27.00
1774 52.8444 1.732506 774.00 925.81 28.00
1775 52.8707 1.731707 831.00 941.72 29.00
1776 52.8970 1.730908 884.00 961.12 30.00
1777 52.9233 1.730111 860.00 984.95 29.00
1778 52.9496 1.729314 863.00 1014.49 29.00
1779 52.9759 1.728518 977.00 1051.51 31.00
1780 53.0022 1.727722 966.00 1098.34 31.00
1781 53.0284 1.726928 1086.00 1158.09 33.00
1782 53.0547 1.726135 1169.00 1235.46 34.00
1783 53.0810 1.725342 1279.00 1339.25 36.00
1784 53.1073 1.724550 1380.00 1488.95 37.00
1785 53.1336 1.723759 1559.00 1726.57 39.00
1786 53.1599 1.722969 1759.00 2130.26 42.00
1787 53.1861 1.722179 2129.00 2816.86 46.00
1788 53.2124 1.721390 2961.00 3924.78 54.00
1789 53.2387 1.720603 4323.00 5582.42 66.00
1790 53.2650 1.719816 6718.00 7873.55 82.00
1791 53.2913 1.719029 10883.00 10745.20 104.00
1792 53.3175 1.718244 15991.00 13789.60 126.00
1793 53.3438 1.717460 19787.00 16117.00 141.00
1794 53.3701 1.716676 19479.00 16877.20 140.00
1795 53.3964 1.715893 14849.00 16009.40 122.00
1796 53.4227 1.715111 11177.00 14290.80 106.00
1797 53.4490 1.714329 11441.00 12634.90 107.00
1798 53.4752 1.713549 12875.00 11372.10 113.00
1799 53.5015 1.712769 12457.00 10201.50 112.00
1800 53.5278 1.711990 9670.00 8735.40 98.00
1801 53.5541 1.711212 5989.00 6945.94 77.00
1802 53.5804 1.710434 4023.00 5132.34 63.00
1803 53.6067 1.709658 3324.00 3612.49 58.00
1804 53.6329 1.708882 2579.00 2533.17 51.00
1805 53.6592 1.708107 2048.00 1863.28 45.00
1806 53.6855 1.707333 1723.00 1484.39 42.00
1807 53.7118 1.706559 1431.00 1276.85 38.00
1808 53.7381 1.705787 1245.00 1158.47 35.00
1809 53.7644 1.705015 1228.00 1083.76 35.00
1810 53.7906 1.704244 1100.00 1030.73 33.00
1811 53.8169 1.703474 974.00 989.38 31.00
1812 53.8432 1.702704 943.00 955.19 31.00
1813 53.8695 1.701936 990.00 926.04 31.00
1814 53.8958 1.701168 892.00 900.80 30.00
1815 53.9221 1.700401 894.00 878.80 30.00
1816 53.9483 1.699635 801.00 859.53 28.00
1817 53.9746 1.698869 764.00 842.61 28.00
1818 54.0009 1.698104 751.00 827.70 27.00
1819 54.0272 1.697340 753.00 814.51 27.00
1820 54.0535 1.696577 737.00 802.80 27.00
1821 54.0797 1.695814 756.00 792.36 27.00
1822 54.1060 1.695053 703.00 783.02 27.00
1823 54.1323 1.694292 706.00 774.63 27.00
1824 54.1586 1.693532 685.00 767.07 26.00
1825 54.1849 1.692773 645.00 760.24 25.00
1826 54.2112 1.692014 645.00 754.07 25.00
1827 54.2374 1.691256 724.00 748.49 27.00
1828 54.2637 1.690499 645.00 743.44 25.00
1829 54.2900 1.689743 666.00 738.89 26.00
1830 54.3163 1.688988 696.00 734.80 26.00
1831 54.3426 1.688233 727.00 731.15 27.00
1832 54.3688 1.687479 699.00 727.92 26.00
1833 54.3951 1.686726 748.00 725.10 27.00
1834 54.4214 1.685973 732.00 722.38 27.00
1835 54.4477 1.685222 760.00 719.95 28.00
1836 54.4740 1.684471 763.00 717.97 28.00
1837 54.5003 1.683720 732.00 716.48 27.00
1838 54.5265 1.682971 705.00 715.51 27.00
1839 54.5528 1.682222 739.00 715.15 27.00
1840 54.5791 1.681475 751.00 715.49 27.00
1841 54.6054 1.680727 731.00 716.70 27.00
1842 54.6317 1.679981 760.00 718.96 28.00
1843 54.6579 1.679236 709.00 722.56 27.00
1844 54.6842 1.678491 766.00 727.89 28.00
1845 54.7105 1.677747 735.00 735.43 27.00
1846 54.7368 1.677003 686.00 745.87 26.00
1847 54.7631 1.676260 731.00 760.33 27.00
1848 54.7893 1.675519 792.00 781.18 28.00
1849 54.8156 1.674778 844.00 813.85 29.00
1850 54.8419 1.674037 838.00 869.70 29.00
1851 54.8682 1.673297 883.00 968.50 30.00
1852 54.8945 1.672559 997.00 1137.17 32.00
1853 54.9207 1.671820 1192.00 1403.97 35.00
1854 54.9470 1.671083 1600.00 1791.35 40.00
1855 54.9733 1.670346 2209.00 2308.15 47.00
1856 54.9996 1.669610 3076.00 2925.70 55.00
1857 55.0259 1.668875 3941.00 3521.16 63.00
1858 55.0522 1.668141 4399.00 3867.78 66.00
1859 55.0784 1.667407 4289.00 3822.00 65.00
1860 55.1047 1.666674 3783.00 3490.77 62.00
1861 55.1310 1.665942 3078.00 3100.55 55.00
1862 55.1573 1.665210 2765.00 2811.79 53.00
1863 55.1836 1.664479 2657.00 2625.92 52.00
1864 55.2098 1.663749 2560.00 2420.75 51.00
1865 55.2361 1.663020 2398.00 2114.85 49.00
1866 55.2624 1.662291 1857.00 1742.43 43.00
1867 55.2887 1.661563 1302.00 1383.89 36.00
1868 55.3150 1.660836 954.00 1099.93 31.00
1869 55.3412 1.660110 778.00 908.76 28.00
1870 55.3675 1.659384 741.00 794.76 27.00
1871 55.3938 1.658659 661.00 731.05 26.00
1872 55.4201 1.657935 675.00 695.10 26.00
1873 55.4464 1.657211 634.00 673.08 25.00
1874 55.4726 1.656488 615.00 657.85 25.00
1875 55.4989 1.655766 595.00 646.09 24.00
1876 55.5252 1.655045 620.00 636.31 25.00
1877 55.5515 1.654324 611.00 627.52 25.00
1878 55.5778 1.653604 618.00 619.97 25.00
1879 55.6040 1.652885 568.00 613.17 24.00
1880 55.6303 1.652166 625.00 606.98 25.00
1881 55.6566 1.651448 550.00 601.31 23.00
1882 55.6829 1.650731 597.00 596.09 24.00
1883 55.7092 1.650015 565.00 591.11 24.00
1884 55.7354 1.649299 589.00 586.61 24.00
1885 55.7617 1.648584 581.00 582.38 24.00
1886 55.7880 1.647870 631.00 578.39 25.00
1887 55.8143 1.647156 602.00 574.61 25.00
1888 55.8406 1.646443 603.00 571.01 25.00
1889 55.8668 1.645731 622.00 567.56 25.00
1890 55.8931 1.645020 591.00 564.24 24.00
1891 55.9194 1.644309 560.00 561.05 24.00
1892 55.9457 1.643599 650.00 557.95 25.00
1893 55.9720 1.642889 602.00 554.95 25.00
1894 55.9982 1.642181 589.00 552.03 24.00
1895 56.0245 1.641473 603.00 549.18 25.00
1896 56.0508 1.640766 591.00 546.39 24.00
1897 56.0771 1.640059 540.00 543.66 23.00
1898 56.1034 1.639353 595.00 540.99 24.00
1899 56.1296 1.638648 562.00 538.36 24.00
1900 56.1559 1.637943 575.00 535.78 24.00
1901 56.1822 1.637240 554.00 533.23 24.00
1902 56.2085 1.636536 529.00 530.72 23.00
1903 56.2348 1.635834 516.00 528.24 23.00
1904 56.2610 1.635132 577.00 525.79 24.00
1905 56.2873 1.634431 527.00 523.37 23.00
1906 56.3136 1.633731 543.00 521.77 23.00
1907 56.3399 1.633031 490.00 520.33 22.00
1908 56.3662 1.632332 527.00 518.91 23.00
1909 56.3924 1.631634 524.00 517.51 23.00
1910 56.4187 1.630936 509.00 516.13 23.00
1911 56.4450 1.630239 543.00 514.77 23.00
1912 56.4713 1.629543 487.00 513.42 22.00
1913 56.4976 1.628848 493.00 512.09 22.00
1914 56.5238 1.628153 520.00 510.77 23.00
1915 56.5501 1.627459 511.00 509.46 23.00
1916 56.5764 1.626765 509.00 508.17 23.00
1917 56.6027 1.626072 482.00 506.89 22.00
1918 56.6289 1.625380 490.00 505.62 22.00
1919 56.6552 1.624689 568.00 504.36 24.00
1920 56.6815 1.623998 538.00 503.11 23.00
1921 56.7078 1.623307 546.00 500.12 23.00
1922 56.7341 1.622618 534.00 497.59 23.00
1923 56.7603 1.621929 528.00 496.41 23.00
1924 56.7866 1.621241 525.00 495.25 23.00
1925 56.8129 1.620554 586.00 494.10 24.00
1926 56.8392 1.619867 542.00 492.07 23.00
1927 56.8655 1.619181 524.00 490.95 23.00
1928 56.8917 1.618495 510.00 489.19 23.00
1929 56.9180 1.617811 537.00 488.10 23.00
1930 56.9443 1.617126 570.00 487.03 24.00
1931 56.9706 1.616443 546.00 485.98 23.00
1932 56.9968 1.615760 484.00 484.95 22.00
1933 57.0231 1.615078 500.00 483.96 22.00
1934 57.0494 1.614396 493.00 483.02 22.00
1935 57.0757 1.613716 552.00 482.17 23.00
1936 57.1020 1.613036 549.00 481.50 23.00
1937 57.1282 1.612356 473.00 481.16 22.00
1938 57.1545 1.611677 462.00 481.35 21.00
1939 57.1808 1.610999 507.00 482.27 23.00
1940 57.2071 1.610321 474.00 484.08 22.00
1941 57.2334 1.609645 471.00 486.84 22.00
1942 57.2596 1.608968 515.00 490.30 23.00
1943 57.2859 1.608293 468.00 493.60 22.00
1944 57.3122 1.607618 470.00 495.15 22.00
1945 57.3385 1.606943 523.00 493.89 23.00
1946 57.3647 1.606270 491.00 490.47 22.00
1947 57.3910 1.605597 472.00 486.48 22.00
1948 57.4173 1.604925 463.00 483.15 22.00
1949 57.4436 1.604253 485.00 480.72 22.00
1950 57.4699 1.603582 473.00 478.43 22.00
1951 57.4961 1.602911 481.00 475.46 22.00
1952 57.5224 1.602242 462.00 471.83 21.00
1953 57.5487 1.601573 493.00 468.05 22.00
1954 57.5750 1.600904 461.00 464.63 21.00
1955 57.6012 1.600237 443.00 461.85 21.00
1956 57.6275 1.599569 460.00 459.69 21.00
1957 57.6538 1.598903 420.00 457.99 20.00
1958 57.6801 1.598237 444.00 456.57 21.00
1959 57.7063 1.597572 426.00 455.29 21.00
1960 57.7326 1.596907 462.00 454.08 21.00
1961 57.7589 1.596243 451.00 452.92 21.00
1962 57.7852 1.595580 459.00 451.78 21.00
1963 57.8115 1.594917 448.00 450.64 21.00
1964 57.8377 1.594255 433.00 449.52 21.00
1965 57.8640 1.593594 448.00 448.41 21.00
1966 57.8903 1.592933 482.00 447.30 22.00
1967 57.9166 1.592273 449.00 446.19 21.00
1968 57.9428 1.591613 436.00 445.09 21.00
1969 57.9691 1.590954 511.00 443.99 23.00
1970 57.9954 1.590296 500.00 442.90 22.00
1971 58.0217 1.589638 495.00 441.81 22.00
1972 58.0480 1.588982 487.00 440.72 22.00
1973 58.0742 1.588325 459.00 439.64 21.00
1974 58.1005 1.587669 444.00 438.55 21.00
1975 58.1268 1.587014 455.00 437.47 21.00
1976 58.1531 1.586360 437.00 436.39 21.00
1977 58.1793 1.585706 474.00 435.86 22.00
1978 58.2056 1.585053 449.00 435.49 21.00
1979 58.2319 1.584400 479.00 435.12 22.00
1980 58.2582 1.583748 442.00 434.75 21.00
1981 58.2844 1.583097 471.00 434.39 22.00
1982 58.3107 1.582446 435.00 434.02 21.00
1983 58.3370 1.581796 449.00 433.65 21.00
1984 58.3633 1.581146 435.00 433.29 21.00
1985 58.3895 1.580497 463.00 432.92 22.00
1986 58.4158 1.579849 438.00 432.56 21.00
1987 58.4421 1.579201 442.00 432.20 21.00
1988 58.4684 1.578554 449.00 431.23 21.00
1989 58.4947 1.577908 413.00 430.88 20.00
1990 58.5209 1.577262 476.00 430.53 22.00
1991 58.5472 1.576617 449.00 430.18 21.00
1992 58.5735 1.575972 449.00 429.83 21.00
1993 58.5998 1.575328 495.00 429.48 22.00
1994 58.6260 1.574685 419.00 428.83 20.00
1995 58.6523 1.574042 442.00 428.49 21.00
1996 58.6786 1.573400 445.00 428.14 21.00
1997 58.7049 1.572758 453.00 427.80 21.00
1998 58.7311 1.572117 445.00 427.46 21.00
1999 58.7574 1.571477 439.00 427.12 21.00
2000 58.7837 1.570837 453.00 426.78 21.00
2001 58.8100 1.570198 416.00 426.44 20.00
2002 58.8362 1.569559 423.00 426.10 21.00
2003 58.8625 1.568921 428.00 425.76 21.00
2004 58.8888 1.568284 430.00 425.42 21.00
2005 58.9151 1.567647 427.00 425.08 21.00
2006 58.9413 1.567011 392.00 424.74 20.00
2007 58.9676 1.566375 379.00 424.40 19.00
2008 58.9939 1.565741 433.00 424.07 21.00
2009 59.0202 1.565106 456.00 423.73 21.00
2010 59.0465 1.564472 434.00 423.39 21.00
2011 59.0727 1.563839 413.00 423.06 20.00
2012 59.0990 1.563207 419.00 422.72 20.00
2013 59.1253 1.562575 432.00 422.39 21.00
2014 59.1516 1.561943 462.00 422.05 21.00
2015 59.1778 1.561313 403.00 421.72 20.00
2016 59.2041 1.560682 403.00 421.39 20.00
2017 59.2304 1.560053 425.00 421.06 21.00
2018 59.2567 1.559424 419.00 420.73 20.00
2019 59.2829 1.558795 476.00 420.40 22.00
2020 59.3092 1.558168 412.00 420.07 20.00
2021 59.3355 1.557540 410.00 419.74 20.00
2022 59.3618 1.556914 436.00 419.41 21.00
2023 59.3880 1.556288 436.00 419.09 21.00
2024 59.4143 1.555662 378.00 418.98 19.00
2025 59.4406 1.555037 423.00 418.66 21.00
2026 59.4669 1.554413 428.00 418.34 21.00
2027 59.4931 1.553789 421.00 418.02 21.00
2028 59.5194 1.553166 446.00 417.71 21.00
2029 59.5457 1.552543 443.00 417.39 21.00
2030 59.5720 1.551921 411.00 417.19 20.00
2031 59.5982 1.551300 432.00 416.89 21.00
2032 59.6245 1.550679 469.00 416.59 22.00
2033 59.6508 1.550059 443.00 416.30 21.00
2034 59.6771 1.549439 470.00 416.01 22.00
2035 59.7033 1.548820 410.00 415.74 20.00
2036 59.7296 1.548202 427.00 415.48 21.00
2037 59.7559 1.547584 393.00 415.27 20.00
2038 59.7822 1.546966 383.00 415.13 20.00
2039 59.8084 1.546350 382.00 415.11 20.00
2040 59.8347 1.545733 414.00 415.29 20.00
2041 59.8610 1.545118 411.00 415.71 20.00
2042 59.8873 1.544503 391.00 416.43 20.00
2043 59.9135 1.543888 468.00 417.42 22.00
2044 59.9398 1.543274 417.00 418.58 20.00
2045 59.9661 1.542661 408.00 419.55 20.00
2046 59.9924 1.542048 434.00 419.86 21.00
2047 60.0186 1.541436 394.00 419.31 20.00
2048 60.0449 1.540824 411.00 418.19 20.00
2049 60.0712 1.540213 424.00 416.98 21.00
2050 60.0975 1.539603 410.00 416.01 20.00
2051 60.1237 1.538993 433.00 415.33 21.00
2052 60.1500 1.538383 415.00 414.70 20.00
2053 60.1763 1.537775 402.00 413.87 20.00
2054 60.2025 1.537166 399.00 412.81 20.00
2055 60.2288 1.536559 422.00 411.67 21.00
2056 60.2551 1.535951 407.00 410.61 20.00
2057 60.2814 1.535345 413.00 409.72 20.00
2058 60.3076 1.534739 426.00 409.04 21.00
2059 60.3339 1.534134 401.00 408.45 20.00
2060 60.3602 1.533529 437.00 407.84 21.00
2061 60.3865 1.532924 404.00 407.29 20.00
2062 60.4127 1.532320 417.00 406.78 20.00
2063 60.4390 1.531717 422.00 406.27 21.00
2064 60.4653 1.531114 406.00 405.78 20.00
2065 60.4916 1.530512 422.00 405.30 21.00
2066 60.5178 1.529911 411.00 404.82 20.00
2067 60.5441 1.529310 378.00 404.34 19.00
2068 60.5704 1.528709 398.00 403.86 20.00
2069 60.5967 1.528110 428.00 403.39 21.00
2070 60.6229 1.527510 427.00 402.92 21.00
2071 60.6492 1.526911 391.00 402.45 20.00
2072 60.6755 1.526313 410.00 401.98 20.00
2073 60.7018 1.525715 408.00 401.52 20.00
2074 60.7280 1.525118 451.00 401.05 21.00
2075 60.7543 1.524522 402.00 400.59 20.00
2076 60.7806 1.523926 368.00 400.13 19.00
2077 60.8068 1.523330 399.00 399.67 20.00
2078 60.8331 1.522735 425.00 399.22 21.00
2079 60.8594 1.522141 453.00 398.76 21.00
2080 60.8857 1.521547 451.00 398.31 21.00
2081 60.9119 1.520954 409.00 397.86 20.00
2082 60.9382 1.520361 414.00 397.41 20.00
2083 60.9645 1.519769 397.00 396.96 20.00
2084 60.9908 1.519177 373.00 396.52 19.00
2085 61.0170 1.518586 382.00 396.07 20.00
2086 61.0433 1.517995 423.00 395.63 21.00
2087 61.0696 1.517405 429.00 395.19 21.00
2088 61.0958 1.516816 402.00 394.75 20.00
2089 61.1221 1.516227 397.00 394.32 20.00
2090 61.1484 1.515638 391.00 393.88 20.00
2091 61.1747 1.515050 388.00 393.45 20.00
2092 61.2009 1.514463 390.00 393.02 20.00
2093 61.2272 1.513876 408.00 392.59 20.00
2094 61.2535 1.513290 408.00 392.16 20.00
2095 61.2798 1.512704 367.00 391.74 19.00
2096 61.3060 1.512119 383.00 391.32 20.00
2097 61.3323 1.511534 402.00 390.90 20.00
2098 61.3586 1.510950 347.00 390.48 19.00
2099 61.3848 1.510366 413.00 390.08 20.00
2100 61.4111 1.509783 387.00 389.67 20.00
2101 61.4374 1.509200 388.00 389.26 20.00
2102 61.4637 1.508618 396.00 388.85 20.00
2103 61.4899 1.508037 429.00 388.45 21.00
2104 61.5162 1.507456 377.00 388.05 19.00
2105 61.5425 1.506875 375.00 387.65 19.00
2106 61.5688 1.506295 360.00 387.26 19.00
2107 61.5950 1.505716 371.00 386.87 19.00
2108 61.6213 1.505137 406.00 386.49 20.00
2109 61.6476 1.504559 382.00 386.11 20.00
2110 61.6738 1.503981 382.00 385.73 20.00
2111 61.7001 1.503404 346.00 385.36 19.00
2112 61.7264 1.502827 358.00 384.99 19.00
2113 61.7527 1.502250 417.00 384.63 20.00
2114 61.7789 1.501675 407.00 384.27 20.00
2115 61.8052 1.501099 399.00 383.92 20.00
2116 61.8315 1.500525 363.00 383.58 19.00
2117 61.8577 1.499951 413.00 383.24 20.00
2118 61.8840 1.499377 372.00 382.91 19.00
2119 61.9103 1.498804 344.00 382.77 19.00
2120 61.9366 1.498231 383.00 382.46 20.00
2121 61.9628 1.497659 370.00 382.16 19.00
2122 61.9891 1.497087 402.00 381.87 20.00
2123 62.0154 1.496516 423.00 381.58 21.00
2124 62.0417 1.495946 372.00 381.32 19.00
2125 62.0679 1.495376 419.00 381.06 20.00
2126 62.0942 1.494806 362.00 380.91 19.00
2127 62.1205 1.494237 391.00 380.69 20.00
2128 62.1467 1.493668 381.00 380.48 20.00
2129 62.1730 1.493101 363.00 380.30 19.00
2130 62.1993 1.492533 370.00 381.07 19.00
2131 62.2256 1.491966 342.00 381.87 18.00
2132 62.2518 1.491400 361.00 382.70 19.00
2133 62.2781 1.490833 396.00 383.57 20.00
2134 62.3044 1.490268 378.00 384.47 19.00
2135 62.3306 1.489703 384.00 385.43 20.00
2136 62.3569 1.489139 371.00 386.46 19.00
2137 62.3832 1.488575 382.00 387.61 20.00
2138 62.4095 1.488011 352.00 388.93 19.00
2139 62.4357 1.487448 373.00 390.52 19.00
2140 62.4620 1.486886 394.00 392.46 20.00
2141 62.4883 1.486324 373.00 394.85 19.00
2142 62.5145 1.485762 375.00 397.72 19.00
2143 62.5408 1.485202 388.00 401.03 20.00
2144 62.5671 1.484641 379.00 404.54 19.00
2145 62.5933 1.484081 364.00 407.74 19.00
2146 62.6196 1.483522 413.00 410.09 20.00
2147 62.6459 1.482963 402.00 411.55 20.00
2148 62.6722 1.482405 374.00 412.67 19.00
2149 62.6984 1.481847 439.00 414.11 21.00
2150 62.7247 1.481289 443.00 416.33 21.00
2151 62.7510 1.480732 392.00 419.46 20.00
2152 62.7772 1.480176 446.00 423.33 21.00
2153 62.8035 1.479620 439.00 427.83 21.00
2154 62.8298 1.479065 455.00 433.98 21.00
2155 62.8561 1.478510 383.00 441.84 20.00
2156 62.8823 1.477955 444.00 454.42 21.00
2157 62.9086 1.477401 459.00 476.02 21.00
2158 62.9349 1.476848 521.00 513.24 23.00
2159 62.9611 1.476295 532.00 574.72 23.00
2160 62.9874 1.475742 609.00 669.53 25.00
2161 63.0137 1.475190 740.00 805.17 27.00
2162 63.0400 1.474639 880.00 982.22 30.00
2163 63.0662 1.474088 1210.00 1190.69 35.00
2164 63.0925 1.473537 1687.00 1396.63 41.00
2165 63.1188 1.472987 1937.00 1539.40 44.00
2166 63.1450 1.472438 2050.00 1566.45 45.00
2167 63.1713 1.471889 1749.00 1485.42 42.00
2168 63.1976 1.471340 1318.00 1353.77 36.00
2169 63.2238 1.470792 1022.00 1231.76 32.00
2170 63.2501 1.470245 1080.00 1152.88 33.00
2171 63.2764 1.469697 1193.00 1111.33 35.00
2172 63.3027 1.469151 1231.00 1070.19 35.00
2173 63.3289 1.468605 1201.00 996.61 35.00
2174 63.3552 1.468059 970.00 889.71 31.00
2175 63.3815 1.467514 699.00 770.13 26.00
2176 63.4077 1.466969 561.00 660.28 24.00
2177 63.4340 1.466425 499.00 574.12 22.00
2178 63.4603 1.465881 437.00 514.97 21.00
2179 63.4865 1.465338 411.00 478.38 20.00
2180 63.5128 1.464795 399.00 457.24 20.00
2181 63.5391 1.464253 402.00 445.27 20.00
2182 63.5653 1.463711 371.00 438.26 19.00
2183 63.5916 1.463170 387.00 433.82 20.00
2184 63.6179 1.462629 369.00 430.76 19.00
2185 63.6442 1.462089 400.00 428.50 20.00
2186 63.6704 1.461549 377.00 426.76 19.00
2187 63.6967 1.461010 391.00 425.40 20.00
2188 63.7230 1.460471 396.00 424.32 20.00
2189 63.7492 1.459932 407.00 423.48 20.00
2190 63.7755 1.459394 370.00 422.82 19.00
2191 63.8018 1.458857 372.00 422.34 19.00
2192 63.8280 1.458320 369.00 421.97 19.00
2193 63.8543 1.457783 414.00 421.72 20.00
2194 63.8806 1.457247 385.00 421.57 20.00
2195 63.9069 1.456711 367.00 421.50 19.00
2196 63.9331 1.456176 374.00 420.91 19.00
2197 63.9594 1.455642 369.00 419.45 19.00
2198 63.9857 1.455107 410.00 418.06 20.00
2199 64.0119 1.454574 396.00 416.70 20.00
2200 64.0382 1.454041 373.00 415.39 19.00
2201 64.0645 1.453508 399.00 414.12 20.00
2202 64.0907 1.452975 367.00 412.88 19.00
2203 64.1170 1.452443 359.00 411.68 19.00
2204 64.1433 1.451912 396.00 410.50 20.00
2205 64.1695 1.451381 381.00 409.35 20.00
2206 64.1958 1.450851 405.00 408.23 20.00
2207 64.2221 1.450321 412.00 407.12 20.00
2208 64.2483 1.449791 370.00 406.04 19.00
2209 64.2746 1.449262 389.00 404.98 20.00
2210 64.3009 1.448733 388.00 403.94 20.00
2211 64.3271 1.448205 383.00 402.92 20.00
2212 64.3534 1.447677 433.00 401.91 21.00
2213 64.3797 1.447150 418.00 400.93 20.00
2214 64.4060 1.446623 370.00 399.95 19.00
2215 64.4322 1.446097 401.00 399.00 20.00
2216 64.4585 1.445571 404.00 398.06 20.00
2217 64.4848 1.445046 384.00 397.14 20.00
2218 64.5110 1.444521 391.00 396.24 20.00
2219 64.5373 1.443997 402.00 395.36 20.00
2220 64.5636 1.443473 372.00 394.49 19.00
2221 64.5898 1.442949 359.00 393.65 19.00
2222 64.6161 1.442426 367.00 392.82 19.00
2223 64.6424 1.441903 384.00 392.02 20.00
2224 64.6686 1.441381 392.00 391.24 20.00
2225 64.6949 1.440859 381.00 390.50 20.00
2226 64.7212 1.440338 390.00 389.78 20.00
2227 64.7474 1.439817 391.00 389.09 20.00
2228 64.7737 1.439297 377.00 388.44 19.00
2229 64.8000 1.438777 395.00 387.84 20.00
2230 64.8262 1.438257 372.00 387.29 19.00
2231 64.8525 1.437738 390.00 386.81 20.00
2232 64.8788 1.437220 404.00 386.41 20.00
2233 64.9051 1.436702 355.00 386.14 19.00
2234 64.9313 1.436184 359.00 386.11 19.00
2235 64.9576 1.435667 384.00 386.47 20.00
2236 64.9839 1.435150 400.00 387.50 20.00
2237 65.0101 1.434634 383.00 389.58 20.00
2238 65.0364 1.434118 435.00 393.08 21.00
2239 65.0627 1.433602 471.00 398.35 22.00
2240 65.0889 1.433087 443.00 405.91 21.00
2241 65.1152 1.432573 454.00 415.39 21.00
2242 65.1415 1.432059 448.00 425.22 21.00
2243 65.1677 1.431545 436.00 433.05 21.00
2244 65.1940 1.431032 433.00 436.46 21.00
2245 65.2203 1.430519 491.00 435.09 22.00
2246 65.2465 1.430007 470.00 430.98 22.00
2247 65.2728 1.429495 439.00 426.80 21.00
2248 65.2991 1.428984 457.00 424.44 21.00
2249 65.3253 1.428473 445.00 424.37 21.00
2250 65.3516 1.427962 507.00 425.56 23.00
2251 65.3779 1.427452 446.00 426.44 21.00
2252 65.4041 1.426942 471.00 426.44 22.00
2253 65.4304 1.426433 501.00 426.42 22.00
2254 65.4567 1.425924 520.00 428.14 23.00
2255 65.4829 1.425416 500.00 434.07 22.00
2256 65.5092 1.424908 542.00 447.72 23.00
2257 65.5355 1.424400 564.00 474.16 24.00
2258 65.5617 1.423893 616.00 520.05 25.00
2259 65.5880 1.423387 718.00 592.87 27.00
2260 65.6143 1.422881 828.00 699.17 29.00
2261 65.6405 1.422375 1050.00 841.74 32.00
2262 65.6668 1.421869 1305.00 1015.13 36.00
2263 65.6931 1.421365 1358.00 1198.24 37.00
2264 65.7193 1.420860 1285.00 1348.33 36.00
2265 65.7456 1.420356 1198.00 1414.55 35.00
2266 65.7719 1.419853 1137.00 1380.56 34.00
2267 65.7981 1.419349 1201.00 1279.88 35.00
2268 65.8244 1.418847 1159.00 1164.52 34.00
2269 65.8507 1.418344 1218.00 1074.87 35.00
2270 65.8769 1.417843 1177.00 1024.95 34.00
2271 65.9032 1.417341 1038.00 998.60 32.00
2272 65.9295 1.416840 943.00 962.64 31.00
2273 65.9557 1.416340 809.00 895.91 28.00
2274 65.9820 1.415840 776.00 803.18 28.00
2275 66.0083 1.415340 687.00 702.57 26.00
2276 66.0345 1.414841 677.00 611.64 26.00
2277 66.0608 1.414342 627.00 540.95 25.00
2278 66.0871 1.413843 560.00 492.78 24.00
2279 66.1133 1.413345 526.00 463.57 23.00
2280 66.1396 1.412848 493.00 447.73 22.00
2281 66.1659 1.412351 469.00 440.23 22.00
2282 66.1921 1.411854 462.00 437.65 21.00
2283 66.2184 1.411358 455.00 438.08 21.00
2284 66.2447 1.410862 464.00 440.61 22.00
2285 66.2709 1.410366 514.00 444.92 23.00
2286 66.2972 1.409872 524.00 450.97 23.00
2287 66.3235 1.409377 542.00 458.95 23.00
2288 66.3497 1.408883 512.00 469.26 23.00
2289 66.3760 1.408389 554.00 482.65 24.00
2290 66.4023 1.407896 555.00 500.76 24.00
2291 66.4285 1.407403 615.00 527.13 25.00
2292 66.4548 1.406910 614.00 568.78 25.00
2293 66.4811 1.406418 774.00 638.24 28.00
2294 66.5073 1.405926 775.00 754.88 28.00
2295 66.5336 1.405435 891.00 944.22 30.00
2296 66.5599 1.404944 1229.00 1234.09 35.00
2297 66.5861 1.404454 1765.00 1647.70 42.00
2298 66.6124 1.403964 2447.00 2192.61 49.00
2299 66.6386 1.403474 3372.00 2842.65 58.00
2300 66.6649 1.402985 4060.00 3512.12 64.00
2301 66.6912 1.402496 4363.00 4046.38 66.00
2302 66.7174 1.402008 4225.00 4293.89 65.00
2303 66.7437 1.401520 4434.00 4225.05 67.00
2304 66.7700 1.401033 4624.00 3933.08 68.00
2305 66.7962 1.400546 4692.00 3558.70 68.00
2306 66.8225 1.400059 3808.00 3229.84 62.00
2307 66.8488 1.399573 3198.00 3005.36 57.00
2308 66.8750 1.399087 2814.00 2850.75 53.00
2309 66.9013 1.398601 2487.00 2677.51 50.00
2310 66.9276 1.398116 2451.00 2426.59 50.00
2311 66.9538 1.397632 2373.00 2099.08 49.00
2312 66.9801 1.397147 2271.00 1732.52 48.00
2313 67.0064 1.396664 1619.00 1378.03 40.00
2314 67.0326 1.396180 1019.00 1076.95 32.00
2315 67.0589 1.395697 783.00 848.23 28.00
2316 67.0852 1.395215 635.00 689.52 25.00
2317 67.1114 1.394733 565.00 586.86 24.00
2318 67.1377 1.394251 445.00 523.24 21.00
2319 67.1639 1.393770 445.00 484.16 21.00
2320 67.1902 1.393289 436.00 459.37 21.00
2321 67.2165 1.392808 451.00 442.60 21.00
2322 67.2427 1.392328 399.00 430.36 20.00
2323 67.2690 1.391848 441.00 420.85 21.00
2324 67.2953 1.391369 376.00 413.12 19.00
2325 67.3215 1.390890 362.00 406.68 19.00
2326 67.3478 1.390411 379.00 401.24 19.00
2327 67.3741 1.389933 367.00 396.89 19.00
2328 67.4003 1.389456 372.00 393.27 19.00
2329 67.4266 1.388978 398.00 390.36 20.00
2330 67.4529 1.388501 360.00 388.24 19.00
2331 67.4791 1.388025 348.00 387.19 19.00
2332 67.5054 1.387549 384.00 387.69 20.00
2333 67.5316 1.387073 404.00 390.50 20.00
2334 67.5579 1.386598 388.00 396.54 20.00
2335 67.5842 1.386123 413.00 406.71 20.00
2336 67.6104 1.385648 449.00 421.57 21.00
2337 67.6367 1.385174 439.00 440.88 21.00
2338 67.6630 1.384700 398.00 462.87 20.00
2339 67.6892 1.384227 465.00 483.36 22.00
2340 67.7155 1.383754 420.00 496.04 20.00
2341 67.7418 1.383282 427.00 496.39 21.00
2342 67.7680 1.382810 403.00 485.83 20.00
2343 67.7943 1.382338 441.00 470.16 21.00
2344 67.8205 1.381867 437.00 455.38 21.00
2345 67.8468 1.381395 404.00 445.12 20.00
2346 67.8731 1.380925 420.00 439.65 20.00
2347 67.8993 1.380455 412.00 435.93 20.00
2348 67.9256 1.379985 362.00 429.93 19.00
2349 67.9519 1.379516 396.00 419.89 20.00
2350 67.9781 1.379047 369.00 406.98 19.00
2351 68.0044 1.378578 360.00 393.50 19.00
2352 68.0307 1.378110 376.00 381.47 19.00
2353 68.0569 1.377642 381.00 372.03 20.00
2354 68.0832 1.377175 359.00 365.34 19.00
2355 68.1095 1.376708 353.00 360.93 19.00
2356 68.1357 1.376241 356.00 358.12 19.00
2357 68.1620 1.375775 342.00 356.29 18.00
2358 68.1882 1.375309 298.00 355.02 17.00
2359 68.2145 1.374843 344.00 354.06 19.00
2360 68.2408 1.374379 347.00 353.27 19.00
2361 68.2670 1.373914 306.00 352.60 17.00
2362 68.2933 1.373449 334.00 352.00 18.00
2363 68.3196 1.372985 324.00 351.46 18.00
2364 68.3458 1.372522 350.00 350.96 19.00
2365 68.3721 1.372059 326.00 350.51 18.00
2366 68.3983 1.371596 315.00 350.08 18.00
2367 68.4246 1.371134 331.00 349.68 18.00
2368 68.4509 1.370672 356.00 349.31 19.00
2369 68.4771 1.370210 303.00 348.96 17.00
2370 68.5034 1.369749 350.00 348.63 19.00
2371 68.5297 1.369288 318.00 348.32 18.00
2372 68.5559 1.368828 306.00 348.02 17.00
2373 68.5822 1.368368 346.00 347.73 19.00
2374 68.6085 1.367908 325.00 347.46 18.00
2375 68.6347 1.367449 307.00 347.20 18.00
2376 68.6610 1.366990 307.00 346.96 18.00
2377 68.6872 1.366531 337.00 346.72 18.00
2378 68.7135 1.366073 332.00 346.49 18.00
2379 68.7398 1.365615 318.00 346.27 18.00
2380 68.7660 1.365158 329.00 346.06 18.00
2381 68.7923 1.364701 342.00 345.86 18.00
2382 68.8186 1.364244 321.00 345.66 18.00
2383 68.8448 1.363788 336.00 345.48 18.00
2384 68.8711 1.363332 347.00 345.29 19.00
2385 68.8973 1.362876 290.00 345.12 17.00
2386 68.9236 1.362421 365.00 345.04 19.00
2387 68.9499 1.361966 334.00 344.88 18.00
2388 68.9761 1.361512 366.00 344.69 19.00
2389 69.0024 1.361058 298.00 343.72 17.00
2390 69.0286 1.360604 334.00 342.77 18.00
2391 69.0549 1.360151 332.00 341.83 18.00
2392 69.0812 1.359698 345.00 340.90 19.00
2393 69.1074 1.359246 316.00 339.96 18.00
2394 69.1337 1.358793 359.00 339.08 19.00
2395 69.1600 1.358342 361.00 338.17 19.00
2396 69.1862 1.357890 372.00 337.25 19.00
2397 69.2125 1.357439 316.00 336.34 18.00
2398 69.2387 1.356988 337.00 335.44 18.00
2399 69.2650 1.356538 332.00 334.55 18.00
2400 69.2913 1.356088 341.00 333.66 18.00
2401 69.3175 1.355639 343.00 332.78 19.00
2402 69.3438 1.355189 332.00 331.90 18.00
2403 69.3701 1.354741 364.00 331.04 19.00
2404 69.3963 1.354292 337.00 330.18 18.00
2405 69.4226 1.353844 324.00 329.33 18.00
2406 69.4488 1.353397 362.00 328.49 19.00
2407 69.4751 1.352949 310.00 327.66 18.00
2408 69.5014 1.352502 346.00 326.84 19.00
2409 69.5276 1.352056 347.00 326.02 19.00
2410 69.5539 1.351609 334.00 325.23 18.00
2411 69.5801 1.351163 332.00 324.25 18.00
2412 69.6064 1.350718 339.00 323.48 18.00
2413 69.6327 1.350273 320.00 322.73 18.00
2414 69.6589 1.349828 336.00 321.99 18.00
2415 69.6852 1.349383 352.00 321.27 19.00
2416 69.7114 1.348940 342.00 320.57 18.00
2417 69.7377 1.348496 356.00 319.90 19.00
2418 69.7640 1.348053 365.00 319.15 19.00
2419 69.7902 1.347609 371.00 318.53 19.00
2420 69.8165 1.347167 353.00 317.95 19.00
2421 69.8428 1.346725 383.00 317.40 20.00
2422 69.8690 1.346283 328.00 316.89 18.00
2423 69.8953 1.345841 379.00 316.44 19.00
2424 69.9215 1.345400 364.00 316.06 19.00
2425 69.9478 1.344959 360.00 317.07 19.00
2426 69.9741 1.344519 328.00 318.23 18.00
2427 70.0003 1.344079 378.00 319.65 19.00
2428 70.0266 1.343639 346.00 321.46 19.00
2429 70.0528 1.343200 354.00 323.83 19.00
2430 70.0791 1.342761 353.00 326.96 19.00
2431 70.1054 1.342322 367.00 331.00 19.00
2432 70.1316 1.341884 359.00 335.99 19.00
2433 70.1579 1.341446 388.00 341.76 20.00
2434 70.1841 1.341008 355.00 347.78 19.00
2435 70.2104 1.340571 380.00 353.13 19.00
2436 70.2367 1.340134 359.00 356.79 19.00
2437 70.2629 1.339698 397.00 358.50 20.00
2438 70.2892 1.339262 396.00 359.06 20.00
2439 70.3154 1.338826 354.00 359.68 19.00
2440 70.3417 1.338390 372.00 361.55 19.00
2441 70.3680 1.337955 382.00 365.65 20.00
2442 70.3942 1.337520 363.00 372.93 19.00
2443 70.4205 1.337086 419.00 384.86 20.00
2444 70.4467 1.336652 447.00 404.24 21.00
2445 70.4730 1.336219 485.00 435.99 22.00
2446 70.4993 1.335785 628.00 486.85 25.00
2447 70.5255 1.335352 690.00 563.95 26.00
2448 70.5518 1.334920 807.00 672.70 28.00
2449 70.5780 1.334487 918.00 813.05 30.00
2450 70.6043 1.334056 847.00 977.80 29.00
2451 70.6306 1.333624 882.00 1143.67 30.00
2452 70.6568 1.333193 1046.00 1271.94 32.00
2453 70.6831 1.332762 1173.00 1323.29 34.00
2454 70.7093 1.332331 1456.00 1288.21 38.00
2455 70.7356 1.331901 1482.00 1195.27 38.00
2456 70.7619 1.331471 1273.00 1086.87 36.00
2457 70.7881 1.331042 1048.00 997.41 32.00
2458 70.8144 1.330613 799.00 943.83 28.00
2459 70.8406 1.330184 693.00 919.86 26.00
2460 70.8669 1.329755 752.00 901.50 27.00
2461 70.8932 1.329327 829.00 862.77 29.00
2462 70.9194 1.328900 828.00 795.01 29.00
2463 70.9457 1.328472 818.00 707.58 29.00
2464 70.9719 1.328045 659.00 615.97 26.00
2465 70.9982 1.327618 544.00 533.67 23.00
2466 71.0245 1.327192 438.00 468.47 21.00
2467 71.0507 1.326766 382.00 422.07 20.00
2468 71.0770 1.326341 376.00 391.84 19.00
2469 71.1032 1.325915 361.00 373.32 19.00
2470 71.1295 1.325490 344.00 362.28 19.00
2471 71.1558 1.325065 330.00 355.58 18.00
2472 71.1820 1.324641 342.00 351.30 18.00
2473 71.2083 1.324217 293.00 348.35 17.00
2474 71.2345 1.323794 334.00 346.19 18.00
2475 71.2608 1.323370 340.00 344.54 18.00
2476 71.2870 1.322947 308.00 343.24 18.00
2477 71.3133 1.322525 336.00 342.21 18.00
2478 71.3396 1.322102 331.00 341.40 18.00
2479 71.3658 1.321681 311.00 340.75 18.00
2480 71.3921 1.321259 346.00 340.25 19.00
2481 71.4184 1.320838 368.00 339.86 19.00
2482 71.4446 1.320417 335.00 339.57 18.00
2483 71.4709 1.319996 326.00 339.37 18.00
2484 71.4971 1.319576 311.00 339.24 18.00
2485 71.5234 1.319156 320.00 338.83 18.00
2486 71.5496 1.318737 285.00 337.16 17.00
2487 71.5759 1.318318 312.00 335.55 18.00
2488 71.6021 1.317899 298.00 333.97 17.00
2489 71.6284 1.317480 300.00 332.44 17.00
2490 71.6547 1.317062 332.00 330.91 18.00
2491 71.6809 1.316644 311.00 329.45 18.00
2492 71.7072 1.316226 312.00 328.01 18.00
2493 71.7334 1.315809 301.00 326.59 17.00
2494 71.7597 1.315392 327.00 325.20 18.00
2495 71.7860 1.314976 316.00 323.83 18.00
2496 71.8122 1.314560 307.00 322.48 18.00
2497 71.8385 1.314144 311.00 321.14 18.00
2498 71.8647 1.313728 311.00 319.83 18.00
2499 71.8910 1.313313 299.00 318.54 17.00
2500 71.9173 1.312898 310.00 317.26 18.00
2501 71.9435 1.312484 303.00 316.00 17.00
2502 71.9698 1.312069 313.00 314.76 18.00
2503 71.9960 1.311656 265.00 313.53 16.00
2504 72.0223 1.311242 299.00 312.31 17.00
2505 72.0485 1.310829 306.00 311.11 17.00
2506 72.0748 1.310416 313.00 309.93 18.00
2507 72.1011 1.310003 282.00 308.76 17.00
2508 72.1273 1.309591 315.00 307.60 18.00
2509 72.1536 1.309179 274.00 306.46 17.00
2510 72.1798 1.308768 302.00 305.34 17.00
2511 72.2061 1.308357 298.00 304.23 17.00
2512 72.2323 1.307946 302.00 303.14 17.00
2513 72.2586 1.307535 296.00 302.07 17.00
2514 72.2849 1.307125 321.00 301.02 18.00
2515 72.3111 1.306715 308.00 299.99 18.00
2516 72.3374 1.306305 315.00 298.99 18.00
2517 72.3636 1.305896 324.00 298.02 18.00
2518 72.3899 1.305487 297.00 297.07 17.00
2519 72.4162 1.305078 294.00 296.15 17.00
2520 72.4424 1.304670 298.00 295.28 17.00
2521 72.4687 1.304262 266.00 294.44 16.00
2522 72.4949 1.303854 296.00 293.65 17.00
2523 72.5212 1.303447 281.00 292.92 17.00
2524 72.5474 1.303040 320.00 293.41 18.00
2525 72.5737 1.302633 281.00 293.98 17.00
2526 72.5999 1.302227 334.00 294.63 18.00
2527 72.6262 1.301821 297.00 295.38 17.00
2528 72.6525 1.301415 348.00 296.25 19.00
2529 72.6787 1.301010 321.00 297.26 18.00
2530 72.7050 1.300605 309.00 298.43 18.00
2531 72.7312 1.300200 321.00 299.83 18.00
2532 72.7575 1.299795 315.00 301.56 18.00
2533 72.7837 1.299391 312.00 303.81 18.00
2534 72.8100 1.298988 325.00 307.00 18.00
2535 72.8363 1.298584 327.00 311.94 18.00
2536 72.8625 1.298181 354.00 319.99 19.00
2537 72.8888 1.297778 346.00 333.29 19.00
2538 72.9150 1.297376 405.00 354.72 20.00
2539 72.9413 1.296973 441.00 387.58 21.00
2540 72.9675 1.296571 514.00 434.89 23.00
2541 72.9938 1.296170 640.00 498.14 25.00
2542 73.0201 1.295769 703.00 575.73 27.00
2543 73.0463 1.295368 807.00 660.74 28.00
2544 73.0726 1.294967 763.00 738.99 28.00
2545 73.0988 1.294567 699.00 790.66 26.00
2546 73.1251 1.294167 634.00 800.94 25.00
2547 73.1513 1.293767 618.00 772.14 25.00
2548 73.1776 1.293368 696.00 721.15 26.00
2549 73.2038 1.292969 739.00 667.68 27.00
2550 73.2301 1.292570 759.00 626.25 28.00
2551 73.2564 1.292172 730.00 602.68 27.00
2552 73.2826 1.291773 640.00 592.81 25.00
2553 73.3089 1.291376 577.00 584.82 24.00
2554 73.3351 1.290978 510.00 566.61 23.00
2555 73.3614 1.290581 463.00 534.05 22.00
2556 73.3876 1.290184 451.00 491.34 21.00
2557 73.4139 1.289788 487.00 445.72 22.00
2558 73.4402 1.289392 455.00 403.95 21.00
2559 73.4664 1.288996 446.00 369.64 21.00
2560 73.4927 1.288600 378.00 344.38 19.00
2561 73.5189 1.288205 352.00 327.33 19.00
2562 73.5452 1.287810 353.00 316.53 19.00
2563 73.5714 1.287415 343.00 309.92 19.00
2564 73.5977 1.287021 314.00 305.85 18.00
2565 73.6239 1.286627 290.00 303.24 17.00
2566 73.6502 1.286233 317.00 301.43 18.00
2567 73.6765 1.285840 317.00 300.24 18.00
2568 73.7027 1.285446 311.00 299.21 18.00
2569 73.7290 1.285054 300.00 298.38 17.00
2570 73.7552 1.284661 314.00 297.71 18.00
2571 73.7815 1.284269 308.00 297.15 18.00
2572 73.8077 1.283877 311.00 296.69 18.00
2573 73.8340 1.283485 310.00 296.31 18.00
2574 73.8602 1.283094 284.00 295.99 17.00
2575 73.8865 1.282703 308.00 295.72 18.00
2576 73.9128 1.282312 302.00 295.50 17.00
2577 73.9390 1.281922 277.00 295.32 17.00
2578 73.9653 1.281532 286.00 295.17 17.00
2579 73.9915 1.281142 322.00 295.06 18.00
2580 74.0178 1.280753 295.00 294.96 17.00
2581 74.0440 1.280364 291.00 294.89 17.00
2582 74.0703 1.279975 315.00 294.84 18.00
2583 74.0965 1.279586 295.00 294.81 17.00
2584 74.1228 1.279198 307.00 294.80 18.00
2585 74.1491 1.278810 278.00 294.80 17.00
2586 74.1753 1.278423 303.00 294.81 17.00
2587 74.2016 1.278035 300.00 294.83 17.00
2588 74.2278 1.277648 316.00 294.86 18.00
2589 74.2541 1.277262 278.00 294.91 17.00
2590 74.2803 1.276875 325.00 294.96 18.00
2591 74.3066 1.276489 297.00 295.02 17.00
2592 74.3328 1.276103 297.00 295.32 17.00
2593 74.3591 1.275718 318.00 295.39 18.00
2594 74.3853 1.275332 306.00 295.48 17.00
2595 74.4116 1.274948 280.00 295.57 17.00
2596 74.4379 1.274563 294.00 295.66 17.00
2597 74.4641 1.274179 324.00 295.76 18.00
2598 74.4904 1.273795 313.00 295.86 18.00
2599 74.5166 1.273411 280.00 295.97 17.00
2600 74.5429 1.273028 275.00 296.20 17.00
2601 74.5691 1.272644 296.00 296.31 17.00
2602 74.5954 1.272262 296.00 296.43 17.00
2603 74.6216 1.271879 303.00 296.55 17.00
2604 74.6479 1.271497 303.00 296.68 17.00
2605 74.6741 1.271115 272.00 296.81 16.00
2606 74.7004 1.270733 277.00 296.94 17.00
2607 74.7266 1.270352 300.00 297.07 17.00
2608 74.7529 1.269971 302.00 297.03 17.00
2609 74.7792 1.269590 301.00 297.17 17.00
2610 74.8054 1.269210 299.00 297.31 17.00
2611 74.8317 1.268830 314.00 297.47 18.00
2612 74.8579 1.268450 314.00 297.62 18.00
2613 74.8842 1.268070 289.00 297.78 17.00
2614 74.9104 1.267691 276.00 297.94 17.00
2615 74.9367 1.267312 299.00 298.10 17.00
2616 74.9629 1.266933 282.00 298.17 17.00
2617 74.9892 1.266555 306.00 298.33 17.00
2618 75.0154 1.266177 274.00 298.49 17.00
2619 75.0417 1.265799 270.00 298.65 16.00
2620 75.0679 1.265422 317.00 298.82 18.00
2621 75.0942 1.265044 283.00 298.98 17.00
2622 75.1205 1.264667 277.00 299.14 17.00
2623 75.1467 1.264291 295.00 299.31 17.00
2624 75.1730 1.263914 275.00 299.47 17.00
2625 75.1992 1.263538 272.00 299.64 16.00
2626 75.2255 1.263163 288.00 299.80 17.00
2627 75.2517 1.262787 282.00 299.98 17.00
2628 75.2780 1.262412 269.00 300.14 16.00
2629 75.3042 1.262037 308.00 300.30 18.00
2630 75.3305 1.261663 290.00 300.47 17.00
2631 75.3567 1.261288 294.00 300.63 17.00
2632 75.3830 1.260914 269.00 300.79 16.00
2633 75.4092 1.260540 273.00 300.95 17.00
2634 75.4355 1.260167 300.00 301.12 17.00
2635 75.4617 1.259794 289.00 301.28 17.00
2636 75.4880 1.259421 281.00 301.44 17.00
2637 75.5143 1.259048 283.00 301.60 17.00
2638 75.5405 1.258676 288.00 301.76 17.00
2639 75.5668 1.258304 288.00 301.92 17.00
2640 75.5930 1.257932 272.00 302.08 16.00
2641 75.6193 1.257561 284.00 302.23 17.00
2642 75.6455 1.257190 307.00 302.39 18.00
2643 75.6718 1.256819 284.00 302.54 17.00
2644 75.6980 1.256448 305.00 302.69 17.00
2645 75.7243 1.256078 300.00 302.84 17.00
2646 75.7505 1.255708 323.00 302.99 18.00
2647 75.7768 1.255338 315.00 303.14 18.00
2648 75.8030 1.254969 291.00 303.29 17.00
2649 75.8293 1.254600 300.00 303.44 17.00
2650 75.8555 1.254231 271.00 303.59 16.00
2651 75.8818 1.253862 279.00 303.73 17.00
2652 75.9080 1.253494 295.00 303.88 17.00
2653 75.9343 1.253126 321.00 304.02 18.00
2654 75.9605 1.252758 313.00 304.16 18.00
2655 75.9868 1.252391 307.00 304.30 18.00
2656 76.0131 1.252024 298.00 304.44 17.00
2657 76.0393 1.251657 312.00 304.58 18.00
2658 76.0656 1.251290 304.00 304.72 17.00
2659 76.0918 1.250924 337.00 304.86 18.00
2660 76.1181 1.250558 311.00 304.99 18.00
2661 76.1443 1.250192 304.00 305.13 17.00
2662 76.1706 1.249826 285.00 305.26 17.00
2663 76.1968 1.249461 271.00 305.40 16.00
2664 76.2231 1.249096 312.00 305.53 18.00
2665 76.2493 1.248731 282.00 305.67 17.00
2666 76.2756 1.248367 324.00 305.80 18.00
2667 76.3018 1.248003 302.00 305.94 17.00
2668 76.3281 1.247639 334.00 306.07 18.00
2669 76.3543 1.247276 304.00 306.21 17.00
2670 76.3806 1.246912 311.00 306.35 18.00
2671 76.4068 1.246549 288.00 306.49 17.00
2672 76.4331 1.246187 306.00 306.63 17.00
2673 76.4593 1.245824 282.00 306.77 17.00
2674 76.4856 1.245462 289.00 306.91 17.00
2675 76.5118 1.245100 293.00 307.06 17.00
2676 76.5381 1.244739 314.00 307.21 18.00
2677 76.5643 1.244377 298.00 307.36 17.00
2678 76.5906 1.244016 304.00 307.52 17.00
2679 76.6168 1.243655 315.00 307.69 18.00
2680 76.6431 1.243295 317.00 307.86 18.00
2681 76.6693 1.242935 293.00 308.03 17.00
2682 76.6956 1.242575 336.00 308.22 18.00
2683 76.7219 1.242215 328.00 308.41 18.00
2684 76.7481 1.241856 277.00 308.61 17.00
2685 76.7744 1.241497 286.00 308.83 17.00
2686 76.8006 1.241138 286.00 309.05 17.00
2687 76.8269 1.240779 329.00 309.29 18.00
2688 76.8531 1.240421 314.00 309.55 18.00
2689 76.8794 1.240063 265.00 309.90 16.00
2690 76.9056 1.239705 299.00 310.42 17.00
2691 76.9319 1.239347 311.00 310.96 18.00
2692 76.9581 1.238990 310.00 311.53 18.00
2693 76.9844 1.238633 302.00 312.12 17.00
2694 77.0106 1.238277 272.00 312.75 16.00
2695 77.0369 1.237920 292.00 313.42 17.00
2696 77.0631 1.237564 293.00 314.12 17.00
2697 77.0894 1.237208 308.00 314.88 18.00
2698 77.1156 1.236853 301.00 315.68 17.00
2699 77.1419 1.236497 318.00 316.55 18.00
2700 77.1681 1.236142 294.00 317.50 17.00
2701 77.1944 1.235787 306.00 318.52 17.00
2702 77.2206 1.235433 288.00 319.64 17.00
2703 77.2469 1.235078 306.00 320.86 17.00
2704 77.2731 1.234725 301.00 322.20 17.00
2705 77.2994 1.234371 308.00 323.60 18.00
2706 77.3256 1.234017 302.00 325.25 17.00
2707 77.3519 1.233664 323.00 327.09 18.00
2708 77.3781 1.233311 354.00 329.15 19.00
2709 77.4044 1.232959 333.00 331.45 18.00
2710 77.4306 1.232606 322.00 334.04 18.00
2711 77.4569 1.232254 346.00 336.98 19.00
2712 77.4831 1.231902 352.00 340.34 19.00
2713 77.5094 1.231551 378.00 344.29 19.00
2714 77.5356 1.231200 376.00 349.07 19.00
2715 77.5619 1.230848 409.00 355.39 20.00
2716 77.5881 1.230497 460.00 364.36 21.00
2717 77.6144 1.230147 485.00 378.12 22.00
2718 77.6406 1.229797 584.00 400.22 24.00
2719 77.6669 1.229447 663.00 436.07 26.00
2720 77.6931 1.229097 801.00 493.05 28.00
2721 77.7194 1.228747 1008.00 579.88 32.00
2722 77.7456 1.228398 1153.00 705.02 34.00
2723 77.7719 1.228049 1295.00 873.86 36.00
2724 77.7981 1.227701 1282.00 1084.57 36.00
2725 77.8244 1.227352 1308.00 1323.59 36.00
2726 77.8506 1.227004 1298.00 1561.23 36.00
2727 77.8769 1.226656 1510.00 1751.69 39.00
2728 77.9031 1.226309 1492.00 1847.13 39.00
2729 77.9294 1.225961 1504.00 1828.11 39.00
2730 77.9556 1.225614 1580.00 1718.26 40.00
2731 77.9819 1.225267 1594.00 1565.45 40.00
2732 78.0081 1.224921 1532.00 1416.80 39.00
2733 78.0344 1.224574 1430.00 1305.11 38.00
2734 78.0606 1.224228 1187.00 1242.54 34.00
2735 78.0869 1.223883 1043.00 1218.86 32.00
2736 78.1131 1.223537 1027.00 1205.65 32.00
2737 78.1394 1.223192 976.00 1170.63 31.00
2738 78.1656 1.222847 878.00 1096.88 30.00
2739 78.1919 1.222502 892.00 989.24 30.00
2740 78.2181 1.222157 820.00 864.30 29.00
2741 78.2444 1.221813 818.00 739.91 29.00
2742 78.2706 1.221469 709.00 629.79 27.00
2743 78.2969 1.221125 571.00 541.75 24.00
2744 78.3231 1.220782 526.00 477.47 23.00
2745 78.3494 1.220439 499.00 434.17 22.00
2746 78.3756 1.220096 376.00 406.97 19.00
2747 78.4019 1.219753 452.00 390.89 21.00
2748 78.4281 1.219411 404.00 382.00 20.00
2749 78.4543 1.219069 431.00 377.76 21.00
2750 78.4806 1.218727 415.00 376.91 20.00
2751 78.5068 1.218385 434.00 379.39 21.00
2752 78.5331 1.218044 461.00 386.26 21.00
2753 78.5593 1.217702 581.00 399.88 24.00
2754 78.5856 1.217361 676.00 424.25 26.00
2755 78.6118 1.217021 775.00 465.10 28.00
2756 78.6381 1.216680 1004.00 529.62 32.00
2757 78.6643 1.216340 1052.00 625.38 32.00
2758 78.6906 1.216000 1110.00 758.27 33.00
2759 78.7168 1.215661 922.00 929.27 30.00
2760 78.7431 1.215321 862.00 1130.71 29.00
2761 78.7693 1.214982 878.00 1342.40 30.00
2762 78.7956 1.214643 1057.00 1529.83 33.00
2763 78.8218 1.214305 1400.00 1650.07 37.00
2764 78.8481 1.213966 1591.00 1673.65 40.00
2765 78.8743 1.213628 1909.00 1606.08 44.00
2766 78.9006 1.213290 1832.00 1482.32 43.00
2767 78.9268 1.212953 1529.00 1344.90 39.00
2768 78.9531 1.212615 1184.00 1228.33 34.00
2769 78.9793 1.212278 902.00 1151.81 30.00
2770 79.0056 1.211941 795.00 1115.87 28.00
2771 79.0318 1.211605 814.00 1103.33 29.00
2772 79.0581 1.211269 819.00 1086.26 29.00
2773 79.0843 1.210932 949.00 1041.24 31.00
2774 79.1105 1.210597 1028.00 962.37 32.00
2775 79.1368 1.210261 920.00 859.39 30.00
2776 79.1630 1.209926 828.00 747.69 29.00
2777 79.1893 1.209591 637.00 641.35 25.00
2778 79.2155 1.209256 470.00 550.32 22.00
2779 79.2418 1.208921 422.00 479.23 21.00
2780 79.2680 1.208587 415.00 428.01 20.00
2781 79.2943 1.208253 357.00 393.44 19.00
2782 79.3205 1.207919 374.00 371.15 19.00
2783 79.3468 1.207585 361.00 357.05 19.00
2784 79.3730 1.207252 341.00 348.01 18.00
2785 79.3993 1.206919 332.00 341.97 18.00
2786 79.4255 1.206586 317.00 337.70 18.00
2787 79.4518 1.206253 301.00 334.56 17.00
2788 79.4780 1.205921 332.00 332.19 18.00
2789 79.5043 1.205589 328.00 330.46 18.00
2790 79.5305 1.205257 286.00 329.33 17.00
2791 79.5568 1.204925 302.00 328.86 17.00
2792 79.5830 1.204594 306.00 327.96 17.00
2793 79.6093 1.204263 335.00 326.76 18.00
2794 79.6355 1.203932 305.00 326.87 17.00
2795 79.6618 1.203601 325.00 328.54 18.00
2796 79.6880 1.203271 361.00 331.90 19.00
2797 79.7142 1.202941 307.00 336.81 18.00
2798 79.7405 1.202611 369.00 342.72 19.00
2799 79.7667 1.202281 358.00 348.53 19.00
2800 79.7930 1.201952 374.00 352.62 19.00
2801 79.8192 1.201622 316.00 353.41 18.00
2802 79.8455 1.201294 325.00 350.34 18.00
2803 79.8717 1.200965 354.00 344.22 19.00
2804 79.8980 1.200636 314.00 336.69 18.00
2805 79.9242 1.200308 327.00 329.33 18.00
2806 79.9505 1.199980 310.00 323.27 18.00
2807 79.9767 1.199652 333.00 319.00 18.00
2808 80.0030 1.199325 313.00 316.26 18.00
2809 80.0292 1.198998 316.00 314.18 18.00
2810 80.0554 1.198671 342.00 311.72 18.00
2811 80.0817 1.198344 297.00 307.97 17.00
2812 80.1079 1.198018 307.00 303.00 18.00
2813 80.1342 1.197691 293.00 297.30 17.00
2814 80.1604 1.197365 324.00 291.47 18.00
2815 80.1867 1.197040 312.00 286.04 18.00
2816 80.2129 1.196714 309.00 281.36 18.00
2817 80.2392 1.196389 318.00 277.57 18.00
2818 80.2654 1.196064 315.00 274.62 18.00
loop_
_pd_proc_info_excluded_regions
'from 0.00 to 6.00\%: inclined onset'
