#------------------------------------------------------------------------------
#$Date: 2019-07-10 06:30:08 +0300 (Wed, 10 Jul 2019) $
#$Revision: 216916 $
#$URL: file:///home/coder/svn-repositories/cod/cif/7/23/30/7233047.cif $
#------------------------------------------------------------------------------
#
# This file is available in the Crystallography Open Database (COD),
# http://www.crystallography.net/
#
# All data on this site have been placed in the public domain by the
# contributors.
#
data_7233047
loop_
_publ_author_name
'Schlachter, Adrien Camille'
'Bonnot, Antoine'
'Fortin, Daniel'
'Karsenti, Paul-Ludovic'
'Knorr, Michael'
'Harvey, Pierre D.'
_publ_section_title
;
 Unusual Triplet-Triplet Annihilation in a 3D Copper Chloride Coordination
 Polymer
;
_journal_name_full               'Physical Chemistry Chemical Physics'
_journal_paper_doi               10.1039/C9CP02891A
_journal_year                    2019
_chemical_formula_moiety         'C4 H9 Cl Cu S'
_chemical_formula_sum            'C4 H9 Cl Cu S'
_chemical_formula_weight         188.16
_space_group_IT_number           14
_space_group_name_Hall           '-P 2yn'
_space_group_name_H-M_alt        'P 1 21/n 1'
_symmetry_cell_setting           monoclinic
_symmetry_Int_Tables_number      14
_symmetry_space_group_name_Hall  '-P 2yn'
_symmetry_space_group_name_H-M   'P 1 21/n 1'
_atom_sites_solution_hydrogens   geom
_atom_sites_solution_primary     'direct - structure invariant direct methods'
_atom_sites_solution_secondary   'direct - structure invariant direct methods'
_audit_conform_dict_location     ftp://ftp.iucr.org/pub/cif_core.dic
_audit_conform_dict_name         cif_core.dic
_audit_conform_dict_version      2.4.3
_audit_creation_date             2018-11-08T11:55:25-00:00
_audit_creation_method           'WinGX routine CIF_UPDATE'
_audit_update_record
;
2019-05-21 deposited with the CCDC.    2019-07-09 downloaded from the CCDC.
;
_cell_angle_alpha                90
_cell_angle_beta                 108.967(2)
_cell_angle_gamma                90
_cell_formula_units_Z            4
_cell_length_a                   8.9479(8)
_cell_length_b                   6.7968(6)
_cell_length_c                   10.9255(10)
_cell_measurement_reflns_used    8783
_cell_measurement_temperature    250(2)
_cell_measurement_theta_max      26.44
_cell_measurement_theta_min      2.57
_cell_measurement_wavelength     0.71073
_cell_volume                     628.38(10)
_computing_cell_refinement       'SAINT V8.34A integration software'
_computing_data_collection       'Bruker APEX2 software'
_computing_data_reduction        'SORTAV (Blessing, 1995)'
_computing_molecular_graphics    'Ortep for Windows (Farrugia, 2012)'
_computing_publication_material  'WinGX publication routines (Farrugia, 2012)'
_computing_structure_refinement  'SHELXL-2016/6 (Sheldrick, 2016)'
_computing_structure_solution    'SHELXS-2013/1 (Sheldrick, 2008)'
_diffrn_ambient_temperature      250(2)
_diffrn_detector                 'APEX-II CCD'
_diffrn_measured_fraction_theta_full 0.997
_diffrn_measured_fraction_theta_max 0.998
_diffrn_measurement_device       '\k-geometry diffractometer'
_diffrn_measurement_device_type  'Bruker APEX-II'
_diffrn_measurement_method       '\f or \w oscillation scans'
_diffrn_orient_matrix_UB_11      0.028956
_diffrn_orient_matrix_UB_12      0.134329
_diffrn_orient_matrix_UB_13      -0.022146
_diffrn_orient_matrix_UB_21      0.043115
_diffrn_orient_matrix_UB_22      -0.058634
_diffrn_orient_matrix_UB_23      -0.065541
_diffrn_orient_matrix_UB_31      -0.10615
_diffrn_orient_matrix_UB_32      0.012827
_diffrn_orient_matrix_UB_33      -0.067683
_diffrn_radiation_monochromator  graphite
_diffrn_radiation_probe          x-ray
_diffrn_radiation_type           MoK\a
_diffrn_radiation_wavelength     0.71073
_diffrn_reflns_av_unetI/netI     0.0417
_diffrn_reflns_Laue_measured_fraction_full 0.997
_diffrn_reflns_Laue_measured_fraction_max 0.998
_diffrn_reflns_limit_h_max       11
_diffrn_reflns_limit_h_min       -11
_diffrn_reflns_limit_k_max       8
_diffrn_reflns_limit_k_min       -8
_diffrn_reflns_limit_l_max       13
_diffrn_reflns_limit_l_min       -13
_diffrn_reflns_number            10401
_diffrn_reflns_point_group_measured_fraction_full 0.997
_diffrn_reflns_point_group_measured_fraction_max 0.998
_diffrn_reflns_theta_full        25
_diffrn_reflns_theta_max         26.442
_diffrn_reflns_theta_min         2.568
_diffrn_source                   'sealed x-ray tube'
_diffrn_standards_number         0
_exptl_absorpt_coefficient_mu    4.1
_exptl_absorpt_correction_T_max  0.745
_exptl_absorpt_correction_T_min  0.656
_exptl_absorpt_correction_type   multi-scan
_exptl_absorpt_process_details
;
SADABS-2014/5 - Bruker AXS area detector scaling and absorption correction
;
_exptl_crystal_density_diffrn    1.989
_exptl_crystal_density_method    'not measured'
_exptl_crystal_description       Needle
_exptl_crystal_F_000             380
_exptl_crystal_size_max          0.33
_exptl_crystal_size_mid          0.1
_exptl_crystal_size_min          0.04
_refine_diff_density_max         0.55
_refine_diff_density_min         -0.873
_refine_diff_density_rms         0.107
_refine_ls_extinction_method     none
_refine_ls_goodness_of_fit_ref   1.076
_refine_ls_hydrogen_treatment    constr
_refine_ls_matrix_type           full
_refine_ls_number_constraints    0
_refine_ls_number_parameters     66
_refine_ls_number_reflns         10401
_refine_ls_number_restraints     0
_refine_ls_restrained_S_all      1.076
_refine_ls_R_factor_all          0.0396
_refine_ls_R_factor_gt           0.0324
_refine_ls_shift/su_max          0.001
_refine_ls_shift/su_mean         0
_refine_ls_structure_factor_coef Fsqd
_refine_ls_weighting_details
'w=1/[\s^2^(Fo^2^)+(0.0037P)^2^+2.0034P] where P=(Fo^2^+2Fc^2^)/3'
_refine_ls_weighting_scheme      calc
_refine_ls_wR_factor_gt          0.0745
_refine_ls_wR_factor_ref         0.0772
_reflns_Friedel_coverage         0
_reflns_number_gt                9129
_reflns_number_total             10401
_reflns_threshold_expression     'I > 2\s(I)'
_iucr_refine_instructions_details
;
TITL mo_Harvey_AS_CP2_250K_0m in P2(1)/n
    shelx.res
    created by SHELXL-2016/6 at 11:53:32 on 08-Nov-2018
CELL  0.71073   8.9479   6.7968  10.9255   90.000  108.967   90.000
ZERR     4.00   0.0008   0.0006   0.0010    0.000    0.002    0.000
LATT   1
SYMM  1/2 - X, 1/2 + Y, 1/2 - Z
SFAC  C    H    S    CL   CU
UNIT  16 36 4 4 4
MERG   0
EQIV $2 -x+3/2, y+1/2, -z+1/2
HTAB C1 Cl1_$2
EQIV $5 -x+2, -y+1, -z+1
HTAB C4 Cl1_$5
HTAB C1 Cl1_$2
HTAB C4 Cl1_$5
FMAP   2
PLAN    2
SIZE     0.040   0.100   0.330
ACTA    50.00
BOND
L.S.  20
TEMP   -23.30
WGHT    0.003700    2.003400
BASF   0.13529
FVAR       0.23674
MOLE    1
C1    1    0.845464    0.860783    0.055349    11.00000    0.01648    0.01548 =
         0.01286    0.00334    0.00261    0.00078
AFIX  23
H1A   2    0.829045    0.748712   -0.004005    11.00000   -1.20000
H1B   2    0.760649    0.955679    0.017109    11.00000   -1.20000
AFIX   0
C2    1    1.002998    0.957218    0.065220    11.00000    0.01813    0.01777 =
         0.01710    0.00099    0.00568   -0.00257
AFIX  23
H2A   2    1.026015    1.062134    0.130237    11.00000   -1.20000
H2B   2    1.087820    0.859386    0.092857    11.00000   -1.20000
AFIX   0
C3    1    1.009923    0.635083    0.277666    11.00000    0.01519    0.01913 =
         0.01727    0.00485    0.00040    0.00204
AFIX  23
H3A   2    1.099500    0.726335    0.298417    11.00000   -1.20000
H3B   2    1.008460    0.575633    0.358988    11.00000   -1.20000
AFIX   0
C4    1    1.036251    0.474747    0.191361    11.00000    0.02495    0.01983 =
         0.02813    0.00417    0.00955    0.00827
AFIX 137
H4A   2    0.945282    0.387946    0.165671    11.00000   -1.50000
H4B   2    1.129804    0.400033    0.237983    11.00000   -1.50000
H4C   2    1.050592    0.533186    0.114945    11.00000   -1.50000
AFIX   0
S1    3    0.828004    0.774604    0.208040    11.00000    0.01336    0.01370 =
         0.01251   -0.00011    0.00419   -0.00043
CL1   4    0.868791    0.864582    0.551813    11.00000    0.01921    0.02896 =
         0.02001    0.00678    0.00454   -0.00591
CU1   5    0.867414    1.036853    0.356986    11.00000    0.01817    0.02447 =
         0.01881   -0.00025    0.00589    0.00391
HKLF    5
 
 
 
 
REM  mo_Harvey_AS_CP2_250K_0m in P2(1)/n
REM R1 =  0.0324 for    9129 Fo > 4sig(Fo)  and  0.0396 for all   10401 data
REM     66 parameters refined using      0 restraints
 
END
 
WGHT      0.0031      2.0125
 
REM Highest difference peak  0.550,  deepest hole -0.873,  1-sigma level  0.107
Q1    1   0.9414  0.5251  0.4340  11.00000  0.05    0.55
Q2    1   0.8272  1.1306  0.1342  11.00000  0.05    0.49
;
_cod_data_source_file            c9cp02891a2.cif
_cod_data_source_block           shelx_CCDC6
_cod_original_sg_symbol_H-M      'P 21/n'
_cod_database_code               7233047
_shelx_estimated_absorpt_t_min   0.345
_shelx_estimated_absorpt_t_max   0.853
_iucr_refine_reflections_details
;
  -1   0   0    0.20    0.15
  -1   0   0   -0.21    0.17
   2   0   0    5.83    0.26
   2   0   0    6.27    0.29
  -2   0   0    5.99    0.27
  -2   0   0    5.90    0.29
  -2   0   0    6.06    0.42
  -3   0   0   -1.02    0.32
   3   0   0   -0.08    0.17
  -3   0   0   -0.47    0.16
   3   0   0   -0.28    0.15
  -3   0   0   -0.42    0.13
   4   0   0  612.30   16.96
  -4   0   0  629.87   16.96
  -4   0   0  675.06   17.18
  -4   0   0  610.16   16.96
   4   0   0  620.42   16.95
  -5   0   0   -0.18    0.20
   5   0   0   -0.18    0.22
  -5   0   0   -0.06    0.21
   5   0   0   -0.24    0.19
  -5   0   0   -0.27    0.29
  -6   0   0  262.62    7.12
   6   0   0  250.46    7.10
  -6   0   0  254.30    7.12
   6   0   0  252.42    7.11
  -6   0   0  257.12    7.38
  -7   0   0   -0.12    0.55
   7   0   0   -0.10    0.34
  -7   0   0   -0.27    0.40
  -8   0   0  141.15    4.15
  -8   0   0  132.60    4.42
   8   0   0  136.23    4.16
   9   0   0   -0.37    0.54
  -9   0   0    0.36    0.54
  -9   0   0    0.42    0.68
  10   0   0   23.84    1.43
 -10   0   0   23.82    1.41
 -10   0   0   21.16    1.68
   0  -1   0    0.06    0.20
   0  -1   0   -0.42    0.15
   0   1   0   -0.17    0.14
   0   1   0   -0.61    0.20
   0   1   0   -0.20    0.22
   0   1   0   -0.24    0.14
   1  -1   0  424.86   11.31
  -1  -1   0  417.41   11.32
  -1  -1   0  418.31   11.37
   1  -1   0  429.31   11.31
  -1  -1   0  412.43   11.32
  -1   1   0  427.62   11.40
  -1   1   0  426.95   11.39
   1   1   0  410.49   11.32
  -1   1   0  420.05   11.32
  -1   1   0  419.39   11.31
  -1   1   0  411.61   11.30
   1   1   0  413.29   11.30
   2  -1   0  244.89    6.65
   2  -1   0  250.01    6.65
  -2  -1   0  245.93    6.68
  -2  -1   0  239.92    6.76
  -2  -1   0  246.07    6.68
  -2  -1   0  241.91    6.64
  -2   1   0  238.15    6.60
   2   1   0  239.85    6.64
   2   1   0  247.51    6.68
  -2   1   0  247.00    6.64
  -2   1   0  243.31    6.78
  -2   1   0  245.46    6.84
   3  -1   0  684.14   18.67
  -3  -1   0  653.06   18.83
  -3  -1   0  687.42   18.71
   3  -1   0  690.73   18.68
  -3  -1   0  667.83   18.66
  -3  -1   0  722.96   18.73
  -3   1   0  734.19   18.69
   3   1   0  717.83   18.73
  -3   1   0  689.05   18.86
  -3   1   0  720.13   18.78
  -3   1   0  675.45   18.67
  -3   1   0  696.06   18.99
   3   1   0  687.74   18.71
  -4  -1   0  123.67    3.49
  -4  -1   0  109.89    3.24
  -4  -1   0  113.22    3.27
   4  -1   0  108.91    3.20
   4  -1   0  109.35    3.21
  -4   1   0  116.34    3.64
   4   1   0  112.60    3.25
  -4   1   0  109.80    3.20
  -4   1   0  110.96    3.36
   4   1   0  114.38    3.27
  -4   1   0  114.09    3.21
   5  -1   0   85.53    2.65
  -5  -1   0   89.98    2.72
  -5  -1   0   91.77    2.46
   5  -1   0   89.15    2.52
  -5  -1   0   91.57    2.70
   5  -1   0   87.41    2.64
  -5  -1   0   89.73    2.95
   5   1   0   92.24    2.70
  -5   1   0   92.74    2.87
   5   1   0   89.95    2.73
  -5   1   0   93.21    2.68
  -5   1   0   91.36    2.65
   6  -1   0    1.96    0.34
  -6  -1   0    1.79    0.35
  -6  -1   0    0.35    0.41
  -6  -1   0    1.21    0.43
   6  -1   0    1.08    0.30
   6   1   0    1.09    0.38
  -6   1   0    1.23    0.38
  -6   1   0    1.41    0.53
   6   1   0    1.67    0.35
  -6   1   0    2.36    0.35
  -7  -1   0  212.55    6.39
  -7  -1   0  214.10    6.13
   7  -1   0  211.44    6.06
   7   1   0  212.76    6.14
  -7   1   0  213.54    6.33
  -7   1   0  214.07    6.06
   8  -1   0   20.27    1.16
  -8  -1   0   20.37    1.50
  -8  -1   0   20.14    1.14
   8   1   0   20.21    1.14
  -8   1   0   20.98    1.14
  -8   1   0   20.33    1.36
  -9  -1   0   11.31    0.97
  -9  -1   0   11.65    1.25
   9  -1   0   11.28    0.92
  -9   1   0   10.85    0.90
  -9   1   0    9.77    1.04
   9   1   0   11.88    0.94
 -10  -1   0   11.17    1.06
  10  -1   0   11.04    1.01
 -10  -1   0   12.27    1.18
 -10   1   0   10.51    0.97
  10   1   0   10.66    1.04
   0  -2   0  230.43    6.28
   0  -2   0  219.54    6.29
   0   2   0  228.45    6.24
   0   2   0  230.64    6.31
   0   2   0  221.28    6.30
   0   2   0  228.53    6.34
  -1  -2   0   48.64    1.59
  -1  -2   0   48.13    1.64
   1  -2   0   51.91    1.60
   1  -2   0   50.99    1.64
  -1  -2   0   49.14    1.64
  -1   2   0   48.79    1.62
   1   2   0   50.32    1.62
   1   2   0   50.37    1.60
   1   2   0   49.11    1.44
   1   2   0   48.56    1.61
  -1   2   0   51.25    1.69
  -1   2   0   50.26    1.68
  -1   2   0   51.50    1.62
  -2  -2   0   86.91    2.61
   2  -2   0   91.15    2.63
  -2  -2   0   87.20    2.74
  -2  -2   0   86.86    2.65
   2   2   0   86.97    2.60
  -2   2   0   86.05    2.55
  -2   2   0   88.18    2.80
  -2   2   0   88.43    2.61
  -2   2   0   86.30    2.74
  -2   2   0   91.39    2.63
   2   2   0   88.23    2.59
   3  -2   0    0.09    0.20
  -3   2   0    0.55    0.35
  -3   2   0    0.44    0.38
   3   2   0    0.57    0.23
  -3   2   0    0.80    0.30
   4  -2   0   42.47    1.42
  -4   2   0   41.78    1.41
  -4   2   0   40.68    1.70
   4   2   0   40.35    1.35
  -4   2   0   38.23    1.72
  -4   2   0   42.74    1.45
   5  -2   0   10.29    0.65
  -5  -2   0   11.50    0.94
  -5  -2   0    9.74    0.75
  -5   2   0    9.25    0.64
   5   2   0    9.71    0.56
  -5   2   0   10.45    0.80
  -6  -2   0    2.36    0.50
   6  -2   0    2.03    0.40
  -6  -2   0    1.00    0.66
  -6   2   0    2.68    0.42
  -6   2   0    1.80    0.53
   6   2   0    1.94    0.35
   7  -2   0    7.70    0.65
  -7  -2   0    7.35    0.86
  -7  -2   0    8.18    0.75
  -7   2   0    8.63    0.83
  -7   2   0    7.41    0.65
   7   2   0    7.39    0.59
   8  -2   0  110.09    3.40
  -8  -2   0  107.46    3.85
  -8  -2   0  106.85    3.50
  -8   2   0  107.28    3.39
  -8   2   0  105.22    3.61
  -9  -2   0    1.16    0.86
   9  -2   0    0.42    0.63
  -9  -2   0    1.34    0.63
  -9   2   0    1.23    0.51
  10  -2   0    4.75    0.71
 -10  -2   0    5.21    1.12
 -10  -2   0    3.96    0.80
 -10   2   0    4.11    0.78
   0  -3   0    0.07    0.41
   0  -3   0    0.08    0.39
   0   3   0   -0.22    0.26
   0   3   0    0.39    0.33
   0   3   0    0.33    0.29
   0   3   0   -0.06    0.40
   1  -3   0    7.70    0.61
  -1  -3   0    7.57    0.59
  -1  -3   0    6.61    0.62
  -1  -3   0    8.00    0.69
   1  -3   0    7.96    0.61
   1   3   0    6.92    0.45
   1   3   0    7.24    0.62
  -1   3   0    6.86    0.64
  -1   3   0    8.08    0.65
  -1   3   0    7.38    0.61
   1   3   0    8.08    0.67
  -1   3   0    7.32    0.60
   1   3   0    8.83    0.67
  -2  -3   0  126.37    3.77
  -2  -3   0  122.52    3.73
  -2  -3   0  121.38    3.81
   2  -3   0  122.66    3.72
  -2   3   0  126.13    3.86
  -2   3   0  125.59    3.74
  -2   3   0  125.42    3.89
  -2   3   0  127.09    3.68
   2   3   0  125.62    3.79
   2   3   0  126.16    3.72
   2   3   0  129.51    3.47
   2   3   0  126.26    3.75
   3  -3   0    5.03    0.49
  -3  -3   0    6.65    0.63
  -3   3   0    3.75    0.60
   3   3   0    5.43    0.35
   3   3   0    5.38    0.49
  -3   3   0    5.13    0.47
  -3   3   0    4.85    0.63
   3   3   0    5.12    0.54
  -4  -3   0   34.81    1.48
  -4  -3   0   33.36    1.33
  -4  -3   0   34.44    1.67
   4  -3   0   35.51    1.42
   4   3   0   35.84    1.29
  -4   3   0   37.30    1.42
  -4   3   0   36.55    1.20
   4   3   0   35.62    1.34
  -4   3   0   37.01    1.84
  -4   3   0   34.93    1.60
  -5  -3   0    3.73    0.51
   5  -3   0    4.80    0.57
  -5  -3   0    4.66    0.43
  -5  -3   0    3.45    0.78
  -5   3   0    4.35    0.69
  -5   3   0    4.19    0.58
  -5   3   0    5.64    0.97
   5   3   0    4.28    0.46
  -5   3   0    5.37    0.58
  -6  -3   0    8.50    0.83
   6  -3   0    7.67    0.70
  -6  -3   0    9.57    1.08
  -6   3   0    8.67    0.73
  -6   3   0    9.24    0.87
   6   3   0    7.58    0.60
  -7  -3   0   28.93    1.48
   7  -3   0   27.49    1.25
  -7  -3   0   29.21    1.82
  -7   3   0   25.84    1.42
  -7   3   0   28.57    1.34
  -8  -3   0   10.27    1.26
  -8  -3   0    8.26    0.94
   8  -3   0    8.81    0.76
  -8   3   0    9.91    0.96
  -8   3   0    9.98    0.86
  -9  -3   0   15.96    1.59
  -9  -3   0   16.25    1.26
   9  -3   0   14.13    1.16
  -9   3   0   16.22    1.18
   0  -4   0   59.39    2.07
   0  -4   0   56.81    2.11
   0   4   0   57.44    2.03
   0   4   0   53.74    1.90
   0   4   0   55.23    2.01
   0   4   0   58.70    2.19
   1  -4   0  217.23    6.06
  -1  -4   0  207.43    6.11
   1  -4   0  204.31    6.10
  -1  -4   0  209.09    6.10
   1   4   0  202.93    6.12
   1   4   0  207.18    5.83
  -1   4   0  211.17    6.08
   1   4   0  205.21    6.07
  -1   4   0  211.69    6.10
  -1   4   0  210.73    6.07
  -1   4   0  203.55    6.19
   1   4   0  211.65    6.11
  -2  -4   0    8.99    0.82
   2  -4   0    7.80    0.64
  -2  -4   0    8.60    0.87
  -2  -4   0    9.04    0.81
   2  -4   0    8.52    0.80
   2   4   0    9.05    0.76
  -2   4   0    7.54    0.72
   2   4   0    8.84    0.43
   2   4   0    8.85    0.74
  -2   4   0    8.94    0.85
   2   4   0   10.36    0.81
  -2   4   0    7.63    0.91
  -2   4   0    8.77    0.81
  -3  -4   0   68.73    2.44
   3  -4   0   68.17    2.34
  -3  -4   0   71.74    2.40
  -3  -4   0   60.81    2.43
  -3   4   0   65.78    2.61
   3   4   0   66.10    2.31
   3   4   0   70.12    2.31
  -3   4   0   67.41    2.21
  -3   4   0   66.59    2.33
  -3   4   0   68.61    2.32
   3   4   0   68.44    1.90
  -3   4   0   66.47    2.63
   3   4   0   70.51    2.48
   4  -4   0    8.07    0.78
  -4  -4   0    7.72    0.96
  -4  -4   0    8.42    0.83
  -4  -4   0   11.51    0.88
  -4   4   0    5.97    0.83
   4   4   0    6.01    0.33
   4   4   0    7.93    0.71
  -4   4   0    7.25    1.02
  -4   4   0    4.24    0.58
   4   4   0   10.25    0.76
  -4   4   0    5.93    0.54
  -4   4   0    6.79    0.68
   4   4   0    8.28    0.84
   5  -4   0  109.76    3.57
  -5  -4   0  113.67    3.95
  -5  -4   0  112.92    3.72
  -5   4   0  114.09    3.63
  -5   4   0  112.84    4.01
   5   4   0  118.75    3.79
  -5   4   0  114.45    4.13
   5   4   0  108.27    3.43
  -6  -4   0   11.67    1.27
   6  -4   0   11.84    0.91
  -6  -4   0   12.07    1.07
  -6   4   0   12.78    0.99
  -6   4   0   19.10    1.64
  -6   4   0   13.27    1.05
  -7  -4   0    5.68    1.12
   7  -4   0    4.06    0.74
  -7  -4   0    6.28    0.90
  -7   4   0    6.20    0.77
  -7   4   0    5.97    0.80
  -8  -4   0    7.15    0.85
   8  -4   0    7.99    0.90
  -8  -4   0   10.61    1.37
  -8   4   0    8.12    0.89
   9  -4   0   25.45    1.57
  -9  -4   0   24.98    1.87
  -9  -4   0   24.85    1.70
  -9   4   0   24.44    1.52
   0  -5   0   -0.28    0.43
   0  -5   0    0.50    0.43
   0   5   0   -0.26    0.60
   0   5   0   -0.53    0.64
   0   5   0    0.12    0.38
   0   5   0   -0.59    0.56
   1  -5   0   11.76    0.95
   1  -5   0   11.00    0.91
  -1  -5   0   10.48    0.87
  -1  -5   0   11.37    0.94
   1   5   0   10.67    0.73
  -1   5   0   11.97    1.00
   1   5   0   12.05    1.03
   1   5   0   10.90    1.02
  -1   5   0   10.21    0.90
  -1   5   0   11.03    0.91
   1   5   0   10.28    0.99
  -1   5   0   11.70    1.03
  -2  -5   0  151.13    4.76
   2  -5   0  153.94    4.78
   2  -5   0  156.51    4.70
  -2  -5   0  152.18    4.77
   2   5   0  154.95    4.80
  -2   5   0  150.91    4.95
  -2   5   0  147.79    4.79
   2   5   0  150.22    4.31
   2   5   0  151.20    4.79
  -2   5   0  156.31    4.88
   2   5   0  156.99    4.81
  -2   5   0  157.44    4.74
  -3  -5   0   27.73    1.35
  -3  -5   0   22.94    1.43
  -3  -5   0   23.61    1.35
   3  -5   0   24.99    1.34
  -3   5   0   23.94    1.32
   3   5   0   26.52    1.37
  -3   5   0   24.45    1.19
  -3   5   0   24.49    1.64
  -3   5   0   26.32    1.57
  -3   5   0   23.82    1.31
   3   5   0   23.39    1.53
   3   5   0   25.25    1.44
  -4   5   0   23.23    1.46
  -5  -5   0    4.27    1.05
  -5  -5   0    5.76    0.78
   5  -5   0    5.32    0.84
  -5   5   0    3.70    1.09
   5   5   0    5.75    0.67
  -5   5   0    6.20    0.88
   5   5   0    6.12    0.82
   6  -5   0  160.38    4.96
  -6  -5   0  152.87    5.03
  -6  -5   0  149.12    5.28
  -6   5   0  156.03    4.89
  -6   5   0  159.01    4.86
   6   5   0  154.40    5.09
  -6   5   0  148.88    5.37
  -7  -5   0    6.79    0.88
   7  -5   0    6.68    0.97
  -7  -5   0    5.08    1.26
  -7   5   0    6.28    0.92
   7   5   0    6.24    0.89
  -8  -5   0    0.40    0.85
   8  -5   0    0.79    0.73
  -8  -5   0    1.43    1.10
   8   5   0    0.71    0.87
  -8   5   0    0.61    0.72
   0  -6   0    2.57    0.81
   0  -6   0    2.87    0.86
   0   6   0    4.36    0.88
   0   6   0    3.08    0.71
   0   6   0    3.07    0.84
   0   6   0    1.95    0.55
   1  -6   0   49.80    2.13
  -1  -6   0   48.87    2.21
  -1  -6   0   48.83    2.12
   1  -6   0   48.31    2.11
  -1   6   0   49.05    2.06
  -1   6   0   48.84    2.24
  -1   6   0   47.11    2.04
   1   6   0   46.12    2.21
   1   6   0   50.25    2.13
   1   6   0   48.50    2.28
  -1   6   0   50.32    2.42
   1   6   0   47.26    1.78
  -2  -6   0    4.41    0.89
  -2  -6   0    4.28    0.91
   2  -6   0    5.05    0.82
   2  -6   0    3.46    0.88
  -2   6   0    4.52    0.88
   2   6   0    3.69    0.74
  -2   6   0    3.97    0.83
  -2   6   0    3.53    0.81
   2   6   0    3.93    0.83
   2   6   0    4.52    0.73
  -2   6   0    4.61    0.95
  -3  -6   0   71.44    2.85
  -3  -6   0   72.53    2.91
   3  -6   0   72.78    2.90
  -3   6   0   74.79    2.91
  -3   6   0   70.25    2.64
  -3   6   0   70.43    3.15
   3   6   0   68.59    2.67
  -3   6   0   76.69    2.92
   3   6   0   73.91    2.84
   3   6   0   73.18    2.97
   4  -6   0    2.20    0.83
  -4  -6   0    1.96    0.88
  -4  -6   0    3.02    0.65
  -4   6   0    1.52    0.61
  -4   6   0    1.88    0.85
   4   6   0    1.53    0.65
  -4   6   0    2.61    1.10
   4   6   0    2.69    0.95
  -5  -6   0   35.91    2.05
  -5  -6   0   35.64    2.03
   5  -6   0   32.93    1.95
  -5   6   0   34.65    1.95
   5   6   0   35.16    1.90
  -5   6   0   35.95    2.40
   6  -6   0    2.48    0.89
  -6  -6   0    0.95    1.06
  -6  -6   0    2.32    0.97
   6   6   0    2.24    0.98
  -6   6   0    1.66    1.19
  -6   6   0    1.20    0.85
  -7  -6   0   25.57    1.94
  -7  -6   0   27.31    1.98
   7  -6   0   28.23    1.86
  -7   6   0   28.94    1.87
   7   6   0   25.89    2.01
   0  -7   0    0.80    0.87
   0  -7   0   -0.26    0.75
   0   7   0   -0.34    0.56
   0   7   0    0.23    0.63
   0   7   0    0.35    0.92
  -1  -7   0    1.50    0.88
   1  -7   0    1.24    0.60
  -1  -7   0    1.47    0.92
   1  -7   0    1.64    0.95
   1   7   0    0.97    0.86
   1   7   0    0.89    0.90
  -1   7   0    1.00    0.85
  -1   7   0   -0.22    0.89
   1   7   0    1.52    0.69
  -1   7   0    1.13    0.73
  -2  -7   0   87.74    3.33
  -2  -7   0   89.33    3.46
   2  -7   0   85.69    3.34
   2   7   0   90.68    3.45
  -2   7   0   81.00    3.33
   2   7   0   91.73    3.53
  -2   7   0   87.11    3.35
  -2   7   0   85.84    3.53
   2   7   0   89.45    3.34
  -3  -7   0    7.09    0.96
   3  -7   0    5.54    0.91
  -3  -7   0    5.77    0.86
  -3   7   0    5.25    1.26
   3   7   0    4.36    0.97
   3   7   0    6.50    1.19
  -3   7   0    6.32    1.14
   4  -7   0   20.15    1.48
  -4  -7   0   19.26    1.64
  -4   7   0   16.90    1.78
   4   7   0   20.54    1.52
  -4   7   0   14.61    1.35
   4   7   0   17.53    1.61
  -5  -7   0   14.02    1.38
   5  -7   0   16.59    1.53
  -5   7   0   14.69    1.60
  -5   7   0   17.68    1.55
   5   7   0   17.60    1.51
  -6  -7   0   32.06    1.99
   6  -7   0   33.94    1.95
  -6   7   0   35.12    2.19
   6   7   0   32.48    2.07
   0  -8   0   10.70    1.43
   0  -8   0   14.30    1.77
   0   8   0   11.64    1.55
   0   8   0   12.43    1.30
   0   8   0   12.08    1.31
  -1  -8   0   31.54    1.94
   1  -8   0   36.22    2.33
  -1  -8   0   37.08    2.32
  -1   8   0   31.81    1.98
   1   8   0   34.60    2.32
   1   8   0   36.15    2.29
  -1   8   0   39.76    2.54
   1   8   0   32.31    2.00
  -1   8   0   32.31    2.02
  -2  -8   0   -0.08    0.99
  -2  -8   0    0.36    0.69
   2  -8   0    0.02    0.68
   2   8   0    1.68    0.80
  -2   8   0   -1.27    1.11
  -2   8   0   -0.37    1.02
   2   8   0    0.30    0.92
  -3  -8   0    2.44    1.13
   3  -8   0    6.32    1.26
  -3   8   0    5.41    1.23
   3   8   0    4.96    1.01
  -3   8   0    1.60    0.94
   3   8   0    3.44    1.02
 -10   0   1    0.16    0.78
 -10   0   1   -1.02    0.65
  10   0  -1    0.15    0.57
   9   0  -1   50.86    2.03
  -9   0   1   50.56    2.01
  -9   0   1   49.92    2.22
  -8   0   1   -0.61    0.43
  -8   0   1   -0.71    0.52
   8   0  -1   -0.25    0.46
  -7   0   1   94.11    2.94
   7   0  -1   93.46    2.96
  -7   0   1   90.08    3.16
  -6   0   1    0.09    0.34
   6   0  -1    0.28    0.36
  -6   0   1   -0.41    0.29
  -6   0   1   -0.38    0.38
  -5   0   1  900.12   24.83
  -5   0   1  958.77   25.06
   5   0  -1  901.03   24.84
  -4   0   1   -0.07    0.15
   4   0  -1    0.11    0.27
   4   0  -1   -0.05    0.28
  -4   0   1   -0.30    0.25
  -4   0   1   -0.27    0.24
  -4   0   1   -0.66    0.40
   3   0  -1  174.99    4.81
  -3   0   1  173.32    4.81
  -3   0   1  177.99    4.87
   3   0  -1  175.58    4.78
  -3   0   1  175.31    4.97
   3   0  -1  172.61    4.86
  -3   0   1  170.23    4.86
   3   0  -1  175.68    4.87
   2   0  -1    0.00    0.21
   2   0  -1   -0.08    0.16
  -2   0   1    0.18    0.22
  -2   0   1   -0.16    0.23
  -2   0   1    0.45    0.35
   2   0  -1    0.22    0.24
   2   0  -1   -0.33    0.22
  -1   0   1  925.01   25.72
   1   0  -1  976.17   25.63
   1   0  -1  960.66   25.88
   1   0  -1  958.21   25.83
   1   0  -1  962.40   25.82
  -1   0   1  925.45   25.60
  -1   0   1  974.31   25.69
   0   0   1    0.14    0.06
   0   0  -1   -0.15    0.15
   0   0   1    0.01    0.08
   0   0  -1    0.09    0.16
   0   0  -1   -0.13    0.10
   0   0  -1    0.01    0.08
   0   0   1    0.03    0.06
   0   0  -1   -0.09    0.09
  -1   0  -1  149.07    4.18
  -1   0  -1  147.55    4.08
  -1   0  -1  147.27    4.09
   1   0   1  161.65    4.13
  -1   0  -1  146.57    4.12
  -2   0  -1   -0.15    0.20
  -2   0  -1   -0.11    0.16
  -2   0  -1    0.31    0.35
  -3   0  -1  317.78    8.93
  -3   0  -1  322.62    8.77
   4   0   1    0.04    0.07
   4   0   1    0.09    0.08
  -4   0  -1   -0.08    0.46
  -4   0  -1   -0.39    0.29
  -4   0  -1    0.02    0.10
  -4   0  -1   -0.02    0.10
  -5   0  -1   16.59    0.63
  -5   0  -1   18.21    0.94
   5   0   1   16.70    0.60
   5   0   1   16.68    0.61
  -5   0  -1   16.79    0.61
   6   0   1    0.26    0.22
  -6   0  -1   -0.02    0.23
  -6   0  -1    0.12    0.24
  -6   0  -1   -0.35    0.41
   6   0   1   -0.09    0.20
  -7   0  -1   54.75    1.76
  -7   0  -1   53.00    2.06
   7   0   1   51.56    1.76
  -8   0  -1    0.22    0.56
  -8   0  -1    0.31    0.33
   8   0   1   -0.18    0.33
  -9   0  -1    6.55    0.67
  -9   0  -1    5.17    0.85
   9   0   1    6.25    0.68
  10   0   1    0.40    0.46
 -10   0  -1   -0.46    0.53
  10  -1  -1    0.36    0.60
 -10  -1   1    0.25    0.61
 -10  -1   1    0.46    0.89
 -10   1   1    0.89    0.77
 -10   1   1    1.14    0.70
  10   1  -1    0.95    0.64
  -9  -1   1   35.75    1.69
  -9  -1   1   35.39    2.09
   9  -1  -1   38.49    1.67
  -9   1   1   35.34    1.61
  -9   1   1   36.69    1.95
   9   1  -1   34.58    1.70
  -8  -1   1  145.29    4.44
  -8  -1   1  142.91    4.69
   8  -1  -1  142.62    4.40
   8   1  -1  146.24    4.47
  -8   1   1  145.91    4.69
  -8   1   1  142.64    4.38
  -7  -1   1    8.42    0.97
   7  -1  -1   10.69    0.84
  -7  -1   1   10.29    0.79
  -7   1   1    9.09    0.95
  -7   1   1    9.62    0.79
   7   1  -1    9.44    0.79
   6  -1  -1   37.76    1.17
   6  -1  -1   38.30    1.45
  -6  -1   1   39.63    1.56
  -6  -1   1   39.69    1.79
   6   1  -1   38.07    1.51
  -6   1   1   39.06    1.68
  -6   1   1   39.74    1.44
  -6   1   1   38.91    1.44
   5  -1  -1   67.26    2.03
   5  -1  -1   65.57    2.16
  -5  -1   1   77.49    2.49
  -5  -1   1   70.70    2.23
  -5   1   1   67.44    2.17
  -5   1   1   65.33    2.16
  -5   1   1   71.34    2.38
   5   1  -1   69.41    2.24
  -4  -1   1  410.69   10.85
  -4  -1   1  381.36   11.07
  -4  -1   1  411.18   10.96
   4  -1  -1  403.09   10.85
   4  -1  -1  383.00   10.90
   4   1  -1  399.07   10.96
  -4   1   1  408.02   11.04
  -4   1   1  389.76   10.78
  -4   1   1  408.68   10.91
  -4   1   1  396.52   10.91
  -3  -1   1   37.55    1.40
  -3  -1   1   39.06    1.34
   3  -1  -1   38.92    1.28
  -3  -1   1   38.86    1.24
   3  -1  -1   39.32    1.24
  -3   1   1   37.09    1.39
  -3   1   1   37.96    1.27
   3   1  -1   38.45    1.26
   3   1  -1   38.56    1.30
  -3   1   1   39.44    1.24
   2  -1  -1  241.71    6.62
  -2  -1   1  244.86    6.63
  -2  -1   1  238.24    6.70
  -2  -1   1  239.62    6.63
   2  -1  -1  240.07    6.60
  -2   1   1  237.44    6.61
   2   1  -1  238.00    6.62
  -2   1   1  243.99    6.72
  -2   1   1  244.88    6.61
  -1  -1   1   46.15    1.48
  -1  -1   1   48.26    1.47
  -1  -1   1   46.53    1.48
   1  -1  -1   47.00    1.45
  -1   1   1   45.74    1.43
   1   1  -1   46.57    1.45
  -1   1   1   46.60    1.44
   1   1  -1   47.35    1.49
  -1   1   1   47.84    1.53
   0  -1  -1  256.22    7.08
   0  -1   1  263.03    7.04
   0  -1   1  253.34    7.07
   0  -1   1  264.33    7.06
   0  -1  -1  260.72    7.08
   0   1   1  260.13    7.08
   0   1  -1  267.24    7.07
   0   1  -1  267.98    7.12
   0   1   1  249.35    7.07
   0   1  -1  252.93    7.07
   0   1   1  258.73    7.08
   0   1  -1  266.02    7.13
  -1  -1  -1    7.03    0.42
  -1  -1  -1    7.72    0.41
  -1  -1  -1    6.78    0.46
  -1  -1  -1    7.18    0.32
  -1  -1  -1    7.74    0.38
   1  -1   1    7.24    0.38
  -1  -1  -1    7.64    0.33
   1  -1   1    7.01    0.36
  -1   1  -1    7.75    0.31
  -1   1  -1    7.25    0.59
   1   1   1    7.45    0.31
   1   1   1    7.21    0.37
   1   1   1    7.31    0.43
  -1   1  -1    8.22    0.41
  -1   1  -1    7.38    0.37
  -1   1  -1    7.30    0.66
   1   1   1    6.38    0.38
  -2  -1  -1  435.93   11.85
  -2  -1  -1  432.34   11.92
  -2  -1  -1  439.49   11.80
   2  -1   1  443.59   11.84
   2  -1   1  431.31   11.74
  -2  -1  -1  437.75   11.80
  -2   1  -1  439.53   11.94
  -2   1  -1  441.09   11.79
  -2   1  -1  435.27   12.03
  -2   1  -1  434.10   11.79
   2   1   1  440.86   11.80
  -3  -1  -1   -0.17    0.19
  -3  -1  -1   -0.04    0.24
   3  -1   1   -0.12    0.10
  -3  -1  -1   -0.05    0.21
   3  -1   1   -0.12    0.10
  -3   1  -1    0.22    0.34
  -3   1  -1   -0.20    0.12
  -3   1  -1   -0.42    0.26
  -3   1  -1   -0.20    0.33
   3   1   1    0.04    0.19
   3   1   1   -0.08    0.17
  -3   1  -1   -0.12    0.11
   4  -1   1  200.40    5.45
   4  -1   1  197.56    5.46
  -4  -1  -1  202.92    5.54
  -4  -1  -1  198.93    5.50
  -4  -1  -1  200.19    5.55
  -4  -1  -1  202.68    5.77
  -4   1  -1  202.25    5.47
  -4   1  -1  199.17    5.76
   4   1   1  204.75    5.54
  -4   1  -1  200.87    5.64
  -4   1  -1  200.81    5.98
   4   1   1  201.52    5.55
  -4   1  -1  195.68    5.46
  -5  -1  -1   70.39    2.03
   5  -1   1   64.50    1.95
   5  -1   1   64.89    1.93
  -5  -1  -1   64.29    2.24
  -5  -1  -1   66.53    2.04
  -5   1  -1   66.45    2.50
   5   1   1   65.84    2.04
  -5   1  -1   67.36    1.94
  -5   1  -1   68.83    2.20
   5   1   1   66.81    2.02
  -5   1  -1   66.97    1.96
  -6  -1  -1   62.87    1.91
   6  -1   1   61.00    1.86
   6  -1   1   60.26    1.84
  -6  -1  -1   60.74    2.25
  -6  -1  -1   60.30    1.96
   6   1   1   57.32    1.89
  -6   1  -1   59.47    1.84
  -6   1  -1   60.74    2.10
  -6   1  -1   59.18    1.87
   6   1   1   61.41    1.94
   7  -1   1    9.83    0.67
  -7  -1  -1    9.69    0.71
  -7  -1  -1   10.51    0.97
  -7   1  -1    9.16    0.67
  -7   1  -1   11.98    0.88
   7   1   1    9.50    0.73
  -8  -1  -1    7.31    0.65
  -8  -1  -1    6.26    0.88
   8  -1   1    6.19    0.57
  -8   1  -1    7.33    0.62
  -8   1  -1    6.29    0.77
   8   1   1    7.76    0.68
   9  -1   1   12.89    0.86
  -9  -1  -1   12.45    0.93
  -9  -1  -1   11.09    1.13
  -9   1  -1   11.35    0.91
   9   1   1   12.70    0.95
 -10  -1  -1   36.94    2.19
  10  -1   1   39.89    1.69
 -10  -1  -1   44.49    1.80
 -10   1  -1   42.71    1.75
  10  -2  -1    4.12    0.77
 -10  -2   1    2.69    0.83
 -10  -2   1    3.50    0.83
 -10   2   1    3.20    0.70
  -9  -2   1   23.27    1.59
  -9  -2   1   23.28    1.44
   9  -2  -1   19.71    1.31
  -9   2   1   18.75    1.55
  -9   2   1   21.84    1.30
   8  -2  -1   34.70    1.47
  -8  -2   1   34.70    1.81
  -8  -2   1   33.30    1.62
  -8   2   1   34.19    1.54
  -8   2   1   33.72    1.77
   7  -2  -1   25.93    1.22
  -7  -2   1   21.89    1.39
  -7  -2   1   20.85    1.25
  -7   2   1   23.80    1.28
  -7   2   1   21.24    1.38
   6  -2  -1    1.55    0.36
  -6  -2   1    0.78    0.50
  -6  -2   1    1.64    0.68
   6  -2  -1    0.94    0.33
  -6   2   1    1.85    0.44
  -6   2   1    1.56    0.56
  -5  -2   1   85.29    2.72
  -5  -2   1   86.44    2.94
  -5  -2   1   81.65    2.52
   5  -2  -1   84.95    2.65
  -5   2   1   80.76    2.63
  -5   2   1   87.76    2.78
  -4  -2   1   10.62    0.65
   4  -2  -1   10.20    0.70
  -4  -2   1   10.81    0.87
  -4  -2   1    9.92    0.78
   4   2  -1   10.60    0.69
   4   2  -1   10.08    0.63
  -4   2   1   10.67    0.59
  -4   2   1    9.43    0.70
  -4   2   1   13.49    0.84
  -3  -2   1   41.06    1.60
  -3  -2   1   38.40    1.41
   3  -2  -1   41.39    1.40
  -3  -2   1   39.58    1.43
  -3   2   1   39.44    1.36
   3   2  -1   41.38    1.43
  -3   2   1   42.02    1.65
  -3   2   1   39.26    1.42
   3   2  -1   39.23    1.40
  -3   2   1   40.24    1.54
  -2  -2   1   19.56    0.88
  -2  -2   1   17.91    0.89
   2  -2  -1   17.92    0.80
  -2  -2   1   18.29    0.89
  -2   2   1   17.27    0.78
   2   2  -1   17.48    0.74
  -2   2   1   17.17    0.92
  -2   2   1   18.29    0.83
   2   2  -1   17.60    0.88
  -2   2   1   19.03    1.03
   2   2  -1   16.77    0.78
   1  -2  -1   42.02    1.39
  -1  -2   1   41.82    1.42
  -1  -2   1   42.50    1.43
  -1  -2   1   41.22    1.45
   1  -2  -1   41.33    1.42
  -1   2   1   42.77    1.46
  -1   2   1   40.58    1.46
   1   2  -1   42.78    1.42
   1   2  -1   41.88    1.36
   1   2  -1   40.43    1.45
  -1   2   1   41.58    1.45
   1   2  -1   39.15    1.42
   0  -2   1   64.56    2.08
   0  -2   1   70.42    2.06
   0  -2   1   67.33    2.03
   0  -2  -1   63.32    2.06
   0  -2  -1   65.88    2.09
   0   2  -1   69.56    2.09
   0   2  -1   67.26    2.04
   0   2  -1   68.11    2.16
   0   2  -1   64.40    2.07
   0   2   1   65.72    2.05
   0   2   1   65.92    2.08
   0   2   1   65.24    2.08
   1  -2   1    4.93    0.38
  -1  -2  -1    4.06    0.38
   1  -2   1    4.64    0.44
  -1  -2  -1    3.85    0.44
   1   2   1    4.37    0.40
  -1   2  -1    4.92    0.55
  -1   2  -1    3.91    0.36
   1   2   1    5.11    0.44
  -1   2  -1    4.80    0.40
   1   2   1    4.49    0.45
  -1   2  -1    3.21    0.53
  -2  -2  -1    4.38    0.47
  -2  -2  -1    4.27    0.43
   2  -2   1    3.88    0.39
   2   2   1    3.32    0.43
  -2   2  -1    4.03    0.32
   2   2   1    4.84    0.37
  -2   2  -1    4.46    0.53
  -2   2  -1    5.29    0.41
  -3  -2  -1  385.30   10.98
   3  -2   1  395.91   10.80
  -3  -2  -1  410.14   10.76
  -3  -2  -1  390.76   10.85
   3  -2   1  396.01   10.79
   3   2   1  389.62   10.70
  -3   2  -1  397.14   10.79
  -3   2  -1  386.30   10.78
  -3   2  -1  420.47   11.07
  -3   2  -1  389.47   11.15
   4  -2   1   37.87    1.30
  -4  -2  -1   37.09    1.61
  -4  -2  -1   39.02    1.40
   4  -2   1   39.32    1.30
  -4   2  -1   39.43    1.57
  -4   2  -1   38.63    1.35
   4   2   1   40.63    1.17
  -4   2  -1   38.93    1.82
  -4   2  -1   39.55    1.29
   5  -2   1    1.23    0.34
  -5  -2  -1    1.60    0.59
  -5  -2  -1    1.24    0.35
  -5  -2  -1    1.83    0.41
   5  -2   1    1.00    0.29
  -5   2  -1    0.62    0.72
  -5   2  -1    1.51    0.57
   5   2   1    1.68    0.18
  -5   2  -1    1.61    0.35
  -5   2  -1    0.97    0.36
   6  -2   1    6.26    0.52
  -6  -2  -1    7.08    0.62
  -6  -2  -1    7.08    0.75
  -6  -2  -1    6.14    0.48
   6   2   1    7.81    0.47
  -6   2  -1    6.85    0.68
  -6   2  -1    5.98    0.52
  -6   2  -1    5.16    0.86
  -7  -2  -1  161.95    5.20
   7  -2   1  166.66    4.76
  -7  -2  -1  157.93    4.86
  -7   2  -1  166.25    4.75
  -7   2  -1  165.38    4.94
  -8  -2  -1   35.57    1.58
   8  -2   1   36.41    1.50
  -8  -2  -1   37.01    2.00
  -8   2  -1   37.83    1.51
  -9  -2  -1   46.08    2.30
   9  -2   1   45.36    1.72
  -9  -2  -1   41.11    1.83
  -9   2  -1   41.71    1.69
 -10   2  -1    5.44    0.69
  10  -3  -1   13.17    1.18
 -10  -3   1   13.02    1.28
 -10  -3   1   12.11    1.37
 -10   3   1   12.05    1.12
  -9  -3   1   12.90    1.33
   9  -3  -1   12.93    1.02
  -9  -3   1   13.62    1.21
  -9   3   1   15.63    1.18
  -9   3   1   14.62    1.25
  -8  -3   1    1.81    0.95
  -8  -3   1    2.01    0.75
   8  -3  -1    2.03    0.64
  -8   3   1    2.86    0.75
  -8   3   1    2.87    0.75
   7  -3  -1   52.51    2.05
  -7  -3   1   53.47    2.16
  -7  -3   1   51.41    2.30
  -7   3   1   57.66    2.22
   7   3  -1   50.84    1.89
  -7   3   1   53.12    2.04
  -6  -3   1   29.33    1.78
  -6  -3   1   32.05    1.54
   6  -3  -1   31.78    1.36
  -6   3   1   32.79    1.44
  -6   3   1   30.48    1.52
   6   3  -1   29.50    1.35
   5  -3  -1    2.43    0.55
  -5  -3   1    1.27    0.51
  -5  -3   1    2.19    0.57
  -5   3   1    2.10    0.53
   5   3  -1    1.75    0.42
  -5   3   1    0.59    0.53
  -5   3   1    1.79    0.28
  -4  -3   1    2.84    0.47
   4  -3  -1    3.49    0.55
  -4  -3   1    2.49    0.53
   4  -3  -1    2.80    0.40
  -4   3   1    2.72    0.53
   4   3  -1    3.50    0.48
  -4   3   1    2.42    0.57
  -3  -3   1  281.56    7.99
   3  -3  -1  281.86    7.98
  -3  -3   1  281.66    7.97
  -3  -3   1  282.13    8.10
  -3   3   1  291.70    7.99
  -3   3   1  278.93    8.01
  -3   3   1  282.20    8.15
   3   3  -1  285.86    7.98
  -3   3   1  287.36    7.91
   3   3  -1  281.43    7.80
   3   3  -1  274.45    7.93
  -2  -3   1   57.77    1.97
  -2  -3   1   59.38    2.09
   2  -3  -1   58.30    1.98
  -2  -3   1   60.19    2.04
   2   3  -1   57.89    2.01
   2   3  -1   58.01    1.81
   2   3  -1   57.76    1.97
  -2   3   1   57.44    1.96
  -2   3   1   60.22    2.17
   2   3  -1   57.58    1.99
  -2   3   1   57.27    1.96
  -1  -3   1   98.05    3.05
  -1  -3   1   97.00    3.05
   1  -3  -1  100.28    3.06
   1  -3  -1   97.51    3.00
  -1  -3   1   99.02    3.00
  -1   3   1   95.89    3.07
   1   3  -1   97.12    2.90
   1   3  -1   95.37    3.03
  -1   3   1  101.09    3.02
  -1   3   1   97.61    3.00
   1   3  -1  100.19    3.09
  -1   3   1   97.92    2.99
   1   3  -1   95.59    3.00
   0  -3  -1   19.53    0.91
   0  -3   1   19.70    0.97
   0  -3   1   18.83    0.93
   0  -3  -1   19.12    0.93
   0   3   1   20.12    1.03
   0   3  -1   21.78    1.12
   0   3  -1   18.31    0.93
   0   3  -1   19.34    0.91
   0   3  -1   19.09    0.90
   0   3   1   17.80    1.00
   0   3   1   18.77    0.91
  -1  -3  -1  110.92    3.40
   1  -3   1  110.88    3.39
   1  -3   1  116.51    3.34
  -1  -3  -1  111.56    3.38
  -1   3  -1  109.18    3.49
  -1   3  -1  113.92    3.48
   1   3   1  110.75    3.42
  -1   3  -1  111.84    3.32
   1   3   1  114.28    3.40
   1   3   1  109.89    3.36
  -1   3  -1  112.43    3.39
  -2  -3  -1  112.68    3.65
   2  -3   1  116.18    3.54
  -2  -3  -1  132.12    3.61
  -2  -3  -1  115.50    3.59
  -2   3  -1  118.44    3.47
   2   3   1  120.15    3.62
  -2   3  -1  119.18    3.74
   3  -3   1  160.17    4.67
  -3  -3  -1  175.02    4.77
  -3  -3  -1  173.46    4.93
  -3  -3  -1  169.45    4.67
   3   3   1  154.95    4.56
  -3   3  -1  166.45    4.69
  -3   3  -1  151.67    4.50
  -3   3  -1  155.29    4.96
   3   3   1  161.87    4.65
  -3   3  -1  154.01    4.59
  -3   3  -1  157.72    4.91
   3   3   1  157.86    4.73
   4  -3   1   28.95    1.14
  -4  -3  -1   27.69    1.21
  -4  -3  -1   28.67    1.39
  -4  -3  -1   27.51    1.08
   4   3   1   29.00    1.00
   4   3   1   29.04    1.33
  -4   3  -1   28.86    1.19
  -4   3  -1   31.26    1.71
  -4   3  -1   29.11    1.55
  -5  -3  -1    4.65    0.64
   5  -3   1    5.52    0.58
   5   3   1    6.12    0.39
  -5   3  -1    5.76    1.03
  -5   3  -1    6.40    0.60
  -5   3  -1    5.98    0.88
  -5   3  -1    5.70    0.57
  -6  -3  -1  103.67    3.31
  -6  -3  -1  101.45    3.60
   6  -3   1  102.70    3.18
  -6   3  -1  101.88    3.92
  -6   3  -1   98.91    3.21
  -6   3  -1  104.95    3.65
  -6   3  -1  101.36    3.17
  -7  -3  -1   10.16    1.17
   7  -3   1   10.99    0.82
  -7  -3  -1    9.52    0.90
  -7   3  -1    9.48    0.77
  -8  -3  -1    1.31    0.62
  -8  -3  -1    0.55    0.83
   8  -3   1    1.83    0.51
  -8   3  -1    1.57    0.59
  -9  -3  -1    2.91    0.82
   9  -3   1    1.99    0.57
  -9  -3  -1    2.06    0.72
  -9   3  -1    2.03    0.68
  -9  -4   1    4.32    0.79
  -9  -4   1    3.68    0.97
   9  -4  -1    3.78    0.70
  -9   4   1    3.18    0.81
  -8  -4   1    5.16    0.81
  -8  -4   1    8.17    1.34
   8  -4  -1    4.82    0.70
  -8   4   1    4.95    0.83
  -8   4   1    4.44    0.85
  -7  -4   1   -0.72    0.67
  -7  -4   1    0.58    0.88
   7  -4  -1   -0.16    0.41
  -7   4   1    0.67    0.64
  -7   4   1    1.47    0.64
  -6  -4   1   97.98    3.70
  -6  -4   1   96.87    3.46
   6  -4  -1  100.51    3.39
  -6   4   1  100.15    3.40
   6   4  -1  101.67    3.22
  -6   4   1  103.06    3.38
  -5  -4   1  112.24    3.78
   5  -4  -1  116.47    3.69
  -5  -4   1  117.66    3.91
  -5  -4   1  110.27    3.61
   5   4  -1  113.02    3.41
  -5   4   1  112.35    3.66
   5   4  -1  120.18    3.77
  -5   4   1  114.59    3.78
   5   4  -1  116.22    3.61
  -5   4   1  116.81    4.01
  -4  -4   1   98.47    3.43
  -4  -4   1  102.86    3.30
   4  -4  -1   98.54    3.27
  -4  -4   1  100.90    3.38
   4   4  -1   98.91    3.34
   4   4  -1  104.82    3.28
   4   4  -1   99.88    2.99
  -4   4   1  106.53    3.38
  -4   4   1  100.21    3.32
   4   4  -1  106.85    3.30
  -4   4   1   98.73    3.52
  -4   4   1   99.55    3.13
  -3  -4   1    7.42    0.79
  -3  -4   1    6.31    0.86
  -3  -4   1    6.66    0.75
   3  -4  -1    6.24    0.66
   3   4  -1    6.05    0.73
  -3   4   1    5.60    0.87
  -3   4   1    6.64    0.65
   3   4  -1    6.59    0.81
   3   4  -1    6.29    0.50
  -3   4   1    5.69    0.71
   3   4  -1    5.55    0.60
  -3   4   1    6.70    0.60
  -2  -4   1  150.18    4.51
  -2  -4   1  150.79    4.53
   2  -4  -1  144.45    4.47
  -2  -4   1  143.48    4.51
   2   4  -1  147.68    4.50
  -2   4   1  150.88    4.46
   2   4  -1  147.33    4.48
   2   4  -1  147.53    4.23
  -2   4   1  146.20    4.47
  -2   4   1  145.78    4.65
   2   4  -1  144.63    4.48
   1  -4  -1   94.52    3.09
  -1  -4   1   95.24    3.04
   1  -4  -1   96.07    3.03
  -1  -4   1   91.36    3.07
  -1  -4   1   92.18    3.01
  -1   4   1   94.95    3.17
   1   4  -1   93.07    3.02
   1   4  -1   93.92    3.12
   1   4  -1   91.08    2.86
   1   4  -1   88.70    3.04
  -1   4   1   92.81    3.05
  -1   4   1   93.61    3.02
   0  -4  -1  125.34    3.84
   0  -4  -1  127.47    3.92
   0  -4   1  126.40    3.91
   0  -4   1  122.67    3.83
   0   4   1  121.21    3.89
   0   4  -1  121.81    3.94
   0   4  -1  127.01    3.82
   0   4  -1  127.63    3.87
   0   4  -1  127.20    3.90
   0   4   1  123.54    3.85
   0   4   1  124.97    3.90
   1  -4   1  160.73    4.88
   1  -4   1  165.19    4.84
  -1  -4  -1  166.63    4.93
  -1  -4  -1  165.57    4.91
  -1   4  -1  165.18    4.96
   1   4   1  163.85    4.91
  -1   4  -1  161.90    5.07
   1   4   1  167.82    4.91
  -1   4  -1  162.33    4.85
   1   4   1  160.76    4.90
  -1   4  -1  160.31    4.90
   2  -4   1    8.63    0.70
  -2  -4  -1    7.56    0.77
   2  -4   1    7.51    0.64
  -2  -4  -1    8.47    0.78
   2   4   1    6.96    0.69
  -2   4  -1    7.04    0.90
  -2   4  -1    7.02    0.66
   2   4   1    8.26    0.69
   2   4   1    8.83    0.71
  -2   4  -1    8.18    0.86
  -2   4  -1    8.64    0.67
  -3  -4  -1   25.06    1.46
  -3  -4  -1   21.91    1.24
  -3  -4  -1   24.05    1.13
   3  -4   1   19.65    1.14
  -3   4  -1   18.85    1.22
  -3   4  -1   15.44    0.88
  -3   4  -1   15.54    1.17
  -3   4  -1   18.60    0.91
  -3   4  -1   22.44    1.16
   3   4   1   22.17    1.09
   3   4   1   22.48    1.27
   3   4   1   15.56    0.92
  -4  -4  -1   82.53    2.92
  -4  -4  -1   77.02    2.57
   4  -4   1   84.87    2.74
  -4  -4  -1   81.27    2.74
   4   4   1   76.69    2.63
   4   4   1   81.82    2.52
   4   4   1   79.89    2.75
  -4   4  -1   80.28    3.04
  -4   4  -1   80.07    2.97
  -4   4  -1   77.63    2.65
  -5  -4  -1   79.84    2.86
  -5  -4  -1   66.19    2.39
   5  -4   1   65.45    2.37
  -5   4  -1   68.26    2.38
   5   4   1   61.33    2.39
  -5   4  -1   63.49    2.25
   5   4   1   62.42    2.07
  -5   4  -1   68.72    2.81
  -5   4  -1   63.98    2.77
  -6  -4  -1    6.18    0.90
  -6  -4  -1    7.04    0.87
   6  -4   1    7.12    0.78
  -6   4  -1    7.42    1.27
  -6   4  -1    5.65    1.07
  -6   4  -1    7.04    0.69
  -6   4  -1    5.77    0.73
   6   4   1    6.30    0.86
   7  -4   1    3.74    0.66
  -7  -4  -1    3.50    0.80
  -7  -4  -1    3.52    0.83
   7   4   1    2.91    0.80
  -7   4  -1    4.09    0.68
   8  -4   1    2.24    0.64
  -8  -4  -1    3.21    0.84
  -8  -4  -1    2.24    0.77
  -8   4  -1    2.99    0.66
   8   4   1    3.28    0.67
  -9  -4  -1   11.57    1.52
  -9  -4  -1    9.24    1.13
   9  -4   1   12.48    1.07
  -9   4  -1   10.76    1.00
   9   4   1   11.88    1.09
  -8  -5   1   18.55    1.83
   8  -5  -1   16.14    1.37
  -8  -5   1   14.48    1.43
   8   5  -1   17.23    1.53
  -8   5   1   14.57    1.29
  -7  -5   1   46.51    2.29
   7  -5  -1   47.73    2.06
  -7  -5   1   44.99    2.59
  -7   5   1   43.68    2.00
  -7   5   1   47.31    2.12
   7   5  -1   44.47    2.17
  -6  -5   1    4.07    0.77
   6  -5  -1    4.50    0.88
  -6  -5   1    4.60    1.12
   6   5  -1    5.07    0.82
   6   5  -1    4.98    0.70
  -6   5   1    4.94    0.87
   5  -5  -1    8.84    1.00
  -5  -5   1    9.00    1.06
  -5  -5   1    8.35    0.96
  -5  -5   1    8.51    1.20
  -5   5   1    9.59    0.98
   5   5  -1    9.41    0.88
   5   5  -1   10.18    1.11
  -5   5   1    9.51    1.30
  -5   5   1   10.40    1.06
  -4  -5   1   17.11    1.39
  -4  -5   1   18.81    1.15
   4  -5  -1   16.59    1.15
  -4  -5   1   17.27    1.41
   4   5  -1   17.01    1.19
   4   5  -1   15.90    1.28
   4   5  -1   16.67    1.25
  -4   5   1   19.61    1.69
  -4   5   1   16.66    0.98
  -4   5   1   16.72    1.33
  -4   5   1   16.18    1.23
  -3  -5   1   41.10    1.93
   3  -5  -1   42.91    1.94
  -3  -5   1   43.43    1.98
  -3  -5   1   41.52    1.94
  -3   5   1   41.44    2.20
   3   5  -1   43.56    2.01
   3   5  -1   41.41    1.43
  -3   5   1   44.27    1.94
   3   5  -1   43.03    1.80
   3   5  -1   41.22    1.87
  -3   5   1   43.69    1.74
  -3   5   1   44.16    1.96
   2  -5  -1   75.62    2.63
  -2  -5   1   70.28    2.70
   2  -5  -1   71.23    2.71
  -2  -5   1   68.73    2.74
  -2  -5   1   68.32    2.67
   2   5  -1   75.20    2.71
  -2   5   1   75.55    2.75
   2   5  -1   73.38    2.34
   2   5  -1   77.73    2.77
  -2   5   1   73.50    2.90
  -2   5   1   74.18    2.59
   2   5  -1   72.55    2.72
  -1  -5   1   21.90    1.35
   1  -5  -1   19.85    1.21
  -1  -5   1   21.13    1.22
   1  -5  -1   22.24    1.32
   1   5  -1   20.82    1.04
   1   5  -1   22.03    1.44
  -1   5   1   20.61    1.30
  -1   5   1   21.86    1.41
  -1   5   1   19.56    1.20
   1   5  -1   20.51    1.21
   1   5  -1   21.26    1.22
   0  -5  -1   -0.22    0.59
   0  -5  -1   -0.01    0.45
   0  -5   1   -0.03    0.56
   0  -5   1    0.68    0.48
   0   5  -1    0.33    0.68
   0   5  -1   -0.37    0.43
   0   5   1   -0.26    0.44
   0   5   1    0.39    0.63
   0   5  -1    0.40    0.59
   0   5   1   -0.30    0.61
   0   5  -1    0.54    0.46
   1  -5   1  166.19    5.05
  -1  -5  -1  157.97    5.13
   1  -5   1  167.03    5.15
  -1  -5  -1  163.51    5.14
  -1   5  -1  168.62    5.15
  -1   5  -1  169.45    5.15
   1   5   1  166.06    5.15
  -1   5  -1  169.52    5.08
   1   5   1  165.47    5.14
  -1   5  -1  173.13    5.38
   1   5   1  164.68    5.12
   2  -5   1   51.74    1.93
  -2  -5  -1   53.65    2.18
   2  -5   1   54.65    2.16
  -2  -5  -1   54.67    2.16
   2   5   1   49.74    2.10
   2   5   1   51.06    2.12
  -2   5  -1   54.67    2.28
  -2   5  -1   55.01    2.16
  -2   5  -1   49.44    2.39
   2   5   1   51.46    2.07
  -2   5  -1   52.64    2.02
   3  -5   1   56.25    2.22
  -3  -5  -1   53.55    2.16
  -3   5  -1   59.03    2.25
  -3   5  -1   54.89    2.46
  -3   5  -1   50.83    2.49
  -4  -5  -1   12.08    1.27
  -4  -5  -1   10.72    1.06
  -4  -5  -1   15.54    1.64
   4  -5   1   13.32    1.08
   4   5   1   12.12    0.98
  -4   5  -1   12.39    1.22
  -4   5  -1   12.12    1.19
   4   5   1   13.14    1.08
  -4   5  -1   12.21    1.06
  -4   5  -1   10.65    0.83
  -5  -5  -1  115.36    3.87
  -5  -5  -1  113.78    4.09
   5  -5   1  113.40    3.78
  -5   5  -1  111.15    3.75
  -5   5  -1  110.81    4.28
   5   5   1  114.12    3.83
  -5   5  -1  106.31    4.15
   6  -5   1    8.26    0.84
  -6  -5  -1    8.92    1.09
  -6  -5  -1   10.22    1.34
  -6   5  -1    9.57    1.00
  -6   5  -1    7.49    1.39
  -6   5  -1    8.78    1.15
   6   5   1    7.40    1.05
   7  -5   1    0.59    0.49
  -7  -5  -1    0.48    1.02
  -7  -5  -1    0.22    0.55
  -7   5  -1   -0.78    0.98
  -7   5  -1    0.15    0.64
   7   5   1    0.00    0.53
  -8  -5  -1    6.30    1.09
   8  -5   1    6.36    0.95
  -8  -5  -1    9.66    1.49
  -8   5  -1    8.63    1.03
   8   5   1    7.27    1.12
   7  -6  -1    0.80    0.87
  -7  -6   1    0.61    1.12
  -7  -6   1    0.12    0.92
  -7   6   1    0.23    0.84
  -7   6   1    0.43    0.81
   7   6  -1    0.27    0.66
  -6  -6   1    9.00    1.43
  -6  -6   1    9.86    1.12
   6  -6  -1    9.29    1.18
   6   6  -1    9.82    1.11
  -6   6   1   11.19    1.25
  -5  -6   1    0.87    0.99
   5  -6  -1   -0.02    0.55
  -5  -6   1    0.35    0.83
  -5   6   1    0.90    0.82
  -5   6   1    0.21    0.64
  -5   6   1    0.33    0.74
   5   6  -1    1.06    0.65
   5   6  -1    1.07    0.91
  -4  -6   1   11.82    1.11
  -4  -6   1   12.16    1.35
   4  -6  -1   13.95    1.27
  -4  -6   1   10.64    1.04
  -4   6   1   10.42    1.45
  -4   6   1   13.45    1.17
   4   6  -1   12.31    1.04
  -4   6   1   13.00    1.25
   4   6  -1   11.67    1.13
  -3  -6   1    6.41    0.85
  -3  -6   1    5.49    0.80
   3  -6  -1    5.22    0.97
  -3   6   1    5.78    0.83
  -3   6   1    4.15    0.87
   3   6  -1    4.94    0.93
   3   6  -1    6.05    0.93
  -3   6   1    6.81    0.89
   3   6  -1    4.85    1.01
  -2  -6   1   88.45    3.33
   2  -6  -1   92.07    3.25
  -2  -6   1   93.13    3.29
   2  -6  -1   91.72    3.38
   2   6  -1   88.75    3.28
   2   6  -1   88.69    3.01
  -2   6   1   91.21    3.21
   2   6  -1   95.06    3.37
  -2   6   1   92.65    3.58
  -2   6   1   88.47    3.36
   2   6  -1   95.48    3.43
  -1  -6   1    1.23    0.78
   1  -6  -1    0.14    0.53
  -1  -6   1   -0.09    0.71
   1  -6  -1    1.01    0.68
   1   6  -1    0.46    0.42
   1   6  -1    0.47    0.54
   1   6  -1   -0.08    0.72
  -1   6   1   -0.11    0.50
  -1   6   1    0.45    0.77
  -1   6   1   -0.77    0.55
   1   6  -1   -0.18    0.50
   0  -6  -1    0.33    0.51
   0  -6   1    0.56    0.74
   0  -6  -1    0.06    0.52
   0  -6   1    1.28    0.71
   0   6  -1    0.12    0.51
   0   6   1    0.69    0.76
   0   6   1    0.20    0.52
   0   6  -1   -1.31    0.66
   0   6   1    0.07    0.74
   0   6  -1    0.34    0.81
   0   6  -1    0.70    0.77
   1  -6   1   11.24    1.06
   1  -6   1   14.01    1.13
  -1  -6  -1   14.31    1.13
  -1  -6  -1   15.95    1.27
   1   6   1   14.95    1.17
   1   6   1   14.02    1.14
  -1   6  -1   15.99    1.22
  -1   6  -1   12.04    1.18
   1   6   1   14.56    1.14
  -1   6  -1   13.42    1.24
  -1   6  -1   14.91    1.25
  -2  -6  -1   71.10    2.76
  -2  -6  -1   73.53    2.82
   2  -6   1   76.36    2.94
  -2   6  -1   77.19    2.98
  -2   6  -1   76.11    2.77
   2   6   1   75.56    3.00
   2   6   1   75.82    2.89
   2   6   1   75.71    2.86
  -2   6  -1   74.57    3.05
  -2   6  -1   74.71    2.93
  -3  -6  -1    6.06    0.84
   3  -6   1    6.03    0.96
  -3  -6  -1    5.00    0.87
  -3   6  -1    5.10    0.69
  -3   6  -1    4.82    0.96
  -3   6  -1    4.29    1.12
  -3   6  -1    5.23    0.86
   3   6   1    3.74    0.76
   3   6   1    4.51    0.82
   4  -6   1   56.40    2.34
  -4  -6  -1   59.23    2.42
  -4   6  -1   54.14    2.31
  -4   6  -1   54.15    2.77
  -4   6  -1   55.22    2.84
   4   6   1   53.76    2.40
   4   6   1   55.52    2.20
   5  -6   1    0.66    0.80
  -5  -6  -1    0.90    0.88
   5   6   1    1.89    0.96
  -5   6  -1    0.16    0.76
  -5   6  -1    0.55    0.78
  -5   6  -1    1.35    0.81
   6  -6   1   79.83    3.04
  -6  -6  -1   81.04    3.27
  -6   6  -1   81.82    3.52
   6   6   1   79.93    3.31
  -6   6  -1   82.74    3.16
   7  -6   1   11.09    1.23
  -7  -6  -1    9.33    1.31
   7   6   1   11.55    1.41
  -7   6  -1   10.31    1.61
  -7   6  -1   11.00    1.23
  -6  -7   1    5.04    1.24
  -6  -7   1    4.06    1.32
   6  -7  -1    2.82    1.07
   6   7  -1    3.49    1.19
  -6   7   1    4.76    1.13
   5  -7  -1    6.90    1.20
  -5  -7   1    6.99    1.26
  -5   7   1    8.35    1.52
   5   7  -1    6.98    1.10
   5   7  -1    4.96    0.99
  -5   7   1    6.17    1.18
   4  -7  -1    6.27    1.15
  -4  -7   1    5.14    0.91
  -4   7   1    6.81    1.18
   4   7  -1    5.71    1.01
   4   7  -1    5.90    1.22
  -4   7   1    5.56    0.98
  -4   7   1    5.17    1.05
  -3  -7   1   68.03    2.81
   3  -7  -1   65.13    2.97
  -3  -7   1   66.65    2.80
   3   7  -1   70.20    2.97
  -3   7   1   67.23    2.97
  -3   7   1   64.07    3.23
   3   7  -1   69.84    3.06
   3   7  -1   70.45    2.97
   2  -7  -1   17.70    1.55
  -2  -7   1   17.98    1.45
  -2  -7   1   17.72    1.51
   2   7  -1   19.34    1.60
  -2   7   1   21.45    1.55
   2   7  -1   18.24    1.55
   2   7  -1   20.22    1.74
  -2   7   1   17.45    1.69
  -2   7   1   19.58    1.60
  -1  -7   1    3.47    0.96
   1  -7  -1    3.68    1.02
  -1  -7   1    3.03    0.78
   1  -7  -1    1.53    0.86
  -1   7   1    3.02    1.04
  -1   7   1    2.28    0.74
  -1   7   1    2.32    0.76
   1   7  -1    3.98    1.06
   1   7  -1    3.51    0.98
   1   7  -1    4.64    1.05
   0  -7  -1   13.08    1.35
   0  -7   1   10.58    1.19
   0  -7   1    9.97    1.27
   0  -7  -1   10.87    1.23
   0   7  -1   12.86    1.35
   0   7  -1   10.33    1.36
   0   7   1   10.27    1.12
   0   7   1   11.11    1.12
   0   7  -1    9.91    0.99
   0   7   1   12.16    1.37
   0   7  -1    9.90    1.19
  -1  -7  -1   71.69    2.90
  -1  -7  -1   74.63    3.06
   1  -7   1   70.18    2.93
  -1   7  -1   73.17    2.90
   1   7   1   75.98    2.94
   1   7   1   76.11    3.11
  -1   7  -1   73.76    3.30
  -1   7  -1   75.16    2.85
   1   7   1   70.74    3.04
  -1   7  -1   70.52    3.07
  -2  -7  -1   14.04    1.43
   2  -7   1   14.43    1.44
  -2  -7  -1   14.45    1.37
   2   7   1   12.91    1.34
   2   7   1   12.87    1.30
  -2   7  -1   15.78    1.41
   2   7   1   13.53    1.30
  -2   7  -1   13.37    1.41
  -2   7  -1   12.66    1.58
   3  -7   1    4.65    1.07
  -3  -7  -1    4.67    1.07
  -3   7  -1    7.48    1.16
   3   7   1    5.02    1.14
   3   7   1    5.11    0.91
  -3   7  -1    5.40    0.95
  -3   7  -1    5.02    1.03
  -4  -7  -1   26.47    1.99
   4  -7   1   24.89    1.92
   4   7   1   29.47    1.87
  -4   7  -1   29.04    1.99
  -4   7  -1   26.59    2.16
  -4   7  -1   31.91    2.40
  -5  -7  -1   17.68    1.66
   5  -7   1   17.11    1.53
  -5   7  -1   16.51    1.89
   5   7   1   16.99    1.66
  -5   7  -1   15.59    1.51
   3  -8  -1    1.96    1.08
  -3  -8   1    0.57    1.06
  -3  -8   1    1.09    0.77
   3   8  -1    2.42    0.89
   3   8  -1    2.35    1.01
  -3   8   1    3.19    1.17
  -3   8   1    2.55    1.32
  -2  -8   1   18.90    1.74
  -2  -8   1   13.21    1.56
   2  -8  -1   19.76    1.65
   2   8  -1   20.86    1.78
   2   8  -1   30.40    2.10
   2   8  -1   18.12    1.61
  -2   8   1   26.86    2.09
  -1  -8   1    1.27    0.81
  -1  -8   1    0.35    0.68
   1  -8  -1   -0.08    0.70
   1   8  -1    0.76    1.07
  -1   8   1    1.45    1.01
   1   8  -1   -1.83    0.88
  -1   8   1    0.40    1.06
  -1   8   1    0.96    1.07
   1   8  -1    0.94    1.05
   0  -8   1   49.43    2.54
   0  -8  -1   53.00    2.56
   0  -8  -1   58.21    2.74
   0   8   1   55.77    2.81
   0   8   1   47.98    2.60
   0   8  -1   53.99    2.70
   0   8  -1   52.40    2.80
   0   8   1   57.54    2.82
   0   8  -1   57.67    3.01
  -1  -8  -1    1.31    0.76
   1  -8   1    1.65    0.85
  -1  -8  -1    1.92    0.77
   1   8   1    1.94    1.08
   1   8   1    0.20    1.01
  -1   8  -1    1.70    1.12
   1   8   1    1.84    1.02
  -1   8  -1   -0.52    1.11
  -2  -8  -1    2.26    1.01
  -2  -8  -1    2.27    1.10
   2  -8   1    0.60    1.06
  -2   8  -1    1.70    1.08
   2   8   1    1.21    0.82
   2   8   1    3.70    1.01
  -2   8  -1    1.96    0.93
  -3  -8  -1    3.24    0.93
   3  -8   1    3.27    1.14
   3   8   1    2.95    0.97
   3   8   1    2.68    1.18
  -3   8  -1    4.10    1.24
  -3   8  -1    4.60    1.40
 -11   0   2    0.12    0.69
 -11   0   2   -0.25    0.90
 -10   0   2   38.08    2.24
 -10   0   2   39.43    1.88
  10   0  -2   36.68    1.74
  -9   0   2   -0.10    0.55
  -9   0   2   -0.51    0.74
   9   0  -2   -0.58    0.56
  -8   0   2   30.66    1.86
  -8   0   2   32.69    1.53
   8   0  -2   30.88    1.54
  -7   0   2    0.54    0.52
  -7   0   2   -0.09    0.45
   7   0  -2    0.08    0.33
   6   0  -2  191.88    5.52
  -6   0   2  190.50    5.70
  -6   0   2  185.03    5.49
  -5   0   2   -0.05    0.22
   5   0  -2   -0.32    0.38
  -5   0   2   -0.04    0.36
  -5   0   2   -0.28    0.51
   4   0  -2    2.60    0.36
  -4   0   2    2.08    0.35
  -4   0   2    2.17    0.41
   4   0  -2    2.12    0.29
   4   0  -2    2.16    0.35
  -4   0   2    2.67    0.44
   3   0  -2   -0.19    0.26
  -3   0   2   -0.24    0.34
  -3   0   2   -0.87    0.31
   3   0  -2   -0.64    0.31
   3   0  -2   -0.63    0.35
  -3   0   2   -0.15    0.32
   2   0  -2   77.54    2.29
   2   0  -2   76.91    2.27
   2   0  -2   77.16    2.26
  -2   0   2   76.29    2.26
  -2   0   2   72.51    2.29
  -2   0   2   74.52    2.26
   1   0  -2   -0.49    0.22
   1   0  -2   -0.17    0.21
  -1   0   2    0.21    0.29
  -1   0   2   -0.41    0.20
   1   0  -2   -0.30    0.19
  -1   0   2   -0.38    0.32
  -1   0   2   -0.34    0.27
   0   0  -2   41.25    1.19
   0   0   2   39.26    1.21
   0   0   2   40.51    1.22
   0   0  -2   40.53    1.36
   0   0  -2   40.08    1.21
   0   0   2   41.20    1.20
   0   0  -2   42.67    1.35
  -1   0  -2   -0.04    0.33
  -1   0  -2   -0.16    0.29
  -1   0  -2   -0.10    0.19
  -2   0  -2   79.81    2.37
  -2   0  -2   80.79    2.30
  -2   0  -2   80.91    2.49
  -2   0  -2   80.64    2.31
  -3   0  -2   -0.19    0.21
  -3   0  -2   -0.45    0.27
  -3   0  -2   -0.24    0.17
  -4   0  -2   36.21    1.27
  -4   0  -2   34.81    1.46
  -5   0  -2    0.10    0.08
  -5   0  -2   -0.10    0.56
  -5   0  -2    0.41    0.32
  -5   0  -2    0.10    0.08
  -6   0  -2    8.31    0.44
  -6   0  -2    8.64    1.01
   6   0   2    9.03    0.41
   6   0   2    8.98    0.43
  -6   0  -2    9.07    0.43
  -6   0  -2    8.64    0.70
  -7   0  -2   -0.31    0.27
   7   0   2   -0.20    0.25
  -7   0  -2   -0.07    0.43
   8   0   2   23.98    0.99
  -8   0  -2   24.37    1.35
  -8   0  -2   23.10    1.00
   9   0   2    0.02    0.39
  -9   0  -2   -0.13    0.37
  10  -1  -2   15.33    1.21
 -10  -1   2   14.63    1.32
 -10  -1   2   16.25    1.56
 -10   1   2   12.23    1.36
  10   1  -2   16.98    1.32
 -10   1   2   15.11    1.20
  -9  -1   2   64.10    2.48
  -9  -1   2   67.19    2.72
   9  -1  -2   65.41    2.39
  -9   1   2   56.37    2.37
  -9   1   2   64.95    2.76
   9   1  -2   65.57    2.43
  -8  -1   2    0.82    0.82
  -8  -1   2    1.44    0.62
   8  -1  -2    1.79    0.63
  -8   1   2    1.62    0.79
  -8   1   2    1.18    0.55
   8   1  -2    1.51    0.63
   7  -1  -2    8.56    0.79
  -7  -1   2    7.07    0.75
  -7  -1   2    8.92    0.92
  -7   1   2    8.44    0.86
  -7   1   2    8.94    0.76
   7   1  -2    7.72    0.73
  -6  -1   2    1.19    0.64
  -6  -1   2    0.56    0.47
  -6  -1   2    0.64    0.25
   6  -1  -2    1.18    0.46
   6   1  -2    2.04    0.54
  -6   1   2    0.05    0.41
  -6   1   2    0.14    0.58
   4  -1  -2   39.66    1.40
   4  -1  -2   42.34    1.41
  -4  -1   2   41.47    1.46
  -4  -1   2   39.77    1.65
  -4  -1   2   40.08    1.44
   4  -1  -2   41.03    1.49
  -4   1   2   41.44    1.41
  -4   1   2   41.37    1.54
   4   1  -2   40.72    1.53
  -4   1   2   40.27    1.47
   4   1  -2   42.84    1.43
  -3  -1   2  161.00    4.78
   3  -1  -2  164.85    4.65
   3  -1  -2  165.20    4.67
  -3  -1   2  165.13    4.69
   3  -1  -2  165.81    4.65
  -3  -1   2  167.09    4.69
  -3   1   2  160.04    4.72
   3   1  -2  165.42    4.68
   3   1  -2  163.46    4.69
  -3   1   2  163.04    4.65
  -3   1   2  163.31    4.67
  -2  -1   2    7.73    0.55
   2  -1  -2    7.96    0.66
  -2  -1   2    8.35    0.73
   2  -1  -2    6.99    0.67
  -2  -1   2    7.89    0.68
  -2   1   2    8.21    0.65
   2   1  -2    8.49    0.55
   2   1  -2    8.38    0.68
  -2   1   2    7.15    0.64
  -2   1   2    7.26    0.52
  -1  -1   2  403.90   11.04
   1  -1  -2  401.90   11.04
   1  -1  -2  411.88   11.09
  -1  -1   2  404.80   11.02
  -1  -1   2  409.66   11.02
   1   1  -2  406.66   11.05
  -1   1   2  397.29   11.03
   1   1  -2  410.78   11.08
  -1   1   2  404.62   11.03
   1   1  -2  401.67   11.08
   0  -1  -2  302.87    8.39
   0  -1  -2  290.70    8.29
   0  -1   2  314.86    8.27
   0  -1  -2  301.91    8.29
   0  -1   2  303.62    8.23
   0  -1   2  301.19    8.31
   0   1   2  303.92    8.31
   0   1  -2  303.29    8.37
   0   1  -2  313.16    8.41
   0   1  -2  312.47    8.27
   0   1   2  292.66    8.29
   0   1  -2  305.51    8.30
  -1  -1  -2    0.61    0.23
  -1  -1  -2    0.62    0.18
   1  -1   2    0.72    0.17
  -1  -1  -2    0.83    0.23
  -1  -1  -2    1.01    0.36
   1  -1   2    0.66    0.19
  -1  -1  -2    0.52    0.22
   1   1   2    0.66    0.21
   1   1   2    0.64    0.23
  -1   1  -2    0.82    0.34
  -1   1  -2    0.69    0.23
   1   1   2    0.76    0.23
  -1   1  -2    0.56    0.16
  -1   1  -2    0.24    0.26
  -2  -1  -2   60.53    1.85
  -2  -1  -2   60.68    1.74
  -2  -1  -2   60.83    1.88
  -2  -1  -2   57.89    1.74
   2  -1   2   60.10    1.63
   2  -1   2   60.00    1.63
  -2  -1  -2   60.88    1.89
  -2   1  -2   60.27    1.64
  -2   1  -2   59.60    2.03
   2   1   2   59.73    1.74
  -2   1  -2   58.78    1.92
  -2   1  -2   58.87    1.65
  -3  -1  -2   12.82    0.50
  -3  -1  -2   11.47    0.49
  -3  -1  -2   11.13    0.63
  -3  -1  -2   12.88    0.62
  -3  -1  -2   11.50    0.74
  -3   1  -2   11.45    0.73
   3   1   2   12.09    0.47
  -3   1  -2   13.21    0.50
  -3   1  -2   11.77    0.84
  -4  -1  -2  188.19    5.35
  -4  -1  -2  191.97    5.29
  -4  -1  -2  193.98    5.60
  -4  -1  -2  193.63    5.30
  -4  -1  -2  189.41    5.51
  -4   1  -2  194.12    5.81
   4   1   2  194.74    5.28
  -4   1  -2  189.13    5.53
  -4   1  -2  194.10    5.35
   4   1   2  194.82    5.29
  -5  -1  -2  132.80    4.02
  -5  -1  -2  133.29    3.69
  -5  -1  -2  133.82    3.75
   5  -1   2  131.34    3.58
   5  -1   2  128.69    3.58
  -5  -1  -2  133.46    3.73
  -5   1  -2  136.32    3.62
   5   1   2  136.89    3.75
  -5   1  -2  134.32    3.83
   5   1   2  130.01    3.72
  -5   1  -2  132.62    4.01
  -5   1  -2  129.48    3.61
  -5   1  -2  128.36    4.27
   6  -1   2   85.36    2.50
  -6  -1  -2   88.47    2.63
  -6  -1  -2   91.03    2.96
   6  -1   2   88.48    2.49
  -6  -1  -2   87.22    2.60
  -6   1  -2   86.81    2.74
  -6   1  -2   89.13    2.53
  -6   1  -2   89.29    3.35
   6   1   2   88.70    2.64
  -6   1  -2   87.67    2.51
   7  -1   2   37.55    1.28
  -7  -1  -2   40.52    1.77
  -7  -1  -2   38.77    1.42
  -7   1  -2   41.05    1.60
   7   1   2   38.21    1.43
  -7   1  -2   38.94    1.29
  -8  -1  -2   12.62    1.08
   8  -1   2   11.35    0.69
  -8  -1  -2    9.86    0.79
  -8   1  -2    9.92    0.73
   9  -1   2    9.95    0.70
  -9  -1  -2   11.26    1.10
  -9  -1  -2   11.53    0.93
  -9   1  -2   10.22    0.77
 -10  -2   2   22.68    1.86
 -10  -2   2   20.89    1.58
  10  -2  -2   23.44    1.53
 -10   2   2   21.46    1.78
 -10   2   2   21.63    1.47
  -9  -2   2   42.27    2.36
  -9  -2   2   38.99    1.92
   9  -2  -2   40.30    1.88
  -9   2   2   37.14    1.83
  -9   2   2   40.92    2.12
   8  -2  -2    1.56    0.65
  -8  -2   2    1.44    0.69
  -8  -2   2    2.65    0.92
  -8   2   2    2.44    0.65
  -8   2   2    1.36    0.79
  -7  -2   2   23.80    1.64
  -7  -2   2   22.40    1.33
   7  -2  -2   23.03    1.00
   7  -2  -2   22.36    1.30
  -7   2   2   23.55    1.32
  -7   2   2   23.57    1.26
   6  -2  -2   24.54    1.05
  -6  -2   2   21.90    1.50
  -6  -2   2   24.16    1.28
  -6  -2   2   21.11    0.97
   6  -2  -2   24.81    1.24
  -6   2   2   22.75    1.22
  -6   2   2   24.04    1.22
  -5  -2   2  103.46    3.27
  -5  -2   2  102.92    3.43
  -5  -2   2  101.02    3.14
   5  -2  -2  104.14    3.16
   5  -2  -2  103.97    3.22
   5  -2  -2  100.65    3.06
  -5   2   2  101.59    3.05
  -5   2   2  104.03    3.21
  -5   2   2  107.31    3.34
   5   2  -2   99.64    3.13
   4  -2  -2    3.41    0.43
   4  -2  -2    3.07    0.50
  -4  -2   2    4.20    0.51
  -4  -2   2    4.64    0.57
  -4  -2   2    3.41    0.65
  -4   2   2    3.52    0.59
  -4   2   2    3.04    0.50
  -4   2   2    3.84    0.65
   4   2  -2    4.00    0.50
  -4   2   2    3.93    0.45
  -3  -2   2   28.24    1.24
  -3  -2   2   29.75    1.18
   3  -2  -2   31.16    1.23
  -3  -2   2   28.99    1.26
   3   2  -2   30.42    1.22
  -3   2   2   28.17    1.35
  -3   2   2   30.43    1.18
  -3   2   2   28.97    1.21
   3   2  -2   31.39    1.28
  -2  -2   2  459.60   12.73
   2  -2  -2  460.46   12.73
  -2  -2   2  456.60   12.74
  -2  -2   2  464.31   12.72
  -2   2   2  468.03   12.83
  -2   2   2  466.90   12.71
   2   2  -2  464.70   12.73
   2   2  -2  468.96   12.77
   2   2  -2  467.18   12.71
  -2   2   2  466.65   12.72
  -1  -2   2  586.14   15.77
   1  -2  -2  582.36   15.78
   1  -2  -2  564.84   15.79
  -1  -2   2  596.35   15.78
  -1  -2   2  585.74   15.82
   1   2  -2  573.01   15.80
   1   2  -2  577.41   15.80
  -1   2   2  565.05   15.79
  -1   2   2  576.71   15.79
   1   2  -2  597.74   15.80
   1   2  -2  581.23   15.86
   0  -2  -2    7.18    0.54
   0  -2  -2    7.63    0.57
   0  -2   2    7.04    0.56
   0  -2   2    7.12    0.54
   0  -2   2    7.13    0.50
   0   2   2    6.45    0.58
   0   2   2    7.69    0.57
   0   2  -2    6.87    0.57
   0   2  -2    6.42    0.59
   0   2  -2    7.55    0.66
   0   2  -2    7.50    0.52
   0   2   2    7.50    0.51
  -1  -2  -2   65.80    2.11
   1  -2   2   65.21    2.07
  -1  -2  -2   76.42    2.13
  -1  -2  -2   67.46    1.90
   1  -2   2   69.11    2.02
  -1   2  -2   64.56    2.25
   1   2   2   65.00    2.13
  -1   2  -2   66.49    2.23
  -1   2  -2   66.64    2.02
  -1   2  -2   73.83    2.11
   1   2   2   72.44    2.10
   1   2   2   66.97    2.04
  -2  -2  -2  602.96   16.53
  -2  -2  -2  600.59   16.38
  -2  -2  -2  609.28   16.65
  -2  -2  -2  631.71   16.48
   2  -2   2  624.80   16.50
   2   2   2  614.26   16.55
  -2   2  -2  614.15   16.79
  -2   2  -2  616.95   16.47
  -2   2  -2  612.00   16.70
   2   2   2  579.84   16.46
  -2   2  -2  597.08   16.48
  -3  -2  -2  231.78    6.61
  -3  -2  -2  229.88    6.43
   3  -2   2  227.79    6.36
  -3  -2  -2  233.23    6.44
   3  -2   2  237.40    6.36
  -3   2  -2  233.10    6.35
  -3   2  -2  227.51    6.36
  -3   2  -2  233.67    6.64
   3   2   2  238.46    6.46
  -3   2  -2  220.76    6.30
  -3   2  -2  221.42    6.76
  -4  -2  -2   44.49    1.78
  -4  -2  -2   46.12    1.54
  -4  -2  -2   45.59    1.54
   4  -2   2   46.52    1.44
  -4  -2  -2   45.19    1.60
   4  -2   2   45.26    1.44
  -4   2  -2   44.44    2.03
  -4   2  -2   44.93    1.80
  -4   2  -2   44.81    1.42
  -4   2  -2   44.93    1.44
  -5  -2  -2    5.14    0.45
  -5  -2  -2    3.78    0.68
   5  -2   2    4.88    0.40
  -5  -2  -2    5.94    0.50
   5  -2   2    5.48    0.39
  -5  -2  -2    5.60    0.55
  -5   2  -2    5.84    0.63
   5   2   2    5.56    0.49
  -5   2  -2    3.96    0.73
  -5   2  -2    4.21    0.45
  -5   2  -2    5.04    0.40
   6  -2   2  152.93    4.22
  -6  -2  -2  146.09    4.35
  -6  -2  -2  154.06    4.69
  -6   2  -2  146.80    5.04
  -6   2  -2  147.74    4.22
  -6   2  -2  144.73    4.62
  -6   2  -2  143.81    4.30
  -7  -2  -2  120.43    4.04
   7  -2   2  119.07    3.52
  -7  -2  -2  124.57    3.71
  -7   2  -2  115.89    4.33
  -7   2  -2  121.79    3.55
   8  -2   2   85.44    2.66
  -8  -2  -2   81.88    3.08
  -8  -2  -2   89.80    2.85
  -8   2  -2   79.21    2.62
   9  -2   2    3.89    0.58
 -10  -3   2    6.15    1.09
 -10  -3   2    7.25    1.39
  10  -3  -2    6.58    0.85
 -10   3   2    6.66    0.98
 -10   3   2    7.36    1.13
  -9  -3   2   13.71    1.27
   9  -3  -2   14.24    1.14
  -9  -3   2   16.78    1.46
  -9   3   2   13.55    1.31
  -9   3   2   14.69    1.21
  -8  -3   2  140.94    4.90
  -8  -3   2  147.41    4.66
   8  -3  -2  142.37    4.56
  -8   3   2  149.89    4.79
  -8   3   2  144.58    4.60
   8   3  -2  142.16    4.57
   7  -3  -2   65.36    2.25
  -7  -3   2   63.07    2.76
   7  -3  -2   62.89    2.41
  -7  -3   2   64.49    2.50
  -7   3   2   60.30    2.51
   7   3  -2   62.72    2.31
  -7   3   2   64.86    2.41
  -6  -3   2   19.14    1.51
   6  -3  -2   18.96    1.21
  -6   3   2   14.31    1.22
  -6   3   2   19.11    1.19
  -5  -3   2   88.63    2.92
  -5  -3   2   92.84    3.25
   5  -3  -2   96.24    3.02
   5  -3  -2   86.72    2.80
  -5  -3   2   95.01    3.08
   5   3  -2   86.92    2.91
  -5   3   2   93.01    2.99
  -5   3   2   93.11    3.08
   5   3  -2   84.72    2.91
  -5   3   2   90.98    2.81
  -4  -3   2  310.15    8.81
   4  -3  -2  319.46    8.79
  -4  -3   2  308.93    8.76
  -4  -3   2  295.18    8.87
  -4   3   2  314.26    8.92
  -4   3   2  313.43    8.77
   4   3  -2  301.25    8.74
   4   3  -2  308.35    8.77
  -4   3   2  316.67    8.68
  -3  -3   2  170.25    5.21
  -3  -3   2  175.33    5.14
   3  -3  -2  176.58    5.13
  -3  -3   2  174.99    5.13
  -3   3   2  180.15    5.10
  -3   3   2  176.96    5.33
  -3   3   2  171.80    5.11
  -3   3   2  174.91    5.24
   3   3  -2  178.00    5.15
   3   3  -2  168.85    5.15
   3   3  -2  170.98    5.02
  -2  -3   2  146.94    4.39
  -2  -3   2  148.07    4.45
   2  -3  -2  150.97    4.42
  -2  -3   2  148.84    4.46
  -2   3   2  148.90    4.52
   2   3  -2  146.89    4.41
   2   3  -2  149.52    4.33
  -2   3   2  147.94    4.40
   2   3  -2  150.82    4.45
  -2   3   2  151.21    4.44
   2   3  -2  145.96    4.47
  -1  -3   2   97.56    3.06
   1  -3  -2   99.23    3.12
  -1  -3   2  103.99    3.14
   1  -3  -2   98.36    3.07
  -1  -3   2   99.38    3.04
   1   3  -2   97.65    3.08
  -1   3   2  100.17    3.07
  -1   3   2   99.62    3.07
  -1   3   2   98.16    3.16
   1   3  -2   99.65    3.11
   1   3  -2   97.74    3.02
   1   3  -2   99.34    3.15
   0  -3  -2  114.58    3.50
   0  -3  -2  114.05    3.51
   0  -3   2  117.40    3.46
   0  -3   2  117.85    3.43
   0  -3   2  116.43    3.53
   0   3  -2  117.75    3.48
   0   3   2  113.58    3.50
   0   3  -2  115.18    3.53
   0   3   2  115.05    3.50
   0   3   2  115.83    3.49
   0   3  -2  113.59    3.51
   0   3  -2  115.47    3.64
   1  -3   2  372.36   10.09
  -1  -3  -2  407.26   10.22
   1  -3   2  358.29   10.17
  -1  -3  -2  359.77   10.17
  -1   3  -2  358.91   10.08
   1   3   2  357.04   10.11
  -1   3  -2  388.68   10.37
  -1   3  -2  357.59   10.15
   1   3   2  353.22   10.14
   1   3   2  365.24   10.20
  -1   3  -2  352.93   10.30
  -2  -3  -2  104.49    3.15
  -2  -3  -2   98.48    3.08
   2  -3   2  102.49    3.08
  -2   3  -2  101.55    3.09
  -2   3  -2  101.16    2.88
   2   3   2   98.95    3.06
  -2   3  -2  101.32    3.39
  -2   3  -2  102.41    2.96
   2   3   2  100.29    2.99
  -2   3  -2  103.17    3.36
   2   3   2  103.08    3.17
  -3  -3  -2    9.43    0.72
   3  -3   2    9.52    0.72
  -3  -3  -2    9.22    0.62
  -3  -3  -2   10.14    0.83
   3   3   2    9.98    0.49
  -3   3  -2    8.71    0.86
  -3   3  -2   10.07    0.70
  -3   3  -2    8.30    0.80
   3   3   2    8.70    0.72
   3   3   2   10.39    0.60
  -4  -3  -2   13.68    0.98
   4  -3   2   12.49    0.78
  -4  -3  -2   12.98    0.88
  -4   3  -2   13.75    0.74
  -4   3  -2   12.75    1.07
  -4   3  -2   11.85    0.84
  -4   3  -2   12.00    0.69
  -4   3  -2   13.99    1.25
   4   3   2   12.12    0.80
   5  -3   2  299.06    8.07
  -5  -3  -2  288.73    8.39
  -5  -3  -2  286.00    8.17
   5   3   2  287.48    8.19
  -5   3  -2  290.23    8.05
  -5   3  -2  278.16    8.64
  -5   3  -2  278.33    7.99
  -5   3  -2  291.36    8.49
  -6  -3  -2    7.57    0.67
   6  -3   2    9.37    0.73
  -6  -3  -2    9.25    0.80
  -6   3  -2    8.49    1.26
  -6   3  -2    8.87    0.67
  -6   3  -2    8.83    1.05
  -7  -3  -2    1.44    0.54
   7  -3   2    0.87    0.41
  -7  -3  -2    1.34    0.80
  -7   3  -2    1.60    1.07
  -7   3  -2    1.80    0.43
   8  -3   2   11.95    0.89
  -8  -3  -2   11.88    1.00
  -8  -3  -2   13.31    1.32
  -8   3  -2   11.73    0.84
   9  -3   2   57.01    2.19
  -9  -3  -2   61.31    2.40
  -9  -3  -2   63.88    2.90
  -9   3  -2   61.46    2.24
  -9  -4   2   11.66    1.30
   9  -4  -2   12.13    1.10
  -9  -4   2   14.12    1.45
  -9   4   2   13.40    1.25
  -9   4   2   14.12    1.33
   8  -4  -2    6.08    0.95
  -8  -4   2    8.13    1.10
  -8  -4   2    5.48    1.23
  -8   4   2    4.74    0.96
  -8   4   2    6.60    0.96
  -7  -4   2   66.98    2.62
  -7  -4   2   65.78    3.00
   7  -4  -2   66.72    2.64
   7   4  -2   65.14    2.50
  -7   4   2   67.77    2.58
  -7   4   2   69.24    2.61
  -6  -4   2  153.21    5.21
  -6  -4   2  158.62    5.03
   6  -4  -2  159.56    4.96
   6   4  -2  158.63    4.86
  -6   4   2  157.61    4.99
  -6   4   2  156.99    4.93
   5  -4  -2   50.73    2.06
  -5  -4   2   50.64    2.12
  -5  -4   2   40.17    2.03
  -5  -4   2   48.91    1.97
   5   4  -2   50.19    1.97
  -5   4   2   52.90    2.06
  -5   4   2   48.08    2.14
   5   4  -2   46.05    1.74
   5   4  -2   49.38    1.96
  -5   4   2   47.26    1.80
   4  -4  -2  104.25    3.43
  -4  -4   2  101.07    3.38
  -4  -4   2  104.12    3.42
  -4  -4   2  102.20    3.56
   4   4  -2  101.82    3.15
   4   4  -2  100.88    3.38
  -4   4   2  106.60    3.44
  -4   4   2  102.40    3.50
  -4   4   2  109.44    3.32
  -4   4   2   98.96    3.65
   4   4  -2  102.00    3.39
   4   4  -2  100.99    3.47
   3  -4  -2   11.71    0.98
  -3  -4   2   13.39    1.09
  -3  -4   2   13.41    1.11
  -3  -4   2   13.94    1.12
  -3   4   2   14.34    1.12
   3   4  -2   12.07    0.94
   3   4  -2   12.36    0.99
   3   4  -2   13.05    0.99
  -3   4   2   11.25    1.01
   3   4  -2   11.84    0.77
  -3   4   2   12.70    1.13
  -3   4   2   13.72    0.88
  -2  -4   2  306.63    8.69
   2  -4  -2  292.79    8.65
  -2  -4   2  307.43    8.68
  -2  -4   2  303.40    8.62
   2   4  -2  303.11    8.48
  -2   4   2  297.41    8.78
   2   4  -2  296.00    8.64
  -2   4   2  311.82    8.67
  -2   4   2  299.85    8.62
   2   4  -2  300.79    8.65
   2   4  -2  305.93    8.72
  -1  -4   2  130.48    4.08
   1  -4  -2  127.38    4.05
   1  -4  -2  130.06    4.05
  -1  -4   2  127.02    4.01
  -1  -4   2  131.46    4.05
  -1   4   2  130.53    4.05
  -1   4   2  138.05    4.12
   1   4  -2  136.53    4.12
   1   4  -2  127.15    3.98
   1   4  -2  133.69    4.21
   1   4  -2  133.90    4.05
  -1   4   2  133.30    4.14
   0  -4  -2  139.57    4.32
   0  -4   2  140.97    4.23
   0  -4   2  138.69    4.29
   0  -4  -2  138.44    4.27
   0   4   2  141.19    4.27
   0   4  -2  140.77    4.23
   0   4  -2  142.57    4.29
   0   4  -2  139.29    4.27
   0   4  -2  139.27    4.40
   0   4   2  141.11    4.33
   0   4   2  140.81    4.33
  -1  -4  -2   11.01    0.81
  -1  -4  -2    9.55    0.76
   1  -4   2    9.49    0.84
   1  -4   2   10.34    0.81
  -1   4  -2   10.33    0.81
  -1   4  -2    8.97    0.87
   1   4   2    9.76    0.82
   1   4   2   10.42    0.83
  -1   4  -2   11.60    1.05
   1   4   2   11.55    0.86
  -1   4  -2   10.11    0.84
  -2  -4  -2   40.52    1.62
  -2  -4  -2   33.39    1.49
   2  -4   2   35.95    1.54
   2  -4   2   33.68    1.33
   2   4   2   34.64    1.38
   2   4   2   35.96    1.47
  -2   4  -2   34.78    1.52
   2   4   2   36.91    1.63
  -2   4  -2   37.98    1.79
  -2   4  -2   30.10    1.60
  -2   4  -2   31.71    1.32
  -3  -4  -2   13.95    0.92
   3  -4   2   16.04    1.04
  -3  -4  -2   15.39    1.09
  -3   4  -2   13.96    0.71
  -3   4  -2   12.93    1.15
   3   4   2   15.32    1.14
   3   4   2   14.07    0.89
  -3   4  -2   13.28    0.99
   3   4   2   15.22    0.78
  -3   4  -2   14.50    1.14
  -3   4  -2   15.09    0.70
  -4  -4  -2   72.08    2.80
   4  -4   2   74.31    2.51
  -4  -4  -2   75.36    2.60
   4   4   2   69.13    2.21
  -4   4  -2   70.19    2.77
  -4   4  -2   70.65    3.00
  -4   4  -2   72.45    2.44
   4   4   2   75.34    2.64
   5  -4   2    3.20    0.60
  -5  -4  -2    3.72    0.89
  -5  -4  -2    3.27    0.68
  -5   4  -2    3.51    0.46
  -5   4  -2    4.30    1.06
  -5   4  -2    3.69    0.60
   5   4   2    2.87    0.70
  -5   4  -2    2.02    0.85
  -6  -4  -2    7.83    1.12
  -6  -4  -2    8.34    0.91
   6  -4   2    8.52    0.80
  -6   4  -2    8.65    0.81
  -6   4  -2   10.59    1.43
  -6   4  -2    8.78    1.20
   6   4   2    9.84    0.88
  -7  -4  -2    5.56    1.13
   7  -4   2    6.62    0.74
  -7  -4  -2    6.17    0.85
  -7   4  -2    4.59    0.68
  -7   4  -2    5.62    1.37
  -7   4  -2    6.52    1.15
   7   4   2    6.14    0.86
  -8  -4  -2    5.22    1.16
  -8  -4  -2    4.35    0.82
   8  -4   2    7.13    0.81
  -8   4  -2    6.73    0.77
   8   4   2    5.61    0.92
  -8  -5   2   -1.21    1.07
   8  -5  -2   -0.06    0.81
  -8  -5   2   -0.07    0.91
  -8   5   2    0.67    0.80
  -8   5   2    0.33    0.76
  -7  -5   2   33.46    2.31
   7  -5  -2   38.18    2.01
  -7  -5   2   37.83    2.07
  -7   5   2   33.16    1.92
   7   5  -2   37.41    2.15
  -7   5   2   33.56    1.92
   6  -5  -2   12.92    1.22
  -6  -5   2   11.86    1.23
  -6  -5   2   15.59    1.34
   6   5  -2   12.80    1.07
   6   5  -2   11.54    1.27
  -6   5   2   12.78    1.20
  -5  -5   2   28.04    1.56
  -5  -5   2   30.24    1.96
  -5  -5   2   28.24    1.61
   5  -5  -2   30.43    1.75
  -5   5   2   30.34    1.74
   5   5  -2   29.92    1.63
  -5   5   2   28.23    1.70
   5   5  -2   28.15    1.58
   5   5  -2   25.90    1.68
  -4  -5   2    6.92    0.97
  -4  -5   2    7.31    1.09
   4  -5  -2    6.62    0.81
  -4  -5   2    8.24    0.84
  -4   5   2    7.62    0.93
  -4   5   2    7.73    0.87
   4   5  -2    8.80    0.96
   4   5  -2    7.53    0.63
  -4   5   2    8.46    0.89
   4   5  -2    7.51    0.90
   4   5  -2    8.90    0.97
  -4   5   2    7.60    1.15
  -3  -5   2   80.75    3.02
  -3  -5   2   76.94    2.81
   3  -5  -2   76.36    2.82
  -3  -5   2   77.37    2.83
  -3   5   2   79.63    2.83
  -3   5   2   81.67    2.83
   3   5  -2   76.13    2.88
  -3   5   2   80.91    3.15
   3   5  -2   78.75    2.93
   3   5  -2   77.78    2.56
   3   5  -2   78.54    2.93
  -2  -5   2   50.69    2.10
  -2  -5   2   53.20    2.08
   2  -5  -2   53.39    2.21
  -2  -5   2   50.45    2.20
   2   5  -2   52.92    2.26
  -2   5   2   49.81    2.07
  -2   5   2   51.41    2.16
   2   5  -2   53.48    1.91
   2   5  -2   53.72    2.21
  -2   5   2   53.01    2.23
   2   5  -2   53.63    2.21
   1  -5  -2    0.71    0.47
  -1  -5   2    0.99    0.69
   1  -5  -2    0.89    0.48
  -1  -5   2    1.48    0.65
  -1   5   2    0.50    0.66
   1   5  -2    1.17    0.67
   1   5  -2    0.42    0.46
   1   5  -2    1.13    0.74
   1   5  -2    0.82    0.48
  -1   5   2    1.25    0.72
  -1   5   2    0.54    0.63
   0  -5  -2   89.90    3.06
   0  -5  -2   88.55    3.06
   0  -5   2   86.47    3.02
   0  -5   2   90.75    3.15
   0   5   2   89.26    3.16
   0   5   2   88.65    3.14
   0   5  -2   92.14    3.07
   0   5   2   88.05    3.11
   0   5  -2   87.55    3.29
   0   5  -2   89.16    3.07
   0   5  -2   92.63    3.15
   1  -5   2   35.31    1.63
   1  -5   2   38.68    1.70
  -1  -5  -2   42.52    1.88
  -1  -5  -2   40.13    1.84
   1   5   2   34.35    1.61
  -1   5  -2   40.54    1.70
  -1   5  -2   34.02    1.83
  -1   5  -2   41.19    1.73
   1   5   2   42.94    1.72
  -1   5  -2   43.01    1.90
   1   5   2   36.85    1.72
  -2  -5  -2   27.87    1.53
  -2  -5  -2   30.92    1.50
   2  -5   2   20.08    1.26
  -2   5  -2   19.36    1.24
  -2   5  -2   33.82    1.87
   2   5   2   19.67    1.19
   2   5   2   19.07    1.29
   2   5   2   25.46    1.31
  -2   5  -2   29.19    1.30
  -2   5  -2   31.43    1.73
  -3  -5  -2   10.82    0.94
  -3  -5  -2   10.91    0.92
   3  -5   2   11.20    1.02
  -3   5  -2   10.66    1.21
  -3   5  -2    9.55    0.81
  -3   5  -2   10.14    1.08
   3   5   2   11.51    0.89
   3   5   2   10.79    1.09
  -3   5  -2   10.46    0.98
   4  -5   2   63.72    2.42
  -4  -5  -2   61.24    2.39
  -4   5  -2   57.68    2.36
   4   5   2   60.87    2.14
  -4   5  -2   62.29    2.80
  -4   5  -2   66.77    2.90
   4   5   2   61.42    2.42
  -5  -5  -2   15.24    1.23
   5  -5   2   13.25    1.10
   5   5   2   12.40    1.18
  -5   5  -2   13.00    1.54
  -5   5  -2   13.35    1.27
  -5   5  -2   12.05    1.05
  -6  -5  -2    9.06    1.05
   6  -5   2    8.67    0.96
  -6   5  -2    7.71    0.92
   6   5   2    8.39    0.93
  -6   5  -2    8.72    1.33
  -6   5  -2   12.20    1.58
   7  -5   2    0.29    0.64
  -7  -5  -2   -0.11    0.96
  -7  -5  -2    0.54    0.76
  -7   5  -2    0.82    0.77
  -7   5  -2   -0.24    1.00
  -7   5  -2   -0.35    1.15
   7   5   2   -0.38    0.76
   7  -6  -2    5.70    0.90
  -7  -6   2    4.31    1.31
  -7  -6   2    5.34    1.15
   7   6  -2    3.89    0.90
  -7   6   2    6.07    1.08
  -7   6   2    5.30    0.87
  -6  -6   2    4.71    0.99
  -6  -6   2    5.16    1.14
   6  -6  -2    5.30    0.86
   6   6  -2    6.48    0.94
   6   6  -2    5.34    0.97
  -6   6   2    4.62    0.85
  -6   6   2    5.71    1.02
  -5  -6   2   15.42    1.28
   5  -6  -2   15.79    1.44
  -5  -6   2   16.94    1.33
  -5  -6   2   14.07    1.36
   5   6  -2   13.74    1.28
   5   6  -2   18.15    1.42
  -5   6   2   17.61    1.46
  -5   6   2   14.91    1.33
  -4  -6   2   20.78    1.51
  -4  -6   2   20.10    1.52
   4  -6  -2   19.27    1.61
  -4  -6   2   19.55    1.52
   4   6  -2   19.06    1.32
  -4   6   2   20.37    1.56
  -4   6   2   18.48    1.38
  -4   6   2   21.85    1.80
   4   6  -2   20.79    1.47
   4   6  -2   18.95    1.33
  -3  -6   2   27.99    1.88
  -3  -6   2   29.19    1.78
   3  -6  -2   28.12    1.81
  -3  -6   2   26.10    1.73
  -3   6   2   27.83    2.00
   3   6  -2   25.28    1.58
  -3   6   2   28.25    1.49
  -3   6   2   26.94    1.58
   3   6  -2   24.49    1.51
   3   6  -2   27.24    1.54
   2  -6  -2    0.13    0.78
  -2  -6   2    0.01    0.54
  -2  -6   2    0.09    0.75
   2   6  -2   -0.15    0.53
  -2   6   2    0.38    0.79
  -2   6   2   -0.34    0.50
   2   6  -2    0.82    0.56
   2   6  -2    0.68    0.44
   2   6  -2   -0.37    0.73
  -2   6   2    0.67    0.61
  -1  -6   2    2.93    0.80
   1  -6  -2    2.35    0.79
   1   6  -2    1.51    0.60
  -1   6   2    2.41    0.66
  -1   6   2    2.84    0.67
   1   6  -2    2.38    0.60
  -1   6   2    2.86    0.71
   1   6  -2    2.35    0.67
   0  -6  -2   11.83    1.18
   0  -6   2   11.99    0.98
   0  -6   2   12.56    1.20
   0  -6  -2   12.60    1.19
   0   6   2   13.35    1.12
   0   6  -2   12.47    1.32
   0   6   2   12.27    1.20
   0   6  -2   10.88    1.02
   0   6  -2   10.53    1.15
   0   6  -2   11.98    1.10
   0   6   2   10.86    1.17
  -1  -6  -2  123.57    4.04
   1  -6   2  110.72    3.84
  -1  -6  -2  120.85    3.94
   1  -6   2  113.76    3.91
   1   6   2  120.74    3.98
   1   6   2  119.16    3.99
  -1   6  -2  115.22    4.00
  -1   6  -2  103.04    3.73
   1   6   2  119.00    4.06
  -1   6  -2  112.38    4.12
  -1   6  -2  114.63    3.97
  -2  -6  -2   14.84    1.20
  -2  -6  -2   13.93    1.13
   2  -6   2   14.31    1.26
   2   6   2   14.20    1.21
  -2   6  -2   15.56    1.37
  -2   6  -2   14.95    1.28
   2   6   2   15.83    1.28
  -2   6  -2   14.49    1.27
   2   6   2   14.32    1.24
   3  -6   2   22.21    1.42
  -3  -6  -2   23.45    1.66
  -3   6  -2   22.93    1.41
   3   6   2   23.98    1.52
  -3   6  -2   25.05    1.87
  -3   6  -2   23.80    1.70
   3   6   2   23.19    1.37
   4  -6   2    2.87    0.85
  -4  -6  -2    1.53    0.66
  -4   6  -2    2.24    0.83
   4   6   2    2.72    0.73
  -4   6  -2    2.50    0.82
  -4   6  -2    1.15    0.99
  -5  -6  -2   27.06    1.80
   5  -6   2   25.75    1.72
  -5   6  -2   24.09    1.66
  -5   6  -2   24.78    1.90
  -5   6  -2   28.54    2.23
   5   6   2   26.51    1.88
  -6  -6  -2    0.94    0.91
   6  -6   2    1.20    0.82
  -6   6  -2    1.15    0.62
   6   6   2    1.85    0.99
  -6   6  -2    2.07    1.27
  -6   6  -2   -0.14    1.12
   6  -7  -2    0.69    0.99
  -6  -7   2   -0.37    1.05
  -6  -7   2    0.90    0.83
  -6   7   2    1.32    1.02
   6   7  -2   -1.28    1.03
  -5  -7   2    1.94    1.10
   5  -7  -2    1.72    0.77
  -5  -7   2    2.01    0.88
   5   7  -2    2.66    0.89
  -5   7   2    1.41    1.01
  -5   7   2    2.30    0.92
   5   7  -2    2.03    0.86
  -4  -7   2   37.50    2.05
   4  -7  -2   34.89    2.01
  -4  -7   2   36.02    2.00
  -4   7   2   35.97    2.28
  -4   7   2   38.68    2.28
   4   7  -2   37.48    2.33
  -4   7   2   41.00    2.23
   4   7  -2   39.94    2.22
   3  -7  -2   53.00    2.48
  -3  -7   2   52.62    2.43
  -3  -7   2   52.33    2.44
   3   7  -2   57.69    2.67
  -3   7   2   55.12    2.68
   3   7  -2   51.81    2.65
  -3   7   2   55.30    2.91
  -3   7   2   53.13    2.34
   3   7  -2   57.89    2.64
  -2  -7   2    4.92    1.08
   2  -7  -2    6.85    1.17
  -2  -7   2    6.57    1.09
  -2   7   2    6.82    1.10
   2   7  -2    7.10    1.01
   2   7  -2    8.21    1.03
  -2   7   2    5.43    1.23
   2   7  -2    7.39    0.99
  -2   7   2    7.90    1.01
  -1  -7   2   18.96    1.38
   1  -7  -2   23.62    1.78
   1  -7  -2   20.36    1.57
  -1  -7   2   19.03    1.47
   1   7  -2   17.61    1.32
  -1   7   2   18.45    1.46
   1   7  -2   21.50    1.77
   1   7  -2   20.42    1.63
  -1   7   2   21.28    1.58
  -1   7   2   18.48    1.43
   1   7  -2   20.91    1.69
   0  -7   2   26.29    1.68
   0  -7  -2   23.73    1.82
   0  -7  -2   25.42    1.90
   0   7  -2   27.10    1.67
   0   7   2   28.98    1.96
   0   7   2   28.31    1.73
   0   7  -2   28.21    2.11
   0   7  -2   25.90    1.56
   0   7  -2   26.25    1.63
   0   7   2   26.95    1.67
  -1  -7  -2   27.55    1.70
   1  -7   2   30.71    1.98
  -1  -7  -2   31.19    1.78
  -1   7  -2   30.22    1.83
   1   7   2   30.76    1.94
  -1   7  -2   25.42    1.91
   1   7   2   31.71    1.96
   1   7   2   27.56    1.98
  -1   7  -2   30.14    1.95
  -2  -7  -2    2.23    0.90
   2  -7   2    3.54    0.79
  -2  -7  -2    3.09    0.79
   2   7   2    2.90    0.86
  -2   7  -2    4.27    0.85
   2   7   2    1.30    0.75
  -2   7  -2    3.14    1.19
  -2   7  -2    5.22    1.06
   3  -7   2    8.85    1.24
  -3  -7  -2    8.33    1.09
  -3   7  -2    8.80    1.35
   3   7   2    8.71    1.32
  -3   7  -2    8.23    1.20
  -3   7  -2    8.42    1.43
   3   7   2    8.99    1.03
  -4  -7  -2    9.64    1.27
   4  -7   2    6.34    1.16
  -4   7  -2    9.66    1.51
  -4   7  -2    5.47    1.13
   4   7   2   11.39    1.40
  -4   7  -2    6.80    1.14
  -5  -7  -2    3.69    1.15
   5  -7   2    2.36    1.00
  -5   7  -2    4.16    1.10
   5   7   2    3.08    1.15
  -5   7  -2    5.15    1.41
  -5   7  -2    5.77    1.46
   3  -8  -2    0.95    0.78
  -3  -8   2   -0.37    0.70
  -3  -8   2    0.98    1.01
   3   8  -2    0.17    0.97
  -3   8   2   -1.66    1.12
   3   8  -2    1.61    1.14
  -3   8   2    0.22    0.98
  -3   8   2    0.28    1.04
  -2  -8   2   22.53    1.70
  -2  -8   2   25.90    1.83
   2  -8  -2   25.87    2.01
  -2   8   2   23.56    1.83
   2   8  -2   26.30    2.09
  -2   8   2   27.50    2.16
   2   8  -2   26.51    2.01
  -2   8   2   27.00    2.17
   2   8  -2   24.71    2.15
   1  -8  -2   88.31    3.51
   1  -8  -2   76.97    3.50
  -1  -8   2   82.95    3.58
   1   8  -2   80.13    3.55
  -1   8   2   82.60    3.39
   1   8  -2   81.51    3.71
  -1   8   2   81.42    3.51
  -1   8   2   88.00    3.58
   1   8  -2   83.70    3.34
   0  -8  -2   -0.63    0.94
   0  -8   2    0.12    1.02
   0  -8  -2   -1.13    0.89
   0   8   2    0.18    0.73
   0   8   2   -1.43    1.01
   0   8  -2   -0.23    1.08
   0   8   2    0.22    0.99
   0   8  -2    0.16    1.02
  -1  -8  -2    0.00    0.71
  -1  -8  -2    0.07    0.65
   1  -8   2   -0.36    0.71
  -1   8  -2    0.77    1.07
   1   8   2    0.34    0.87
   1   8   2    1.80    1.10
  -1   8  -2   -0.31    0.81
  -1   8  -2    1.80    0.87
   2  -8   2   11.10    1.45
  -2  -8  -2   10.83    1.27
  -2   8  -2    9.87    1.59
   2   8   2    7.76    1.19
   2   8   2    8.84    1.39
  -2   8  -2   11.07    1.46
  -2   8  -2   10.93    1.24
  11   0  -3   31.16    1.71
 -11   0   3   33.09    1.89
 -11   0   3   29.71    2.25
 -10   0   3    1.48    0.73
 -10   0   3    1.60    0.97
  10   0  -3    0.47    0.52
  -9   0   3   10.12    1.03
   9   0  -3   11.60    1.09
  -9   0   3   11.71    1.19
   8   0  -3    0.44    0.60
  -8   0   3    1.45    0.62
  -8   0   3    0.80    0.59
   7   0  -3  107.27    3.52
  -7   0   3  105.30    3.73
  -7   0   3  110.97    3.51
  -6   0   3   -0.29    0.46
   6   0  -3    0.16    0.32
   6   0  -3   -0.85    0.47
  -6   0   3    0.02    0.30
  -6   0   3   -0.74    0.60
   5   0  -3   93.33    2.94
  -5   0   3   96.11    3.14
   5   0  -3   94.72    2.89
  -5   0   3   96.23    2.95
   5   0  -3   96.78    3.05
  -5   0   3   97.09    3.03
   4   0  -3   -0.48    0.41
  -4   0   3    0.54    0.52
  -4   0   3   -0.56    0.38
   4   0  -3   -0.06    0.32
   4   0  -3   -0.15    0.36
  -4   0   3    0.06    0.27
   3   0  -3   54.17    1.81
   3   0  -3   55.30    1.89
  -3   0   3   54.69    1.87
   3   0  -3   55.70    1.81
  -3   0   3   53.67    1.87
  -3   0   3   55.12    1.87
  -2   0   3   -0.79    0.40
  -2   0   3   -0.24    0.28
   2   0  -3    0.23    0.28
  -2   0   3    0.05    0.39
   2   0  -3    0.17    0.41
   2   0  -3    0.05    0.39
  -1   0   3   93.90    2.85
   1   0  -3   91.62    2.73
   1   0  -3   91.85    2.76
  -1   0   3   91.43    2.73
  -1   0   3   93.22    2.73
   1   0  -3   91.50    2.83
  -1   0   3   91.30    2.74
   0   0   3   -0.09    0.20
   0   0  -3    0.30    0.39
   0   0   3    0.20    0.26
   0   0   3   -0.77    0.28
   0   0  -3    0.71    0.43
  -1   0  -3    5.67    0.58
   1   0   3    5.93    0.36
   1   0   3    5.70    0.35
  -1   0  -3    5.65    0.36
  -1   0  -3    6.63    0.48
  -1   0  -3    5.97    0.56
  -2   0  -3   -0.17    0.25
  -2   0  -3    0.00    0.40
  -2   0  -3    0.23    0.31
  -3   0  -3    4.76    0.38
  -3   0  -3    5.26    0.39
  -3   0  -3    4.34    0.53
  -4   0  -3    0.08    0.50
  -4   0  -3    0.49    0.25
  -4   0  -3    0.07    0.24
  -5   0  -3   13.95    0.82
  -5   0  -3   13.84    1.18
  -6   0  -3    0.11    0.12
  -6   0  -3    0.00    0.13
  -6   0  -3    0.33    0.34
  -6   0  -3   -0.19    0.65
   8   0   3    0.06    0.29
  -8   0  -3   -0.07    0.28
   9   0   3   36.20    1.39
  -9   0  -3   36.78    1.35
 -11  -1   3   -0.13    0.80
  11  -1  -3    0.33    0.77
 -11  -1   3    1.02    1.07
  11   1  -3   -0.35    0.80
 -11   1   3   -0.27    0.73
 -11   1   3   -1.74    0.89
 -10  -1   3   14.76    1.29
  10  -1  -3   13.23    1.22
 -10  -1   3   15.72    1.57
  10   1  -3   14.14    1.18
 -10   1   3   12.38    1.17
 -10   1   3   16.43    1.55
  -9  -1   3    1.51    0.74
   9  -1  -3    2.54    0.60
  -9  -1   3    2.59    1.01
  -9   1   3    2.20    0.94
   9   1  -3    4.13    0.84
  -9   1   3    3.07    0.77
  -8  -1   3   48.38    2.18
   8  -1  -3   45.08    1.89
  -8  -1   3   45.36    1.90
  -8   1   3   46.46    2.24
   8   1  -3   47.95    2.06
  -8   1   3   46.03    1.96
   7  -1  -3   37.26    1.61
  -7  -1   3   34.46    1.97
   7  -1  -3   38.28    1.40
  -7  -1   3   38.10    1.71
  -7   1   3   38.80    1.92
  -7   1   3   38.64    1.69
   7   1  -3   40.90    1.68
  -6  -1   3   42.44    1.70
   6  -1  -3   44.43    1.79
  -6  -1   3   45.82    1.61
  -6  -1   3   43.31    1.89
   6  -1  -3   46.52    1.58
   6   1  -3   43.81    1.60
   6   1  -3   41.77    1.72
  -6   1   3   43.67    1.76
  -6   1   3   46.02    1.98
  -6   1   3   44.27    1.56
  -5  -1   3   59.39    2.11
   5  -1  -3   60.30    1.98
  -5  -1   3   58.52    2.29
   5  -1  -3   59.17    2.04
   5  -1  -3   54.93    1.93
  -5  -1   3   57.69    1.97
   5   1  -3   59.62    2.01
  -5   1   3   59.58    2.03
  -5   1   3   59.51    2.15
  -5   1   3   59.70    1.99
   5   1  -3   60.85    2.08
  -4  -1   3   78.63    2.64
   4  -1  -3   81.04    2.58
   4  -1  -3   82.35    2.61
  -4  -1   3   80.83    2.76
   4  -1  -3   83.62    2.60
  -4  -1   3   82.68    2.59
   4   1  -3   83.57    2.58
  -4   1   3   84.13    2.60
  -4   1   3   82.83    2.73
  -4   1   3   81.93    2.59
   4   1  -3   81.28    2.66
  -3  -1   3   27.35    1.18
   3  -1  -3   26.88    1.13
  -3  -1   3   26.21    1.26
   3  -1  -3   27.26    1.18
   3  -1  -3   27.72    1.20
  -3  -1   3   24.86    1.09
  -3   1   3   26.88    1.18
   3   1  -3   24.74    1.19
   3   1  -3   26.28    1.16
  -3   1   3   27.47    1.25
  -3   1   3   27.66    1.26
  -3   1   3   25.79    1.06
  -2  -1   3    1.61    0.35
  -2  -1   3    1.15    0.45
   2  -1  -3    1.71    0.37
   2  -1  -3    1.85    0.38
  -2  -1   3    2.40    0.50
   2   1  -3    1.26    0.44
  -2   1   3    1.87    0.35
  -2   1   3    1.60    0.34
  -2   1   3    1.50    0.42
   2   1  -3    1.39    0.36
  -1  -1   3  476.11   12.42
  -1  -1   3  447.96   12.45
   1  -1  -3  458.33   12.53
   1  -1  -3  439.95   12.43
  -1  -1   3  463.51   12.41
   1   1  -3  453.76   12.46
  -1   1   3  452.76   12.43
   1   1  -3  454.62   12.52
   1   1  -3  456.13   12.52
  -1   1   3  457.10   12.44
   0  -1  -3  323.55    9.23
   0  -1   3  326.02    9.14
   0  -1   3  367.25    9.23
   0  -1  -3  365.18    9.37
   0  -1   3  318.85    9.11
   0  -1  -3  350.67    9.20
   0   1  -3  321.20    9.29
   0   1   3  316.36    9.19
   0   1   3  351.51    9.20
   0   1  -3  316.82    9.33
   0   1  -3  343.32    9.21
   1  -1   3    7.65    0.37
  -1  -1  -3    8.38    0.40
   1  -1   3    8.82    0.45
  -1  -1  -3    8.91    0.62
  -1  -1  -3    7.79    0.48
   1  -1   3    7.96    0.26
  -1  -1  -3    7.14    0.56
  -1  -1  -3    7.26    0.46
  -1   1  -3    7.73    0.44
  -1   1  -3    6.79    0.43
  -1   1  -3    7.61    0.55
   1   1   3    8.23    0.49
   1   1   3   10.09    0.52
  -1   1  -3    7.84    0.69
  -2  -1  -3    6.19    0.53
  -2  -1  -3    5.52    0.45
  -2  -1  -3    6.04    0.27
   2  -1   3    5.91    0.27
  -2  -1  -3    5.74    0.40
   2  -1   3    5.73    0.28
  -2  -1  -3    5.60    0.36
  -2   1  -3    6.36    0.29
   2   1   3    5.71    0.37
   2   1   3    6.11    0.37
  -2   1  -3    6.15    0.68
  -2   1  -3    5.78    0.29
  -2   1  -3    6.31    0.54
  -3  -1  -3  149.11    4.35
  -3  -1  -3  149.23    4.16
  -3  -1  -3  150.88    4.42
  -3  -1  -3  148.78    4.17
  -3   1  -3  153.29    4.40
   3   1   3  150.20    4.16
  -3   1  -3  152.81    4.66
  -4  -1  -3  158.26    4.40
  -4  -1  -3  159.09    4.77
  -4  -1  -3  154.73    4.55
  -4  -1  -3  166.01    4.67
  -4  -1  -3  158.74    4.40
  -4   1  -3  163.55    4.40
   4   1   3  153.85    4.39
  -4   1  -3  155.49    4.94
  -4   1  -3  164.92    4.68
  -5  -1  -3   50.00    1.61
  -5  -1  -3   48.98    1.99
  -5  -1  -3   50.31    1.84
  -5  -1  -3   48.67    1.53
  -5  -1  -3   49.99    1.52
  -5   1  -3   50.22    1.58
   5   1   3   50.82    1.52
  -5   1  -3   52.62    1.84
  -5   1  -3   49.53    2.23
   6  -1   3    1.01    0.09
  -6  -1  -3    0.80    0.49
  -6  -1  -3    1.27    0.31
  -6  -1  -3    0.72    0.25
  -6  -1  -3    1.42    0.64
   6  -1   3    0.92    0.09
  -6   1  -3    0.82    0.80
  -6   1  -3    0.83    0.14
  -6   1  -3    0.87    0.15
  -6   1  -3    0.89    0.32
   7  -1   3    6.55    0.41
  -7  -1  -3    7.72    0.58
  -7  -1  -3    8.54    0.85
  -7   1  -3    7.10    0.43
  -7   1  -3    5.18    0.91
  -8  -1  -3   26.02    1.06
  -8  -1  -3   21.04    1.42
   8  -1   3   22.71    0.89
  -8   1  -3   20.82    0.89
  -9  -1  -3    6.97    0.64
  -9   1  -3    5.84    0.54
  10  -2  -3    4.43    0.90
 -10  -2   3    5.96    1.27
 -10  -2   3    6.18    1.04
 -10   2   3    4.67    0.90
 -10   2   3    5.39    1.10
  -9  -2   3    3.48    1.10
   9  -2  -3    4.04    0.86
  -9  -2   3    2.83    0.87
  -9   2   3    4.09    0.83
  -9   2   3    4.69    1.01
  -8  -2   3   26.89    1.57
   8  -2  -3   26.99    1.57
  -8  -2   3   25.21    1.86
  -8   2   3   23.50    1.48
  -8   2   3   27.19    1.73
   8   2  -3   25.97    1.60
  -7  -2   3   69.37    2.62
  -7  -2   3   70.16    2.87
   7  -2  -3   74.06    2.42
   7  -2  -3   69.19    2.60
   7   2  -3   71.30    2.67
  -7   2   3   70.42    2.65
  -7   2   3   70.63    2.58
  -6  -2   3   60.29    2.52
  -6  -2   3   60.40    2.24
   6  -2  -3   61.19    2.07
   6  -2  -3   63.88    2.17
   6  -2  -3   56.88    2.20
  -6  -2   3   61.70    2.16
  -6   2   3   64.59    2.08
  -6   2   3   65.92    2.29
   6   2  -3   61.84    2.15
  -6   2   3   64.77    2.43
  -5  -2   3   21.88    1.10
   5  -2  -3   19.81    1.17
   5  -2  -3   20.96    1.08
   5  -2  -3   19.08    0.99
  -5  -2   3   18.66    1.08
  -5  -2   3   21.28    1.22
   5   2  -3   20.20    1.08
  -5   2   3   21.34    1.18
  -5   2   3   20.58    1.02
  -5   2   3   20.97    1.28
  -4  -2   3  193.98    5.73
   4  -2  -3  197.48    5.72
  -4  -2   3  197.79    5.84
   4  -2  -3  200.74    5.74
  -4  -2   3  194.98    5.74
   4  -2  -3  199.16    5.66
  -4   2   3  196.18    5.70
  -4   2   3  193.19    5.66
  -4   2   3  198.32    5.90
   4   2  -3  194.97    5.69
  -3  -2   3  592.81   16.13
  -3  -2   3  588.87   16.15
   3  -2  -3  592.91   16.18
   3  -2  -3  582.78   16.13
  -3  -2   3  586.64   16.17
  -3   2   3  590.22   16.28
   3   2  -3  603.50   16.21
  -3   2   3  586.31   16.12
  -3   2   3  575.74   16.08
   3   2  -3  587.34   16.14
  -2  -2   3   71.81    2.40
  -2  -2   3   76.35    2.43
   2  -2  -3   73.60    2.40
  -2  -2   3   77.42    2.43
   2   2  -3   76.12    2.46
  -2   2   3   75.82    2.39
  -2   2   3   73.96    2.43
  -2   2   3   74.54    2.52
   2   2  -3   77.06    2.47
   2   2  -3   76.24    2.47
  -1  -2   3    0.20    0.35
  -1  -2   3    0.09    0.31
   1  -2  -3    0.60    0.30
  -1  -2   3    0.08    0.24
  -1   2   3   -0.05    0.39
  -1   2   3    0.13    0.29
   1   2  -3    0.05    0.31
   1   2  -3    0.02    0.46
   1   2  -3    0.17    0.30
   0  -2   3   62.74    2.04
   0  -2   3   61.50    1.88
   0  -2  -3   59.23    1.96
   0  -2   3   65.26    1.95
   0  -2  -3   61.25    2.02
   0   2  -3   59.88    2.11
   0   2  -3   63.53    1.92
   0   2   3   62.57    2.00
   0   2  -3   64.06    2.00
   0   2  -3   63.72    2.16
   0   2   3   61.55    1.98
  -1  -2  -3  472.31   13.37
   1  -2   3  466.13   13.35
  -1  -2  -3  530.75   13.37
  -1  -2  -3  482.20   13.26
  -1   2  -3  473.98   13.24
  -1   2  -3  476.44   13.59
   1   2   3  517.05   13.36
  -1   2  -3  520.94   13.38
  -1   2  -3  485.70   13.54
   1   2   3  477.30   13.38
  -2  -2  -3  237.47    6.56
   2  -2   3  232.97    6.51
  -2  -2  -3  237.11    6.47
  -2  -2  -3  225.30    6.43
  -2  -2  -3  237.03    6.73
   2  -2   3  239.92    6.49
   2   2   3  239.91    6.58
  -2   2  -3  234.15    6.74
  -2   2  -3  236.45    6.48
  -2   2  -3  225.30    6.50
  -2   2  -3  235.06    6.87
  -3  -2  -3  138.43    4.25
  -3  -2  -3  144.66    4.10
  -3  -2  -3  141.38    4.08
   3  -2   3  143.34    4.02
   3  -2   3  142.90    4.00
  -3  -2  -3  145.07    4.11
  -3   2  -3  138.94    4.53
   3   2   3  145.16    4.11
  -3   2  -3  142.30    4.32
  -3   2  -3  139.59    4.02
  -3   2  -3  143.57    4.00
  -4  -2  -3   64.58    2.02
  -4  -2  -3   60.55    2.09
  -4  -2  -3   63.87    2.15
   4  -2   3   63.40    1.92
   4  -2   3   64.63    1.91
  -4  -2  -3   64.12    2.03
  -4  -2  -3   67.11    2.30
  -4   2  -3   65.68    2.51
   4   2   3   63.91    2.03
  -4   2  -3   64.53    1.77
  -4   2  -3   63.48    1.92
   4   2   3   65.27    2.05
  -4   2  -3   62.38    2.26
  -4   2  -3   63.42    1.91
  -5  -2  -3   86.98    2.94
  -5  -2  -3   85.98    2.64
   5  -2   3   84.54    2.50
  -5  -2  -3   87.53    2.71
   5  -2   3   89.81    2.51
  -5   2  -3   76.92    2.61
  -5   2  -3   86.93    2.51
  -5   2  -3   88.93    3.24
  -5   2  -3   87.27    2.51
  -5   2  -3   85.08    2.95
  -6  -2  -3   45.95    1.99
  -6  -2  -3   45.35    1.63
   6  -2   3   48.56    1.50
  -6   2  -3   46.00    2.40
  -6   2  -3   46.44    1.49
  -6   2  -3   47.11    1.99
  -7  -2  -3   99.00    3.32
   7  -2   3   91.10    2.74
  -7  -2  -3   93.48    2.93
  -7   2  -3   87.97    2.73
  -7   2  -3   91.50    3.77
   8  -2   3    1.27    0.32
  -8  -2  -3    1.51    0.76
  -8  -2  -3    1.67    0.53
  -8   2  -3    0.87    0.39
  -8   2  -3    1.67    1.11
   9  -2   3    2.48    0.46
  -9  -2  -3    2.50    0.54
  -9   2  -3    1.71    0.43
 -10  -3   3   31.86    2.03
 -10  -3   3   34.38    2.15
  10  -3  -3   36.89    2.00
 -10   3   3   32.83    2.12
 -10   3   3   26.66    1.82
   9  -3  -3  100.13    3.61
  -9  -3   3   99.53    3.86
  -9  -3   3   94.09    3.54
  -9   3   3   99.37    3.48
  -9   3   3  105.08    3.79
  -8  -3   3   22.26    1.38
  -8  -3   3   20.45    1.59
   8  -3  -3   21.33    1.51
  -8   3   3   21.30    1.62
   8   3  -3   19.31    1.33
  -8   3   3   21.40    1.45
   7  -3  -3   10.10    0.90
  -7   3   3    9.70    0.95
  -7   3   3   10.49    1.00
  -6  -3   3  142.72    4.73
   6  -3  -3  153.38    4.47
   6  -3  -3  142.42    4.46
  -6  -3   3  140.97    4.50
  -6  -3   3  138.62    4.36
  -6   3   3  143.02    4.53
  -6   3   3  137.35    4.42
   6   3  -3  137.07    4.34
  -6   3   3  144.99    4.28
   6   3  -3  144.39    4.50
  -5  -3   3  103.33    3.61
   5  -3  -3  102.78    3.44
  -5  -3   3  103.80    3.47
   5  -3  -3  101.54    3.28
  -5  -3   3  106.60    3.41
   5   3  -3  106.30    3.42
  -5   3   3  104.19    3.58
  -5   3   3  109.67    3.45
   5   3  -3  104.22    3.38
  -5   3   3  104.94    3.26
  -4  -3   3   69.86    2.45
   4  -3  -3   69.27    2.45
  -4  -3   3   69.40    2.45
  -4  -3   3   69.78    2.61
   4   3  -3   71.50    2.49
  -4   3   3   72.29    2.43
   4   3  -3   69.51    2.55
  -4   3   3   74.30    2.51
  -4   3   3   75.60    2.71
  -3  -3   3   48.42    1.79
  -3  -3   3   46.70    1.81
   3  -3  -3   48.46    1.79
  -3  -3   3   47.80    1.81
  -3   3   3   48.87    1.85
   3   3  -3   47.51    1.78
   3   3  -3   48.28    1.93
  -3   3   3   45.20    1.98
   3   3  -3   46.02    1.84
  -3   3   3   47.86    1.82
  -2  -3   3  119.57    3.65
  -2  -3   3  122.89    3.75
  -2  -3   3  122.74    3.69
   2  -3  -3  118.21    3.71
  -2   3   3  122.68    3.67
  -2   3   3  116.46    3.65
   2   3  -3  116.58    3.64
   2   3  -3  121.33    3.76
   2   3  -3  117.14    3.71
  -1  -3   3   27.51    1.19
  -1  -3   3   26.39    1.31
   1  -3  -3   28.66    1.30
  -1  -3   3   28.39    1.21
   1  -3  -3   26.76    1.26
  -1   3   3   26.31    1.19
   1   3  -3   29.08    1.43
   1   3  -3   27.21    1.23
  -1   3   3   26.84    1.24
   1   3  -3   27.78    1.22
   1   3  -3   27.10    1.29
   0  -3   3  425.06   11.53
   0  -3   3  408.86   11.38
   0  -3  -3  407.96   11.49
   0  -3  -3  393.26   11.48
   0  -3   3  421.74   11.43
   0   3  -3  424.90   11.52
   0   3   3  411.29   11.49
   0   3  -3  410.04   11.65
   0   3   3  428.04   11.54
   0   3  -3  408.84   11.43
   0   3  -3  423.87   11.63
   1  -3   3    6.97    0.53
  -1  -3  -3    5.69    0.32
  -1  -3  -3    5.69    0.60
   1   3   3    6.35    0.64
  -1   3  -3    6.01    0.48
  -1   3  -3    5.87    0.66
  -1   3  -3    5.68    0.66
  -2  -3  -3  104.39    3.14
  -2  -3  -3  105.12    3.23
   2  -3   3  102.35    3.18
   2   3   3   99.69    3.12
   2   3   3  107.21    3.24
  -2   3  -3  103.12    3.17
  -2   3  -3  105.66    3.49
  -2   3  -3  104.69    3.41
  -2   3  -3  104.92    2.95
  -3  -3  -3   53.10    1.72
  -3  -3  -3   54.88    1.93
   3  -3   3   55.40    1.86
  -3   3  -3   54.87    2.21
  -3   3  -3   54.37    1.81
  -3   3  -3   49.99    2.31
   3   3   3   58.01    1.98
  -3   3  -3   54.78    1.85
  -4  -3  -3  139.34    4.42
  -4  -3  -3  141.80    4.29
   4  -3   3  146.72    4.20
  -4   3  -3  144.66    4.61
   4   3   3  145.62    4.30
  -4   3  -3  143.28    4.81
  -4   3  -3  145.73    4.20
  -4   3  -3  138.52    3.97
  -5  -3  -3    5.88    0.86
  -5  -3  -3    4.73    0.60
  -5  -3  -3    5.43    0.67
   5  -3   3    5.85    0.53
  -5   3  -3    4.14    0.84
  -5   3  -3    5.84    0.92
   5   3   3    3.37    0.59
  -5   3  -3    4.06    0.49
  -6  -3  -3    0.79    0.74
   6  -3   3    1.36    0.37
  -6  -3  -3    1.09    0.48
   6   3   3    0.65    0.48
  -6   3  -3    1.24    0.73
  -6   3  -3    1.33    0.97
  -6   3  -3    0.99    0.42
   7  -3   3   52.19    1.83
  -7  -3  -3   51.87    2.00
  -7  -3  -3   53.54    2.40
  -7   3  -3   52.06    1.86
  -7   3  -3   53.50    2.41
   7   3   3   52.55    2.04
  -7   3  -3   47.83    2.60
   8  -3   3   42.39    1.66
  -8  -3  -3   43.73    1.86
  -8  -3  -3   46.90    2.33
   8   3   3   45.91    1.92
  -8   3  -3   47.09    2.84
  -8   3  -3   45.08    1.72
  -9  -4   3    0.17    1.08
  -9  -4   3    1.01    0.87
   9  -4  -3    0.25    0.59
  -9   4   3    0.11    0.77
  -9   4   3   -0.16    0.81
  -8  -4   3    5.59    1.26
   8  -4  -3    8.70    1.09
   8  -4  -3    8.50    0.91
  -8  -4   3    4.86    1.05
  -8   4   3    9.12    1.16
  -8   4   3    7.77    1.06
   8   4  -3    8.25    0.96
   7  -4  -3  128.95    4.32
  -7  -4   3  128.10    4.38
   7  -4  -3  126.77    4.22
  -7  -4   3  128.27    4.60
  -7   4   3  122.12    4.33
  -7   4   3  132.14    4.30
   7   4  -3  132.07    4.24
  -6  -4   3   70.34    2.67
  -6  -4   3   73.70    2.86
   6  -4  -3   73.48    2.81
  -6  -4   3   69.86    2.99
  -6   4   3   75.97    2.78
   6   4  -3   73.68    2.62
   6   4  -3   72.80    2.74
  -6   4   3   73.88    2.85
  -5  -4   3   23.37    1.46
   5  -4  -3   24.59    1.28
  -5  -4   3   25.22    1.30
  -5  -4   3   23.93    1.36
   5  -4  -3   22.60    1.32
  -5   4   3   22.34    1.42
   5   4  -3   22.39    1.21
   5   4  -3   23.21    1.42
  -5   4   3   24.82    1.31
   5   4  -3   24.36    1.26
  -5   4   3   24.98    1.47
   4  -4  -3    5.59    0.85
  -4  -4   3    7.75    0.79
  -4  -4   3    5.99    0.92
  -4  -4   3    7.67    0.79
  -4   4   3    7.05    0.88
   4   4  -3    7.18    0.69
  -4   4   3    8.28    0.73
   4   4  -3    6.00    0.84
   4   4  -3    4.95    0.80
  -4   4   3    7.81    0.97
  -3  -4   3  131.58    4.16
  -3  -4   3  133.10    4.11
   3  -4  -3  129.82    4.13
  -3  -4   3  128.78    4.14
  -3   4   3  129.77    4.10
   3   4  -3  124.97    4.07
   3   4  -3  125.56    3.95
   3   4  -3  125.19    4.06
  -3   4   3  131.24    4.06
   3   4  -3  127.53    4.11
  -3   4   3  127.54    4.20
  -2  -4   3   50.70    2.07
  -2  -4   3   48.09    1.98
  -2  -4   3   48.35    1.89
   2  -4  -3   47.62    1.94
   2   4  -3   53.62    2.03
   2   4  -3   49.93    2.05
   2   4  -3   50.09    1.92
  -2   4   3   54.10    2.05
   2   4  -3   48.73    2.12
  -2   4   3   53.69    2.05
  -1  -4   3    3.49    0.60
  -1  -4   3    2.53    0.46
   1  -4  -3    2.50    0.51
   1  -4  -3    2.59    0.62
  -1  -4   3    2.44    0.53
  -1   4   3    2.62    0.66
   1   4  -3    1.33    0.43
   1   4  -3    3.15    0.54
  -1   4   3    2.75    0.53
   1   4  -3    1.73    0.44
  -1   4   3    2.93    0.63
   1   4  -3    1.91    0.54
   0  -4   3    1.94    0.49
   0  -4   3    1.24    0.45
   0  -4  -3    1.28    0.56
   0  -4  -3    0.92    0.55
   0   4  -3    1.91    0.52
   0   4   3    3.16    0.59
   0   4  -3    1.37    0.43
   0   4  -3    1.35    0.59
   0   4   3    0.95    0.39
   0   4  -3    1.38    0.69
   0   4   3    2.19    0.63
   1  -4   3   31.49    1.44
  -1  -4  -3   31.53    1.40
  -1  -4  -3   30.24    1.45
   1  -4   3   26.01    1.15
  -1   4  -3   25.79    1.15
   1   4   3   28.54    1.33
   1   4   3   25.91    1.21
  -1   4  -3   32.16    1.63
   1   4   3   29.77    1.48
  -1   4  -3   33.89    1.70
  -1   4  -3   29.85    1.42
   2  -4   3   29.65    1.14
  -2  -4  -3   31.32    1.35
  -2  -4  -3   27.59    1.33
   2  -4   3   29.83    1.41
  -2   4  -3   30.00    1.57
  -2   4  -3   29.39    1.39
   2   4   3   29.76    1.31
  -2   4  -3   28.30    0.96
  -2   4  -3   28.84    1.14
   2   4   3   31.66    1.39
  -2   4  -3   28.34    1.69
  -3  -4  -3   -0.10    0.35
  -3  -4  -3    0.65    0.53
   3  -4   3    0.27    0.49
  -3   4  -3   -0.97    0.46
  -3   4  -3    0.13    0.53
   3   4   3    0.00    0.40
  -3   4  -3    0.36    0.48
   4  -4   3   12.69    0.95
  -4  -4  -3   10.42    0.92
   4   4   3   11.64    1.00
  -4   4  -3   11.59    1.07
  -4   4  -3    9.98    0.82
  -4   4  -3   11.28    1.29
  -5  -4  -3   64.71    2.40
   5  -4   3   63.87    2.26
  -5   4  -3   61.28    2.79
  -5   4  -3   61.18    2.72
   5   4   3   61.08    2.40
  -5   4  -3   64.99    2.26
   6  -4   3   17.77    1.11
  -6  -4  -3   24.59    2.04
  -6  -4  -3   15.69    1.25
  -6   4  -3   18.37    1.10
  -6   4  -3   19.53    1.67
   6   4   3   18.99    1.31
  -6   4  -3   16.94    1.57
  -7  -4  -3    1.20    0.64
   7  -4   3    3.17    0.60
  -7   4  -3    3.06    0.68
  -7   4  -3    3.31    1.00
   7   4   3    2.86    0.75
  -7   4  -3    2.85    1.26
   8  -4   3    1.22    0.56
  -8  -4  -3    2.57    0.75
  -8   4  -3    2.42    1.37
   8   4   3    2.20    0.76
  -8   4  -3    3.12    0.72
  -9  -5   3    1.70    1.26
   9  -5  -3    0.88    0.67
  -9  -5   3   -0.37    0.99
  -9   5   3    0.42    0.88
  -9   5   3    0.63    0.69
  -8  -5   3   16.43    1.42
   8  -5  -3   17.86    1.53
  -8  -5   3   19.30    1.68
   8  -5  -3   17.83    1.45
  -8   5   3   18.37    1.52
  -8   5   3   18.61    1.43
   7  -5  -3    1.58    0.66
  -7  -5   3    0.84    0.88
  -7  -5   3    1.34    0.76
   7   5  -3    0.72    0.67
  -7   5   3    1.16    0.81
  -7   5   3    0.48    0.85
  -6  -5   3   11.77    1.23
   6  -5  -3    8.69    0.96
  -6  -5   3   10.65    1.29
   6   5  -3   11.51    1.11
  -6   5   3    9.52    1.16
   6   5  -3    8.40    1.19
  -6   5   3    8.53    0.94
  -5  -5   3   48.84    2.26
  -5  -5   3   50.28    2.15
   5  -5  -3   50.48    2.26
  -5  -5   3   46.81    2.06
  -5   5   3   47.74    1.93
   5   5  -3   47.95    2.18
  -5   5   3   49.45    2.24
  -5   5   3   47.75    2.34
   5   5  -3   48.76    1.91
   5   5  -3   46.06    2.17
   5   5  -3   47.41    2.16
   4  -5  -3   15.45    1.26
  -4  -5   3   15.32    1.24
  -4  -5   3   16.99    1.32
  -4  -5   3   14.11    1.24
   4   5  -3   15.13    1.19
  -4   5   3   15.10    1.33
   4   5  -3   12.44    1.18
   4   5  -3   12.68    1.04
  -4   5   3   14.77    1.24
   4   5  -3   14.77    1.13
  -4   5   3   13.91    1.05
  -3  -5   3    7.49    1.01
  -3  -5   3    9.07    1.00
  -3  -5   3    7.96    0.84
   3  -5  -3    9.32    1.05
  -3   5   3    8.65    1.01
   3   5  -3    7.92    0.74
   3   5  -3    8.68    1.06
   3   5  -3    8.10    0.87
   3   5  -3    8.42    1.03
  -3   5   3    9.01    0.85
  -2  -5   3    0.85    0.48
   2  -5  -3    0.99    0.53
  -2  -5   3    0.53    0.72
  -2  -5   3    0.34    0.49
   2   5  -3    1.41    0.79
  -2   5   3    1.00    0.50
   2   5  -3    1.37    0.72
   2   5  -3    1.26    0.53
   2   5  -3   -0.05    0.67
  -2   5   3    0.95    0.56
  -2   5   3    1.16    0.69
   1  -5  -3   65.31    2.47
  -1  -5   3   62.16    2.39
  -1  -5   3   60.68    2.29
   1  -5  -3   58.45    2.37
  -1  -5   3   59.22    2.40
  -1   5   3   62.23    2.56
   1   5  -3   62.55    2.43
   1   5  -3   62.28    2.39
  -1   5   3   63.51    2.47
  -1   5   3   67.78    2.44
   1   5  -3   64.22    2.66
   1   5  -3   66.89    2.42
   0  -5  -3    9.65    0.89
   0  -5  -3   18.03    1.30
   0  -5   3    9.91    0.83
   0  -5   3   16.89    1.29
   0   5  -3   14.97    1.28
   0   5  -3   10.42    0.92
   0   5  -3   11.84    0.90
   0   5   3   13.18    1.07
   0   5   3    9.97    0.90
   0   5   3   12.99    1.05
   0   5  -3   10.54    0.95
   1  -5   3   60.40    2.22
  -1  -5  -3   59.52    2.31
  -1  -5  -3   59.99    2.44
   1  -5   3   65.58    2.46
   1   5   3   62.95    2.38
   1   5   3   60.67    2.33
  -1   5  -3   58.68    2.52
  -1   5  -3   63.39    2.25
   1   5   3   62.12    2.39
  -1   5  -3   61.55    2.56
  -1   5  -3   66.66    2.46
   2  -5   3    8.72    0.94
  -2  -5  -3    8.98    0.87
  -2  -5  -3    8.24    0.84
   2   5   3    8.50    0.79
   2   5   3    8.33    0.85
  -2   5  -3    7.37    0.90
  -2   5  -3    7.64    1.08
   2   5   3    6.78    0.81
  -2   5  -3    9.36    1.18
  -3  -5  -3   89.30    3.20
   3  -5   3   94.73    3.17
  -3   5  -3   90.05    3.42
  -3   5  -3   84.62    3.11
  -3   5  -3   86.59    3.51
   3   5   3   92.47    3.26
  -4  -5  -3    3.98    0.84
   4  -5   3    3.72    0.77
   4   5   3    5.76    0.94
  -4   5  -3    5.14    1.16
  -4   5  -3    5.42    0.82
  -4   5  -3    5.79    1.15
   5  -5   3   30.23    1.58
  -5  -5  -3   28.91    1.51
  -5   5  -3   27.98    2.02
  -5   5  -3   25.35    1.87
  -5   5  -3   25.59    1.49
   5   5   3   26.33    1.69
   6  -5   3   10.09    0.99
  -6  -5  -3    8.97    1.09
  -6  -5  -3   11.47    1.16
  -6   5  -3   12.36    1.42
  -6   5  -3   10.70    1.41
   6   5   3   12.21    1.19
  -6   5  -3   10.99    1.00
  -7  -5  -3    3.02    0.87
   7  -5   3    4.15    0.81
   7   5   3    4.06    0.93
  -7   5  -3    3.33    0.90
  -7   5  -3    3.85    1.09
  -7   5  -3    3.69    0.76
  -7  -6   3    3.60    1.12
   7  -6  -3    2.13    0.79
  -7  -6   3    3.59    1.24
   7   6  -3    2.15    0.84
  -7   6   3    2.78    0.79
  -7   6   3    3.04    1.03
  -6  -6   3    1.77    1.12
   6  -6  -3    2.29    0.99
  -6  -6   3    3.69    1.04
  -6   6   3    1.65    0.94
   6   6  -3    1.73    0.81
   6   6  -3    3.06    0.89
  -6   6   3    1.91    0.93
  -5  -6   3   11.10    1.44
  -5  -6   3    9.93    1.10
   5  -6  -3   10.02    1.07
  -5  -6   3    9.93    1.05
  -5   6   3    8.72    1.24
   5   6  -3   10.02    1.19
  -5   6   3   10.09    1.10
   5   6  -3   11.77    1.36
  -4  -6   3   43.18    2.17
   4  -6  -3   34.35    1.90
  -4  -6   3   40.13    2.13
   4   6  -3   36.20    1.90
   4   6  -3   39.28    1.97
  -4   6   3   36.27    1.97
   4   6  -3   36.96    2.10
  -4   6   3   39.39    1.99
  -4   6   3   35.67    1.90
  -3  -6   3   10.76    1.24
   3  -6  -3    7.92    1.11
  -3  -6   3    6.17    1.09
  -3  -6   3    7.58    0.93
  -3   6   3    6.78    0.92
   3   6  -3    8.55    1.13
   3   6  -3    7.89    0.80
   3   6  -3    8.02    1.17
  -3   6   3    8.23    1.06
   3   6  -3    6.85    0.91
   2  -6  -3   41.90    2.03
  -2  -6   3   41.86    2.13
  -2  -6   3   43.51    2.06
  -2  -6   3   46.74    2.15
  -2   6   3   47.02    2.21
   2   6  -3   40.00    2.08
   2   6  -3   45.62    2.03
  -2   6   3   43.95    2.17
   2   6  -3   44.49    1.89
   2   6  -3   46.91    2.25
  -2   6   3   40.48    2.13
  -1  -6   3    1.63    0.87
   1  -6  -3    2.49    0.67
  -1  -6   3    2.28    0.74
   1  -6  -3    2.19    0.80
   1   6  -3    2.03    0.85
  -1   6   3    2.08    0.85
  -1   6   3    1.33    0.84
   1   6  -3    1.52    0.64
   1   6  -3    2.49    0.79
  -1   6   3    1.64    0.80
   1   6  -3    3.83    0.96
   0  -6  -3   32.18    1.81
   0  -6  -3   31.29    1.63
   0  -6   3   30.80    1.82
   0  -6   3   31.79    1.62
   0   6  -3   28.22    2.00
   0   6  -3   25.31    1.76
   0   6   3   26.00    1.73
   0   6  -3   29.24    1.71
   0   6   3   31.65    1.82
   0   6  -3   30.02    1.64
   0   6   3   27.02    1.61
  -1  -6  -3    7.69    0.93
   1  -6   3    8.49    0.95
  -1  -6  -3    9.83    0.97
  -1   6  -3    8.50    0.86
  -1   6  -3    8.77    0.96
   1   6   3   10.25    1.05
   1   6   3    9.29    1.04
  -1   6  -3   12.47    1.21
  -1   6  -3   10.30    1.33
   1   6   3   11.19    1.21
   2  -6   3   82.21    3.10
  -2  -6  -3   84.05    3.03
  -2  -6  -3   87.40    3.26
  -2   6  -3   84.08    3.10
   2   6   3   85.36    3.18
  -2   6  -3   82.80    3.40
  -2   6  -3   83.61    3.55
   2   6   3   88.76    3.07
   3  -6   3   10.08    1.12
  -3  -6  -3   10.62    1.18
   3   6   3   11.86    1.25
  -3   6  -3   11.02    1.43
  -3   6  -3   13.54    1.24
  -3   6  -3   11.13    1.44
  -4  -6  -3    4.33    0.79
   4  -6   3    4.19    0.74
   4   6   3    4.59    0.83
  -4   6  -3    5.08    1.25
  -4   6  -3    4.97    0.90
  -4   6  -3    4.87    1.22
  -5  -6  -3    0.36    0.85
   5  -6   3   -0.15    0.49
  -5   6  -3    0.90    0.75
   5   6   3   -0.57    0.84
  -5   6  -3    0.02    0.74
  -5   6  -3    2.29    1.21
   6  -6   3   29.13    1.87
  -6  -6  -3   33.58    2.05
  -6   6  -3   32.81    2.48
  -6   6  -3   32.81    2.31
   6   6   3   33.36    2.11
  -6   6  -3   31.91    1.86
   6  -7  -3    1.60    1.07
  -6  -7   3    1.46    1.13
  -6  -7   3    1.86    0.94
  -6   7   3    0.71    0.98
  -6   7   3    1.67    1.07
   6   7  -3    1.11    1.13
   6   7  -3    1.37    0.89
   5  -7  -3   27.06    2.07
  -5  -7   3   28.44    2.11
  -5  -7   3   28.09    2.31
   5   7  -3   27.28    1.99
  -5   7   3   29.10    1.85
  -5   7   3   32.59    2.15
   5   7  -3   29.31    1.93
  -4  -7   3   11.21    1.40
   4  -7  -3   12.22    1.43
  -4  -7   3   11.52    1.28
  -4  -7   3   13.82    1.45
   4   7  -3    9.94    1.32
  -4   7   3    9.82    1.19
   4   7  -3   11.20    1.42
   4   7  -3   10.36    1.33
  -4   7   3   12.75    1.47
  -3  -7   3    8.73    1.23
   3  -7  -3    8.14    1.25
  -3  -7   3    8.58    1.26
   3   7  -3   10.98    1.16
  -3   7   3    9.52    1.22
  -3   7   3    8.35    1.28
   3   7  -3    6.44    1.20
   3   7  -3    6.63    1.05
  -2  -7   3    3.10    0.83
  -2   7   3    4.63    1.15
   2   7  -3    4.86    0.95
  -2   7   3    4.16    0.84
  -2   7   3    4.38    0.87
   2   7  -3    6.41    1.16
   2   7  -3    4.19    0.86
  -1  -7   3    7.90    1.09
   1  -7  -3    4.05    1.04
  -1  -7   3    7.04    1.19
   1  -7  -3    5.68    1.10
  -1   7   3    6.27    1.14
   1   7  -3    7.17    0.98
  -1   7   3    6.89    1.23
   1   7  -3    6.09    1.17
   1   7  -3    7.00    0.93
  -1   7   3    5.56    0.94
   1   7  -3    5.84    1.24
   0  -7  -3    2.25    0.74
   0  -7   3    2.69    0.97
   0  -7  -3    1.47    0.88
   0   7   3    3.00    0.94
   0   7  -3   -0.19    0.88
   0   7   3    2.74    1.03
   0   7   3    2.56    0.74
   0   7  -3    2.04    1.12
   0   7  -3    1.58    0.84
   0   7  -3    1.96    0.63
  -1  -7  -3   16.58    1.43
   1  -7   3   14.00    1.28
  -1  -7  -3   13.17    1.41
   1   7   3   13.48    1.31
  -1   7  -3   15.64    1.65
   1   7   3   17.00    1.44
  -1   7  -3   15.20    1.45
  -1   7  -3   14.39    1.27
  -2  -7  -3    1.00    0.98
   2  -7   3    2.32    0.75
   2   7   3    2.41    0.82
  -2   7  -3    2.35    0.81
  -2   7  -3    3.91    0.98
   2   7   3    3.75    1.10
  -2   7  -3    2.29    0.76
   3  -7   3   21.03    1.55
  -3  -7  -3   30.49    2.01
   3   7   3   22.36    1.66
  -3   7  -3   21.89    1.85
  -3   7  -3   24.47    2.06
  -3   7  -3   22.19    1.56
  -4  -7  -3    3.62    1.14
   4  -7   3    6.71    1.16
  -4   7  -3    6.19    1.14
  -4   7  -3    6.20    1.38
   4   7   3    5.00    1.23
  -4   7  -3    5.52    1.15
  -3  -8   3   17.90    1.66
   3  -8  -3   16.67    1.73
  -3  -8   3   16.96    1.56
   3   8  -3   15.94    1.68
  -3   8   3   17.58    1.55
   3   8  -3   14.73    1.63
   3   8  -3   12.92    1.63
  -3   8   3   13.57    1.67
   2  -8  -3   12.04    1.33
  -2  -8   3   12.49    1.54
   2   8  -3   12.07    1.53
   2   8  -3   11.38    1.36
  -2   8   3   14.63    1.60
   2   8  -3   12.46    1.30
  -2   8   3   12.51    1.32
   1  -8  -3   -0.79    0.65
  -1  -8   3   -0.90    0.99
  -1   8   3    0.60    1.04
   1   8  -3   -0.15    0.77
  -1   8   3    1.56    1.10
  -1   8   3   -1.66    0.96
   1   8  -3   -1.00    0.68
   0  -8  -3   -1.23    0.95
   0  -8  -3   -1.21    0.88
   0  -8   3   -0.16    1.01
   0   8   3    1.46    1.00
   0   8  -3    0.38    1.06
   0   8   3    1.41    1.10
   0   8  -3    0.13    0.81
   1  -8   3   12.55    1.36
  -1  -8  -3   16.64    1.65
   1   8   3   19.71    1.80
  -1   8  -3   15.36    1.51
   1   8   3   18.63    1.63
  -1   8  -3   20.05    2.02
  -1   8  -3   14.37    1.59
   2   8   3    4.96    1.30
 -11   0   4    0.41    1.07
  11   0  -4    0.21    0.60
 -11   0   4    0.41    0.85
 -10   0   4   50.69    2.39
 -10   0   4   56.25    2.79
  10   0  -4   52.35    2.45
  -9   0   4    0.04    0.48
   9   0  -4    0.20    0.76
  -9   0   4    0.02    0.65
  -8   0   4   95.86    3.35
  -8   0   4  100.14    3.54
   8   0  -4   92.34    3.37
  -7   0   4    0.23    0.75
   7   0  -4    0.70    0.63
  -7   0   4   -0.51    0.57
  -7   0   4    0.02    0.37
  -6   0   4  196.12    5.86
  -6   0   4  197.71    5.78
  -6   0   4  199.12    6.06
   6   0  -4  201.18    5.90
   6   0  -4  197.22    5.78
  -5   0   4    0.35    0.32
   5   0  -4    0.71    0.53
  -5   0   4   -0.11    0.48
  -5   0   4   -0.28    0.42
   5   0  -4    0.23    0.28
   5   0  -4    0.41    0.33
   4   0  -4  105.12    3.24
  -4   0   4  102.59    3.21
  -4   0   4  104.70    3.36
  -4   0   4  101.57    3.24
   4   0  -4  105.66    3.25
   4   0  -4  102.42    3.24
   3   0  -4   -0.32    0.31
   3   0  -4    0.09    0.47
  -3   0   4   -0.42    0.47
  -3   0   4   -0.31    0.30
   3   0  -4    0.17    0.32
  -3   0   4   -0.46    0.44
   2   0  -4  249.01    7.01
  -2   0   4  247.04    7.01
  -2   0   4  252.05    7.03
   2   0  -4  249.80    7.02
  -2   0   4  252.00    7.01
  -2   0   4  248.87    7.15
   2   0  -4  246.66    7.09
   1   0  -4    0.09    0.33
   1   0  -4    0.06    0.34
   1   0  -4    0.23    0.35
  -1   0   4   -0.68    0.33
  -1   0   4   -0.40    0.36
  -1   0   4    0.24    0.31
  -1   0   4   -0.08    0.39
   1   0  -4   -0.12    0.36
   0   0   4   59.82    1.87
   0   0  -4   63.40    2.13
   0   0   4   58.30    1.81
   0   0  -4   62.03    2.09
   1   0   4   -0.02    0.20
  -1   0  -4   -0.23    0.29
   1   0   4    0.30    0.21
  -1   0  -4   -0.23    0.41
  -1   0  -4   -0.09    0.27
  -1   0  -4   -0.14    0.23
  -2   0  -4  132.80    3.76
   2   0   4  133.59    3.61
  -2   0  -4  131.78    4.02
  -2   0  -4  128.11    3.60
   2   0   4  131.22    3.61
  -2   0  -4  131.26    3.62
  -2   0  -4  126.52    3.91
  -3   0  -4    0.12    0.08
  -3   0  -4    0.04    0.06
  -3   0  -4    0.47    0.51
  -3   0  -4   -0.19    0.21
  -4   0  -4  142.67    4.16
  -4   0  -4  149.29    4.62
  -5   0  -4   -0.75    0.59
  -6   0  -4   79.68    3.10
  -7   0  -4    0.16    0.81
   7   0   4    0.17    0.17
  -7   0  -4    0.40    0.18
  -8   0  -4   21.27    0.82
  -9   0  -4    0.41    0.33
 -11  -1   4   19.77    1.58
  11  -1  -4   12.25    1.35
 -11  -1   4   13.84    1.66
 -11   1   4   13.75    1.61
  11   1  -4   13.98    1.40
 -11   1   4   12.46    1.34
  10  -1  -4    0.59    0.61
 -10  -1   4   -0.82    0.97
 -10  -1   4    1.04    0.82
 -10   1   4    0.14    0.68
  10   1  -4    0.43    0.60
 -10   1   4    0.84    0.78
  -9  -1   4   80.06    3.22
  -9  -1   4   80.55    2.97
   9  -1  -4   76.50    3.05
  -9   1   4   81.49    3.03
  -9   1   4   82.75    3.33
   9   1  -4   80.05    3.09
  -8  -1   4   79.63    3.00
   8  -1  -4   77.55    3.01
   8  -1  -4   92.80    2.89
  -8  -1   4   85.03    3.32
  -8   1   4   81.76    2.99
   8   1  -4   76.91    2.94
  -8   1   4   81.86    3.22
  -7   1   4   13.69    1.03
  -6  -1   4   39.65    1.67
  -6  -1   4   41.03    1.81
   6  -1  -4   43.43    1.65
  -6  -1   4   41.29    1.88
   6  -1  -4   43.54    1.74
   6  -1  -4   43.68    1.65
  -6   1   4   42.51    1.60
  -6   1   4   41.91    1.69
  -6   1   4   41.58    1.83
   6   1  -4   42.80    1.86
   6   1  -4   40.88    1.66
   5  -1  -4  273.92    7.95
   5  -1  -4  281.98    7.91
  -5  -1   4  274.24    7.94
   5  -1  -4  276.38    7.89
  -5  -1   4  278.35    7.92
  -5  -1   4  283.91    8.12
  -5   1   4  283.65    8.07
   5   1  -4  275.94    7.97
   5   1  -4  271.69    7.90
  -5   1   4  277.78    7.90
  -5   1   4  280.09    7.94
   4  -1  -4   45.90    1.67
  -4  -1   4   43.14    1.73
   4  -1  -4   45.99    1.77
  -4  -1   4   43.67    1.67
  -4  -1   4   42.91    1.73
   4  -1  -4   46.24    1.69
   4   1  -4   43.49    1.76
  -4   1   4   45.17    1.73
  -4   1   4   45.11    1.74
  -4   1   4   44.49    1.70
   4   1  -4   44.82    1.73
   3  -1  -4    5.43    0.57
  -3  -1   4    5.85    0.58
   3  -1  -4    5.05    0.59
  -3  -1   4    5.53    0.64
   3  -1  -4    5.57    0.65
  -3  -1   4    4.79    0.55
  -3   1   4    6.21    0.64
   3   1  -4    5.38    0.65
   3   1  -4    5.99    0.67
  -3   1   4    5.66    0.59
  -3   1   4    6.00    0.78
  -3   1   4    5.60    0.54
   2  -1  -4  309.48    8.62
  -2  -1   4  310.38    8.55
  -2  -1   4  302.83    8.49
   2  -1  -4  298.17    8.50
  -2  -1   4  299.34    8.50
  -2   1   4  314.99    8.68
  -2   1   4  307.93    8.50
   2   1  -4  296.92    8.51
  -2   1   4  302.12    8.50
  -1  -1   4  585.81   15.63
  -1  -1   4  560.26   15.54
   1  -1  -4  582.26   15.61
  -1  -1   4  587.90   15.56
   1  -1  -4  598.15   15.76
  -1   1   4  578.67   15.59
   1   1  -4  573.66   15.61
  -1   1   4  513.69   15.57
   0  -1  -4   10.04    0.62
   0  -1   4    9.86    0.52
   0  -1   4   10.47    0.51
   0  -1  -4    9.75    0.54
   0  -1   4   10.17    0.65
   0  -1   4    9.42    0.68
   0  -1  -4    9.61    0.75
   0   1   4    9.53    0.59
   0   1  -4    9.89    0.68
   0   1  -4    9.57    0.66
   0   1   4   10.07    0.58
   0   1  -4    9.75    0.76
  -1  -1  -4    0.43    0.35
   1  -1   4    0.91    0.16
   1  -1   4    0.71    0.21
  -1  -1  -4    0.72    0.34
   1  -1   4    0.88    0.27
  -1  -1  -4    0.51    0.26
  -1  -1  -4    0.67    0.28
  -1  -1  -4    1.09    0.17
  -1   1  -4    0.85    0.22
  -1   1  -4    0.72    0.51
  -1   1  -4    0.95    0.31
  -1   1  -4    0.91    0.41
   1   1   4    0.57    0.28
   2  -1   4   15.40    0.60
  -2  -1  -4   14.55    0.58
  -2  -1  -4   14.12    0.85
  -2  -1  -4   14.01    0.63
  -2  -1  -4   13.55    0.65
  -2  -1  -4   14.39    0.92
   2   1   4   14.90    0.67
   2   1   4   14.67    0.64
  -2   1  -4   15.27    0.57
  -2   1  -4   14.12    0.59
  -2   1  -4   12.72    1.08
  -2   1  -4   13.96    0.86
   3  -1   4  251.15    6.86
   3  -1   4  248.56    6.86
  -3  -1  -4  251.64    7.23
  -3  -1  -4  262.55    6.98
  -3  -1  -4  252.46    7.28
  -3  -1  -4  254.44    6.87
   3   1   4  251.06    6.98
  -3   1  -4  255.68    7.50
   3   1   4  256.34    6.98
  -3   1  -4  261.14    6.88
  -3   1  -4  255.05    7.20
  -4  -1  -4    9.76    0.47
  -4  -1  -4    8.59    0.74
  -4  -1  -4    7.96    0.69
  -4  -1  -4    9.41    0.47
   4   1   4    8.85    0.46
  -4   1  -4    8.63    0.99
   4   1   4    8.73    0.46
  -4   1  -4    8.62    0.69
  -5  -1  -4   15.61    0.84
  -5  -1  -4   15.69    0.65
  -5  -1  -4   15.46    1.17
  -5  -1  -4   15.03    0.65
   5   1   4   14.34    0.63
  -5   1  -4   16.87    1.43
  -5   1  -4   15.94    0.94
  -6   1  -4   12.68    0.92
  -7  -1  -4  116.51    3.55
  -7  -1  -4   99.36    3.08
  -7   1  -4   96.84    2.91
  -7   1  -4  120.17    4.19
  -8  -1  -4    9.45    0.70
  -8   1  -4    8.86    1.40
  -8   1  -4   10.83    0.53
 -10  -2   4   10.03    1.29
 -10  -2   4   15.78    1.45
  10  -2  -4   14.75    1.38
 -10   2   4   12.49    1.48
 -10   2   4   14.37    1.30
   9  -2  -4   27.69    1.79
  -9  -2   4   29.25    2.15
  -9  -2   4   29.67    1.82
   9   2  -4   28.48    1.84
  -9   2   4   31.28    1.75
  -9   2   4   26.25    1.96
   8  -2  -4  112.04    3.79
  -8  -2   4  109.89    4.07
  -8  -2   4  114.45    3.83
   8  -2  -4  108.75    3.46
  -8   2   4  103.67    3.92
  -8   2   4  108.06    3.74
   8   2  -4  110.23    3.83
  -7  -2   4    1.87    0.88
  -7  -2   4    1.42    0.50
  -7  -2   4    2.50    0.73
   7  -2  -4    2.25    0.74
   7  -2  -4    2.54    0.53
   7   2  -4    1.53    0.75
  -7   2   4    1.89    0.80
  -7   2   4    1.93    0.69
   6  -2  -4   22.69    1.22
  -6  -2   4   19.53    1.34
   6  -2  -4   21.15    1.13
  -6  -2   4   20.62    1.53
  -6  -2   4   19.53    1.09
   6  -2  -4   21.63    1.10
  -6   2   4   19.93    1.26
  -6   2   4   21.18    1.13
  -6   2   4   21.33    1.33
   6   2  -4   19.58    1.17
   5  -2  -4  104.08    3.29
  -5  -2   4  104.19    3.51
   5  -2  -4  105.61    3.41
  -5  -2   4  107.36    3.47
   5  -2  -4  108.14    3.42
  -5  -2   4  103.81    3.37
   5   2  -4  104.34    3.40
  -5   2   4  102.71    3.30
  -5   2   4  106.79    3.54
  -5   2   4  107.86    3.39
   4  -2  -4  417.08   11.91
   4  -2  -4  437.69   12.03
  -4  -2   4  432.37   11.99
  -4  -2   4  427.04   12.06
  -4  -2   4  419.30   11.98
   4  -2  -4  425.37   11.98
  -4   2   4  440.80   12.23
   4   2  -4  431.07   11.99
  -4   2   4  424.31   11.96
  -4   2   4  435.46   11.95
  -3  -2   4    0.63    0.36
   3  -2  -4    1.41    0.42
   3  -2  -4    0.82    0.41
  -3  -2   4    0.88    0.52
  -3  -2   4    0.47    0.52
   3   2  -4    0.23    0.39
  -3   2   4    0.67    0.50
  -3   2   4    0.96    0.37
   3   2  -4    0.59    0.51
  -3   2   4    0.94    0.45
   2  -2  -4  101.07    3.23
  -2  -2   4   98.81    3.07
  -2  -2   4  101.84    3.12
  -2  -2   4  101.11    3.20
   2  -2  -4   98.80    3.13
   2   2  -4  100.05    3.24
  -2   2   4   99.36    3.11
  -2   2   4  101.04    3.29
   2   2  -4   99.71    3.18
  -2   2   4  101.69    3.15
   2   2  -4  100.22    3.22
  -1  -2   4  123.96    3.61
   1  -2  -4  123.50    3.84
  -1  -2   4  125.53    3.58
  -1  -2   4  123.15    3.72
   1  -2  -4  119.80    3.65
   1   2  -4  120.22    3.70
   1   2  -4  120.67    3.78
  -1   2   4  118.46    3.67
   1   2  -4  120.94    3.77
  -1   2   4  122.43    3.67
   0  -2   4  394.48   11.02
   0  -2  -4  410.27   11.13
   0  -2   4  426.54   11.17
   0  -2  -4  393.38   11.29
   0  -2   4  394.68   10.97
   0  -2  -4  388.50   11.12
   0   2  -4  413.43   11.30
   0   2  -4  417.54   11.16
   0   2  -4  397.76   11.03
   0   2  -4  393.74   11.32
   0   2   4  397.46   11.14
   0   2   4  415.02   11.12
  -1  -2  -4   35.02    1.21
  -1  -2  -4   35.25    1.44
  -1  -2  -4   33.67    1.24
  -1  -2  -4   32.22    1.21
   1  -2   4   32.90    1.28
   1  -2   4   33.80    1.02
  -1   2  -4   34.75    1.29
  -1   2  -4   32.90    1.04
   1   2   4   34.45    1.31
  -1   2  -4   33.28    1.50
   1   2   4   32.05    1.20
  -1   2  -4   33.64    1.61
  -2  -2  -4  181.54    5.16
   2  -2   4  181.83    5.10
   2  -2   4  179.92    5.14
  -2  -2  -4  180.49    5.40
  -2  -2  -4  185.37    5.18
  -2   2  -4  182.88    5.11
  -2   2  -4  178.52    5.57
   2   2   4  181.37    5.19
  -2   2  -4  182.81    5.15
  -2   2  -4  181.28    5.41
  -3  -2  -4   65.22    2.11
  -3  -2  -4   62.78    2.06
  -3  -2  -4   62.90    2.06
  -3  -2  -4   65.75    2.30
   3  -2   4   65.41    1.99
   3  -2   4   66.81    1.97
  -3   2  -4   66.14    2.35
  -3   2  -4   61.81    2.57
   3   2   4   64.99    2.09
  -3   2  -4   66.35    2.01
  -3   2  -4   64.96    1.97
   4  -2   4   46.13    1.40
   4  -2   4   43.58    1.37
  -4  -2  -4   41.63    1.50
  -4  -2  -4   42.61    1.50
  -4  -2  -4   42.15    1.69
  -4  -2  -4   43.56    1.63
   4   2   4   41.50    1.51
  -4   2  -4   42.66    1.82
  -4   2  -4   43.58    2.00
  -4   2  -4   43.15    1.37
  -4   2  -4   45.38    1.41
  -5  -2  -4    6.29    0.60
   5  -2   4    5.86    0.48
  -5  -2  -4    6.53    0.70
  -5  -2  -4    7.65    0.60
  -5   2  -4    6.32    1.09
  -5   2  -4    6.37    0.45
  -5   2  -4    5.40    0.43
   5   2   4    6.51    0.55
  -5   2  -4    6.66    0.78
   6  -2   4   35.02    1.24
  -6  -2  -4   39.76    1.45
  -6   2  -4   39.70    1.26
  -6   2  -4   31.12    1.96
  -6   2  -4   43.44    1.82
   6   2   4   37.63    1.42
  -7  -2  -4   14.41    0.90
   7  -2   4   12.17    0.65
  -7   2  -4   11.65    0.64
   7   2   4   13.86    0.84
  -7   2  -4   14.32    1.42
  -8  -2  -4    0.25    0.37
  -8   2  -4    0.01    0.33
   8   2   4   -0.42    0.45
  -8   2  -4   -1.00    0.99
  10  -3  -4   21.30    1.76
 -10  -3   4   19.21    1.91
 -10  -3   4   20.41    1.68
 -10   3   4   18.65    1.41
 -10   3   4   20.97    1.81
  -9  -3   4    4.33    1.02
   9  -3  -4    3.24    0.97
  -9  -3   4    4.27    1.19
  -9   3   4    2.14    0.99
   9   3  -4    4.38    0.88
  -9   3   4    4.29    0.93
  -8   3   4    3.19    0.95
  -7  -3   4   75.79    3.07
  -7  -3   4   71.59    2.84
   7  -3  -4   71.58    2.65
   7  -3  -4   72.80    2.81
   7   3  -4   70.48    2.72
  -7   3   4   71.29    2.90
  -7   3   4   74.32    2.78
  -6  -3   4    0.89    0.83
   6  -3  -4    1.43    0.60
   6  -3  -4    0.83    0.53
  -6  -3   4   -0.10    0.68
   6  -3  -4    1.36    0.55
  -6  -3   4    1.11    0.63
  -6   3   4    1.07    0.57
  -6   3   4    0.59    0.51
  -6   3   4    1.12    0.51
   6   3  -4    0.26    0.66
   6   3  -4    0.95    0.60
  -5  -3   4   42.20    2.05
  -5  -3   4   44.04    1.97
  -5  -3   4   44.44    1.82
   5  -3  -4   45.95    1.98
   5  -3  -4   43.47    1.72
   5  -3  -4   43.87    1.83
  -5   3   4   45.13    2.16
  -5   3   4   45.05    1.74
  -5   3   4   44.82    1.94
   5   3  -4   43.32    1.88
   5   3  -4   47.27    1.92
  -4  -3   4    3.21    0.71
  -4  -3   4    3.75    0.60
  -4  -3   4    3.29    0.75
   4  -3  -4    3.71    0.73
   4  -3  -4    2.73    0.72
  -4   3   4    1.95    0.68
   4   3  -4    4.24    0.72
   4   3  -4    4.04    0.75
   4   3  -4    4.00    0.57
  -4   3   4    4.28    0.84
  -4   3   4    4.17    0.67
   3  -3  -4  217.26    6.49
  -3  -3   4  221.20    6.52
  -3  -3   4  224.44    6.53
  -3  -3   4  221.85    6.47
  -3   3   4  228.61    6.50
   3   3  -4  218.57    6.52
  -3   3   4  221.06    6.48
  -3   3   4  226.38    6.72
   3   3  -4  214.79    6.51
   3   3  -4  225.71    6.64
  -2  -3   4   45.55    1.75
  -2  -3   4   46.01    1.68
  -2  -3   4   47.26    1.87
   2  -3  -4   43.24    1.73
   2   3  -4   43.93    1.93
   2   3  -4   44.28    1.82
  -2   3   4   43.17    1.71
   2   3  -4   44.59    1.82
  -2   3   4   46.16    1.82
   1  -3  -4   68.39    2.42
  -1  -3   4   69.79    2.26
  -1  -3   4   70.80    2.32
  -1  -3   4   71.11    2.46
   1   3  -4   70.43    2.58
   1   3  -4   69.36    2.43
   1   3  -4   69.92    2.47
  -1   3   4   69.86    2.36
  -1   3   4   69.87    2.37
   1   3  -4   72.06    2.35
   0  -3   4   96.82    3.09
   0  -3  -4  113.70    3.33
   0  -3   4  101.67    3.16
   0  -3  -4  110.81    3.28
   0  -3   4  112.65    3.36
   0   3   4  102.62    3.33
   0   3  -4  125.09    3.59
   0   3  -4  112.17    3.34
   0   3  -4   96.55    3.40
   0   3   4   93.61    3.21
   0   3  -4   95.23    3.16
   1  -3   4   52.54    1.69
  -1  -3  -4   54.60    1.64
   1  -3   4   53.40    1.91
  -1  -3  -4   51.91    1.82
  -1  -3  -4   52.81    1.87
  -1   3  -4   51.39    2.06
   1   3   4   51.78    1.85
   1   3   4   51.84    1.88
  -1   3  -4   53.81    1.70
  -1   3  -4   52.12    1.89
  -1   3  -4   54.00    2.12
  -2  -3  -4   50.40    1.51
  -2  -3  -4   48.12    1.76
  -2  -3  -4   47.54    1.67
   2  -3   4   51.00    1.79
  -2  -3  -4   50.32    2.07
   2   3   4   50.83    1.80
  -2   3  -4   47.07    2.06
  -2   3  -4   46.73    1.75
   2   3   4   50.27    1.68
  -2   3  -4   48.11    1.97
   3  -3   4   70.90    2.34
  -3  -3  -4   72.35    2.62
  -3  -3  -4   73.59    2.41
  -3  -3  -4   71.97    2.14
  -3   3  -4   74.33    2.64
  -3   3  -4   72.11    2.91
  -3   3  -4   72.50    2.36
   3   3   4   74.39    2.46
  -3   3  -4   61.40    2.65
  -4  -3  -4    1.44    0.55
  -4  -3  -4    1.10    0.46
   4  -3   4    1.90    0.41
  -4   3  -4    1.49    0.55
  -4   3  -4    1.96    0.41
   4   3   4    0.66    0.47
  -4   3  -4    1.19    0.87
  -5  -3  -4    6.23    0.67
   5  -3   4    6.77    0.57
  -5  -3  -4    5.58    0.70
   5   3   4    5.51    0.65
  -5   3  -4    7.34    0.83
  -5   3  -4    5.59    1.13
  -5   3  -4    5.89    0.53
  -6  -3  -4  128.54    3.97
   6  -3   4  126.74    3.79
  -6   3  -4  125.36    3.77
  -6   3  -4  132.41    4.79
  -6   3  -4  122.49    4.32
   6   3   4  127.45    3.97
   7  -3   4   18.17    0.99
  -7  -3  -4   20.19    1.26
   7   3   4   20.68    1.20
  -7   3  -4   20.12    1.56
  -7   3  -4   21.14    1.91
  -7   3  -4   16.65    0.96
   8  -3   4    1.16    0.46
  -8  -3  -4    0.98    0.65
  -8   3  -4    0.82    0.88
  -8   3  -4    0.87    0.45
   8   3   4    1.00    0.54
   9  -4  -4    1.25    0.94
  -9  -4   4    4.06    1.08
  -9  -4   4    2.70    1.25
  -9   4   4    2.76    0.95
  -9   4   4    3.03    1.05
   8  -4  -4   14.81    1.38
  -8  -4   4   13.09    1.33
   8  -4  -4   14.33    1.17
  -8  -4   4   16.14    1.47
  -8   4   4   13.15    1.29
  -8   4   4   15.14    1.42
   8   4  -4   18.89    1.48
  -7  -4   4   39.77    1.93
  -7  -4   4   37.03    2.06
   7  -4  -4   37.40    1.91
   7  -4  -4   39.24    1.90
   7   4  -4   38.36    2.00
  -7   4   4   37.19    1.85
  -7   4   4   39.93    2.11
  -6  -4   4   12.66    1.16
   6  -4  -4   15.25    1.33
  -6  -4   4   16.12    1.32
   6  -4  -4   14.16    1.24
  -6  -4   4   14.34    1.28
   6   4  -4   13.32    1.18
  -6   4   4   16.58    1.47
  -6   4   4   15.67    1.27
   6   4  -4   15.34    1.24
  -6   4   4   13.05    1.25
   6   4  -4   14.64    1.16
   5  -4  -4    0.95    0.53
  -5  -4   4    1.21    0.54
  -5  -4   4    0.33    0.73
  -5  -4   4    1.16    0.85
   5   4  -4    0.65    0.55
  -5   4   4   -0.65    0.76
  -5   4   4    0.39    0.49
  -5   4   4    0.38    0.44
   5   4  -4    1.36    0.55
   5   4  -4    1.11    0.71
  -4  -4   4    0.51    0.47
  -4  -4   4    0.59    0.67
   4  -4  -4    0.33    0.51
  -4  -4   4    0.08    0.49
  -4   4   4    0.41    0.54
   4   4  -4   -0.71    0.66
  -4   4   4    0.69    0.49
   4   4  -4   -0.13    0.51
   4   4  -4    0.47    0.46
  -4   4   4    0.74    0.48
  -3  -4   4   56.80    2.18
  -3  -4   4   54.50    2.19
   3  -4  -4   55.06    2.25
  -3  -4   4   55.54    2.22
  -3   4   4   57.84    2.21
   3   4  -4   53.74    2.23
  -3   4   4   51.92    2.08
  -3   4   4   55.16    2.30
   3   4  -4   53.31    2.04
   3   4  -4   54.53    2.32
   3   4  -4   50.35    2.08
  -2  -4   4   28.59    1.32
  -2  -4   4   29.32    1.44
   2  -4  -4   28.95    1.55
  -2  -4   4   29.38    1.44
  -2   4   4   27.18    1.48
   2   4  -4   26.97    1.39
   2   4  -4   29.82    1.67
  -2   4   4   27.11    1.37
   2   4  -4   27.89    1.46
   2   4  -4   28.63    1.47
   1   4  -4    6.25    0.81
   1   4  -4    7.10    0.68
  -1   4   4    7.65    0.71
   0  -4  -4   51.58    1.99
   0  -4   4   44.36    1.72
   0  -4   4   49.98    1.81
   0  -4  -4   49.44    1.96
   0  -4   4   46.18    1.96
   0   4  -4   49.77    1.84
   0   4  -4   49.44    1.97
   0   4  -4   46.04    2.05
   0   4   4   47.04    1.90
   0   4   4   50.08    1.93
   0   4  -4   48.46    2.12
   1  -4   4   38.16    1.62
  -1  -4  -4   39.33    1.67
  -1  -4  -4   38.69    1.64
  -1  -4  -4   39.87    1.18
   1  -4   4   39.47    1.48
   1   4   4   37.34    1.55
  -1   4  -4   39.70    1.84
  -1   4  -4   40.08    1.44
  -1   4  -4   43.08    1.73
   1   4   4   40.03    1.67
  -1   4  -4   40.38    1.85
  -2  -4  -4   62.90    2.19
   2  -4   4   56.47    2.11
  -2  -4  -4   57.71    2.09
  -2   4  -4   58.68    2.18
   2   4   4   58.17    2.10
   2   4   4   57.97    2.18
  -2   4  -4   61.64    2.42
  -2   4  -4   57.86    2.44
  -3  -4  -4   10.35    0.90
   3  -4   4    7.98    0.79
  -3   4  -4    8.29    1.02
   3   4   4    7.45    0.85
  -3   4  -4   10.23    0.85
  -3   4  -4    9.27    1.12
  -4  -4  -4   95.43    3.19
  -4  -4  -4   91.09    3.30
   4  -4   4   96.58    3.11
  -4   4  -4   95.50    3.64
  -4   4  -4   90.32    3.06
   4   4   4   92.08    3.22
  -4   4  -4  101.72    3.60
  -5  -4  -4   65.55    2.64
   5  -4   4   68.47    2.38
  -5  -4  -4   65.69    2.51
   5   4   4   67.61    2.48
  -5   4  -4   65.08    2.75
  -5   4  -4   71.57    2.39
  -5   4  -4   66.24    3.16
   6  -4   4    4.64    0.64
  -6  -4  -4    5.31    0.78
  -6   4  -4    3.54    0.99
   6   4   4    2.94    0.72
  -6   4  -4    3.76    1.21
  -6   4  -4    3.49    0.58
   7  -4   4    4.11    0.61
  -7  -4  -4    2.46    0.70
  -7   4  -4    4.57    1.07
  -7   4  -4    2.16    0.54
  -7   4  -4    1.20    0.91
   7   4   4    2.23    0.73
   9  -5  -4    0.74    0.72
  -9  -5   4    1.79    1.07
  -9  -5   4    0.02    0.87
  -9   5   4    1.21    0.98
  -9   5   4    0.45    0.66
   8  -5  -4   -0.65    0.60
  -8  -5   4    0.29    0.67
  -8  -5   4    1.38    1.15
   8  -5  -4   -0.12    0.74
   8   5  -4    0.00    0.72
  -8   5   4    0.08    0.65
  -8   5   4    0.37    0.63
   7  -5  -4    6.26    1.08
  -7  -5   4    3.16    1.17
   7  -5  -4    6.13    1.00
  -7   5   4    6.54    1.09
  -7   5   4    6.57    1.11
  -6  -5   4   83.57    3.18
  -6  -5   4   87.31    3.31
   6  -5  -4   81.76    3.25
  -6  -5   4   80.83    3.28
  -6   5   4   83.60    3.24
  -6   5   4   82.11    3.42
   6   5  -4   80.59    3.20
   6   5  -4   82.30    2.94
   5  -5  -4    0.91    0.83
  -5  -5   4    0.09    0.57
  -5  -5   4    1.24    0.90
  -5  -5   4    0.31    0.77
  -5   5   4    1.14    0.69
   5   5  -4    1.68    0.89
   5   5  -4   -0.47    0.48
   5   5  -4    0.11    0.76
  -5   5   4    0.74    0.85
  -5   5   4    0.33    0.76
   5   5  -4    0.85    0.56
  -4  -5   4   81.94    3.13
   4  -5  -4   82.37    3.10
  -4  -5   4   79.30    3.10
  -4  -5   4   78.04    2.93
  -4   5   4   79.01    2.87
  -4   5   4   80.75    3.04
   4   5  -4   80.30    3.05
   4   5  -4   77.83    3.12
   4   5  -4   83.19    3.11
  -4   5   4   73.21    3.19
   4   5  -4   78.28    2.82
   3  -5  -4    5.25    0.77
  -3  -5   4    5.50    0.80
  -3  -5   4    4.45    0.93
  -3  -5   4    5.24    0.88
   3   5  -4    4.02    0.75
   3   5  -4    5.47    0.76
   3   5  -4    5.69    0.80
  -3   5   4    6.35    0.78
   3   5  -4    4.68    0.74
  -3   5   4    5.56    0.92
  -2  -5   4  171.61    5.54
  -2  -5   4  173.52    5.41
  -2  -5   4  179.75    5.44
   2  -5  -4  170.56    5.44
   2   5  -4  172.69    5.42
   2   5  -4  175.84    5.53
   2   5  -4  179.00    5.69
  -2   5   4  175.61    5.49
  -2   5   4  177.27    5.44
   2   5  -4  176.84    5.41
  -1  -5   4    8.22    0.78
  -1  -5   4    7.47    0.99
  -1  -5   4    9.53    0.88
   1  -5  -4    6.14    0.79
   1  -5  -4    8.11    0.87
   1   5  -4    8.42    0.97
   1   5  -4    7.90    0.79
  -1   5   4    9.30    0.96
  -1   5   4    9.92    1.05
   1   5  -4    9.06    0.98
   1   5  -4    8.29    0.87
   0  -5   4  147.01    4.61
   0  -5  -4  142.46    4.55
   0  -5  -4  133.67    4.52
   0  -5   4  142.74    4.38
   0   5   4  142.23    4.51
   0   5  -4  142.04    4.62
   0   5  -4  144.44    4.41
   0   5  -4  141.92    4.73
   0   5  -4  146.71    4.59
   0   5   4  128.47    4.49
   1  -5   4   26.36    1.40
  -1  -5  -4   25.46    1.56
  -1  -5  -4   23.67    1.47
  -1   5  -4   27.49    1.42
   1   5   4   25.99    1.43
  -1   5  -4   27.01    1.29
   1   5   4   24.86    1.44
  -1   5  -4   27.85    1.76
  -1   5  -4   24.17    1.80
  -2  -5  -4   15.94    1.25
   2  -5   4   14.54    1.08
  -2  -5  -4   17.96    1.24
  -2   5  -4   17.13    1.49
  -2   5  -4   15.74    1.37
   2   5   4   15.14    1.26
  -2   5  -4   17.71    1.11
   3  -5   4    3.71    0.77
  -3  -5  -4    3.17    0.64
  -3   5  -4    3.95    0.78
   3   5   4    5.16    0.77
  -3   5  -4    4.10    1.07
  -3   5  -4    6.09    0.99
  -4  -5  -4  130.41    4.33
   4  -5   4  131.67    4.24
  -4   5  -4  133.01    4.24
  -4   5  -4  132.62    4.86
  -4   5  -4  130.07    4.72
   4   5   4  126.11    4.28
  -5  -5  -4   19.77    1.47
   5  -5   4   18.28    1.32
  -5  -5  -4   17.26    1.34
  -5   5  -4   15.47    1.60
   5   5   4   19.41    1.52
  -5   5  -4   20.54    1.90
  -5   5  -4   18.62    1.29
  -6  -5  -4   -0.01    0.71
   6  -5   4    2.01    0.67
  -6   5  -4    3.39    1.31
  -6   5  -4    1.54    1.05
   6   5   4    3.97    0.90
  -6   5  -4    1.08    0.61
  -7  -6   4   32.17    2.22
   7  -6  -4   34.01    2.20
   7  -6  -4   33.54    2.19
  -7  -6   4   33.81    2.16
  -7   6   4   34.14    2.30
  -7   6   4   35.21    2.23
   7   6  -4   31.65    2.04
   7   6  -4   30.93    1.82
   6  -6  -4    0.44    0.70
  -6  -6   4    1.47    1.12
  -6  -6   4    0.99    0.99
  -6   6   4    0.17    0.68
   6   6  -4    1.64    0.77
   6   6  -4    0.75    0.85
  -6   6   4    2.33    0.99
   5  -6  -4   15.81    1.37
  -5  -6   4   17.78    1.41
  -5  -6   4   14.79    1.57
  -5  -6   4   17.58    1.52
   5   6  -4   14.83    1.45
   5   6  -4   15.93    1.52
  -5   6   4   17.03    1.63
   5   6  -4   15.46    1.51
  -4  -6   4   14.44    1.25
   4  -6  -4   14.14    1.25
  -4  -6   4   14.08    1.48
  -4  -6   4   13.52    1.38
   4   6  -4   17.34    1.46
   4   6  -4   11.99    1.10
  -4   6   4   13.51    1.49
   4   6  -4   14.19    1.43
   4   6  -4   15.49    1.45
  -4   6   4   14.43    1.18
  -4   6   4   16.06    1.44
  -3  -6   4  199.87    6.38
  -3  -6   4  202.09    6.36
   3  -6  -4  211.12    6.47
  -3  -6   4  191.93    6.30
   3   6  -4  201.09    6.43
  -3   6   4  209.87    6.39
   3   6  -4  202.06    6.19
  -3   6   4  199.17    6.34
   3   6  -4  205.67    6.42
   3   6  -4  203.40    6.50
  -2  -6   4   13.09    1.10
  -2  -6   4   10.71    1.16
  -2  -6   4   11.15    1.26
   2  -6  -4   12.72    1.12
   2   6  -4   12.14    1.24
  -2   6   4   10.87    1.21
  -2   6   4   10.61    1.06
   2   6  -4   12.48    1.11
   2   6  -4   12.60    1.39
   2   6  -4   10.81    1.11
  -1   6   4   13.08    1.31
   0  -6   4    4.08    0.94
   0  -6  -4    3.23    0.92
   0  -6  -4    3.06    0.67
   0   6   4    1.42    0.78
   0   6  -4    2.64    0.58
   0   6   4    3.84    0.98
   0   6  -4    3.28    0.77
   0   6  -4    3.22    0.87
   0   6  -4    4.72    0.90
   1  -6   4  143.36    4.77
  -1  -6  -4  140.94    4.67
  -1  -6  -4  139.25    4.69
  -1   6  -4  145.25    4.77
  -1   6  -4  139.90    4.95
   1   6   4  142.98    4.75
  -1   6  -4  144.78    4.95
  -2  -6  -4   42.20    2.11
   2  -6   4   36.08    1.99
  -2   6  -4   35.73    2.12
   2   6   4   40.96    2.15
  -2   6  -4   34.52    2.24
  -2   6  -4   31.77    1.93
  -3  -6  -4   44.96    2.29
   3  -6   4   51.16    2.16
  -3   6  -4   46.47    2.44
   3   6   4   46.74    2.19
  -3   6  -4   44.62    2.64
  -3   6  -4   49.46    2.26
   4  -6   4   -0.17    0.75
  -4  -6  -4    0.99    0.87
   4   6   4    0.94    0.90
  -4   6  -4   -0.12    1.07
  -4   6  -4    2.13    0.90
  -4   6  -4    1.46    0.59
   5  -6   4   44.02    2.05
  -5  -6  -4   42.10    2.45
  -5  -6  -4   40.91    2.10
  -5   6  -4   46.51    2.62
   5   6   4   46.52    2.21
  -5   6  -4   45.73    2.49
  -5   6  -4   45.46    2.16
  -6  -7   4   14.06    1.54
   6  -7  -4   12.75    1.56
  -6  -7   4   14.13    1.65
  -6   7   4   14.28    1.59
  -6   7   4   18.33    1.77
   6   7  -4   12.06    1.39
   6   7  -4   16.33    1.62
  -5  -7   4    6.86    1.04
  -5  -7   4    8.22    1.12
   5  -7  -4    6.43    1.30
  -5  -7   4    5.71    1.31
  -5   7   4   10.28    1.44
  -5   7   4    4.83    1.21
   5   7  -4    8.33    1.29
   5   7  -4    7.98    1.35
  -4  -7   4   20.19    1.62
  -4  -7   4   22.54    1.78
  -4  -7   4   20.68    1.73
   4  -7  -4   19.87    1.62
  -4   7   4   17.56    1.65
  -4   7   4   22.15    2.06
   4   7  -4   21.87    1.76
  -4   7   4   23.53    2.02
   4   7  -4   18.27    1.55
   4   7  -4   20.70    1.82
  -3  -7   4    1.18    0.94
   3  -7  -4    2.54    1.02
  -3  -7   4    0.84    0.71
  -3  -7   4    0.70    0.94
  -3   7   4    2.48    0.99
  -3   7   4    1.21    0.72
   3   7  -4    0.15    0.96
   3   7  -4    0.44    0.68
   3   7  -4    2.55    1.02
  -2  -7   4   34.40    1.86
   2  -7  -4   34.78    2.19
  -2  -7   4   32.50    2.23
  -2   7   4   37.95    2.22
   2   7  -4   34.97    2.35
   2   7  -4   36.67    2.25
   2   7  -4   34.77    1.87
   2   7  -4   36.73    2.12
  -2   7   4   34.06    1.93
  -1  -7   4   35.64    2.22
   1  -7  -4   36.21    2.18
   1   7  -4   37.14    2.18
   1   7  -4   33.52    1.83
  -1   7   4   38.08    2.17
  -1   7   4   39.64    2.30
   1   7  -4   33.42    1.81
   1   7  -4   39.75    2.04
   0  -7  -4    2.60    0.92
   0  -7   4    0.62    0.96
   0  -7  -4    2.63    1.00
   0   7   4    1.01    0.99
   0   7  -4    2.03    0.88
   0   7  -4    0.83    0.95
   0   7  -4    2.50    1.14
   1  -7   4   22.18    1.62
  -1  -7  -4   24.77    1.64
   1   7   4   24.16    1.99
  -1   7  -4   26.44    1.68
  -1   7  -4   23.97    1.87
  -1   7  -4   24.91    1.92
   2  -7   4   11.09    1.17
  -2  -7  -4   13.80    1.44
  -2   7  -4   10.47    1.46
   2   7   4   14.82    1.52
  -2   7  -4   13.87    1.29
  -2   7  -4   13.29    1.47
  -3  -7  -4    1.99    1.04
   3  -7   4    1.68    0.73
  -3   7  -4    2.04    0.96
  -3   7  -4    0.45    0.85
   3   7   4    1.56    1.06
  -3   7  -4    1.14    0.86
  -4  -7  -4   15.83    1.58
   4  -7   4   14.79    1.46
  -4   7  -4   13.66    1.41
  -4   7  -4   16.26    1.83
  -4   7  -4   11.04    1.45
   4   7   4   13.83    1.53
  -2  -8   4    3.25    1.15
   2  -8  -4    2.81    1.14
   2   8  -4    2.01    0.87
   2   8  -4    1.66    1.22
  -2   8   4    0.20    0.72
   2   8  -4    3.93    1.14
  -2   8   4    2.30    1.11
  -1  -8   4   12.00    1.53
   1  -8  -4    9.04    1.18
   1   8  -4    8.47    1.21
  -1   8   4   10.46    1.48
   1   8  -4    9.12    1.60
   0  -8   4    6.93    1.37
   0  -8  -4   11.92    1.53
   0   8  -4    8.25    1.25
   0   8  -4    9.33    1.42
   0   8   4    7.49    1.19
   0   8  -4    8.42    1.31
 -11   0   5   20.38    1.66
  11   0  -5   18.37    1.60
 -11   0   5   16.07    1.75
 -10   0   5    0.03    0.56
 -10   0   5    0.64    1.00
  10   0  -5    0.08    0.58
  -9   0   5   42.58    2.43
  -9   0   5   42.27    2.12
   9   0  -5   44.27    2.22
   8   0  -5    0.60    0.74
  -8   0   5   -1.14    0.84
  -8   0   5    0.81    0.70
  -7   0   5   48.10    1.88
  -7   0   5   48.13    2.28
   7   0  -5   44.56    1.85
  -7   0   5   47.35    1.95
   7   0  -5   44.89    1.96
   6   0  -5   -0.19    0.50
   6   0  -5    0.72    0.64
  -6   0   5   -0.29    0.49
  -6   0   5   -0.38    0.58
  -6   0   5   -0.01    0.36
   6   0  -5   -0.59    0.45
  -5   0   5  218.38    6.39
   5   0  -5  223.35    6.43
  -5   0   5  212.25    6.53
  -5   0   5  216.75    6.44
   5   0  -5  221.12    6.41
   5   0  -5  219.04    6.47
  -4   0   5   -0.01    0.37
   4   0  -5    0.77    0.57
  -4   0   5   -0.29    0.37
   4   0  -5    0.41    0.51
   4   0  -5   -0.72    0.49
  -4   0   5   -0.25    0.56
  -3   0   5    9.48    0.82
  -3   0   5    8.83    0.78
  -3   0   5    6.96    0.66
   3   0  -5    8.33    0.67
   3   0  -5    8.09    0.74
   3   0  -5    9.48    0.85
  -2   0   5    0.38    0.39
  -2   0   5    0.04    0.47
   2   0  -5    0.14    0.44
   2   0  -5   -0.27    0.38
  -2   0   5    0.19    0.47
   2   0  -5    0.54    0.45
  -2   0   5    0.24    0.30
   1   0  -5  457.37   12.73
  -1   0   5  476.20   12.72
   1   0  -5  443.33   12.67
   1   0  -5  492.02   12.93
  -1   0   5  488.91   12.76
  -1   0   5  454.97   12.67
  -1   0   5  435.93   12.82
   1   0  -5  458.16   12.90
   0   0  -5   -0.36    0.47
   0   0  -5   -0.45    0.33
   0   0   5    0.01    0.34
   0   0   5    0.07    0.22
   0   0   5   -0.13    0.38
   1   0   5   92.55    2.71
   1   0   5   92.88    2.71
  -1   0  -5   90.59    3.01
  -1   0  -5   91.46    2.70
  -1   0  -5   89.83    2.79
  -1   0  -5   88.88    3.01
  -2   0  -5   -0.17    0.44
  -2   0  -5   -0.31    0.22
  -2   0  -5   -0.09    0.50
  -2   0  -5   -0.20    0.28
   2   0   5   -0.02    0.23
   2   0   5    0.17    0.20
   3   0   5  481.04   13.10
  -3   0  -5  477.91   13.26
  -3   0  -5  488.71   13.10
   3   0   5  498.72   13.10
  -3   0  -5  474.92   13.10
  -3   0  -5  490.99   13.65
  -4   0  -5   -0.08    0.60
   4   0   5   -0.07    0.11
  -4   0  -5   -0.15    0.30
  -4   0  -5    0.07    0.14
  -4   0  -5    0.11    0.14
  -5   0  -5  153.91    4.05
  -5   0  -5  140.24    4.04
  -5   0  -5  154.20    4.93
  -6   0  -5    0.47    0.77
  -6   0  -5   -0.09    0.11
  -6   0  -5   -0.14    0.13
  -7   0  -5   63.74    2.95
  -7   0  -5   66.47    1.86
  -8   0  -5    0.03    0.24
  -8   0  -5    0.08    0.91
 -11  -1   5   -0.49    1.12
 -11  -1   5   -1.33    0.87
  11  -1  -5    0.24    0.90
 -11   1   5   -0.40    0.61
  11   1  -5    0.50    0.68
 -11   1   5    1.51    1.16
 -10  -1   5   61.77    2.89
 -10  -1   5   60.64    2.75
  10  -1  -5   59.96    2.60
 -10   1   5   61.40    3.04
  10   1  -5   62.71    2.67
 -10   1   5   63.03    2.72
  -9  -1   5   11.11    1.40
   9  -1  -5    9.67    1.19
  -9  -1   5   10.52    1.17
  -9   1   5    8.94    1.12
   9   1  -5   10.55    1.06
  -9   1   5    9.05    1.11
  -8  -1   5   39.12    2.29
   8  -1  -5   41.43    1.93
  -8  -1   5   40.92    2.04
   8   1  -5   45.57    2.13
  -8   1   5   40.77    2.00
  -8   1   5   43.28    2.26
   7  -1  -5   43.55    1.91
   7  -1  -5   42.69    1.79
  -7  -1   5   41.67    2.04
  -7  -1   5   43.05    1.84
  -7  -1   5   47.95    2.05
   7   1  -5   45.38    1.84
  -7   1   5   43.80    1.73
  -7   1   5   44.52    2.20
  -7   1   5   43.70    1.87
   7   1  -5   42.61    1.91
  -6  -1   5  186.33    5.59
   6  -1  -5  184.55    5.49
   6  -1  -5  176.08    5.54
  -6  -1   5  184.28    5.51
   6  -1  -5  182.71    5.47
  -6  -1   5  186.56    5.75
   6   1  -5  181.12    5.60
  -6   1   5  182.88    5.45
   6   1  -5  182.17    5.47
  -6   1   5  182.43    5.52
  -6   1   5  179.51    5.64
  -5  -1   5    1.15    0.45
  -5  -1   5    0.20    0.55
   5  -1  -5    0.28    0.44
  -5  -1   5    0.43    0.47
   5  -1  -5    0.58    0.52
   5  -1  -5   -0.38    0.49
  -5   1   5    0.32    0.57
   5   1  -5   -0.38    0.40
   5   1  -5    0.72    0.55
  -5   1   5   -0.41    0.43
  -5   1   5    0.03    0.52
   4  -1  -5   49.61    1.91
   4  -1  -5   49.73    1.92
  -4  -1   5   48.80    1.87
   4  -1  -5   53.95    1.94
  -4  -1   5   52.33    1.93
  -4  -1   5   49.60    2.03
   4   1  -5   52.42    2.01
   4   1  -5   48.89    1.96
  -4   1   5   47.92    2.07
  -4   1   5   50.79    1.96
  -4   1   5   50.34    2.04
  -4   1   5   52.04    1.89
   3  -1  -5    0.22    0.39
  -3  -1   5   -0.08    0.36
  -3  -1   5   -0.41    0.35
   3  -1  -5   -0.11    0.33
   3  -1  -5    2.08    0.57
  -3  -1   5    0.34    0.48
  -3   1   5    0.31    0.52
  -3   1   5   -0.19    0.60
  -3   1   5    1.07    0.52
   3   1  -5   -0.74    0.49
  -3   1   5    0.44    0.42
   3   1  -5   -0.15    0.50
  -2  -1   5  317.28    9.11
  -2  -1   5  341.38    9.12
   2  -1  -5  324.30    9.15
   2  -1  -5  332.95    9.31
  -2  -1   5  304.64    9.14
  -2   1   5  322.77    9.13
   2   1  -5  312.85    9.16
  -2   1   5  328.53    9.34
   2   1  -5  347.52    9.34
  -2   1   5  331.21    9.16
   1  -1  -5  102.75    3.09
  -1  -1   5   98.23    3.12
   1  -1  -5   98.35    3.31
  -1  -1   5  106.94    3.07
  -1  -1   5   99.37    3.04
  -1   1   5   95.08    3.24
  -1   1   5  108.46    3.11
   1   1  -5  104.29    3.28
   1   1  -5   96.14    3.26
  -1   1   5  105.25    3.15
   1   1  -5   99.63    3.11
   0  -1  -5    7.37    0.57
   0  -1   5    7.37    0.61
   0  -1   5    7.30    0.51
   0  -1   5    8.13    0.61
   0  -1  -5    7.31    0.68
   0  -1   5    8.86    0.48
   0  -1  -5    8.17    0.72
   0   1   5    7.95    0.58
   0   1  -5    7.72    0.74
   0   1  -5    7.55    0.71
   0   1  -5    8.22    0.58
   0   1   5    6.90    0.57
   1  -1   5   21.12    0.93
  -1  -1  -5   21.39    1.25
   1  -1   5   22.22    0.76
  -1  -1  -5   20.78    1.10
   1  -1   5   22.36    0.89
   1   1   5   21.41    0.95
  -1   1  -5   22.98    1.19
  -1   1  -5   21.20    1.11
  -1   1  -5   22.10    0.87
  -1   1  -5   21.26    0.92
  -2  -1  -5  429.42   11.84
  -2  -1  -5  424.92   11.58
   2  -1   5  422.10   11.55
  -2  -1  -5  415.57   11.60
  -2  -1  -5  426.13   11.56
  -2  -1  -5  419.84   11.88
  -2   1  -5  427.48   12.05
   2   1   5  434.51   11.60
  -2   1  -5  422.38   11.55
  -2   1  -5  424.58   11.79
  -2   1  -5  424.84   11.53
   2   1   5  418.03   11.60
  -3  -1  -5    0.59    0.49
  -3  -1  -5    0.26    0.18
   3  -1   5    0.32    0.22
  -3  -1  -5    0.10    0.21
  -3  -1  -5    0.24    0.26
  -3  -1  -5    1.35    0.47
  -3   1  -5    0.27    0.40
   3   1   5    0.14    0.28
  -3   1  -5    0.14    0.22
   3   1   5    0.30    0.22
  -3   1  -5    0.32    0.18
  -3   1  -5    0.04    0.46
  -4  -1  -5    3.34    0.53
  -4  -1  -5    2.32    0.61
  -4  -1  -5    2.69    0.32
  -4  -1  -5    2.98    0.34
   4  -1   5    2.92    0.22
   4  -1   5    3.02    0.23
  -4   1  -5    2.57    0.22
  -4   1  -5    3.51    0.53
   4   1   5    2.97    0.34
   4   1   5    3.15    0.31
  -4   1  -5    3.90    0.86
  -5  -1  -5   47.55    1.54
  -5  -1  -5   56.83    2.18
   5   1   5   42.91    1.52
  -5   1  -5   52.34    1.88
  -5   1  -5   48.60    2.23
  -6  -1  -5  133.30    3.78
  -6  -1  -5  130.00    4.44
  -6   1  -5  134.37    4.73
   6   1   5  132.29    3.78
  -7  -1  -5   16.91    1.49
  -7  -1  -5   16.04    0.77
  -7   1  -5   16.09    1.60
   7   1   5   15.89    0.75
  -8  -1  -5    1.75    0.38
  -8   1  -5    0.06    0.74
 -10  -2   5    6.48    1.16
  10  -2  -5    7.94    1.20
 -10  -2   5    6.94    1.38
 -10   2   5    8.27    1.35
 -10   2   5    5.81    0.91
  -9  -2   5   94.97    3.77
   9  -2  -5   95.21    3.53
  -9  -2   5  101.68    3.69
  -9   2   5   99.71    3.83
   9   2  -5  104.65    3.74
  -9   2   5   91.59    3.56
  -8  -2   5    2.08    0.83
   8  -2  -5   -0.45    0.77
  -8  -2   5    0.93    0.68
  -8   2   5    1.32    0.91
   8   2  -5    0.50    0.80
  -8   2   5    0.96    0.74
  -7  -2   5    5.32    0.89
  -7  -2   5    5.45    1.06
   7  -2  -5    4.60    0.72
  -7  -2   5    5.47    0.80
   7  -2  -5    5.19    0.78
  -7   2   5    4.87    1.01
  -7   2   5    4.57    0.73
  -7   2   5    3.83    0.67
   7   2  -5    4.25    0.90
   6  -2  -5    3.70    0.60
   6  -2  -5    3.58    0.68
  -6  -2   5    4.25    0.63
  -6  -2   5    4.95    0.73
  -6  -2   5    4.11    0.76
   6  -2  -5    4.83    0.72
  -6   2   5    4.03    0.71
  -6   2   5    4.16    0.65
  -6   2   5    5.02    0.93
   6   2  -5    2.82    0.70
  -5  -2   5  336.12    9.65
  -5  -2   5  343.24    9.73
   5  -2  -5  338.49    9.64
   5  -2  -5  327.87    9.54
   5  -2  -5  349.70    9.67
  -5  -2   5  337.08    9.63
  -5   2   5  333.44    9.58
  -5   2   5  336.67    9.62
  -5   2   5  333.06    9.93
   5   2  -5  336.38    9.63
  -5   2   5  330.65    9.69
   4  -2  -5   14.48    1.05
  -4  -2   5   14.03    1.03
  -4  -2   5   14.02    1.07
   4  -2  -5   13.34    1.16
  -4  -2   5   14.03    1.08
   4  -2  -5   12.86    0.96
  -4   2   5   13.62    1.21
  -4   2   5   13.97    1.12
   4   2  -5   13.17    1.03
  -4   2   5   11.92    0.92
  -3  -2   5  150.70    4.55
   3  -2  -5  146.31    4.56
  -3  -2   5  143.48    4.47
  -3  -2   5  149.55    4.47
   3  -2  -5  148.19    4.48
   3   2  -5  143.25    4.47
   3   2  -5  145.94    4.58
   3   2  -5  146.87    4.63
  -3   2   5  149.39    4.73
  -3   2   5  148.30    4.49
  -3   2   5  145.02    4.48
  -2  -2   5    2.68    0.42
   2  -2  -5    3.07    0.60
  -2  -2   5    2.36    0.50
  -2  -2   5    1.79    0.58
   2  -2  -5    2.32    0.66
   2   2  -5    3.17    0.67
   2   2  -5    2.39    0.60
  -2   2   5    3.65    0.61
   2   2  -5    2.42    0.52
  -2   2   5    2.96    0.73
  -2   2   5    3.24    0.58
  -1  -2   5  133.90    4.07
  -1  -2   5  133.70    3.92
   1  -2  -5  131.89    4.02
   1  -2  -5  129.13    4.21
  -1  -2   5  130.72    3.87
  -1   2   5  133.81    4.00
   1   2  -5  135.98    4.16
  -1   2   5  127.75    4.02
   1   2  -5  138.59    4.24
   1   2  -5  133.96    4.07
   0  -2   5    5.81    0.63
   0  -2  -5    3.55    0.59
   0  -2   5    5.72    0.40
   0  -2  -5    5.68    0.56
   0  -2  -5    5.34    0.56
   0  -2   5    5.13    0.43
   0   2   5    4.87    0.60
   0   2   5    6.02    0.56
   0   2  -5    3.92    0.58
   0   2  -5    5.04    0.44
   0   2  -5    4.11    0.75
   0   2  -5    4.64    0.70
  -1  -2  -5  111.31    3.60
  -1  -2  -5  112.69    3.37
  -1  -2  -5  108.30    3.25
  -1  -2  -5  111.60    3.37
   1  -2   5  111.72    3.38
   1  -2   5  113.01    3.07
  -1   2  -5  112.97    3.38
  -1   2  -5  109.54    3.73
  -1   2  -5  108.13    3.53
   1   2   5  111.63    3.37
   2  -2   5   13.01    0.84
  -2  -2  -5   14.03    1.10
  -2  -2  -5   12.73    0.78
  -2  -2  -5   13.01    0.79
  -2   2  -5   13.32    0.77
  -2   2  -5   14.60    0.95
  -2   2  -5   12.42    0.67
   2   2   5   13.22    0.82
  -2   2  -5   13.85    1.09
   3  -2   5    2.84    0.37
  -3  -2  -5    2.17    0.41
  -3  -2  -5    2.67    0.50
   3  -2   5    2.47    0.33
  -3  -2  -5    2.72    0.49
  -3  -2  -5    2.76    0.46
  -3   2  -5    2.36    0.40
  -3   2  -5    3.20    0.36
   3   2   5    2.92    0.44
  -3   2  -5    2.53    0.50
  -3   2  -5    2.15    0.65
  -4  -2  -5   -0.18    0.38
  -4  -2  -5    0.84    0.49
   4  -2   5    1.06    0.32
  -4  -2  -5    1.09    0.46
   4   2   5    1.38    0.38
  -4   2  -5    1.31    0.33
  -4   2  -5    0.93    0.56
  -4   2  -5    1.33    0.28
  -4   2  -5    0.87    0.82
  -5  -2  -5   18.19    0.93
   5  -2   5   21.59    0.83
  -5  -2  -5   23.44    1.24
  -5  -2  -5   20.25    1.26
  -5   2  -5   22.01    1.53
  -5   2  -5   23.44    1.34
   5   2   5   16.32    0.94
  -5   2  -5   19.94    0.82
   6  -2   5    0.20    0.22
  -6  -2  -5    0.09    0.53
  -6  -2  -5    0.24    0.32
  -6   2  -5   -0.18    0.25
  -6   2  -5    1.04    0.59
  -6   2  -5    0.47    0.69
   6   2   5   -0.32    0.32
  -7  -2  -5    2.32    0.43
   7  -2   5    1.80    0.35
  -7   2  -5    1.92    0.30
   7   2   5    1.69    0.48
  -7   2  -5    2.02    1.09
  -8  -2  -5    1.03    0.47
  -8   2  -5    0.61    1.15
  -8   2  -5    0.56    0.30
   8   2   5    0.50    0.39
  10  -3  -5    0.24    0.94
 -10  -3   5   -0.63    1.14
 -10  -3   5    0.53    0.68
 -10   3   5   -0.07    0.87
 -10   3   5    2.16    1.09
  10   3  -5   -0.48    0.80
  -9  -3   5   14.38    1.63
  -9  -3   5   15.50    1.46
   9  -3  -5   16.57    1.46
  -9   3   5   14.80    1.53
  -9   3   5   17.20    1.46
   9   3  -5   14.79    1.39
   8  -3  -5   32.65    1.72
  -8  -3   5   35.30    2.02
   8  -3  -5   33.55    1.97
  -8  -3   5   35.87    2.01
  -8   3   5   32.32    1.93
   8   3  -5   31.42    1.94
  -8   3   5   36.18    2.15
  -7  -3   5   -0.12    0.63
   7  -3  -5    0.33    0.56
   7  -3  -5    0.68    0.63
  -7  -3   5    1.67    0.92
  -7  -3   5   -0.32    0.53
  -7   3   5    0.16    0.59
  -7   3   5    0.59    0.77
   7   3  -5   -0.35    0.74
  -6  -3   5   38.26    1.91
   6  -3  -5   39.05    1.88
   6  -3  -5   40.62    1.85
   6  -3  -5   37.19    1.75
  -6  -3   5   38.37    1.88
  -6  -3   5   39.25    1.84
  -6   3   5   37.27    1.78
  -6   3   5   41.89    1.70
   6   3  -5   38.99    1.75
  -6   3   5   40.76    2.24
  -6   3   5   38.70    2.06
   6   3  -5   40.02    1.89
   5  -3  -5   18.09    1.23
   5  -3  -5   21.57    1.29
  -5  -3   5   21.34    1.44
  -5  -3   5   16.17    1.32
   5  -3  -5   21.62    1.27
  -5  -3   5   19.20    1.41
  -5   3   5   19.64    1.64
  -5   3   5   19.60    1.39
   5   3  -5   22.80    1.24
   5   3  -5   22.39    1.51
  -5   3   5   18.11    1.31
  -4  -3   5   31.72    1.50
   4  -3  -5   31.98    1.69
  -4  -3   5   32.90    1.55
   4  -3  -5   35.32    1.78
  -4  -3   5   32.22    1.70
   4   3  -5   33.65    1.71
   4   3  -5   32.01    1.62
  -4   3   5   33.08    1.75
   4   3  -5   30.94    1.53
  -4   3   5   33.64    1.52
  -4   3   5   33.82    1.64
  -3  -3   5    0.94    0.44
   3  -3  -5    0.87    0.47
  -3  -3   5    1.58    0.53
   3  -3  -5    1.55    0.69
  -3  -3   5    1.18    0.46
   3   3  -5    1.80    0.57
   3   3  -5    1.53    0.67
  -3   3   5    0.14    0.74
  -3   3   5    1.38    0.48
  -3   3   5    2.08    0.51
   3   3  -5    1.55    0.66
  -2  -3   5   38.10    1.53
   2  -3  -5   31.45    1.60
  -2  -3   5   34.80    1.51
  -2  -3   5   35.35    1.68
   2  -3  -5   35.16    1.64
   2   3  -5   35.47    1.65
  -2   3   5   33.62    1.48
   2   3  -5   34.79    1.59
   2   3  -5   33.55    1.75
  -2   3   5   35.37    1.63
  -1  -3   5    1.75    0.59
   1  -3  -5    1.06    0.50
   1   3  -5    1.91    0.60
   1   3  -5    0.93    0.43
   0  -3  -5    9.45    0.68
   0  -3  -5    8.96    0.97
   0  -3   5    8.55    0.74
   0  -3  -5    9.28    0.75
   0  -3   5   10.64    0.69
   0  -3   5    9.94    0.61
   0  -3  -5   11.14    0.83
   0   3  -5   10.64    0.72
   0   3   5    9.84    0.80
   0   3  -5   10.62    0.93
   0   3  -5   10.29    0.92
   0   3   5   10.36    0.82
   0   3  -5    9.47    0.82
  -1  -3  -5  119.04    3.69
  -1  -3  -5  123.40    3.58
   1  -3   5  121.59    3.78
  -1  -3  -5  123.54    4.01
  -1  -3  -5  120.72    3.77
  -1   3  -5  126.97    3.79
  -1   3  -5  122.13    4.04
  -1   3  -5  122.35    3.49
   1   3   5  124.51    3.83
  -1   3  -5  115.69    4.03
   1   3   5  119.62    3.68
  -2  -3  -5   67.46    2.12
  -2  -3  -5   67.24    2.17
  -2  -3  -5   68.61    2.35
  -2  -3  -5   68.84    2.62
   2  -3   5   67.41    2.27
   2   3   5   67.35    2.38
  -2   3  -5   67.26    2.30
  -2   3  -5   70.07    2.65
  -2   3  -5   66.70    2.67
  -3  -3  -5    0.87    0.59
  -3  -3  -5    0.58    0.32
   3  -3   5    1.16    0.43
  -3  -3  -5    0.29    0.45
  -3   3  -5    1.27    0.85
  -3   3  -5    1.14    0.43
   3   3   5    0.84    0.49
  -3   3  -5    1.10    0.70
  -4  -3  -5    0.59    0.46
   4  -3   5    0.60    0.38
  -4  -3  -5   -0.32    0.54
  -4   3  -5   -0.50    0.63
  -4   3  -5    0.70    0.90
   4   3   5    0.68    0.48
  -4   3  -5    1.00    0.38
  -5  -3  -5   33.66    1.48
   5  -3   5   35.21    1.35
  -5  -3  -5   36.10    1.69
   5   3   5   32.06    1.51
  -5   3  -5   31.90    2.24
  -5   3  -5   36.46    1.92
  -5   3  -5   35.22    1.38
   6  -3   5    0.97    0.42
  -6  -3  -5    0.66    0.48
  -6   3  -5    6.83    1.00
  -6   3  -5    0.72    0.80
  -6   3  -5    2.92    0.48
   7  -3   5   27.57    1.18
  -7  -3  -5   25.15    1.41
  -7   3  -5   25.91    1.14
   7   3   5   24.72    1.35
  -7   3  -5   24.31    1.72
  -7   3  -5   28.44    2.32
  -9  -4   5    4.86    1.15
  -9  -4   5    4.26    1.34
   9  -4  -5    6.11    1.16
   9   4  -5    3.47    0.77
  -9   4   5    4.23    1.18
  -9   4   5    4.65    1.08
   8  -4  -5   29.04    1.74
   8  -4  -5   28.52    1.61
  -8  -4   5   31.01    2.02
  -8  -4   5   28.59    2.24
  -8   4   5   29.95    1.74
  -8   4   5   31.95    2.11
   8   4  -5   30.70    1.75
   7  -4  -5    1.73    0.93
  -7  -4   5    1.65    1.02
  -7  -4   5    1.18    0.89
   7  -4  -5    1.67    0.75
   7   4  -5    0.72    0.83
  -7   4   5    1.23    0.86
   7   4  -5    2.38    0.81
  -7   4   5    0.56    0.93
   6  -4  -5    3.07    0.85
   6  -4  -5    3.84    0.78
  -6  -4   5    3.55    1.05
  -6  -4   5    3.80    0.72
  -6  -4   5    2.75    0.94
   6   4  -5    1.24    0.79
   6   4  -5    3.24    0.74
   6   4  -5    3.72    0.68
  -6   4   5    4.22    0.77
  -6   4   5    3.68    0.74
  -6   4   5    3.84    0.86
  -5  -4   5    1.93    0.63
  -5  -4   5    2.88    0.88
  -5  -4   5    1.05    0.78
   5  -4  -5    1.77    0.83
   5  -4  -5    3.39    0.73
  -5   4   5    2.36    0.76
   5   4  -5    2.25    0.66
   5   4  -5    2.61    0.78
  -5   4   5    2.92    0.69
   5   4  -5    2.00    0.55
  -5   4   5    1.76    0.55
   4  -4  -5   27.19    1.69
  -4  -4   5   31.18    1.75
   4  -4  -5   29.20    1.82
  -4  -4   5   31.16    1.74
  -4  -4   5   30.62    1.68
  -4   4   5   26.73    1.88
   4   4  -5   29.05    1.78
   4   4  -5   28.11    1.59
   4   4  -5   28.09    1.51
  -4   4   5   26.81    1.66
  -4   4   5   29.23    1.66
   3  -4  -5   17.42    1.51
  -3  -4   5   18.17    1.21
  -3  -4   5   17.11    1.28
   3  -4  -5   16.76    1.17
  -3  -4   5   16.49    1.10
   3   4  -5   18.01    1.30
   3   4  -5   15.67    1.24
  -3   4   5   15.95    1.33
   3   4  -5   15.50    1.12
  -3   4   5   16.52    1.35
   3   4  -5   17.38    1.13
  -3   4   5   16.57    1.42
   2   4  -5   28.78    1.60
  -2   4   5   28.20    1.60
  -1  -4   5   35.12    1.76
  -1  -4   5   36.78    1.50
   1  -4  -5   35.22    1.61
  -1  -4   5   36.92    1.53
   1   4  -5   34.21    1.50
  -1   4   5   40.84    1.82
  -1   4   5   35.36    1.72
   1   4  -5   37.71    1.86
   1   4  -5   34.28    1.77
   1   4  -5   37.75    1.77
   0  -4  -5  118.16    3.75
   0  -4  -5  116.66    3.78
   0  -4   5  116.17    3.62
   0  -4   5  116.54    3.56
   0  -4   5  118.64    3.86
   0   4  -5  123.97    4.12
   0   4  -5  118.45    3.64
   0   4  -5  116.82    4.05
   0   4   5  116.85    3.77
   0   4   5  114.88    3.80
   0   4  -5  118.64    3.84
  -1  -4  -5   13.12    1.13
   1  -4   5   13.28    0.97
  -1  -4  -5   16.08    1.16
  -1  -4  -5   14.45    0.91
  -1  -4  -5   13.84    0.64
  -1   4  -5   14.08    1.12
  -1   4  -5   13.42    1.28
   1   4   5   13.80    1.02
   1   4   5   15.53    1.04
  -1   4  -5   13.70    1.27
  -2  -4  -5   27.67    1.37
   2  -4   5   29.30    1.47
  -2  -4  -5   30.14    1.62
  -2   4  -5   29.77    1.45
  -2   4  -5   27.00    1.67
  -2   4  -5   26.56    1.76
   2   4   5   29.07    1.42
  -3  -4  -5   20.27    1.29
  -3  -4  -5   20.99    1.56
   3  -4   5   20.29    1.23
  -3   4  -5   21.88    1.44
  -3   4  -5   18.60    1.17
   3   4   5   19.55    1.33
  -3   4  -5   22.50    1.58
   4  -4   5   77.05    2.68
  -4  -4  -5   77.87    3.03
  -4  -4  -5   81.47    2.81
   4   4   5   72.72    2.79
  -4   4  -5   77.07    2.71
  -4   4  -5   76.49    3.40
  -4   4  -5   79.13    3.18
   5  -4   5   27.08    1.37
  -5  -4  -5   29.04    1.53
  -5   4  -5   32.32    2.29
   5   4   5   26.41    1.54
  -5   4  -5   30.45    1.38
  -5   4  -5   25.24    1.90
   6  -4   5    1.39    0.51
  -6  -4  -5    1.08    0.62
  -6   4  -5    0.59    0.85
  -6   4  -5    0.04    1.12
  -6   4  -5    0.79    0.49
   6   4   5    0.78    0.63
   7  -4   5    5.03    0.66
  -7  -4  -5    3.91    0.78
   7   4   5    4.78    0.84
  -7   4  -5    5.08    1.13
  -7   4  -5    5.07    0.71
  -7   4  -5    3.82    1.13
   8  -5  -5    3.83    0.88
   8  -5  -5    3.83    0.95
  -8  -5   5    2.88    1.25
  -8  -5   5    3.78    1.11
   8   5  -5    2.71    0.95
  -8   5   5    3.52    1.13
  -8   5   5    3.29    0.86
   7  -5  -5  137.93    4.83
  -7  -5   5  145.87    5.19
   7  -5  -5  145.45    4.99
  -7  -5   5  141.24    4.88
   7   5  -5  137.97    4.92
   7   5  -5  144.87    4.78
  -7   5   5  144.14    4.93
  -7   5   5  142.76    4.94
  -7   5   5  143.34    5.22
   6  -5  -5    1.60    0.68
   6  -5  -5    3.02    1.00
  -6  -5   5    3.87    0.96
  -6  -5   5    2.13    0.76
  -6  -5   5    3.57    1.13
   6   5  -5    2.07    0.71
   6   5  -5    2.79    0.75
   6   5  -5    1.89    0.88
  -6   5   5    3.25    1.03
  -6   5   5    3.68    1.11
   5  -5  -5   46.18    2.44
  -5  -5   5   45.89    2.31
   5  -5  -5   45.64    2.35
  -5  -5   5   50.40    2.46
  -5  -5   5   46.62    2.17
   5   5  -5   46.12    2.21
  -5   5   5   48.84    2.22
   5   5  -5   45.47    2.09
   5   5  -5   45.46    2.21
   5   5  -5   46.09    2.29
  -5   5   5   48.19    2.57
  -5   5   5   49.00    2.19
  -4  -5   5    2.79    0.93
   4  -5  -5    4.90    1.00
  -4  -5   5    4.44    1.00
  -4  -5   5    5.83    0.96
  -4   5   5    5.52    0.99
   4   5  -5    5.09    0.84
  -4   5   5    5.13    0.94
   4   5  -5    4.63    0.82
   4   5  -5    4.09    0.78
  -4   5   5    6.11    1.18
   4   5  -5    5.29    0.88
  -3  -5   5  108.42    3.70
  -3  -5   5  104.43    3.66
   3  -5  -5  118.00    3.92
  -3  -5   5  107.67    3.91
  -3   5   5  106.12    3.72
   3   5  -5  109.67    3.88
   3   5  -5  103.96    3.98
   3   5  -5  111.61    3.79
   3   5  -5  111.55    3.81
  -3   5   5  106.62    3.74
  -3   5   5  114.18    4.16
  -2  -5   5    4.80    0.75
   2  -5  -5    3.74    0.90
  -2  -5   5    4.40    0.78
  -2  -5   5    5.10    0.68
   2   5  -5    2.84    0.79
   2   5  -5    5.25    0.86
  -2   5   5    3.00    0.68
  -2   5   5    5.20    0.92
   2   5  -5    4.79    1.03
   2   5  -5    4.29    0.89
  -1  -5   5  137.35    4.33
   1  -5  -5  140.39    4.49
  -1  -5   5  140.45    4.59
  -1  -5   5  134.65    4.37
   1   5  -5  141.43    4.81
   1   5  -5  138.60    4.57
  -1   5   5  136.88    4.50
   1   5  -5  141.68    4.43
  -1   5   5  136.90    4.51
   1   5  -5  135.23    4.62
   0  -5   5    9.67    0.93
   0  -5  -5    9.36    1.04
   0  -5  -5   10.21    1.03
   0   5  -5   10.50    0.89
   0   5   5    9.37    0.96
   0   5   5   10.06    0.94
   0   5  -5   10.65    1.18
   0   5  -5   10.17    1.09
   0   5  -5   10.67    1.25
  -1  -5  -5   47.29    2.04
   1  -5   5   47.53    2.14
  -1  -5  -5   43.73    1.98
  -1   5  -5   46.05    2.11
  -1   5  -5   54.46    2.50
   1   5   5   43.34    2.03
  -1   5  -5   52.60    2.48
   2  -5   5   18.18    1.39
  -2  -5  -5   18.82    1.42
  -2   5  -5   18.71    1.49
   2   5   5   19.76    1.51
  -2   5  -5   18.47    1.38
  -2   5  -5   18.33    1.50
  -3  -5  -5   46.17    2.15
   3  -5   5   46.76    1.97
  -3  -5  -5   45.97    2.43
  -3   5  -5   43.85    2.57
  -3   5  -5   49.77    2.56
   3   5   5   46.75    2.21
  -3   5  -5   45.63    2.06
   4  -5   5    7.27    0.80
  -4  -5  -5    5.66    1.04
  -4  -5  -5    5.45    0.78
  -4   5  -5    5.95    1.22
  -4   5  -5    7.20    0.89
   4   5   5    5.60    0.80
  -4   5  -5    5.58    1.06
  -5  -5  -5    9.32    1.14
   5  -5   5   10.39    1.00
  -5  -5  -5   10.42    1.12
  -5   5  -5   12.39    1.47
  -5   5  -5    8.30    1.50
  -5   5  -5   10.00    0.99
   5   5   5    7.31    1.07
  -6  -5  -5    9.38    1.10
   6  -5   5    8.44    0.93
  -6   5  -5   10.05    0.96
  -6   5  -5    8.29    1.38
  -6   5  -5   10.12    1.68
   6   5   5   10.62    1.18
  -7  -6   5    4.02    0.94
   7  -6  -5    3.86    1.20
   7  -6  -5    4.41    1.12
  -7  -6   5    1.92    0.90
  -7   6   5    1.25    1.11
   7   6  -5    2.04    1.03
   7   6  -5    3.20    1.23
  -7   6   5    2.56    1.13
   6  -6  -5   35.07    2.25
  -6  -6   5   30.88    2.12
   6  -6  -5   30.38    2.23
  -6  -6   5   31.62    2.19
  -6  -6   5   28.25    2.27
  -6   6   5   34.53    2.21
  -6   6   5   30.45    2.33
   6   6  -5   31.65    2.15
   6   6  -5   33.91    2.29
  -5  -6   5   20.30    1.59
  -5  -6   5   18.62    1.63
  -5  -6   5   24.15    1.85
   5  -6  -5   20.86    1.75
   5   6  -5   17.60    1.65
   5   6  -5   19.28    1.61
   5   6  -5   15.85    1.45
  -5   6   5   18.42    1.79
  -5   6   5   20.17    1.66
  -5   6   5   17.32    1.48
   5   6  -5   17.81    1.38
  -4  -6   5  152.24    5.10
   4  -6  -5  153.25    5.04
  -4  -6   5  149.25    5.05
  -4  -6   5  151.49    5.05
  -4   6   5  150.51    5.09
   4   6  -5  144.81    4.97
   4   6  -5  143.53    4.82
   4   6  -5  150.67    5.11
   4   6  -5  144.74    5.21
  -4   6   5  142.86    4.98
  -4   6   5  151.57    5.36
  -3  -6   5   18.12    1.45
  -3  -6   5   17.30    1.57
  -3  -6   5   15.16    1.28
   3  -6  -5   21.71    1.64
  -3   6   5   16.45    1.36
   3   6  -5   20.15    1.53
  -3   6   5   18.40    1.38
   3   6  -5   20.42    1.71
   3   6  -5   14.93    1.39
   3   6  -5   20.24    1.48
  -2  -6   5    3.50    0.84
  -2  -6   5    2.61    0.81
  -2  -6   5    2.57    0.74
   2  -6  -5    2.46    0.91
   2   6  -5    1.40    0.90
   2   6  -5    2.04    0.77
  -2   6   5    2.99    0.74
   2   6  -5    2.02    0.79
  -2   6   5    1.19    0.66
   2   6  -5    2.96    0.86
   1  -6  -5   -0.87    0.78
  -1  -6   5   -0.33    0.60
   1   6  -5    1.59    0.89
   1   6  -5    1.33    0.83
  -1   6   5    1.18    0.81
  -1   6   5    1.63    0.72
   1   6  -5    1.37    0.73
   1   6  -5    0.37    0.99
   0  -6   5  151.81    5.00
   0  -6  -5  146.98    4.97
   0  -6  -5  147.69    4.93
   0   6  -5  149.91    5.31
   0   6  -5  150.19    4.96
   0   6   5  160.45    5.73
   0   6  -5  150.06    5.16
   0   6   5  152.22    5.09
   1  -6   5   11.34    1.24
  -1  -6  -5   11.14    1.23
   1   6   5   10.44    1.10
  -1   6  -5   12.09    1.24
  -1   6  -5   11.46    1.44
  -1   6  -5   12.28    1.27
  -2  -6  -5   10.10    1.21
   2  -6   5    9.59    1.17
  -2   6  -5   10.56    1.42
   2   6   5    8.35    1.04
  -2   6  -5   11.93    1.34
  -2   6  -5   11.27    1.20
   3  -6   5    1.26    0.61
  -3  -6  -5    2.57    0.75
   3   6   5    3.18    0.80
  -3   6  -5    3.70    0.89
  -3   6  -5    0.60    1.06
  -3   6  -5    1.69    1.15
   4  -6   5   16.18    1.36
  -4  -6  -5   17.49    1.64
  -4  -6  -5   15.81    1.47
  -4   6  -5   17.73    1.40
   4   6   5   16.70    1.53
  -4   6  -5   14.97    1.78
  -4   6  -5   16.57    1.75
   5  -6   5   -0.06    0.76
  -5  -6  -5    1.75    0.93
  -5  -6  -5    0.52    0.88
   5   6   5   -0.01    0.89
  -5   6  -5   -0.01    1.24
  -5   6  -5    0.01    1.13
  -5   6  -5   -0.21    0.73
  -5  -7   5    0.27    0.98
  -5  -7   5   -0.16    1.01
   5  -7  -5    0.34    0.78
  -5  -7   5    0.07    1.09
  -5   7   5    0.97    0.80
   5   7  -5    0.08    1.02
   5   7  -5   -0.50    1.00
  -5   7   5    1.05    1.08
  -4  -7   5    1.22    0.77
  -4  -7   5    1.64    0.80
  -4  -7   5    1.40    1.06
   4  -7  -5    0.60    1.05
   4   7  -5   -2.08    0.91
  -4   7   5    0.71    0.74
   4   7  -5   -0.52    0.68
   4   7  -5    0.93    0.76
  -4   7   5    1.25    1.18
  -4   7   5    0.87    1.01
  -3  -7   5   21.36    1.72
  -3  -7   5   20.58    1.69
   3  -7  -5   20.56    1.65
  -3  -7   5   20.70    1.66
  -3   7   5   22.00    1.63
   3   7  -5   23.47    1.88
   3   7  -5   25.25    1.83
  -3   7   5   24.35    1.98
   3   7  -5   22.47    1.62
   3   7  -5   20.41    1.57
  -2  -7   5   23.47    1.85
   2  -7  -5   24.44    1.69
   2   7  -5   22.69    1.71
  -2   7   5   24.82    1.71
   2   7  -5   24.74    1.73
   2   7  -5   22.27    1.96
  -2   7   5   23.72    1.89
   2   7  -5   24.60    1.82
   1  -7  -5    7.62    1.18
  -1  -7   5    6.34    1.19
   1   7  -5    7.87    1.40
  -1   7   5    8.86    1.33
   1   7  -5    7.30    1.12
  -1   7   5    7.46    1.18
   1   7  -5    7.02    1.24
   0  -7  -5    9.22    1.33
   0  -7   5    9.73    1.35
   0  -7  -5   10.23    1.37
   0   7  -5   10.08    1.20
   0   7  -5   13.59    1.64
   0   7   5   10.32    1.21
   0   7  -5   13.49    1.48
  -1  -7  -5   55.40    2.67
   1  -7   5   55.05    2.51
  -1   7  -5   51.55    2.75
  -1   7  -5   52.94    2.61
   1   7   5   52.77    2.55
  -1   7  -5   52.70    2.48
   2  -7   5    0.63    0.70
  -2  -7  -5    0.08    0.65
  -2   7  -5   -0.75    0.79
  -2   7  -5    0.54    0.78
  -2   7  -5    0.01    0.65
   2   7   5    0.11    0.71
   3  -7   5   10.36    1.34
  -3  -7  -5   11.12    1.45
   3   7   5   10.78    1.48
  -3   7  -5   10.74    1.36
  -3   7  -5   11.88    1.49
  -3   7  -5   12.67    1.67
 -11   0   6    0.28    0.69
 -11   0   6    0.91    1.15
  11   0  -6   -0.37    0.93
 -10   0   6   32.18    2.39
  10   0  -6   36.71    2.18
 -10   0   6   36.67    2.13
  -9   0   6    0.44    1.00
   9   0  -6    0.10    0.84
  -9   0   6    0.80    0.84
  -8   0   6   34.20    1.93
   8   0  -6   35.95    2.01
  -8   0   6   34.97    2.14
  -7   0   6    0.54    0.64
  -7   0   6   -0.26    0.57
   7   0  -6   -0.03    0.76
   7   0  -6    0.63    0.60
  -7   0   6   -0.75    0.67
   6   0  -6  229.44    6.91
   6   0  -6  238.85    6.90
  -6   0   6  231.76    6.89
  -6   0   6  225.07    6.85
   6   0  -6  233.49    6.86
  -6   0   6  227.50    6.99
   5   0  -6    0.28    0.57
   5   0  -6    0.51    0.60
  -5   0   6    0.23    0.52
   5   0  -6   -0.40    0.63
  -5   0   6    0.17    0.62
  -5   0   6   -0.20    0.38
  -4   0   6   17.10    1.03
  -4   0   6   17.40    1.24
   4   0  -6   15.45    1.01
   4   0  -6   17.26    1.22
   4   0  -6   15.60    1.08
  -4   0   6   15.28    1.26
  -3   0   6   -0.55    0.49
   3   0  -6    0.19    0.43
  -3   0   6   -0.77    0.62
  -3   0   6   -0.24    0.38
   3   0  -6   -0.20    0.53
  -3   0   6   -0.40    0.38
   3   0  -6   -0.12    0.53
  -2   0   6  963.92   26.18
   2   0  -6  910.72   26.14
  -2   0   6  975.73   26.33
  -2   0   6 1000.00   26.13
   2   0  -6  963.23   26.34
   2   0  -6  935.98   26.12
  -2   0   6  985.07   26.16
  -1   0   6    0.27    0.47
   1   0  -6   -0.57    0.38
  -1   0   6    0.12    0.42
   1   0  -6   -0.05    0.33
  -1   0   6   -0.41    0.33
   1   0  -6    0.34    0.55
   1   0  -6   -0.33    0.42
  -1   0   6    0.00    0.36
   0   0  -6   24.37    1.25
   0   0   6   25.36    1.16
   0   0   6   24.29    1.07
   0   0  -6   23.52    1.30
   0   0  -6   25.63    1.14
  -1   0  -6   -0.19    0.36
  -1   0  -6    1.43    0.59
  -1   0  -6   -0.57    0.36
   1   0   6   -0.01    0.33
  -1   0  -6   -0.25    0.27
   2   0   6  448.63   12.57
  -2   0  -6  470.24   12.71
  -2   0  -6  465.84   13.01
  -2   0  -6  454.78   12.91
  -2   0  -6  453.24   12.57
   2   0   6  468.73   12.58
   3   0   6    0.01    0.23
  -3   0  -6    0.55    0.65
  -3   0  -6   -0.09    0.30
   3   0   6   -0.06    0.21
  -3   0  -6    0.03    0.24
   4   0   6  196.40    5.35
  -4   0  -6  201.14    6.09
  -4   0  -6  187.54    5.50
  -4   0  -6  187.27    5.35
   5   0   6    0.00    0.19
  -5   0  -6   -0.02    0.74
   6   0   6  103.35    2.86
  -6   0  -6  101.77    3.77
  -6   0  -6   99.78    2.86
  -7   0  -6    0.59    0.90
  -7   0  -6   -0.30    0.17
 -11  -1   6    9.49    1.62
 -11  -1   6   11.85    1.44
  11  -1  -6   12.73    1.51
 -11   1   6   14.48    1.72
 -11   1   6   15.52    1.52
  11   1  -6   10.51    1.43
 -10  -1   6   13.43    1.61
 -10  -1   6   11.81    1.37
  10  -1  -6   11.53    1.21
 -10   1   6   11.83    1.38
  10   1  -6   11.94    1.39
 -10   1   6   10.81    1.30
  -9  -1   6   63.98    2.81
   9  -1  -6   63.07    2.77
  -9  -1   6   63.55    2.74
  -9   1   6   59.05    2.90
  -9   1   6   56.87    2.65
   9   1  -6   59.30    2.76
   8  -1  -6    9.61    1.17
  -8  -1   6   10.41    1.06
   8  -1  -6    9.86    0.93
  -8  -1   6   12.54    1.40
   8   1  -6   10.93    1.07
  -8   1   6    7.63    1.06
  -8   1   6   11.39    1.34
   7  -1  -6   47.94    2.05
  -7  -1   6   53.56    2.14
  -7  -1   6   50.05    2.12
   7  -1  -6   49.81    2.13
  -7  -1   6   45.35    2.21
   7  -1  -6   48.60    2.07
  -7   1   6   47.65    2.22
  -7   1   6   51.06    2.11
  -7   1   6   47.66    2.39
   7   1  -6   47.24    2.11
   7   1  -6   46.39    2.05
   6  -1  -6  130.02    4.30
   6  -1  -6  132.95    4.19
   6  -1  -6  135.73    4.21
  -6  -1   6  125.23    4.19
  -6  -1   6  128.32    4.39
  -6  -1   6  128.29    4.17
  -6   1   6  130.98    4.32
  -6   1   6  129.94    4.20
   6   1  -6  134.65    4.24
  -6   1   6  128.47    4.25
   6   1  -6  130.77    4.31
  -5  -1   6   69.11    2.55
  -5  -1   6   66.05    2.46
   5  -1  -6   67.11    2.48
   5  -1  -6   65.25    2.56
   5  -1  -6   65.37    2.48
  -5  -1   6   69.66    2.49
   5   1  -6   65.73    2.48
  -5   1   6   68.57    2.44
  -5   1   6   71.81    2.68
  -5   1   6   68.24    2.45
   5   1  -6   63.58    2.53
   4  -1  -6   27.79    1.52
  -4  -1   6   27.37    1.46
   4  -1  -6   29.85    1.45
  -4  -1   6   28.12    1.39
  -4  -1   6   30.62    1.57
   4  -1  -6   28.14    1.46
  -4   1   6   28.03    1.56
   4   1  -6   26.65    1.50
   4   1  -6   26.38    1.48
  -4   1   6   28.46    1.36
  -4   1   6   29.14    1.48
  -4   1   6   29.17    1.57
   3  -1  -6  320.50    9.10
   3  -1  -6  316.52    9.22
   3  -1  -6  316.69    9.07
  -3  -1   6  322.29    9.09
  -3  -1   6  324.21    9.13
  -3  -1   6  322.76    9.07
   3   1  -6  311.49    9.05
  -3   1   6  315.84    9.08
  -3   1   6  314.88    9.30
   3   1  -6  323.86    9.12
  -3   1   6  321.58    9.10
  -3   1   6  326.38    9.16
  -2  -1   6  120.37    3.63
   2  -1  -6  119.73    3.70
  -2  -1   6  118.83    3.75
   2  -1  -6  120.89    3.90
  -2  -1   6  115.56    3.62
   2  -1  -6  115.81    3.65
  -2   1   6  122.47    3.93
  -2   1   6  110.88    3.65
  -2   1   6  119.67    3.64
   2   1  -6  120.19    3.87
   2   1  -6  118.07    3.73
   1  -1  -6  143.00    4.37
  -1  -1   6  151.66    4.34
  -1  -1   6  145.88    4.34
   1  -1  -6  149.55    4.65
   1  -1  -6  153.34    4.62
  -1  -1   6  148.55    4.49
  -1   1   6  151.11    4.45
  -1   1   6  148.00    4.37
   1   1  -6  147.81    4.70
   1   1  -6  145.54    4.56
  -1   1   6  154.47    4.64
   1   1  -6  146.72    4.44
   0  -1   6   96.88    2.87
   0  -1  -6   95.06    3.30
   0  -1  -6   98.06    2.89
   0  -1   6   94.62    3.00
   0  -1   6   97.42    3.03
   0  -1  -6   95.08    3.17
   0   1  -6   97.35    3.33
   0   1  -6   93.78    3.16
   0   1   6   96.42    2.99
   0   1  -6   96.55    3.02
   0   1   6   96.75    2.88
   1  -1   6  280.32    7.73
   1  -1   6  273.73    7.72
  -1  -1  -6  279.15    7.94
   1  -1   6  275.73    7.53
  -1  -1  -6  272.44    8.04
  -1   1  -6  273.03    7.71
  -1   1  -6  272.14    8.07
  -1   1  -6  274.24    7.88
   1   1   6  272.76    7.72
  -1   1  -6  277.33    7.68
  -2  -1  -6    1.07    0.30
  -2  -1  -6    0.99    0.42
   2  -1   6    1.45    0.35
  -2  -1  -6    1.59    0.36
   2  -1   6    1.67    0.39
  -2  -1  -6    0.97    0.59
  -2   1  -6    1.30    0.49
  -2   1  -6    1.96    0.35
  -2   1  -6    1.73    0.35
   2   1   6    0.80    0.41
  -2   1  -6    1.33    0.71
   2   1   6    0.93    0.36
  -3  -1  -6    7.76    0.56
   3  -1   6    6.55    0.51
  -3  -1  -6    7.91    0.74
  -3  -1  -6    6.65    0.47
  -3  -1  -6    7.41    0.73
  -3  -1  -6    8.59    0.69
  -3   1  -6    7.63    0.89
  -3   1  -6    7.92    0.73
  -3   1  -6    6.33    0.49
  -3   1  -6    7.10    0.51
   3   1   6    6.99    0.58
  -4  -1  -6   36.88    1.66
  -4  -1  -6   36.53    1.29
   4  -1   6   36.55    1.21
  -4  -1  -6   33.75    1.74
  -4   1  -6   35.02    1.21
   4   1   6   35.78    1.27
  -4   1  -6   36.57    1.54
  -4   1  -6   35.99    1.22
  -4   1  -6   37.98    2.04
  -5  -1  -6  147.89    4.69
  -5  -1  -6  139.96    4.05
   5  -1   6  141.46    3.93
   5   1   6  144.73    4.06
  -5   1  -6  137.07    4.81
  -5   1  -6  134.48    4.29
  -5   1  -6  140.62    3.94
  -6  -1  -6    5.91    0.49
  -6  -1  -6    3.73    0.88
   6   1   6    4.91    0.44
  -6   1  -6    3.63    1.09
  -6   1  -6    4.91    0.32
  -7  -1  -6    1.92    0.87
  -7   1  -6    1.83    1.05
 -10  -2   6   80.42    3.56
 -10  -2   6   86.02    3.35
  10  -2  -6   83.73    3.35
 -10   2   6   81.94    3.47
 -10   2   6   88.53    3.46
  -9  -2   6   20.09    1.65
  -9  -2   6   21.12    1.72
   9  -2  -6   22.18    1.79
   9   2  -6   19.51    1.63
  -9   2   6   23.15    1.83
  -9   2   6   20.15    1.60
   8  -2  -6   33.67    2.01
  -8  -2   6   33.99    2.21
  -8  -2   6   30.62    1.92
   8  -2  -6   36.41    1.75
   8   2  -6   30.81    1.95
  -8   2   6   32.50    2.13
  -8   2   6   34.32    1.95
  -7  -2   6   24.38    1.67
   7  -2  -6   27.15    1.42
  -7  -2   6   24.07    1.40
  -7  -2   6   24.23    1.85
   7  -2  -6   24.29    1.70
  -7   2   6   26.25    1.52
  -7   2   6   24.21    1.57
   7   2  -6   25.09    1.53
  -7   2   6   27.64    1.68
   6  -2  -6  115.71    3.65
  -6  -2   6  101.68    3.82
  -6  -2   6  107.43    3.73
  -6  -2   6  105.24    3.61
   6  -2  -6  110.36    3.76
   6  -2  -6  109.27    3.71
  -6   2   6  105.43    3.70
  -6   2   6  105.65    3.62
   6   2  -6  112.22    3.69
  -6   2   6  106.63    3.74
  -5  -2   6   63.78    2.45
  -5  -2   6   60.56    2.53
  -5  -2   6   63.09    2.47
   5  -2  -6   62.27    2.39
   5  -2  -6   63.66    2.40
   5  -2  -6   60.16    2.36
  -5   2   6   62.46    2.34
  -5   2   6   63.85    2.33
   5   2  -6   60.28    2.33
  -5   2   6   60.93    2.55
  -5   2   6   56.45    2.55
   4  -2  -6  123.82    3.87
  -4  -2   6  121.72    3.83
  -4  -2   6  119.26    3.92
   4  -2  -6  120.28    3.86
   4  -2  -6  122.44    4.01
  -4  -2   6  115.74    3.86
  -4   2   6  114.80    3.80
  -4   2   6  122.56    3.90
  -4   2   6  116.54    4.08
   4   2  -6  118.21    3.86
   3  -2  -6   52.30    2.07
  -3  -2   6   51.09    2.01
   3  -2  -6   49.94    2.08
  -3  -2   6   48.57    1.98
  -3   2   6   41.78    1.88
   3   2  -6   49.03    1.98
  -3   2   6   53.68    1.96
   3   2  -6   54.52    2.15
   3   2  -6   55.62    2.15
  -3   2   6   53.51    2.32
  -2  -2   6   20.49    1.29
   2  -2  -6   17.09    1.38
  -2  -2   6   21.35    1.09
  -2   2   6   21.58    1.47
  -2   2   6   15.60    1.05
   2   2  -6   20.53    1.39
  -2   2   6   22.89    1.22
   2   2  -6   19.86    1.12
  -1  -2   6    0.08    0.53
  -1  -2   6   -0.28    0.33
   1  -2  -6    0.59    0.47
   1  -2  -6    0.46    0.61
  -1  -2   6    0.04    0.36
   1   2  -6    1.17    0.58
  -1   2   6   -0.13    0.30
   1   2  -6    0.25    0.43
  -1   2   6    0.09    0.52
   1   2  -6    0.35    0.46
   0  -2  -6   61.54    2.41
   0  -2   6   57.98    1.85
   0  -2  -6   60.41    2.02
   0  -2   6   56.52    2.12
   0  -2   6   59.51    1.87
   0  -2  -6   57.93    2.06
   0   2  -6   60.65    2.14
   0   2  -6   59.31    2.23
   0   2  -6   59.07    2.43
   0   2   6   55.06    1.98
   0   2   6   61.71    2.14
   0   2  -6   57.52    1.86
  -1  -2  -6  107.44    3.43
   1  -2   6  106.77    3.39
   1  -2   6  110.36    3.03
  -1  -2  -6  110.51    3.19
  -1  -2  -6  107.33    3.69
  -1   2  -6  107.29    3.71
  -1   2  -6  112.15    3.41
  -1   2  -6  108.82    3.61
   1   2   6  110.48    3.41
  -2  -2  -6    1.76    0.52
  -2  -2  -6    2.12    0.45
   2  -2   6    1.39    0.43
  -2  -2  -6    1.36    0.46
  -2   2  -6    1.65    0.47
   2   2   6    1.24    0.37
  -2   2  -6    1.83    0.64
  -2   2  -6    1.49    0.79
  -2   2  -6    1.49    0.50
  -3  -2  -6    2.37    0.50
   3  -2   6    1.89    0.39
  -3  -2  -6    2.21    0.64
  -3  -2  -6    1.24    0.49
   3   2   6    2.26    0.48
  -3   2  -6    2.32    0.69
  -3   2  -6    2.25    0.47
  -3   2  -6    2.67    0.65
  -4  -2  -6    9.24    0.73
  -4  -2  -6    8.84    0.81
   4  -2   6   10.04    0.64
  -4  -2  -6   10.56    0.87
  -4   2  -6   10.12    0.70
  -4   2  -6    8.41    0.91
  -4   2  -6    8.61    1.21
   4   2   6    9.18    0.75
  -5  -2  -6    2.36    0.64
  -5  -2  -6    3.57    0.54
  -5  -2  -6    3.70    0.67
   5  -2   6    3.65    0.42
   5   2   6    4.10    0.56
  -5   2  -6    2.79    0.70
  -5   2  -6    4.89    0.48
  -5   2  -6    2.32    0.79
   6  -2   6   25.09    0.97
  -6  -2  -6   23.74    1.12
  -6   2  -6   25.76    0.99
  -6   2  -6   22.66    1.79
   6   2   6   26.33    1.16
  -7  -2  -6    4.32    0.52
  -7   2  -6    3.61    0.98
  -7   2  -6    3.84    0.39
   7   2   6    3.89    0.58
  10  -3  -6    3.25    1.10
 -10  -3   6    4.08    1.16
 -10  -3   6    3.26    1.31
  10   3  -6    3.86    1.09
 -10   3   6    1.88    1.02
 -10   3   6    4.89    1.29
  -9  -3   6    1.70    1.18
   9  -3  -6    3.34    0.85
  -9  -3   6    4.39    1.09
   9   3  -6    2.30    1.00
  -9   3   6    2.94    1.02
  -9   3   6    4.30    1.18
   8  -3  -6    0.14    0.88
   8  -3  -6   -0.22    0.63
  -8  -3   6    0.23    0.98
  -8  -3   6    0.45    0.89
  -8   3   6   -0.85    0.83
  -8   3   6    0.32    0.93
   8   3  -6   -0.47    0.87
  -7  -3   6   41.70    2.03
  -7  -3   6   38.46    1.93
   7  -3  -6   37.85    1.86
  -7  -3   6   36.68    2.03
   7  -3  -6   43.16    2.17
  -7   3   6   39.88    1.91
   7   3  -6   42.36    2.11
  -7   3   6   40.06    2.25
  -7   3   6   39.72    2.10
   7   3  -6   37.83    1.99
   6  -3  -6    2.07    0.71
  -6  -3   6    2.07    0.64
   6  -3  -6    3.26    0.90
  -6  -3   6    2.56    0.93
  -6  -3   6    2.30    0.63
   6  -3  -6    2.54    0.63
  -6   3   6    1.30    0.90
   6   3  -6    2.17    0.67
  -6   3   6    2.16    0.84
  -6   3   6    0.86    0.69
   6   3  -6    1.12    0.73
  -6   3   6    2.66    1.04
  -5  -3   6   42.45    2.06
   5  -3  -6   45.59    2.00
  -5  -3   6   43.05    2.14
   5  -3  -6   45.68    2.17
   5  -3  -6   42.58    1.97
  -5  -3   6   45.02    2.14
   5   3  -6   44.04    2.19
  -5   3   6   40.93    2.34
  -5   3   6   46.81    2.10
   5   3  -6   43.20    2.05
  -5   3   6   43.92    1.90
   5   3  -6   46.89    2.11
   4  -3  -6   46.93    2.12
  -4  -3   6   45.12    2.05
  -4  -3   6   46.48    2.01
  -4  -3   6   45.64    2.02
   4  -3  -6   48.41    2.20
   4   3  -6   43.83    2.01
   4   3  -6   45.30    2.09
  -4   3   6   47.66    1.95
   4   3  -6   46.09    2.22
  -4   3   6   47.47    2.09
  -4   3   6   46.46    2.37
  -3  -3   6  129.94    4.08
  -3  -3   6  133.58    4.14
   3  -3  -6  132.45    4.39
   3  -3  -6  128.28    4.16
  -3  -3   6  127.34    4.24
   3   3  -6  121.64    4.14
  -3   3   6  119.33    4.10
   3   3  -6  139.79    4.38
   3   3  -6  131.81    4.39
  -3   3   6  135.44    4.20
  -3   3   6  130.08    4.47
  -2  -3   6   19.31    1.13
  -2  -3   6   19.03    1.18
   2  -3  -6   18.70    1.28
   2  -3  -6   19.08    1.29
  -2  -3   6   18.22    1.00
  -2   3   6   19.00    1.15
   2   3  -6   18.91    1.16
   2   3  -6   18.44    1.41
   2   3  -6   20.80    1.31
  -2   3   6   17.94    1.10
   1  -3  -6   17.97    1.29
   1  -3  -6   19.98    1.12
  -1  -3   6   21.53    1.20
  -1  -3   6   20.89    1.07
  -1  -3   6   21.81    1.05
   1   3  -6   20.93    1.33
   1   3  -6   22.04    1.52
  -1   3   6   20.69    1.32
   1   3  -6   20.68    1.10
  -1   3   6   22.19    1.25
   1   3  -6   21.87    1.33
   0  -3  -6   66.89    2.75
   0  -3   6   70.17    2.15
   0  -3  -6   70.06    2.33
   0  -3  -6   66.95    2.39
   0  -3   6   66.43    2.21
   0  -3   6   71.43    2.52
   0   3  -6   66.82    2.59
   0   3  -6   70.32    2.23
   0   3  -6   69.96    2.50
   0   3   6   68.76    2.43
   0   3  -6   70.19    2.79
   0   3   6   68.16    2.38
  -1  -3  -6   32.79    1.33
   1  -3   6   29.93    1.49
  -1  -3  -6   30.68    1.78
  -1  -3  -6   31.97    1.48
   1   3   6   30.78    1.54
  -1   3  -6   32.29    1.76
  -1   3  -6   33.31    1.51
  -1   3  -6   32.76    1.88
  -2  -3  -6   74.40    2.55
  -2  -3  -6   74.15    2.41
   2  -3   6   74.06    2.53
  -2  -3  -6   71.92    2.79
  -2   3  -6   78.47    2.89
  -2   3  -6   71.65    2.93
   2   3   6   71.49    2.60
  -2   3  -6   73.49    2.51
  -3  -3  -6   26.67    1.52
  -3  -3  -6   28.72    1.37
   3  -3   6   29.24    1.31
  -3  -3  -6   26.74    1.22
  -3   3  -6   26.28    1.94
   3   3   6   29.28    1.41
  -3   3  -6   30.38    1.71
  -3   3  -6   27.18    1.27
  -4  -3  -6    3.45    0.76
   4  -3   6    4.33    0.56
  -4  -3  -6    3.30    0.61
   4   3   6    2.73    0.60
  -4   3  -6    5.00    1.13
  -4   3  -6    3.97    0.53
  -4   3  -6    5.02    0.90
  -5   3  -6   25.87    2.17
   6  -3   6   55.10    1.93
  -6  -3  -6   54.65    2.11
  -6   3  -6   56.97    1.96
  -6   3  -6   58.91    2.54
   6   3   6   56.17    2.15
  -6   3  -6   54.87    3.05
  -7  -3  -6    2.12    0.66
   7  -3   6    3.30    0.45
  -7   3  -6    2.85    1.02
   7   3   6    1.85    0.58
  -7   3  -6    3.07    0.49
  -9  -4   6    7.73    1.30
  -9  -4   6    6.26    1.20
   9  -4  -6    8.39    1.33
   9   4  -6    8.26    1.25
  -9   4   6    7.94    1.28
  -9   4   6    6.94    1.11
  -8  -4   6    4.49    1.14
   8  -4  -6    4.72    0.95
  -8  -4   6    4.73    1.28
   8  -4  -6    5.29    0.97
  -8   4   6    5.13    1.01
  -8   4   6    5.00    0.93
   8   4  -6    4.59    0.88
   7  -4  -6   18.11    1.57
  -7  -4   6   16.81    1.39
  -7  -4   6   17.18    1.45
  -7  -4   6   17.23    1.64
   7  -4  -6   15.23    1.32
   7   4  -6   15.29    1.33
  -7   4   6   17.08    1.49
   7   4  -6   18.24    1.59
  -7   4   6   16.21    1.43
   6  -4  -6    4.14    0.83
  -6  -4   6    4.22    0.81
   6  -4  -6    5.89    0.91
  -6  -4   6    5.68    1.10
  -6  -4   6    4.94    0.81
   6  -4  -6    3.95    0.96
  -6   4   6    5.60    0.92
  -6   4   6    4.15    1.18
   6   4  -6    6.03    0.90
  -6   4   6    5.75    1.05
   6   4  -6    5.02    0.95
   6   4  -6    6.87    1.05
  -5  -4   6   45.94    2.26
  -5  -4   6   45.05    2.23
  -5  -4   6   44.93    2.18
   5  -4  -6   45.62    2.29
   5  -4  -6   41.63    2.05
   5  -4  -6   48.64    2.14
   5   4  -6   43.82    2.20
   5   4  -6   44.88    2.17
  -5   4   6   44.90    1.99
   5   4  -6   44.92    2.35
  -5   4   6   45.89    2.49
  -5   4   6   41.90    2.01
  -4  -4   6    0.54    0.60
  -4  -4   6    2.11    0.81
   4  -4  -6    0.97    0.63
  -4  -4   6    2.37    0.79
   4  -4  -6    2.02    0.85
  -4   4   6    1.23    0.59
  -4   4   6    1.32    0.93
   4   4  -6    0.86    0.56
  -4   4   6    1.91    0.83
   4   4  -6    2.03    0.82
   4   4  -6    2.62    0.92
  -3  -4   6   54.53    2.22
   3  -4  -6   60.81    2.51
  -3  -4   6   59.52    2.54
   3  -4  -6   59.86    2.65
  -3  -4   6   60.75    2.37
  -3   4   6   55.42    2.55
   3   4  -6   60.11    2.52
   3   4  -6   57.28    2.46
   3   4  -6   64.48    2.69
   3   4  -6   55.56    2.38
  -3   4   6   58.32    2.43
  -3   4   6   60.23    2.49
   2  -4  -6   14.03    1.10
  -2  -4   6   11.99    0.90
   2  -4  -6   15.88    1.27
  -2   4   6   10.74    0.98
  -1  -4   6  105.36    3.40
  -1  -4   6  103.07    3.67
   1  -4  -6  107.77    3.57
  -1  -4   6  110.67    3.40
   1  -4  -6  105.95    3.82
   1   4  -6  107.80    3.77
   1   4  -6  105.84    3.78
   1   4  -6  110.50    3.68
  -1   4   6  113.47    3.70
   1   4  -6  104.23    3.41
  -1   4   6  107.64    3.60
   0  -4  -6   57.95    1.95
   0  -4   6   56.08    1.92
   0  -4   6   58.60    2.35
   0  -4  -6   60.26    2.25
   0  -4  -6   54.98    2.59
   0   4  -6   54.74    1.99
   0   4  -6   57.87    2.58
   0   4  -6   56.61    2.56
   0   4   6   53.41    2.18
   0   4   6   54.89    2.35
   0   4  -6   56.23    2.29
  -1  -4  -6    7.46    0.89
  -1  -4  -6    8.00    1.12
   1  -4   6    7.93    0.92
   1   4   6    6.01    0.88
  -1   4  -6    7.52    0.76
  -1   4  -6    8.70    1.03
  -1   4  -6    7.92    1.12
  -2  -4  -6    5.88    1.01
   2  -4   6    4.60    0.76
  -2  -4  -6    3.94    0.62
   2   4   6    4.53    0.69
  -2   4  -6    4.35    0.72
  -2   4  -6    4.00    0.85
  -3  -4  -6  133.65    4.67
  -3  -4  -6  135.27    4.35
   3  -4   6  134.67    4.29
  -3   4  -6  133.37    4.62
  -3   4  -6  134.83    4.83
  -3   4  -6  137.77    4.28
   3   4   6  139.80    4.41
   4  -4   6   76.40    2.68
  -4  -4  -6   70.03    2.76
  -4  -4  -6   74.41    3.08
  -4   4  -6   74.83    3.44
   4   4   6   78.50    2.84
  -4   4  -6   77.66    2.66
  -4   4  -6   78.12    3.20
  -5  -4  -6    0.83    0.68
  -5  -4  -6    1.63    0.62
   5  -4   6    0.64    0.50
  -5   4  -6    2.13    1.19
  -5   4  -6    0.85    0.66
   5   4   6    0.46    0.64
  -5   4  -6    1.52    0.62
   6  -4   6    4.50    0.66
  -6  -4  -6    5.06    0.82
  -6   4  -6    3.83    1.09
   6   4   6    4.00    0.80
  -6   4  -6    5.01    0.72
  -6   4  -6    4.53    1.07
  -8  -5   6   55.13    2.69
  -8  -5   6   54.39    3.10
   8  -5  -6   58.84    2.74
   8  -5  -6   59.20    2.64
  -8   5   6   57.59    2.69
  -8   5   6   60.32    2.79
   8   5  -6   63.33    3.19
   8   5  -6   56.77    2.86
   7  -5  -6    0.01    0.63
  -7  -5   6    1.15    1.10
   7  -5  -6   -0.20    0.71
  -7  -5   6   -0.25    0.96
   7   5  -6    0.91    0.78
  -7   5   6    1.95    1.15
  -7   5   6    0.18    0.77
   7   5  -6    0.48    0.97
  -7   5   6    0.79    0.96
   6  -5  -6   28.61    1.79
  -6  -5   6   29.09    1.98
  -6  -5   6   25.77    1.69
  -6  -5   6   26.68    2.08
   6  -5  -6   28.66    2.02
  -6   5   6   26.45    2.21
  -6   5   6   27.89    1.62
  -6   5   6   29.93    2.00
   6   5  -6   29.50    1.80
   6   5  -6   30.36    1.95
   6   5  -6   24.18    1.73
   5  -5  -6   -0.16    0.66
  -5  -5   6    1.77    0.72
  -5  -5   6    1.95    0.70
  -5  -5   6    1.10    0.91
   5  -5  -6    0.70    0.66
  -5   5   6    1.02    0.64
   5   5  -6    0.56    0.63
   5   5  -6    1.19    0.76
   5   5  -6    1.94    0.95
   5   5  -6    1.05    0.71
  -5   5   6    0.40    0.66
  -5   5   6    0.62    0.78
  -4  -5   6  113.64    4.00
   4  -5  -6  115.43    4.13
   4  -5  -6  114.47    4.07
  -4  -5   6  106.99    3.85
  -4  -5   6  112.11    3.98
  -4   5   6  109.39    4.31
   4   5  -6  111.77    4.00
  -4   5   6  118.36    4.06
   4   5  -6  113.55    4.09
  -4   5   6  111.93    3.98
   4   5  -6  111.47    4.05
   4   5  -6  108.86    3.89
   3  -5  -6   26.19    1.77
  -3  -5   6   20.65    1.34
  -3  -5   6   22.77    1.54
  -3  -5   6   22.60    1.73
   3  -5  -6   23.42    1.90
  -3   5   6   20.61    1.65
   3   5  -6   23.21    1.64
  -3   5   6   24.85    1.69
   3   5  -6   20.54    1.44
   3   5  -6   24.02    1.61
   3   5  -6   24.50    1.88
  -3   5   6   19.08    1.39
   2  -5  -6   11.87    1.08
  -2  -5   6   10.38    1.02
  -2  -5   6   10.39    1.01
  -2  -5   6   11.30    1.21
   2  -5  -6    8.89    1.12
  -2   5   6   10.55    1.19
   2   5  -6   12.87    1.40
  -2   5   6   12.56    1.21
   2   5  -6    9.87    1.16
   2   5  -6    9.39    1.16
   2   5  -6   11.94    1.10
  -1  -5   6    5.84    0.75
   1  -5  -6    6.78    1.01
   1  -5  -6    6.68    0.96
  -1  -5   6    6.12    0.99
   1   5  -6    6.02    1.13
   1   5  -6    4.65    0.95
   1   5  -6    5.41    1.02
  -1   5   6    5.39    0.79
  -1   5   6    4.66    0.94
   1   5  -6    6.56    0.83
   0  -5   6   41.55    2.02
   0  -5  -6   36.70    2.29
   0  -5  -6   38.04    1.93
   0   5  -6   39.95    2.24
   0   5  -6   33.88    1.99
   0   5   6   36.68    1.86
   0   5  -6   40.45    1.99
  -1  -5  -6   21.46    1.92
   1  -5   6   25.80    1.64
  -1  -5  -6   27.33    1.67
  -1   5  -6   25.09    1.95
  -1   5  -6   27.99    1.66
  -1   5  -6   30.64    2.05
   1   5   6   28.69    1.79
  -2  -5  -6    7.81    1.24
   2  -5   6    9.03    1.03
  -2  -5  -6   10.29    1.09
  -2   5  -6    8.64    1.16
   2   5   6    8.69    1.13
  -2   5  -6    9.54    1.16
  -2   5  -6    8.66    1.01
   3  -5   6    7.69    0.97
  -3  -5  -6    7.32    1.16
  -3  -5  -6    7.77    1.03
  -3   5  -6    7.90    0.97
  -3   5  -6    8.86    1.32
   3   5   6    6.15    1.02
  -3   5  -6    6.61    1.32
  -4  -5  -6   55.31    2.50
  -4  -5  -6   55.33    2.75
   4  -5   6   56.98    2.29
  -4   5  -6   57.79    2.93
  -4   5  -6   61.55    2.40
  -4   5  -6   60.30    2.97
   4   5   6   63.45    2.62
  -5  -5  -6    9.34    1.10
  -5  -5  -6   13.52    1.23
   5  -5   6   10.23    1.02
  -5   5  -6   11.31    1.04
  -5   5  -6   14.35    1.78
  -5   5  -6   11.36    1.51
   5   5   6   10.44    1.20
   7  -6  -6   18.17    1.83
  -7  -6   6   17.81    1.77
  -7  -6   6   20.73    1.75
   7  -6  -6   20.15    1.80
  -7   6   6   21.41    2.06
  -7   6   6   23.94    1.93
   7   6  -6   22.28    1.71
   7   6  -6   19.82    1.73
  -6  -6   6    9.32    1.45
   6  -6  -6   12.26    1.36
  -6  -6   6   11.03    1.41
   6  -6  -6   11.20    1.31
  -6  -6   6   10.98    1.43
   6   6  -6   10.31    1.45
   6   6  -6    9.93    1.26
  -6   6   6   11.05    1.61
  -6   6   6   12.58    1.51
  -5  -6   6   69.28    3.04
   5  -6  -6   61.65    3.14
   5  -6  -6   62.91    2.83
  -5  -6   6   61.21    2.89
  -5  -6   6   65.49    2.85
   5   6  -6   60.42    2.95
   5   6  -6   61.70    3.08
   5   6  -6   61.99    2.73
  -5   6   6   61.27    2.97
  -5   6   6   64.15    2.71
  -5   6   6   67.47    3.11
   5   6  -6   65.23    3.03
  -4  -6   6    3.13    1.00
  -4  -6   6    3.48    0.86
  -4  -6   6    2.80    1.03
   4  -6  -6    2.26    0.85
   4  -6  -6    5.32    1.13
   4   6  -6    3.07    1.14
   4   6  -6    3.95    0.74
  -4   6   6    4.73    1.15
  -4   6   6    3.38    1.04
  -4   6   6    2.88    1.25
   4   6  -6    5.21    1.09
   4   6  -6    3.39    1.08
   3  -6  -6    5.11    1.22
  -3  -6   6    6.81    1.19
  -3  -6   6    5.92    1.03
  -3  -6   6    7.27    1.05
   3  -6  -6    4.87    1.09
   3   6  -6    7.26    1.28
   3   6  -6    5.45    1.00
  -3   6   6    4.69    1.28
  -3   6   6    5.25    0.91
   3   6  -6    5.63    0.94
  -3   6   6    7.60    1.01
   3   6  -6    5.34    0.85
   2  -6  -6   -0.84    0.83
  -2  -6   6    0.08    0.65
  -2  -6   6   -0.44    0.68
   2   6  -6   -0.17    0.78
  -2   6   6   -0.14    0.58
   2   6  -6    0.65    0.97
   2   6  -6    1.25    0.81
  -2   6   6   -0.64    0.86
   2   6  -6    0.70    0.74
  -1  -6   6   34.50    1.90
   1  -6  -6   35.38    2.04
   1   6  -6   34.19    2.12
   1   6  -6   34.90    2.35
  -1   6   6   37.67    2.33
  -1   6   6   34.04    2.13
   1   6  -6   34.68    2.15
   0  -6  -6    1.02    1.04
   0  -6   6   -0.36    0.56
   0   6  -6    0.75    0.64
   0   6  -6   -1.10    0.86
   0   6   6   -0.21    0.62
   0   6  -6    0.39    0.99
  -1  -6  -6    5.38    1.02
  -1  -6  -6    3.02    0.95
   1  -6   6    3.47    0.95
  -1   6  -6    5.06    1.03
  -1   6  -6    3.93    0.95
   1   6   6    5.09    0.89
  -1   6  -6    6.68    1.07
  -2  -6  -6    0.62    0.87
   2  -6   6    1.45    0.85
  -2  -6  -6   -0.19    0.71
  -2   6  -6   -0.14    0.72
  -2   6  -6    1.85    0.89
  -2   6  -6   -0.44    1.01
   2   6   6    0.01    0.64
  -3  -6  -6   25.85    1.83
  -3  -6  -6   26.42    2.14
   3  -6   6   23.69    1.76
  -3   6  -6   25.87    2.30
   3   6   6   24.73    1.93
  -3   6  -6   27.72    2.30
  -3   6  -6   24.71    1.73
  -4  -6  -6    3.34    0.78
   4  -6   6    1.08    0.60
  -4  -6  -6    2.23    0.78
   4   6   6   -0.06    0.62
  -4   6  -6    1.32    0.88
  -4   6  -6    1.21    0.81
  -4   6  -6    0.50    1.26
   5  -7  -6    0.72    0.88
  -5  -7   6    2.07    1.12
  -5  -7   6    0.83    0.80
  -5  -7   6    1.00    0.80
   5  -7  -6    2.63    1.19
  -5   7   6    1.00    1.11
   5   7  -6    3.49    1.21
   5   7  -6    1.06    0.81
  -5   7   6    1.57    0.96
   5   7  -6    2.58    0.94
  -4  -7   6   42.16    2.47
   4  -7  -6   41.44    2.34
   4  -7  -6   41.95    2.78
  -4  -7   6   40.29    2.58
  -4  -7   6   41.10    2.42
  -4   7   6   41.46    2.24
  -4   7   6   45.38    2.60
   4   7  -6   42.20    2.51
  -4   7   6   41.21    2.83
   4   7  -6   43.54    2.48
   4   7  -6   45.05    2.37
  -3  -7   6    1.59    0.83
   3  -7  -6    0.18    0.72
  -3  -7   6   -0.16    0.85
  -3   7   6    0.22    1.21
   3   7  -6    0.48    0.82
   3   7  -6   -0.54    0.74
   3   7  -6    0.78    1.07
  -3   7   6    2.07    1.09
   3   7  -6    0.37    0.95
  -3   7   6    0.33    0.72
  -2  -7   6    2.12    1.07
   2  -7  -6    0.96    0.70
   2   7  -6    0.90    0.88
   2   7  -6    0.77    1.09
   2   7  -6    1.06    1.13
  -2   7   6    0.73    1.01
  -2   7   6    0.91    1.03
   1  -7  -6   -0.37    0.90
  -1  -7   6    1.05    1.01
   1   7  -6    0.36    1.14
  -1   7   6    0.03    0.71
   1   7  -6   -0.17    0.88
   1   7  -6   -0.83    0.97
   0  -7   6   41.07    2.29
   0   7   6   48.89    2.64
   0   7  -6   45.47    2.54
   0   7  -6   48.98    2.89
   0   7  -6   47.59    2.65
  -1  -7  -6    3.37    1.28
  -1  -7  -6    0.88    1.05
   1  -7   6    3.23    1.08
   1   7   6    2.79    1.16
  -1   7  -6    3.98    1.23
  -1   7  -6    2.32    1.07
  -1   7  -6    3.05    0.98
  -2  -7  -6   16.69    1.88
   2  -7   6   16.63    1.61
  -2  -7  -6   18.55    1.66
  -2   7  -6   15.09    1.80
  -2   7  -6   19.33    1.69
  -2   7  -6   17.66    1.76
   2   7   6   16.28    1.52
 -10   0   7    0.38    0.94
 -10   0   7   -0.44    1.10
  10   0  -7    1.02    0.96
  -9   0   7   38.01    2.18
   9   0  -7   32.49    2.16
  -9   0   7   39.11    2.42
  -8   0   7    0.22    0.94
  -8   0   7    0.80    0.86
   8   0  -7    0.13    0.60
  -8   0   7   -0.32    0.46
  -7   0   7  161.26    5.15
   7   0  -7  170.89    5.19
  -7   0   7  158.66    5.39
  -7   0   7  158.81    5.23
   7   0  -7  159.08    5.28
   6   0  -7   -0.39    0.65
  -6   0   7    0.73    0.74
  -6   0   7   -0.98    0.79
  -6   0   7    0.14    0.47
   6   0  -7   -0.02    0.46
   6   0  -7    0.19    0.53
   5   0  -7    1.49    0.73
  -5   0   7   -0.73    0.71
  -5   0   7    1.24    0.71
  -5   0   7    1.46    0.52
   5   0  -7    0.81    0.69
   5   0  -7   -0.16    0.46
   4   0  -7    0.38    0.65
   4   0  -7    0.16    0.46
  -4   0   7   -0.56    0.65
  -4   0   7    0.35    0.43
   4   0  -7    0.06    0.71
  -4   0   7    0.31    0.67
  -3   0   7  343.75    9.83
   3   0  -7  353.95    9.90
  -3   0   7  356.97    9.91
  -3   0   7  342.67    9.92
  -3   0   7  347.93   10.09
   3   0  -7  351.08   10.09
   3   0  -7  336.62    9.88
  -2   0   7   -0.32    0.56
   2   0  -7   -0.67    0.65
   2   0  -7    0.37    0.54
   2   0  -7   -0.69    0.44
  -2   0   7   -0.70    0.54
   2   0  -7    0.09    0.50
  -2   0   7   -0.41    0.34
  -2   0   7    0.04    0.45
  -1   0   7  104.89    3.23
   1   0  -7  107.53    3.64
   1   0  -7  104.23    3.61
  -1   0   7  107.73    3.54
  -1   0   7  106.08    3.34
   1   0  -7  107.71    3.40
  -1   0   7  105.16    3.41
   0   0   7    0.28    0.47
   0   0  -7   -0.20    0.46
   0   0   7   -0.33    0.46
   0   0  -7   -0.09    0.44
   0   0   7   -0.30    0.37
   0   0  -7   -0.05    0.42
   0   0  -7   -0.18    0.48
  -1   0  -7  129.33    4.24
   1   0   7  127.04    3.87
   1   0   7  132.09    4.05
  -1   0  -7  127.78    4.25
  -1   0  -7  125.61    3.97
   2   0   7    0.10    0.35
  -2   0  -7    0.70    0.45
  -2   0  -7    0.07    0.64
  -2   0  -7    0.46    0.39
  -3   0  -7  108.73    3.76
   3   0   7  101.65    3.15
  -4   0  -7    0.33    0.77
   4   0   7   -0.09    0.25
   5   0   7   -0.01    0.27
  -5   0  -7   -0.22    0.79
  -6   0  -7    0.59    0.89
   6   0   7    0.16    0.32
  -7   0  -7   14.03    1.57
 -10  -1   7   11.46    1.39
  10  -1  -7    7.49    1.07
 -10  -1   7    8.62    1.46
 -10   1   7    7.82    1.14
  10   1  -7    6.99    1.31
 -10   1   7   10.72    1.35
   9  -1  -7    2.11    0.76
  -9  -1   7    1.49    0.70
  -9  -1   7    2.53    0.89
   9  -1  -7    1.08    0.63
  -9   1   7    1.03    0.68
  -9   1   7    2.68    0.89
   9   1  -7    1.22    0.76
   8  -1  -7   56.44    2.42
  -8  -1   7   56.70    2.76
  -8  -1   7   60.78    2.65
   8  -1  -7   58.05    2.65
  -8  -1   7   56.59    2.81
   8   1  -7   53.72    2.47
  -8   1   7   58.72    2.61
  -8   1   7   59.97    2.82
   7  -1  -7  102.08    3.74
  -7  -1   7  102.09    3.75
   7  -1  -7  104.22    3.52
  -7  -1   7  102.67    3.71
   7  -1  -7  107.74    3.66
  -7  -1   7  100.46    3.52
  -7   1   7  100.30    3.72
  -7   1   7  103.83    3.70
   7   1  -7  106.64    3.68
  -7   1   7   97.90    3.57
   7   1  -7  104.29    3.61
  -6  -1   7   72.87    2.77
  -6  -1   7   74.74    2.78
   6  -1  -7   66.87    2.78
   6  -1  -7   72.71    2.91
  -6  -1   7   75.75    3.00
   6  -1  -7   75.50    2.80
  -6   1   7   72.96    2.72
  -6   1   7   75.56    2.88
   6   1  -7   78.34    2.88
  -6   1   7   74.87    3.00
   6   1  -7   76.64    2.94
  -5  -1   7   10.90    0.94
   5  -1  -7    8.88    1.03
  -5  -1   7   10.63    0.97
   5  -1  -7    8.91    0.89
  -5  -1   7   10.12    0.97
   5  -1  -7   10.15    1.08
  -5   1   7   10.53    1.04
   5   1  -7   10.29    1.06
   5   1  -7   10.52    1.07
  -5   1   7    9.16    1.08
  -5   1   7    8.43    1.01
   4  -1  -7   82.11    2.89
  -4  -1   7   79.78    2.84
   4  -1  -7   80.37    2.91
   4  -1  -7   81.92    3.04
  -4  -1   7   80.99    2.93
  -4  -1   7   79.07    2.91
  -4   1   7   78.89    2.94
   4   1  -7   80.23    2.80
  -4   1   7   77.87    2.80
  -4   1   7   75.76    2.75
   4   1  -7   79.01    2.82
  -4   1   7   80.37    3.16
   3  -1  -7   15.12    1.21
  -3  -1   7   13.60    1.09
  -3  -1   7   14.73    1.08
   3  -1  -7   13.78    1.17
  -3  -1   7   13.77    1.03
   3  -1  -7   14.19    1.07
  -3   1   7   13.69    1.12
   3   1  -7   16.93    1.46
  -3   1   7   13.07    1.03
  -3   1   7   14.74    1.12
   3   1  -7   15.15    1.22
  -3   1   7   12.44    1.14
   2  -1  -7    3.68    0.83
   2  -1  -7    4.43    0.60
  -2  -1   7    4.20    0.75
  -2  -1   7    4.43    0.66
   2  -1  -7    5.41    0.61
  -2  -1   7    3.91    0.61
  -2   1   7    4.65    0.71
   2   1  -7    4.37    0.71
  -2   1   7    3.68    0.64
   2   1  -7    4.04    0.73
  -2   1   7    4.23    0.61
  -1  -1   7   13.82    1.04
  -1  -1   7   15.58    0.93
  -1  -1   7   13.06    0.80
   1  -1  -7   11.00    1.02
   1  -1  -7   14.15    0.93
   1  -1  -7   14.84    1.03
  -1  -1   7   14.40    1.12
  -1   1   7   13.93    1.05
   1   1  -7   12.71    1.16
   1   1  -7   14.49    1.10
   1   1  -7   14.43    1.03
  -1   1   7   12.79    0.89
  -1   1   7   14.13    1.09
   0  -1  -7  203.75    6.05
   0  -1  -7  199.50    5.67
   0  -1   7  200.08    5.89
   0  -1   7  202.75    5.71
   0  -1   7  201.59    5.90
   0  -1  -7  194.87    6.18
   0   1  -7  196.12    6.20
   0   1  -7  202.17    5.89
   0   1  -7  202.17    5.60
   0   1   7  203.33    5.90
   0   1  -7  204.44    6.03
   1  -1   7   -0.24    0.42
   1  -1   7   -0.02    0.37
  -1  -1  -7    0.48    0.67
   1  -1   7    0.22    0.26
  -1  -1  -7    0.47    0.40
  -1   1  -7    0.08    0.48
   1   1   7    0.10    0.31
  -1   1  -7   -0.29    0.40
  -1   1  -7    0.11    0.50
  -2  -1  -7    2.49    0.73
  -2  -1  -7    2.03    0.64
  -2  -1  -7    2.54    0.41
   2  -1   7    2.18    0.45
   2  -1   7    2.96    0.50
   2   1   7    2.93    0.51
  -2   1  -7    2.89    0.62
  -2   1  -7    2.45    0.45
  -2   1  -7    3.81    0.88
  -3  -1  -7   15.50    1.26
   3  -1   7   15.05    0.91
   3  -1   7   14.79    0.87
  -3  -1  -7   15.90    1.29
  -3   1  -7   15.96    1.40
  -3   1  -7   16.46    1.09
   3   1   7   14.42    0.86
  -3   1  -7   14.27    0.87
   4  -1   7   42.98    1.46
  -4  -1  -7   43.17    1.95
  -4  -1  -7   39.47    2.01
   4   1   7   42.75    1.58
  -4   1  -7   46.33    2.36
  -4   1  -7   41.08    1.48
  -4   1  -7   40.66    1.74
  -5  -1  -7    2.49    0.42
   5  -1   7    2.87    0.40
  -5  -1  -7    2.76    0.84
  -5   1  -7    2.43    0.38
  -5   1  -7    2.32    0.78
   5   1   7    2.39    0.40
  -6  -1  -7    2.11    0.39
  -6  -1  -7    3.85    0.94
   6   1   7    3.36    0.46
  -6   1  -7    5.93    1.23
  -6   1  -7    2.61    0.36
  -7  -1  -7   19.09    1.67
  -7  -1  -7   20.57    0.96
  -7   1  -7   24.22    2.12
  10  -2  -7   49.97    2.69
 -10  -2   7   49.42    2.67
 -10  -2   7   47.75    2.63
 -10   2   7   49.16    2.89
 -10   2   7   52.41    2.64
  -9  -2   7   50.34    2.75
  -9  -2   7   46.51    2.30
   9  -2  -7   45.23    2.30
   9  -2  -7   48.65    2.21
  -9   2   7   47.47    2.70
  -9   2   7   44.75    2.43
   8  -2  -7    2.67    0.78
  -8  -2   7    3.70    1.04
   8  -2  -7    2.89    0.81
  -8  -2   7    3.34    1.16
  -8   2   7    3.34    0.88
  -8   2   7    5.19    0.86
  -7  -2   7   25.82    1.56
  -7  -2   7   27.16    1.70
  -7  -2   7   25.89    1.92
   7  -2  -7   24.43    1.64
   7  -2  -7   24.37    1.78
   7  -2  -7   25.38    1.61
  -7   2   7   25.05    1.61
   7   2  -7   26.05    1.65
  -7   2   7   26.38    1.76
  -7   2   7   27.74    1.95
  -6  -2   7   34.01    1.91
   6  -2  -7   34.41    1.79
   6  -2  -7   36.17    1.71
   6  -2  -7   39.19    1.99
  -6  -2   7   35.05    2.03
  -6  -2   7   34.17    1.76
  -6   2   7   35.02    2.08
  -6   2   7   38.73    1.97
  -6   2   7   36.05    1.89
   6   2  -7   34.19    1.89
  -5  -2   7   53.07    2.37
  -5  -2   7   54.47    2.18
   5  -2  -7   54.13    2.28
  -5  -2   7   57.65    2.38
   5  -2  -7   52.91    2.27
   5  -2  -7   51.15    2.21
  -5   2   7   52.57    2.16
   5   2  -7   51.18    2.18
  -5   2   7   51.31    2.28
  -5   2   7   53.46    2.63
  -5   2   7   53.94    2.28
  -4  -2   7   47.28    2.14
  -4  -2   7   50.49    2.10
   4  -2  -7   49.38    2.16
  -4  -2   7   48.38    2.22
   4  -2  -7   51.25    2.10
   4  -2  -7   45.57    2.10
  -4   2   7   50.58    2.16
  -4   2   7   52.60    2.49
   4   2  -7   56.25    2.31
  -4   2   7   51.68    2.19
   4   2  -7   47.39    2.06
  -3  -2   7    2.68    0.79
  -3  -2   7    2.45    0.63
   3  -2  -7    2.52    0.80
  -3  -2   7    4.18    0.69
   3   2  -7    3.56    0.78
   3   2  -7    3.52    0.87
   3   2  -7    3.37    0.88
  -3   2   7    1.05    0.63
  -2  -2   7   77.41    2.69
   2  -2  -7   75.48    2.83
   2  -2  -7   75.39    2.68
  -2  -2   7   72.89    2.49
  -2  -2   7   73.80    2.55
   2   2  -7   75.90    2.75
  -2   2   7   74.23    2.63
   2   2  -7   74.79    2.95
  -2   2   7   73.49    2.63
  -2   2   7   74.41    2.86
   2   2  -7   75.42    2.79
  -1  -2   7   43.75    1.60
  -1  -2   7   43.24    1.65
   1  -2  -7   42.40    1.67
   1  -2  -7   44.29    2.11
  -1  -2   7   44.09    1.89
   1  -2  -7   42.92    1.88
   1   2  -7   44.15    2.11
   1   2  -7   44.54    1.89
  -1   2   7   43.36    1.66
  -1   2   7   43.22    1.87
   1   2  -7   42.48    1.90
   0  -2  -7    4.96    0.69
   0  -2  -7    4.00    0.71
   0  -2   7    4.34    0.42
   0  -2  -7    3.84    0.51
   0  -2   7    4.53    0.70
   0   2   7    4.37    0.53
   0   2  -7    4.16    0.79
   0   2  -7    4.08    0.76
   0   2   7    4.32    0.70
   0   2  -7    4.69    0.44
   0   2  -7    5.19    0.71
  -1  -2  -7   59.03    2.17
   1  -2   7   57.42    1.64
  -1  -2  -7   57.14    2.34
   1  -2   7   54.33    2.10
  -1   2  -7   55.24    2.09
  -1   2  -7   55.48    2.30
   1   2   7   56.50    2.11
  -1   2  -7   55.30    2.39
  -2  -2  -7   32.47    1.80
  -2  -2  -7   30.73    1.19
   2  -2   7   33.74    1.42
  -2  -2  -7   32.32    1.52
  -2   2  -7   32.74    1.48
  -2   2  -7   32.10    1.80
  -2   2  -7   30.14    1.67
   2   2   7   31.87    1.44
  -3  -2  -7    1.63    0.72
  -3  -2  -7    2.10    0.56
  -3  -2  -7    3.22    0.63
   3  -2   7    2.25    0.52
   3   2   7    0.99    0.48
  -3   2  -7    2.61    0.95
  -3   2  -7    1.25    0.50
  -3   2  -7    1.46    0.51
  -4  -2  -7    5.58    0.61
  -4  -2  -7    6.25    0.91
   4  -2   7    4.65    0.52
  -4  -2  -7    5.03    0.75
  -4   2  -7    6.61    1.03
  -4   2  -7    6.09    0.75
   4   2   7    5.07    0.70
  -4   2  -7    4.68    0.57
  -5  -2  -7   28.44    1.64
  -5  -2  -7   27.52    1.29
   5  -2   7   27.45    1.16
  -5   2  -7   25.12    1.12
  -5   2  -7   26.02    1.54
  -5   2  -7   31.90    2.18
   5   2   7   23.56    1.31
   6  -2   7   25.08    1.10
  -6  -2  -7   25.44    1.25
  -6   2  -7   29.44    2.28
   6   2   7   25.58    1.30
  -6   2  -7   25.82    1.05
 -10  -3   7    1.64    1.31
  10  -3  -7    2.38    1.10
 -10  -3   7    3.04    1.18
 -10   3   7    3.33    1.12
 -10   3   7    1.51    1.26
  10   3  -7    2.50    0.84
   9  -3  -7   17.89    1.51
  -9  -3   7   19.73    1.89
  -9  -3   7   20.62    1.77
   9  -3  -7   17.35    1.53
   9   3  -7   17.25    1.70
  -9   3   7   19.73    1.66
  -9   3   7   19.71    1.53
  -8  -3   7   77.22    3.46
   8  -3  -7   81.46    3.30
   8  -3  -7   78.53    3.03
  -8  -3   7   77.22    3.27
   8   3  -7   77.96    3.41
  -8   3   7   78.74    3.24
  -8   3   7   76.89    3.23
   7  -3  -7    2.23    0.89
  -7  -3   7    2.20    0.80
  -7  -3   7    2.11    0.88
  -7  -3   7    3.24    1.00
   7  -3  -7    3.27    0.80
  -7   3   7    2.74    0.66
   7   3  -7    2.07    0.76
  -7   3   7    3.74    0.99
  -7   3   7    2.38    1.05
   7   3  -7    2.71    0.69
  -6  -3   7    3.68    0.97
   6  -3  -7    5.89    0.86
   6  -3  -7    6.55    0.98
  -6  -3   7    3.68    1.03
  -6  -3   7    3.05    0.76
   6  -3  -7    5.63    0.88
   6   3  -7    5.59    0.86
  -6   3   7    4.79    0.99
   6   3  -7    4.81    0.89
  -6   3   7    5.45    0.78
  -6   3   7    4.15    0.77
   6   3  -7    4.71    1.06
  -6   3   7    5.36    1.13
  -5  -3   7  110.71    3.99
  -5  -3   7  105.15    3.95
  -5  -3   7  116.93    3.94
   5  -3  -7  108.62    3.86
   5  -3  -7  119.06    3.94
   5  -3  -7  112.26    4.07
  -5   3   7  108.43    4.26
  -5   3   7  117.88    3.97
   5   3  -7  121.58    4.10
   5   3  -7  114.23    4.13
  -5   3   7  117.99    3.94
   5   3  -7  112.39    3.88
   4  -3  -7   89.02    3.12
  -4  -3   7   88.26    3.15
  -4  -3   7   90.10    3.15
   4  -3  -7   69.92    3.10
  -4  -3   7   93.53    3.14
  -4   3   7   92.82    3.22
   4   3  -7   87.17    3.37
  -4   3   7   72.14    3.24
  -4   3   7   88.52    3.17
   4   3  -7   95.00    3.40
   4   3  -7   80.44    3.15
   3  -3  -7   54.43    2.30
  -3  -3   7   53.11    2.16
   3  -3  -7   52.43    2.34
  -3  -3   7   49.79    2.14
  -3  -3   7   50.91    2.34
   3   3  -7   58.59    2.38
  -3   3   7   55.55    2.15
  -3   3   7   51.09    2.39
  -3   3   7   56.49    2.21
   3   3  -7   52.62    2.48
   3   3  -7   53.97    2.46
  -2  -3   7    7.41    0.68
  -2  -3   7    6.83    0.76
   2  -3  -7    7.15    0.90
   2  -3  -7    7.88    0.92
  -2  -3   7    7.25    0.96
   2   3  -7    5.63    0.86
  -2   3   7    7.60    1.13
  -2   3   7    7.00    0.86
   2   3  -7    7.74    0.98
   2   3  -7    5.27    0.84
  -2   3   7    6.06    0.90
  -1  -3   7   69.80    2.45
  -1  -3   7   73.88    2.43
   1  -3  -7   72.06    2.65
   1  -3  -7   71.81    2.89
   1  -3  -7   73.86    2.60
  -1  -3   7   76.50    2.78
   1   3  -7   73.83    2.49
   1   3  -7   79.08    2.79
   1   3  -7   71.02    2.93
  -1   3   7   79.49    2.77
   1   3  -7   75.48    2.92
  -1   3   7   72.87    2.62
   0  -3  -7  101.49    3.72
   0  -3   7  101.89    2.97
   0  -3   7   93.74    3.30
   0  -3  -7   96.64    3.23
   0  -3  -7  105.58    3.22
   0   3   7   95.75    3.35
   0   3  -7   96.59    3.69
   0   3  -7  100.93    3.60
   0   3  -7  101.31    3.39
   1  -3   7  149.54    4.75
  -1  -3  -7  157.07    4.68
  -1  -3  -7  152.33    5.14
  -1   3  -7  157.76    4.80
   1   3   7  156.06    4.82
  -1   3  -7  154.59    5.17
  -1   3  -7  156.26    5.02
  -2  -3  -7    7.39    0.90
   2  -3   7    5.74    0.73
  -2  -3  -7    5.89    0.63
  -2  -3  -7    5.89    0.66
   2   3   7    5.67    0.80
  -2   3  -7    4.56    1.09
  -2   3  -7    8.27    1.05
  -2   3  -7    5.14    0.71
  -3  -3  -7    3.43    0.64
   3  -3   7    4.01    0.62
  -3  -3  -7    3.68    0.74
   3   3   7    3.74    0.69
  -3   3  -7    4.27    1.13
  -3   3  -7    3.10    0.60
  -3   3  -7    3.96    0.89
  -4  -3  -7   75.36    2.59
  -4  -3  -7   61.63    2.80
   4  -3   7   71.25    2.41
  -4   3  -7   73.46    2.92
  -4   3  -7   69.18    2.39
   4   3   7   67.10    2.54
  -4   3  -7   66.53    3.07
  -5  -3  -7   55.75    2.14
   5  -3   7   56.89    2.06
   5   3   7   56.46    2.19
  -5   3  -7   53.30    2.01
  -5   3  -7   57.37    3.05
  -5   3  -7   55.80    2.41
   6  -3   7    0.43    0.46
  -6  -3  -7    0.68    0.54
  -6   3  -7    1.38    0.48
  -6   3  -7    0.18    1.16
   6   3   7    0.01    0.65
   9  -4  -7    0.00    1.04
  -9  -4   7    1.10    0.89
  -9  -4   7   -0.10    0.76
   9  -4  -7    0.60    0.83
  -9   4   7    2.32    1.24
  -9   4   7    2.83    1.09
   9   4  -7    1.72    1.05
   8  -4  -7   31.73    1.93
  -8  -4   7   29.62    2.22
  -8  -4   7   26.84    2.11
   8  -4  -7   30.23    2.00
  -8   4   7   28.43    1.85
   8   4  -7   29.51    2.17
  -8   4   7   27.57    2.25
   8   4  -7   28.75    2.14
  -7  -4   7   53.19    2.76
  -7  -4   7   50.85    2.54
  -7  -4   7   50.67    2.41
   7  -4  -7   54.29    2.63
   7  -4  -7   54.73    2.48
  -7   4   7   50.78    2.53
  -7   4   7   51.62    2.41
  -7   4   7   52.62    2.95
   7   4  -7   51.62    2.62
   7   4  -7   54.20    2.57
  -6  -4   7   33.59    1.88
  -6  -4   7   34.70    2.18
   6  -4  -7   35.47    2.17
   6  -4  -7   39.27    2.03
   6  -4  -7   36.90    2.01
  -6  -4   7   35.85    1.93
  -6   4   7   38.37    2.23
   6   4  -7   33.64    2.05
  -6   4   7   34.26    1.81
  -6   4   7   33.18    2.07
   6   4  -7   36.56    2.28
   6   4  -7   36.17    2.14
  -5  -4   7   12.64    1.17
   5  -4  -7   13.03    1.36
  -5  -4   7   14.48    1.33
   5  -4  -7   13.12    1.14
   5  -4  -7   14.53    1.28
  -5  -4   7   11.53    1.31
   5   4  -7   11.86    1.27
   5   4  -7   14.22    1.37
   5   4  -7   14.49    1.35
  -5   4   7   14.06    1.58
  -5   4   7   13.39    1.28
  -5   4   7   14.37    1.37
   4  -4  -7   24.32    1.84
  -4  -4   7   24.46    1.52
   4  -4  -7   19.40    1.41
  -4   4   7   14.37    1.45
   4   4  -7   28.42    1.77
   4   4  -7   22.05    1.67
  -4   4   7   14.77    1.28
  -4   4   7   22.00    1.63
  -3  -4   7   69.77    2.80
   3  -4  -7   66.64    2.72
   3  -4  -7   61.59    2.84
  -3  -4   7   76.25    2.76
  -3   4   7   78.16    3.26
  -3   4   7   76.47    2.87
   3   4  -7   70.38    2.90
   3   4  -7   65.36    2.64
  -3   4   7   78.73    2.94
   3   4  -7   76.16    3.05
   3   4  -7   75.20    2.99
   2  -4  -7  141.29    4.84
  -2  -4   7  144.43    4.39
  -2  -4   7  140.22    4.45
  -2  -4   7  147.00    4.67
   2  -4  -7  131.91    4.52
  -2   4   7  144.61    4.68
   2   4  -7  140.83    4.80
   2   4  -7  136.90    4.59
  -2   4   7  145.90    4.61
   2   4  -7  144.54    4.50
   2   4  -7  139.22    4.77
   1  -4  -7  149.87    4.74
  -1  -4   7  146.53    4.88
   1  -4  -7  143.24    5.03
  -1  -4   7  153.83    4.53
  -1   4   7  148.18    4.75
   1   4  -7  151.05    4.87
   1   4  -7  159.22    5.14
   1   4  -7  146.63    4.59
   1   4  -7  145.51    5.00
  -1   4   7  154.61    4.88
   0  -4  -7    1.27    0.90
   0  -4   7    1.39    0.38
   0  -4  -7    0.84    0.39
   0  -4   7   -0.21    0.70
   0   4   7   -0.03    0.72
   0   4  -7    0.39    0.69
   0   4  -7    0.89    0.62
   0   4  -7    1.34    0.90
  -1  -4  -7   39.70    2.25
   1  -4   7   38.97    1.76
  -1   4  -7   40.22    2.04
   1   4   7   37.41    1.78
  -1   4  -7   36.29    2.27
  -1   4  -7   38.03    1.86
   2  -4   7   59.34    2.26
  -2  -4  -7   60.17    2.76
  -2  -4  -7   56.67    2.26
  -2   4  -7   57.42    2.32
   2   4   7   58.79    2.32
  -2   4  -7   55.93    2.86
  -2   4  -7   55.74    2.53
   3  -4   7   76.18    2.73
  -3  -4  -7   72.43    2.77
  -3  -4  -7   77.41    3.18
   3   4   7   63.15    2.66
  -3   4  -7   71.84    3.39
  -3   4  -7   76.86    2.70
  -3   4  -7   77.16    3.18
   4  -4   7   12.03    0.99
  -4  -4  -7   13.28    1.33
  -4  -4  -7    9.75    1.01
   4   4   7   10.01    1.07
  -4   4  -7    9.37    1.30
  -4   4  -7   11.88    1.40
  -4   4  -7   12.74    1.00
  -5  -4  -7   10.35    1.05
   5  -4   7   10.16    0.92
  -5   4  -7    9.02    0.93
   5   4   7   10.73    0.96
  -5   4  -7    8.44    1.57
  -5   4  -7    8.73    1.30
  -8  -5   7    3.07    1.33
  -8  -5   7    5.81    1.33
   8  -5  -7    6.28    1.35
   8  -5  -7    3.62    1.10
   8   5  -7    5.51    1.27
   8   5  -7    6.05    1.18
  -8   5   7    5.00    1.08
  -8   5   7    7.47    1.16
  -7  -5   7    6.19    1.20
   7  -5  -7    4.81    1.24
  -7  -5   7    4.69    1.11
   7  -5  -7    4.71    0.92
  -7  -5   7    7.22    1.39
  -7   5   7    4.30    1.04
   7   5  -7    5.55    1.08
   7   5  -7    4.36    1.21
  -7   5   7    6.36    1.45
  -7   5   7    5.71    1.00
  -6  -5   7   18.07    1.66
  -6  -5   7   20.09    1.66
   6  -5  -7   18.66    1.69
   6  -5  -7   15.89    1.64
  -6  -5   7   17.97    1.60
  -6   5   7   17.49    1.39
  -6   5   7   17.28    1.60
   6   5  -7   15.81    1.51
  -6   5   7   19.61    1.92
   6   5  -7   18.28    1.73
   6   5  -7   17.29    1.53
  -5  -5   7    9.33    1.10
  -5  -5   7    8.79    1.33
  -5  -5   7   11.87    1.36
   5  -5  -7    8.99    1.32
   5  -5  -7   12.58    1.25
   5   5  -7   14.56    1.48
  -5   5   7   11.70    1.34
  -5   5   7    9.39    1.30
  -5   5   7    8.99    1.28
   5   5  -7   10.47    1.28
   5   5  -7    9.88    1.42
   5   5  -7   12.11    1.22
  -4  -5   7   44.21    2.35
   4  -5  -7   45.83    2.35
  -4  -5   7   42.87    2.18
   4  -5  -7   44.68    2.48
  -4  -5   7   39.81    1.96
  -4   5   7   39.88    2.54
   4   5  -7   36.41    2.04
  -4   5   7   42.41    2.26
   4   5  -7   41.36    2.09
  -4   5   7   42.27    2.27
   4   5  -7   40.97    2.21
   4   5  -7   38.44    2.42
  -3  -5   7    2.90    0.65
  -3  -5   7    1.31    0.91
  -3  -5   7    2.51    0.78
   3  -5  -7    1.24    0.75
   3  -5  -7    3.27    0.75
   3   5  -7    2.42    0.81
  -3   5   7    2.99    1.15
   3   5  -7    3.57    0.88
   3   5  -7    2.72    0.97
  -3   5   7    1.97    0.87
  -3   5   7    0.77    0.66
   3   5  -7    1.97    0.90
  -2  -5   7    0.54    0.62
  -2  -5   7   -0.12    0.59
   2  -5  -7    1.91    0.83
   2  -5  -7    2.01    0.77
   2   5  -7    1.32    0.72
   2   5  -7    1.65    0.73
   2   5  -7   -0.24    0.81
   2   5  -7   -0.05    0.82
  -2   5   7    0.89    0.78
  -2   5   7    1.22    0.65
   1  -5  -7   18.83    1.46
  -1  -5   7   14.86    1.09
   1  -5  -7   13.96    1.37
  -1  -5   7   11.50    1.27
   1   5  -7   13.18    1.34
   1   5  -7   12.91    1.31
  -1   5   7   11.41    1.28
   0  -5   7   51.70    2.27
   0  -5  -7   51.41    2.74
   0   5  -7   51.64    2.50
   0   5  -7   52.71    2.24
   0   5   7   49.37    2.25
   0   5  -7   51.40    2.49
  -1  -5  -7   -1.31    0.89
   1  -5   7    0.46    0.79
  -1   5  -7    0.30    1.00
   1   5   7   -0.11    0.78
  -1   5  -7   -0.36    0.94
  -1   5  -7   -0.23    0.73
   2  -5   7   19.97    1.49
  -2  -5  -7   17.71    1.67
  -2  -5  -7   19.75    1.53
   2   5   7   19.54    1.53
  -2   5  -7   20.92    1.50
  -2   5  -7   20.71    1.85
  -2   5  -7   15.82    1.64
  -3  -5  -7   29.96    1.83
   3  -5   7   31.17    1.80
  -3  -5  -7   32.42    1.98
  -3   5  -7   34.11    1.78
  -3   5  -7   32.64    2.17
   3   5   7   30.90    1.74
  -3   5  -7   28.62    1.95
  -4  -5  -7   16.01    1.37
   4  -5   7   17.49    1.38
  -4  -5  -7   12.81    1.51
   4   5   7   19.86    1.61
  -4   5  -7   15.87    1.54
  -4   5  -7   16.87    1.89
  -4   5  -7   17.40    1.37
   7  -6  -7    1.80    0.87
  -7  -6   7   -0.74    1.08
  -7  -6   7    0.95    1.10
   7  -6  -7    0.67    1.01
   7   6  -7   -0.68    0.71
   7   6  -7   -0.52    0.81
  -7   6   7   -0.63    1.05
  -7   6   7    1.29    1.25
  -6  -6   7   10.42    1.45
   6  -6  -7    8.55    1.24
  -6  -6   7   11.18    1.46
   6  -6  -7   11.16    1.31
  -6  -6   7   10.91    1.51
   6   6  -7    9.37    1.26
  -6   6   7    9.44    1.21
   6   6  -7   10.04    1.49
  -6   6   7   12.28    1.72
   6   6  -7    9.97    1.30
   6   6  -7    8.37    1.52
  -5  -6   7    0.44    0.71
  -5  -6   7   -0.13    0.99
   5  -6  -7    1.88    1.09
  -5  -6   7    1.64    0.74
   5  -6  -7    0.66    0.77
  -5   6   7   -0.57    0.95
   5   6  -7   -0.40    0.98
  -5   6   7    0.66    0.96
   5   6  -7    1.21    0.83
   5   6  -7    0.55    1.07
   5   6  -7    0.00    1.04
  -5   6   7    0.29    0.85
   4  -6  -7    0.86    1.05
  -4  -6   7    0.29    0.71
   4  -6  -7   -0.16    0.96
  -4  -6   7    0.65    0.87
  -4  -6   7   -0.28    0.60
   4   6  -7   -0.39    0.91
  -4   6   7    1.75    0.90
   4   6  -7    0.24    1.07
  -4   6   7   -0.78    0.91
  -4   6   7   -0.14    0.67
   4   6  -7   -0.65    0.96
   4   6  -7    0.64    0.83
   3  -6  -7    1.53    1.00
  -3  -6   7   -0.02    0.78
  -3  -6   7    0.90    0.98
   3  -6  -7    1.22    0.79
   3   6  -7   -1.03    1.02
  -3   6   7    0.05    0.78
  -3   6   7    0.57    0.63
   3   6  -7    0.10    0.82
  -3   6   7    0.93    0.99
   3   6  -7   -0.49    0.57
   3   6  -7   -0.41    0.92
   2  -6  -7    4.99    0.94
  -2  -6   7    5.06    0.96
  -2  -6   7    5.52    0.92
   2  -6  -7    5.33    1.31
   2   6  -7    5.20    1.29
  -2   6   7    5.50    1.18
   2   6  -7    5.45    1.13
   2   6  -7    6.13    1.01
  -1  -6   7    3.55    0.85
   1  -6  -7    5.32    1.30
   1   6  -7    4.67    1.14
  -1   6   7    5.66    0.94
   1   6  -7    5.93    0.93
   1   6  -7    4.22    0.98
   0  -6   7   15.15    1.48
   0  -6  -7   15.05    1.51
   0   6  -7   13.00    1.42
   0   6  -7   12.57    1.36
   0   6  -7   15.95    1.48
   0   6   7   13.26    1.28
  -1  -6  -7   -0.49    0.72
   1  -6   7    0.50    0.63
  -1   6  -7    0.83    0.79
  -1   6  -7    0.09    1.04
  -1   6  -7   -1.18    0.83
   1   6   7    1.22    0.72
  -2  -6  -7    3.67    0.97
   2  -6   7    4.22    1.05
  -2  -6  -7    4.98    0.88
  -2   6  -7    4.42    1.03
  -2   6  -7    2.56    1.24
   2   6   7    3.83    0.88
  -2   6  -7    3.50    1.28
   3  -6   7    4.08    1.02
  -3  -6  -7    3.73    1.03
  -3  -6  -7    4.54    1.20
  -3   6  -7    3.42    1.01
  -3   6  -7    4.18    1.10
   3   6   7    4.36    1.15
  -3   6  -7    2.17    0.90
   4  -7  -7   16.74    1.93
   4  -7  -7   13.73    1.69
  -4  -7   7   12.43    1.41
  -4  -7   7   13.07    1.49
   4   7  -7   13.58    1.45
  -4   7   7   15.85    1.49
   4   7  -7   14.39    1.61
  -4   7   7   15.06    1.68
  -4   7   7   13.97    1.65
   4   7  -7   15.49    1.69
   4   7  -7   15.20    1.60
   3  -7  -7    6.16    1.30
  -3  -7   7    6.15    1.35
   3  -7  -7    6.25    1.21
  -3  -7   7    6.17    1.14
   3   7  -7    4.97    1.09
   3   7  -7    5.86    1.21
   3   7  -7    4.85    0.93
  -3   7   7    8.54    1.37
  -3   7   7    5.66    1.08
   2  -7  -7    0.10    0.71
   2  -7  -7    0.68    0.89
  -2  -7   7    0.31    0.75
  -2   7   7    1.15    1.09
   2   7  -7   -0.21    1.09
   2   7  -7    0.74    0.71
   2   7  -7   -1.17    1.09
   1  -7  -7   21.55    1.90
  -1  -7   7   20.86    1.71
  -1   7   7   19.17    1.75
   1   7  -7   16.33    1.69
   1   7  -7   20.38    1.65
   1   7  -7   17.86    1.63
   0  -7   7   14.36    1.61
   0  -7  -7   18.71    1.97
   0   7  -7   16.16    1.60
   0   7   7   16.39    1.71
   0   7  -7   15.93    1.65
   0   7  -7   13.62    1.79
 -10   0   8    0.66    1.01
  10   0  -8   -0.01    1.02
 -10   0   8   -0.07    1.19
   9   0  -8    0.81    1.03
  -9   0   8   -0.77    0.89
  -9   0   8   -1.03    1.02
  -8   0   8   53.34    2.35
  -8   0   8   60.63    2.54
  -8   0   8   56.58    2.82
   8   0  -8   56.70    2.71
   7   0  -8   -0.68    0.48
   7   0  -8    1.89    0.71
  -7   0   8    0.63    0.54
  -7   0   8   -0.43    0.61
  -7   0   8    1.08    0.62
   6   0  -8   70.38    2.77
   6   0  -8   74.19    2.87
  -6   0   8   66.24    2.78
  -6   0   8   65.05    2.72
   6   0  -8   64.06    2.81
  -6   0   8   65.23    2.61
   5   0  -8   -0.50    0.50
   5   0  -8    0.06    0.56
  -5   0   8    0.33    0.58
  -5   0   8    0.71    0.57
   5   0  -8   -0.83    0.71
  -5   0   8    0.17    0.51
   4   0  -8   74.47    2.77
  -4   0   8   69.09    2.68
   4   0  -8   70.95    2.79
  -4   0   8   72.53    2.62
  -4   0   8   73.09    2.80
   4   0  -8   74.24    2.98
  -3   0   8   -0.02    0.67
  -3   0   8    0.56    0.54
   3   0  -8   -0.41    0.53
   3   0  -8    0.12    0.66
   3   0  -8   -0.50    0.58
  -3   0   8    0.10    0.63
  -3   0   8   -0.46    0.37
   3   0  -8   -0.54    0.78
   2   0  -8  105.36    3.41
  -2   0   8  104.22    3.39
   2   0  -8  108.27    3.57
   2   0  -8  102.99    3.73
  -2   0   8  104.92    3.49
  -2   0   8  109.05    3.73
  -2   0   8  105.01    3.50
   2   0  -8  109.10    3.74
  -1   0   8   -0.19    0.58
   1   0  -8   -0.63    0.67
  -1   0   8   -0.16    0.60
  -1   0   8    0.54    0.50
  -1   0   8   -0.10    0.36
   1   0  -8   -0.13    0.55
   1   0  -8    0.37    0.81
   0   0   8   14.48    1.09
   0   0   8   17.25    1.11
   0   0   8   17.73    1.03
   0   0  -8   17.00    1.14
   0   0  -8   16.66    1.23
   0   0  -8   18.16    1.33
   0   0  -8   17.87    1.24
   1   0   8    0.36    0.56
   1   0   8    0.38    0.36
   1   0   8    0.02    0.47
  -1   0  -8   -0.21    0.47
  -1   0  -8   -0.73    0.67
  -1   0  -8    0.45    0.49
  -1   0  -8    0.33    0.36
  -2   0  -8  104.09    3.70
  -2   0  -8  102.01    3.27
   2   0   8   96.07    3.17
  -3   0  -8    0.48    0.41
   3   0   8   -0.38    0.36
  -3   0  -8   -0.21    0.53
   4   0   8   12.99    0.87
  -4   0  -8   12.68    1.22
   5   0   8    0.29    0.37
  -5   0  -8    0.09    0.60
  -6   0  -8   12.34    1.45
 -10  -1   8   -0.24    1.01
  10  -1  -8   -0.17    1.05
 -10  -1   8    3.65    1.30
  10   1  -8    1.21    1.05
 -10   1   8   -0.61    0.98
 -10   1   8    1.59    1.19
   9  -1  -8   13.28    1.26
   9  -1  -8   14.55    1.55
  -9  -1   8   14.14    1.51
  -9  -1   8   15.02    1.68
   9   1  -8   13.34    1.32
  -9   1   8   16.80    1.55
  -9   1   8   16.62    1.74
   8  -1  -8   12.55    1.21
  -8  -1   8    7.80    1.20
  -8  -1   8   10.91    1.07
   8  -1  -8   10.64    1.19
  -8  -1   8    7.26    1.32
  -8   1   8   11.03    1.05
  -8   1   8    9.17    1.24
   8   1  -8   11.18    1.19
  -8   1   8   10.46    1.23
  -7  -1   8    2.19    1.03
   7  -1  -8    1.68    0.83
   7  -1  -8    1.48    0.61
  -7  -1   8    1.92    0.65
   7  -1  -8    1.61    0.94
  -7  -1   8    1.29    0.91
  -7   1   8   -0.38    0.67
  -7   1   8    1.54    0.80
  -7   1   8    0.99    0.90
   7   1  -8    2.19    0.87
   7   1  -8    0.59    0.67
   6  -1  -8    2.86    0.89
   6  -1  -8    1.91    0.84
  -6  -1   8    1.15    0.81
  -6  -1   8    1.49    0.84
  -6  -1   8    2.35    0.74
   6  -1  -8    1.96    0.87
  -6   1   8    1.88    0.94
  -6   1   8    2.08    0.84
  -6   1   8    2.30    0.85
   6   1  -8    2.09    0.88
   6   1  -8    3.60    0.73
   5  -1  -8   88.78    3.37
  -5  -1   8   86.06    3.19
   5  -1  -8   86.85    3.16
  -5  -1   8   89.11    3.17
   5  -1  -8   87.25    3.23
  -5  -1   8   85.93    3.28
  -5   1   8   86.24    3.20
  -5   1   8   84.74    3.12
   5   1  -8   90.22    3.25
   5   1  -8   85.22    3.24
  -5   1   8   87.97    3.31
   4  -1  -8    4.41    0.98
  -4  -1   8    5.65    0.73
  -4  -1   8    5.77    0.92
   4  -1  -8    5.04    0.88
  -4  -1   8    5.78    0.92
   4   1  -8    7.22    1.13
  -4   1   8    8.49    1.17
  -4   1   8    6.88    0.83
  -4   1   8    6.03    0.79
   4   1  -8    5.97    0.96
   4   1  -8    6.66    0.89
  -4   1   8    5.79    0.88
   3  -1  -8    4.29    0.81
  -3  -1   8    4.61    0.77
  -3  -1   8    4.37    0.73
  -3  -1   8    3.90    0.86
   3  -1  -8    4.32    0.79
   3  -1  -8    4.07    0.92
  -3   1   8    4.45    0.83
   3   1  -8    3.02    0.80
  -3   1   8    3.82    0.62
   3   1  -8    3.82    0.77
  -3   1   8    3.98    0.70
  -3   1   8    4.85    0.83
  -2  -1   8   31.46    1.41
   2  -1  -8   30.75    1.46
   2  -1  -8   29.76    1.75
   2  -1  -8   29.23    1.38
  -2  -1   8   30.88    1.66
   2  -1  -8   32.31    1.87
  -2  -1   8   31.70    1.50
  -2   1   8   26.86    1.42
   2   1  -8   32.30    1.67
  -2   1   8   27.00    1.77
   2   1  -8   30.85    1.88
  -2   1   8   31.03    1.50
   1  -1  -8   63.03    2.68
   1  -1  -8   58.55    2.40
  -1  -1   8   64.10    2.40
  -1  -1   8   60.02    2.16
   1  -1  -8   62.19    2.15
  -1  -1   8   63.95    2.37
  -1  -1   8   61.68    2.06
  -1   1   8   59.16    2.53
   1   1  -8   60.30    2.49
   1   1  -8   59.70    2.50
  -1   1   8   62.53    2.37
   1   1  -8   62.89    2.37
  -1   1   8   59.11    2.13
   0  -1  -8    0.57    0.65
   0  -1   8    0.71    0.50
   0  -1  -8    1.07    0.79
   0  -1   8   -0.07    0.56
   0  -1   8    0.25    0.36
   0   1  -8    0.10    0.54
   0   1   8    0.86    0.59
   0   1  -8    0.56    0.43
   0   1  -8    1.24    0.67
   0   1   8    0.59    0.51
  -1  -1  -8   15.28    1.04
   1  -1   8   14.78    0.75
   1  -1   8   14.88    0.98
  -1  -1  -8   17.47    1.41
  -1  -1  -8   15.05    1.30
   1  -1   8   15.93    1.10
  -1   1  -8   16.94    1.52
   1   1   8   15.60    0.97
  -1   1  -8   15.72    1.22
  -1   1  -8   16.08    1.07
   2  -1   8  115.84    3.68
   2  -1   8  119.45    3.70
  -2  -1  -8  117.99    4.15
  -2  -1  -8  112.83    3.95
  -2  -1  -8  117.81    3.64
   2   1   8  121.36    3.72
  -2   1  -8  122.44    3.72
  -2   1  -8  118.59    3.88
  -2   1  -8  121.06    4.28
  -3  -1  -8   21.39    1.58
   3  -1   8   25.48    1.19
  -3  -1  -8   27.80    1.76
   3   1   8   25.30    1.22
  -3   1  -8   24.04    1.23
  -4  -1  -8   17.40    1.51
   4  -1   8   18.38    1.01
  -4  -1  -8   16.88    1.34
  -4   1  -8   17.11    0.92
   4   1   8   19.79    1.03
  -4   1  -8   17.11    1.50
   5  -1   8    3.80    0.49
  -5  -1  -8    2.84    0.73
   5   1   8    4.02    0.53
  -5   1  -8    3.38    0.53
  -5   1  -8    5.65    1.22
  -6  -1  -8   18.79    1.71
  -6   1  -8   19.36    1.72
   6   1   8   21.16    1.07
  -6   1  -8   20.01    0.94
 -10  -2   8   20.84    1.87
 -10  -2   8   21.25    1.88
  10  -2  -8   21.55    1.75
 -10   2   8   26.94    2.20
 -10   2   8   21.49    1.82
  -9  -2   8    6.32    1.13
   9  -2  -8    6.91    0.89
  -9  -2   8    7.78    1.31
   9  -2  -8    7.41    1.09
  -9   2   8    4.38    1.15
  -9   2   8    4.18    1.32
  -8  -2   8   -0.63    1.01
   8  -2  -8    1.95    0.83
  -8  -2   8    1.84    1.01
  -8  -2   8    2.72    0.90
   8  -2  -8    3.18    0.84
  -8   2   8    3.14    1.19
  -8   2   8    2.51    0.78
  -7  -2   8   31.15    2.00
  -7  -2   8   34.55    2.01
   7  -2  -8   36.53    2.05
  -7  -2   8   35.46    2.19
   7  -2  -8   33.84    1.75
   7  -2  -8   31.27    2.08
  -7   2   8   31.84    2.01
   7   2  -8   33.15    1.77
  -7   2   8   35.39    2.21
  -7   2   8   34.32    1.97
   6  -2  -8   29.34    1.79
  -6  -2   8   28.14    1.65
  -6  -2   8   31.16    1.84
  -6  -2   8   31.66    1.76
   6  -2  -8   28.66    1.70
   6  -2  -8   24.42    1.85
   6   2  -8   29.94    1.84
  -6   2   8   28.43    1.64
  -6   2   8   28.63    1.80
  -6   2   8   29.69    1.75
  -5  -2   8    8.32    0.97
   5  -2  -8    8.81    1.15
   5  -2  -8   10.22    1.11
  -5  -2   8   10.13    1.11
   5  -2  -8   10.23    1.17
  -5  -2   8    9.19    0.98
   5   2  -8    8.42    1.11
  -5   2   8    8.74    0.94
  -5   2   8    8.31    1.13
   5   2  -8   10.00    1.15
  -5   2   8    7.74    1.17
  -5   2   8    9.67    0.97
   4  -2  -8   58.16    2.29
  -4  -2   8   56.37    2.34
  -4  -2   8   51.84    2.26
  -4  -2   8   50.33    2.23
   4  -2  -8   52.53    2.38
   4  -2  -8   57.47    2.37
  -4   2   8   51.83    2.36
   4   2  -8   49.61    2.40
  -4   2   8   55.61    2.69
  -4   2   8   55.47    2.45
   4   2  -8   51.92    2.38
  -4   2   8   57.47    2.33
  -3  -2   8  112.61    3.81
  -3  -2   8  110.54    3.60
   3  -2  -8  112.60    3.99
  -3  -2   8  108.33    3.62
   3  -2  -8  109.09    3.64
   3  -2  -8  107.23    3.71
   3   2  -8  108.29    3.85
   3   2  -8  105.80    3.88
  -3   2   8  106.54    3.64
  -3   2   8  112.11    4.07
   3   2  -8  102.97    3.67
  -3   2   8  108.76    3.74
  -2  -2   8   -0.20    0.46
  -2  -2   8    0.44    0.51
  -2  -2   8    0.50    0.35
   2  -2  -8    0.46    0.80
   2  -2  -8   -0.13    0.41
   2   2  -8    0.63    0.83
  -2   2   8   -0.30    0.57
  -2   2   8    0.33    0.70
  -2   2   8   -0.03    0.57
   2   2  -8    1.31    0.74
   2   2  -8    0.53    0.80
   1  -2  -8   23.45    1.55
   1  -2  -8   23.15    1.46
  -1  -2   8   23.00    1.13
  -1  -2   8   25.79    1.52
   1  -2  -8   23.08    1.27
   1   2  -8   22.79    1.11
   1   2  -8   26.81    1.69
   1   2  -8   24.38    1.73
  -1   2   8   21.90    1.49
  -1   2   8   25.98    1.50
  -1   2   8   22.33    1.24
   1   2  -8   22.70    1.47
   0  -2   8   57.17    1.85
   0  -2   8   57.72    2.26
   0  -2  -8   56.12    2.61
   0  -2  -8   56.07    2.26
   0   2   8   54.09    2.13
   0   2  -8   54.93    2.29
   0   2  -8   54.52    2.24
   0   2  -8   55.59    2.60
   1  -2   8   92.00    3.07
  -1  -2  -8   94.27    3.50
  -1  -2  -8   89.20    3.16
  -1   2  -8   84.46    3.25
  -1   2  -8   90.26    3.06
  -1   2  -8   87.75    3.41
   1   2   8   89.68    3.07
  -2  -2  -8   51.69    2.48
  -2  -2  -8   50.52    2.17
   2  -2   8   53.98    2.05
   2   2   8   52.33    2.07
  -2   2  -8   54.12    2.66
  -2   2  -8   52.60    2.20
  -2   2  -8   56.62    2.06
   3  -2   8    0.64    0.45
  -3  -2  -8   -0.19    0.71
  -3  -2  -8    0.26    0.55
  -3   2  -8    0.85    0.67
  -3   2  -8   -0.71    0.88
  -3   2  -8   -0.31    0.43
   3   2   8    0.24    0.50
   4  -2   8   75.10    2.51
  -4  -2  -8   74.18    2.87
  -4  -2  -8   72.89    3.01
  -4   2  -8   76.14    2.89
   4   2   8   74.51    2.66
  -4   2  -8   74.38    2.51
  -4   2  -8   78.08    3.47
   5  -2   8   90.64    2.93
  -5   2  -8   92.74    2.96
   5   2   8   95.16    3.09
  -5   2  -8   93.79    4.03
  -6   2  -8   55.39    1.89
   6   2   8   53.65    2.10
  -6   2  -8   51.91    2.84
  -9  -3   8   37.03    2.54
   9  -3  -8   30.59    2.00
  -9  -3   8   30.74    2.25
   9  -3  -8   29.84    2.27
  -9   3   8   34.63    2.49
   9   3  -8   29.62    2.32
  -9   3   8   31.04    2.21
  -8  -3   8    1.63    0.78
  -8  -3   8    2.37    0.90
  -8  -3   8    1.27    0.70
   8  -3  -8    2.79    0.85
   8  -3  -8   -0.35    0.85
   8   3  -8    2.28    0.86
  -8   3   8    2.15    0.87
  -8   3   8    2.72    1.05
  -7  -3   8    4.59    1.06
   7  -3  -8    5.46    0.95
  -7  -3   8    5.70    1.17
   7  -3  -8    4.89    1.09
  -7  -3   8    3.42    1.13
  -7   3   8    5.45    1.24
   7   3  -8    3.96    0.85
   7   3  -8    3.20    1.17
  -7   3   8    5.35    1.00
   7   3  -8    4.66    1.21
  -7   3   8    5.94    0.93
  -6  -3   8  128.50    4.62
   6  -3  -8  130.52    4.65
  -6  -3   8  128.98    4.66
  -6  -3   8  133.26    4.59
   6  -3  -8  134.15    4.64
   6  -3  -8  143.85    4.59
   6   3  -8  136.93    4.62
  -6   3   8  132.54    4.47
  -6   3   8  134.97    4.75
   6   3  -8  132.31    4.85
   6   3  -8  130.59    4.72
  -6   3   8  132.74    5.02
  -6   3   8  130.63    4.58
  -5  -3   8   82.84    3.22
   5  -3  -8   82.72    3.06
  -5  -3   8   82.44    3.06
   5  -3  -8   74.30    3.18
   5  -3  -8   85.87    3.28
  -5  -3   8   82.21    3.14
  -5   3   8   79.31    3.55
   5   3  -8   82.40    3.43
   5   3  -8   81.16    3.41
  -5   3   8   84.37    3.24
  -5   3   8   87.34    3.23
   5   3  -8   82.45    3.23
  -4  -3   8   72.58    2.69
  -4  -3   8   69.35    2.91
   4  -3  -8   69.68    2.92
   4  -3  -8   70.93    2.77
   4  -3  -8   70.43    2.72
  -4  -3   8   67.71    2.63
  -4   3   8   69.31    2.86
  -4   3   8   73.08    2.84
   4   3  -8   69.76    2.77
   4   3  -8   73.94    3.11
   4   3  -8   72.12    3.08
  -4   3   8   69.73    3.05
   3  -3  -8    8.29    1.06
   3  -3  -8    8.07    1.17
  -3  -3   8    9.40    0.97
  -3  -3   8   10.19    0.96
  -3  -3   8    7.94    0.95
  -3   3   8    7.34    1.05
   3   3  -8    9.33    1.24
   3   3  -8    9.11    0.98
  -3   3   8    8.66    1.11
   3   3  -8    9.28    1.25
  -3   3   8    9.52    0.94
  -2  -3   8   64.28    2.34
   2  -3  -8   62.79    2.44
   2  -3  -8   58.90    2.84
  -2  -3   8   63.33    2.53
  -2  -3   8   64.32    2.35
  -2   3   8   62.07    2.48
   2   3  -8   64.13    2.39
  -2   3   8   64.45    2.63
   2   3  -8   63.64    2.69
   2   3  -8   66.26    2.55
  -2   3   8   65.67    2.80
   2   3  -8   66.91    2.75
  -1  -3   8  159.83    5.02
   1  -3  -8  150.91    5.19
  -1  -3   8  157.63    4.62
   1  -3  -8  151.03    4.86
   1  -3  -8  152.09    4.84
   1   3  -8  155.92    5.32
  -1   3   8  155.15    4.99
   1   3  -8  158.82    5.01
   1   3  -8  159.97    5.23
   0  -3   8  115.53    3.89
   0  -3  -8  118.97    3.85
   0  -3   8  121.97    3.65
   0  -3  -8  112.49    4.28
   0   3   8  117.24    3.89
   0   3  -8  119.56    4.34
   0   3  -8  121.72    3.98
   0   3  -8  118.83    4.20
  -1  -3  -8    3.03    0.95
  -1  -3  -8    3.70    0.64
   1  -3   8    3.66    0.63
  -1   3  -8    4.36    0.79
   1   3   8    4.65    0.80
  -1   3  -8    4.73    0.81
  -1   3  -8    4.53    0.87
  -2  -3  -8    6.63    0.93
  -2  -3  -8   10.69    0.93
   2  -3   8    7.55    0.85
  -2   3  -8   11.34    1.41
  -2   3  -8    6.53    0.81
   2   3   8    6.35    0.86
  -2   3  -8    9.31    1.14
   3  -3   8  136.41    4.29
  -3  -3  -8  136.01    4.79
  -3   3  -8  133.53    4.26
  -3   3  -8  135.77    5.06
   3   3   8  142.62    4.41
  -3   3  -8  129.85    4.64
   4  -3   8   18.50    1.17
  -4  -3  -8   19.50    1.58
  -4  -3  -8   18.96    1.27
  -4   3  -8   18.80    1.53
  -4   3  -8   17.90    1.86
  -4   3  -8   19.30    1.26
   4   3   8   18.02    1.31
  -5  -3  -8    0.79    0.57
   5  -3   8    1.36    0.49
  -5   3  -8    2.58    1.25
   5   3   8    1.40    0.64
  -5   3  -8    1.29    0.83
  -5   3  -8    1.58    0.59
   9  -4  -8    3.77    1.05
   9  -4  -8    6.24    1.37
  -9  -4   8    4.79    1.44
  -9  -4   8    3.81    1.03
  -9   4   8    4.88    0.99
  -9   4   8    5.57    1.46
   9   4  -8    4.96    1.37
   9   4  -8    6.32    1.40
  -8  -4   8  101.34    4.16
  -8  -4   8   96.42    3.96
   8  -4  -8  104.00    4.08
   8  -4  -8  102.39    3.85
  -8   4   8   97.05    4.12
   8   4  -8   97.66    4.12
  -8   4   8   95.07    3.77
   8   4  -8   97.72    4.07
  -7  -4   8   46.09    2.65
   7  -4  -8   50.56    2.66
  -7  -4   8   46.88    2.54
  -7  -4   8   48.20    2.35
   7  -4  -8   42.03    2.53
  -7   4   8   47.16    2.67
  -7   4   8   47.23    2.23
  -7   4   8   48.15    2.49
   7   4  -8   48.71    2.64
   7   4  -8   49.52    2.53
   7   4  -8   43.56    2.25
  -7   4   8   46.68    2.54
   6  -4  -8   25.44    1.81
   6  -4  -8   23.71    1.71
  -6  -4   8   22.83    1.68
  -6  -4   8   24.38    1.87
   6  -4  -8   22.81    1.67
  -6  -4   8   25.10    1.93
  -6   4   8   20.93    2.01
   6   4  -8   26.66    1.98
   6   4  -8   29.47    2.17
   6   4  -8   26.99    1.88
  -6   4   8   24.50    1.87
  -6   4   8   23.94    1.90
  -5  -4   8    4.62    0.98
   5  -4  -8    3.44    0.86
   5  -4  -8    6.64    1.08
  -5   4   8    4.94    0.84
  -5   4   8    4.38    1.01
   5   4  -8    3.93    1.14
   4  -4  -8  173.68    5.54
  -4  -4   8  168.83    5.57
   4  -4  -8  159.59    5.69
  -4  -4   8  169.68    5.48
  -4  -4   8  168.36    5.40
  -4   4   8  173.88    5.57
  -4   4   8  179.61    6.04
   4   4  -8  172.14    5.76
  -4   4   8  172.22    5.51
   4   4  -8  163.99    5.52
   4   4  -8  177.74    5.80
  -3  -4   8   59.08    2.64
   3  -4  -8   56.88    2.52
  -3  -4   8   52.83    2.31
   3  -4  -8   52.33    2.74
  -3  -4   8   56.43    2.23
   3   4  -8   59.43    2.43
   3   4  -8   57.81    2.61
   3   4  -8   53.02    2.68
  -3   4   8   57.78    2.49
  -3   4   8   53.72    2.67
   3   4  -8   53.93    2.40
  -3   4   8   54.04    2.38
  -2  -4   8   68.91    2.53
  -2  -4   8   70.47    2.91
   2  -4  -8   70.67    2.80
   2  -4  -8   68.57    3.15
   2   4  -8   70.43    2.95
   2   4  -8   67.06    2.51
   2   4  -8   66.43    2.92
  -2   4   8   68.43    2.74
  -2   4   8   67.00    2.71
  -2   4   8   68.47    3.20
   2   4  -8   72.53    2.89
  -1  -4   8   13.18    0.95
   1  -4  -8   10.12    0.93
  -1  -4   8   13.82    1.18
   1  -4  -8   13.82    1.11
   1  -4  -8   12.06    1.27
   1   4  -8   12.73    1.42
  -1   4   8   13.66    1.26
   1   4  -8   11.76    1.24
   1   4  -8   13.97    1.26
   0  -4   8   18.92    1.54
   0  -4  -8   20.77    1.15
   0  -4  -8   19.49    1.71
   0   4  -8   17.25    1.38
   0   4  -8   21.11    1.58
   0   4   8   19.51    1.33
   0   4  -8   19.32    1.56
   1  -4   8   21.32    1.57
  -1  -4  -8   20.94    1.75
  -1   4  -8   20.54    1.82
   1   4   8   24.30    1.61
  -1   4  -8   21.76    1.52
  -1   4  -8   20.65    1.67
  -2  -4  -8   92.43    3.70
   2  -4   8   87.97    3.21
  -2   4  -8   88.35    3.66
  -2   4  -8   84.83    3.08
  -2   4  -8   87.32    3.58
   2   4   8   88.35    3.29
   3  -4   8   12.23    1.09
  -3  -4  -8   10.35    1.34
  -3  -4  -8   12.12    1.13
   3   4   8   13.64    1.21
  -3   4  -8   11.44    1.04
  -3   4  -8   12.15    1.24
  -3   4  -8    9.54    1.30
  -4  -4  -8    3.52    0.80
  -4  -4  -8    2.82    0.97
   4  -4   8    3.32    0.74
   4   4   8    3.60    0.86
  -4   4  -8    3.58    0.73
  -4   4  -8    2.77    1.29
  -4   4  -8    2.16    1.02
   8  -5  -8    4.81    1.23
  -8  -5   8    4.83    1.39
   8  -5  -8    4.68    1.32
  -8  -5   8    4.41    1.31
  -8   5   8    4.66    1.11
   8   5  -8    6.54    1.29
  -8   5   8    6.96    1.13
   8   5  -8    4.64    1.35
   7  -5  -8   17.80    1.61
  -7  -5   8   18.77    1.79
   7  -5  -8   23.19    1.95
  -7  -5   8   20.60    1.79
  -7  -5   8   19.99    1.90
   7   5  -8   16.55    1.52
   7   5  -8   19.72    1.89
  -7   5   8   16.97    1.84
  -7   5   8   20.34    2.09
  -7   5   8   20.15    1.79
  -6  -5   8    6.96    1.08
   6  -5  -8    6.61    1.30
  -6  -5   8    6.45    1.07
   6  -5  -8    8.93    1.17
  -6  -5   8    7.26    1.27
  -6   5   8    7.77    1.31
   6   5  -8    7.71    1.30
   6   5  -8    6.01    1.14
  -6   5   8    7.21    1.57
   6   5  -8    5.86    0.99
  -6   5   8    6.77    1.20
   5  -5  -8   42.28    2.61
  -5  -5   8   42.97    2.30
   5  -5  -8   41.46    2.46
  -5  -5   8   42.41    2.46
  -5  -5   8   44.53    2.38
   5   5  -8   45.14    2.28
   5   5  -8   44.40    2.42
   5   5  -8   43.63    2.42
  -5   5   8   41.97    2.40
   5   5  -8   42.60    2.44
  -5   5   8   40.53    2.49
  -5   5   8   45.71    2.21
  -4  -5   8    2.38    0.90
  -4  -5   8    2.44    1.05
   4  -5  -8    4.03    0.97
  -4  -5   8    4.42    0.99
   4  -5  -8    6.49    1.15
  -4   5   8    5.26    1.13
   4   5  -8    2.95    1.07
   4   5  -8    3.69    0.82
  -4   5   8    3.70    1.03
  -4   5   8    3.80    0.87
   4   5  -8    4.07    1.08
   4   5  -8    3.87    0.94
  -3  -5   8   -0.55    0.64
   3  -5  -8   -0.17    0.58
  -3  -5   8   -0.28    0.66
   3  -5  -8   -0.03    0.95
   3   5  -8    0.31    0.65
   3   5  -8   -0.22    0.93
   3   5  -8   -0.31    0.98
   3   5  -8   -0.54    0.74
  -3   5   8    0.83    0.86
  -3   5   8    0.40    0.90
  -3   5   8   -0.96    1.05
   2  -5  -8    1.69    0.93
  -2  -5   8    4.09    1.10
   2  -5  -8    1.78    1.08
   2   5  -8    1.33    0.96
   1  -5  -8   49.02    2.75
  -1  -5   8   47.07    2.43
  -1   5   8   48.66    2.44
   1   5  -8   48.15    2.70
   1   5  -8   47.98    2.37
   1   5  -8   42.74    2.36
   0  -5   8    1.06    0.90
   0  -5  -8    1.82    1.09
   0   5   8    0.84    0.65
   0   5  -8    0.49    0.73
   0   5  -8    0.32    1.00
   0   5  -8    0.79    0.85
  -1  -5  -8    5.38    1.00
   1  -5   8    5.03    0.85
  -1   5  -8    5.93    1.32
   1   5   8    5.27    0.87
  -1   5  -8    4.15    0.98
  -1   5  -8    4.96    1.22
   2  -5   8    4.48    0.95
  -2  -5  -8    4.94    1.23
  -2   5  -8    5.10    1.10
   2   5   8    6.56    1.08
  -2   5  -8    4.96    0.98
  -2   5  -8    4.58    0.93
  -3  -5  -8    3.61    1.18
  -3  -5  -8    4.13    0.80
   3  -5   8    5.47    0.94
  -3   5  -8    5.44    1.30
  -3   5  -8    6.46    1.51
  -3   5  -8    5.06    0.92
   3   5   8    3.81    0.85
  -6  -6   8    3.87    1.16
  -6  -6   8    2.54    0.88
  -6  -6   8    2.60    1.17
   6  -6  -8    1.24    0.87
   6  -6  -8    2.12    1.18
   6   6  -8    3.08    1.03
   6   6  -8    2.58    1.05
  -6   6   8    0.91    1.12
   6   6  -8    1.29    0.85
  -6   6   8    1.21    0.97
   6   6  -8    2.80    0.90
  -6   6   8    3.47    1.48
   5  -6  -8    4.28    1.19
   5  -6  -8    1.48    1.17
  -5  -6   8    0.74    1.06
  -5  -6   8    2.63    0.82
   5   6  -8    4.07    1.17
  -5   6   8    4.02    1.46
   5   6  -8    2.33    0.87
  -5   6   8    5.43    0.96
  -5   6   8    2.68    0.86
   5   6  -8    5.10    1.31
   4  -6  -8    2.80    1.22
  -4  -6   8    3.35    1.17
   4  -6  -8    2.03    0.81
  -4  -6   8    2.40    0.96
  -4   6   8    1.75    1.07
   4   6  -8    4.06    1.15
  -4   6   8    1.79    0.82
   4   6  -8    0.33    0.85
   4   6  -8    1.77    0.75
  -4   6   8    2.52    1.35
   4   6  -8    3.28    1.06
   3  -6  -8    2.47    1.01
   3  -6  -8    0.20    1.10
  -3  -6   8    2.02    0.83
  -3  -6   8   -0.22    0.70
   3   6  -8   -0.87    0.92
   3   6  -8    2.37    1.09
  -3   6   8    1.57    1.08
  -3   6   8    1.12    0.91
   3   6  -8    0.54    1.13
   2  -6  -8    9.14    1.32
  -2  -6   8    9.80    1.06
  -2  -6   8   11.22    1.28
   2   6  -8   10.66    1.29
   2   6  -8   10.62    1.40
   2   6  -8   11.86    1.43
  -2   6   8   12.32    1.30
  -1  -6   8   13.01    1.33
   1  -6  -8   16.06    1.79
  -1   6   8   15.44    1.40
   1   6  -8   15.38    1.77
   1   6  -8   15.05    1.66
   1   6  -8   17.97    1.63
   0  -6  -8    0.38    1.15
   0  -6   8    0.16    0.69
   0   6  -8    1.17    0.98
   0   6  -8    0.27    1.10
   0   6   8   -1.09    0.93
   0   6  -8    1.09    1.17
   1  -6   8    5.35    0.97
  -1  -6  -8    8.24    1.51
   1   6   8    7.65    1.10
  -1   6  -8    6.41    1.18
  -1   6  -8    6.69    1.43
  -1   6  -8    8.66    1.08
  -2  -6  -8    0.74    1.14
   2  -6   8    2.02    0.74
   2   6   8    1.42    1.03
  -2   6  -8    0.39    0.89
  -2   6  -8    1.72    0.93
  -2   6  -8    1.97    0.94
  10   0  -9    0.66    1.09
 -10   0   9    0.29    0.88
 -10   0   9    0.07    0.75
  -9   0   9   81.69    3.52
   9   0  -9   87.63    3.64
  -9   0   9   84.34    3.55
  -8   0   9   -0.36    1.02
   8   0  -9   -0.88    0.93
  -8   0   9   -0.12    0.92
  -8   0   9    1.11    0.87
  -7   0   9   85.57    3.61
   7   0  -9   93.86    3.48
   7   0  -9   87.54    3.53
  -7   0   9   91.64    3.49
  -7   0   9   86.58    3.31
   6   0  -9   -0.02    0.82
  -6   0   9    0.19    0.57
  -6   0   9    0.31    0.66
   6   0  -9   -0.74    0.58
  -6   0   9   -0.14    0.79
   6   0  -9   -0.66    0.80
  -5   0   9    1.08    0.76
  -5   0   9    1.36    0.82
   5   0  -9    1.95    0.91
   5   0  -9    1.41    0.60
   4   0  -9   -1.36    0.73
   4   0  -9    1.00    0.64
  -4   0   9   -0.32    0.48
  -4   0   9    0.76    0.76
   4   0  -9    1.28    0.74
  -4   0   9   -0.15    0.57
  -3   0   9  336.77    9.85
  -3   0   9  323.39    9.48
   3   0  -9  329.91    9.92
   3   0  -9  325.74    9.54
   3   0  -9  340.68    9.69
  -3   0   9  327.84    9.57
  -3   0   9  337.33    9.70
   3   0  -9  324.25    9.88
  -2   0   9    0.21    0.71
  -2   0   9   -0.16    0.68
   2   0  -9   -0.30    0.54
   2   0  -9   -0.41    0.60
  -2   0   9    0.18    0.63
  -2   0   9   -0.31    0.48
   2   0  -9    0.08    0.68
  -1   0   9   -0.24    0.53
  -1   0   9   -0.14    0.68
  -1   0   9    0.11    0.67
   1   0  -9   -0.70    0.59
   1   0  -9    0.71    0.60
   1   0  -9    1.26    0.92
   0   0  -9   -0.35    0.56
   0   0  -9   -0.30    0.59
   0   0  -9    1.05    0.78
   0   0  -9   -0.83    0.55
   0   0   9   -0.71    0.59
   0   0   9    0.26    0.45
   0   0   9    1.45    0.68
  -1   0  -9   55.94    2.25
   1   0   9   60.53    2.36
  -1   0  -9   54.93    2.56
  -1   0  -9   56.35    2.17
  -1   0  -9   53.09    2.62
   1   0   9   57.37    2.02
   1   0   9   51.52    2.07
   2   0   9    0.08    0.52
  -2   0  -9    0.42    0.50
  -2   0  -9   -0.07    0.49
  -2   0  -9    0.87    0.61
   2   0   9   -0.25    0.55
  -3   0  -9   15.64    1.38
   3   0   9   15.74    1.05
  -3   0  -9   17.11    1.05
  -4   0  -9   -0.33    0.62
  -4   0  -9    0.80    0.50
   4   0   9    0.79    0.43
   5   0   9   20.74    1.08
  -5   0  -9   22.70    1.14
  -5   0  -9   22.08    1.96
 -10  -1   9   34.93    2.13
 -10  -1   9   33.14    2.30
  10  -1  -9   34.64    2.44
 -10   1   9   36.27    2.30
 -10   1   9   34.57    2.37
  10   1  -9   31.23    2.09
   9  -1  -9    9.09    1.06
   9  -1  -9    8.46    1.18
  -9  -1   9    8.90    1.49
  -9  -1   9    6.50    1.30
   9   1  -9    9.71    1.24
  -9   1   9    6.07    1.29
  -9   1   9    8.92    1.25
   8  -1  -9    1.82    0.69
  -8  -1   9    4.55    1.23
  -8  -1   9    4.96    1.04
  -8  -1   9    4.71    1.14
   8  -1  -9    3.31    1.11
  -8   1   9    3.00    0.73
   8   1  -9    3.09    0.87
  -8   1   9    2.12    1.02
  -8   1   9    1.79    0.88
   7  -1  -9    1.91    1.01
  -7  -1   9    2.13    0.75
   7  -1  -9    1.74    0.92
  -7  -1   9    2.79    0.85
   7  -1  -9    1.88    0.69
  -7  -1   9    2.68    0.75
   7   1  -9    2.00    0.99
  -7   1   9    2.37    0.72
  -7   1   9    2.65    1.10
   7   1  -9    1.99    0.95
  -7   1   9    1.73    0.73
  -6  -1   9  106.84    3.81
   6  -1  -9  105.25    3.94
   6  -1  -9  107.40    3.83
  -6  -1   9  107.18    3.90
  -6  -1   9  101.41    3.82
   6  -1  -9  102.86    3.85
   6   1  -9  100.72    3.70
  -6   1   9  103.58    3.92
   6   1  -9  101.21    3.71
  -6   1   9   99.66    3.77
  -6   1   9  103.52    3.71
   5  -1  -9   29.08    1.99
   5  -1  -9   30.27    1.88
  -5  -1   9   29.19    1.77
  -5  -1   9   29.77    1.70
   5  -1  -9   30.34    1.87
  -5  -1   9   30.04    1.88
  -5   1   9   29.45    1.80
   5   1  -9   25.85    1.84
  -5   1   9   26.98    1.64
   5   1  -9   33.11    1.69
  -5   1   9   30.76    1.94
  -4  -1   9    9.88    1.13
   4  -1  -9   10.67    1.14
  -4  -1   9   11.91    1.09
   4  -1  -9   11.42    1.08
  -4  -1   9   10.18    1.04
   4  -1  -9    8.59    1.05
   4   1  -9    9.71    1.36
  -4   1   9   11.63    1.38
  -4   1   9   12.30    1.18
  -4   1   9    9.23    1.15
  -4   1   9    9.72    1.16
   4   1  -9   10.18    1.15
   3  -1  -9   63.98    2.78
   3  -1  -9   69.65    2.97
   3  -1  -9   67.98    2.70
  -3  -1   9   70.71    2.62
  -3  -1   9   62.85    2.49
  -3  -1   9   65.59    2.60
   3  -1  -9   63.94    2.48
  -3   1   9   66.19    2.68
  -3   1   9   67.81    2.60
  -3   1   9   66.77    2.96
   3   1  -9   66.74    2.61
   3   1  -9   70.86    3.04
  -3   1   9   65.43    2.54
   2  -1  -9  126.57    4.38
   2  -1  -9  122.16    3.94
   2  -1  -9  131.17    4.17
   2  -1  -9  121.35    4.35
  -2  -1   9  122.93    4.19
  -2  -1   9  123.68    3.99
  -2   1   9  119.50    3.91
   2   1  -9  124.73    4.35
  -2   1   9  131.85    4.45
  -2   1   9  122.32    4.17
   2   1  -9  132.93    4.22
  -2   1   9  120.37    4.10
   2   1  -9  122.49    4.47
  -1  -1   9    1.83    0.76
  -1  -1   9    0.08    0.49
   1  -1  -9    1.41    0.59
   1  -1  -9    0.99    0.50
   1  -1  -9    0.79    0.87
   1   1  -9    0.92    0.71
   1   1  -9    1.34    0.67
  -1   1   9    1.65    0.83
  -1   1   9    0.90    0.53
   1   1  -9    0.88    0.75
   0  -1   9   30.08    1.52
   0  -1  -9   29.78    1.75
   0  -1   9   28.56    1.58
   0  -1   9   27.46    1.28
   0  -1  -9   25.64    1.69
   0   1  -9   25.82    1.54
   0   1   9   27.83    1.58
   0   1  -9   25.57    1.69
   0   1  -9   29.00    1.70
   0   1   9   28.41    1.57
   1  -1   9   72.31    2.66
   1  -1   9   73.79    2.62
  -1  -1  -9   75.36    3.16
  -1  -1  -9   75.45    2.97
  -1  -1  -9   73.54    2.64
  -1   1  -9   72.39    2.81
  -1   1  -9   71.61    2.66
   1   1   9   76.46    2.70
  -1   1  -9   73.27    3.02
   2  -1   9   43.60    1.92
  -2  -1  -9   45.98    2.29
  -2  -1  -9   58.37    2.42
  -2   1  -9   43.29    1.90
   2   1   9   39.07    1.80
  -2   1  -9   58.88    2.66
  -2   1  -9   55.50    2.19
   3  -1   9   15.35    1.05
  -3  -1  -9   14.19    1.36
  -3  -1  -9   15.51    1.32
  -3   1  -9   13.18    1.18
  -3   1  -9   13.10    1.52
  -3   1  -9   16.75    1.05
   3   1   9   15.70    1.11
   4  -1   9   24.23    1.19
  -4  -1  -9   25.19    1.79
  -4   1  -9   22.53    1.17
   4   1   9   23.63    1.24
  -4   1  -9   20.58    1.73
   5  -1   9    5.75    0.66
  -5  -1  -9    6.84    1.14
  -5   1  -9    7.59    1.38
  -5   1  -9    6.21    0.66
   5   1   9    6.11    0.74
   9  -2  -9   18.19    1.72
  -9  -2   9   13.48    1.71
  -9  -2   9   13.73    1.41
   9  -2  -9   14.46    1.45
  -9   2   9   15.09    1.58
  -9   2   9   12.36    1.53
  -8  -2   9    6.82    1.17
  -8  -2   9    8.68    1.42
  -8  -2   9    8.47    1.13
   8  -2  -9    6.86    1.18
   8  -2  -9    8.30    1.15
  -8   2   9    9.75    1.47
  -8   2   9    8.53    1.17
  -8   2   9    8.64    1.31
   7  -2  -9    0.99    0.90
   7  -2  -9    1.90    1.02
   7  -2  -9    0.77    0.91
  -7  -2   9   -0.16    0.91
  -7  -2   9   -0.25    1.00
  -7  -2   9    0.37    0.66
  -7   2   9    0.56    0.85
  -7   2   9    1.34    0.95
   7   2  -9    2.75    0.98
  -7   2   9    0.05    1.02
  -6  -2   9   24.87    1.81
  -6  -2   9   28.11    1.94
   6  -2  -9   23.91    1.89
  -6  -2   9   26.04    1.69
   6  -2  -9   24.55    1.94
   6  -2  -9   26.92    1.85
  -6   2   9   30.63    1.91
  -6   2   9   25.73    1.71
  -6   2   9   24.93    1.83
   6   2  -9   27.66    2.19
   6   2  -9   27.13    1.93
  -5  -2   9   39.01    2.08
  -5  -2   9   40.81    2.18
   5  -2  -9   45.39    2.10
   5  -2  -9   38.10    2.16
   5  -2  -9   42.79    2.40
  -5  -2   9   40.84    2.05
   5   2  -9   40.72    2.23
   5   2  -9   43.83    2.32
  -5   2   9   43.72    2.30
  -5   2   9   45.23    2.19
  -5   2   9   37.98    2.26
  -5   2   9   44.75    2.24
  -4  -2   9   16.78    1.32
   4  -2  -9   16.20    1.38
  -4  -2   9   16.21    1.28
  -4  -2   9   14.22    1.35
   4  -2  -9   15.51    1.27
   4  -2  -9   14.05    1.33
  -4   2   9   15.80    1.37
  -4   2   9   15.15    1.42
   4   2  -9   17.00    1.61
  -4   2   9   15.82    1.34
   4   2  -9   16.61    1.44
   4   2  -9   14.87    1.26
  -4   2   9   14.51    1.40
  -3  -2   9   17.99    1.45
  -3  -2   9   16.92    1.32
  -3  -2   9   17.76    1.27
   3  -2  -9   14.84    1.30
   3  -2  -9   16.80    1.23
   3  -2  -9   16.21    1.54
   3   2  -9   18.73    1.47
  -3   2   9   16.47    1.39
   3   2  -9   19.52    1.62
  -3   2   9   17.23    1.37
   3   2  -9   17.65    1.63
  -3   2   9   15.89    1.48
   2  -2  -9   15.48    1.17
  -2  -2   9   12.47    0.92
   2  -2  -9   13.16    1.17
  -2  -2   9   15.23    1.29
   2  -2  -9   14.71    1.46
   2   2  -9   11.97    1.21
  -2   2   9   13.29    1.40
  -2   2   9   14.28    1.16
   2   2  -9   12.56    1.25
   2   2  -9   15.31    1.30
   1  -2  -9  133.94    4.49
  -1  -2   9  129.63    4.41
   1  -2  -9  134.61    4.67
  -1  -2   9  133.90    4.05
   1   2  -9  127.61    4.39
   1   2  -9  134.91    4.77
   1   2  -9  122.57    4.46
  -1   2   9  142.09    4.43
  -1   2   9  136.17    4.71
   0  -2   9   46.85    2.14
   0  -2  -9   47.26    2.16
   0  -2  -9   48.09    2.53
   0   2  -9   49.10    2.32
   0   2  -9   50.01    2.15
   0   2  -9   48.71    2.38
   0   2   9   46.56    2.12
  -1  -2  -9   70.24    2.69
   1  -2   9   63.02    2.54
  -1  -2  -9   65.79    2.83
  -1   2  -9   67.74    2.67
  -1   2  -9   67.96    3.06
  -1   2  -9   67.14    2.56
   1   2   9   63.12    2.54
  -2  -2  -9    7.33    0.94
   2  -2   9    7.58    0.85
  -2  -2  -9    7.48    1.18
  -2   2  -9    6.17    1.04
  -2   2  -9    9.16    0.98
  -2   2  -9    5.93    0.81
   2   2   9    7.46    0.87
  -3  -2  -9   28.21    2.01
  -3  -2  -9   29.19    1.59
   3  -2   9   32.74    1.52
  -3   2  -9   29.98    1.79
  -3   2  -9   27.57    2.20
   3   2   9   28.06    1.53
  -3   2  -9   30.03    1.57
   4  -2   9   18.58    1.15
  -4  -2  -9   17.88    1.58
  -4   2  -9   16.76    1.23
   4   2   9   17.51    1.24
   5  -2   9   77.40    2.67
  -5   2  -9   81.69    2.72
  -5   2  -9   79.44    3.79
   5   2   9   79.71    2.81
  -9  -3   9    6.51    1.21
   9  -3  -9    6.18    1.17
  -9  -3   9    7.94    1.17
   9  -3  -9    9.36    1.49
   9   3  -9    8.06    1.27
  -9   3   9    9.24    1.42
  -9   3   9    7.97    1.50
  -8  -3   9   18.35    1.64
   8  -3  -9   18.60    1.62
  -8  -3   9   18.34    1.81
   8  -3  -9   18.32    1.64
  -8  -3   9   16.62    1.67
  -8   3   9   18.03    1.70
   8   3  -9   18.43    1.94
   8   3  -9   20.54    1.93
  -8   3   9   15.84    1.59
  -7  -3   9   38.78    2.14
  -7  -3   9   42.37    2.42
   7  -3  -9   43.83    2.28
   7  -3  -9   40.53    2.45
  -7  -3   9   45.66    2.54
   7  -3  -9   43.35    2.35
   7   3  -9   45.68    2.42
  -7   3   9   42.67    2.36
  -7   3   9   45.19    2.58
   7   3  -9   43.18    2.67
   7   3  -9   39.21    2.39
  -7   3   9   42.35    2.18
   6  -3  -9   24.92    1.91
  -6  -3   9   31.13    2.08
   6  -3  -9   27.33    1.80
  -6  -3   9   28.25    2.01
   6  -3  -9   30.45    2.17
  -6  -3   9   27.94    1.71
  -6   3   9   31.00    2.40
  -6   3   9   26.14    1.82
   6   3  -9   24.13    2.15
  -6   3   9   31.38    2.00
   6   3  -9   28.12    1.92
   6   3  -9   26.94    1.71
  -6   3   9   30.00    1.76
  -5  -3   9   48.80    2.39
   5  -3  -9   48.52    2.41
  -5  -3   9   49.28    2.51
   5  -3  -9   52.76    2.52
   5  -3  -9   50.47    2.46
  -5  -3   9   51.14    2.37
   5   3  -9   47.39    2.67
  -5   3   9   45.68    2.55
  -5   3   9   48.47    2.82
   5   3  -9   45.64    2.43
   5   3  -9   51.18    2.71
  -5   3   9   50.38    2.27
  -5   3   9   49.17    2.28
  -4  -3   9   18.89    1.40
  -4  -3   9   17.61    1.36
   4  -3  -9   16.96    1.36
   4  -3  -9   16.19    1.32
  -4  -3   9   18.23    1.50
   4  -3  -9   14.39    1.38
  -4   3   9   17.81    1.50
   4   3  -9   15.26    1.43
   4   3  -9   17.92    1.40
  -4   3   9   16.70    1.72
   4   3  -9   15.30    1.45
  -4   3   9   18.21    1.45
  -3  -3   9    4.48    0.83
   3  -3  -9    5.15    0.78
  -3  -3   9    4.26    0.79
   3  -3  -9    4.26    0.90
  -3   3   9    5.52    0.93
  -3   3   9    5.71    1.03
   3   3  -9    3.63    0.89
  -3   3   9    4.11    1.20
   3   3  -9    4.56    1.13
   3   3  -9    3.70    0.86
   2  -3  -9   97.00    3.42
   2  -3  -9   94.80    3.71
  -2  -3   9   96.20    3.47
  -2  -3   9   93.09    3.18
   2  -3  -9   95.75    3.54
  -2   3   9   98.61    3.45
  -2   3   9   92.03    3.71
   2   3  -9   97.94    3.86
   2   3  -9   96.35    3.77
   2   3  -9   96.91    3.47
  -1  -3   9   22.41    1.64
   1  -3  -9   22.14    1.48
  -1  -3   9   23.16    1.20
   1  -3  -9   24.96    1.94
  -1   3   9   21.49    1.62
  -1   3   9   22.91    1.93
   1   3  -9   20.94    1.63
   1   3  -9   21.26    1.81
   1   3  -9   22.33    1.67
   0  -3   9   15.97    1.31
   0  -3  -9   14.54    1.40
   0  -3  -9   16.15    1.24
   0   3   9   18.32    1.48
   0   3  -9   15.96    1.29
   0   3  -9   14.75    1.43
   0   3  -9   17.58    1.51
  -2  -3  -9   42.99    2.48
   2  -3   9   44.02    2.01
  -2   3  -9   44.92    2.01
  -2   3  -9   44.85    2.67
  -2   3  -9   42.35    2.34
   2   3   9   41.87    2.03
   3  -3   9    0.50    0.61
  -3  -3  -9   -0.68    0.82
   3   3   9    0.20    0.67
  -3   3  -9    0.54    0.73
  -3   3  -9    1.73    1.16
  -3   3  -9    0.28    0.85
  -4  -3  -9    4.95    1.11
   4  -3   9    6.50    0.80
  -4   3  -9    6.72    0.80
   4   3   9    5.71    0.87
  -4   3  -9    4.91    1.07
  -4   3  -9    6.18    1.45
  -8  -4   9   35.51    2.53
  -8  -4   9   37.07    2.55
   8  -4  -9   31.97    2.43
   8  -4  -9   34.28    2.37
  -8  -4   9   34.32    2.39
   8   4  -9   37.04    2.63
  -8   4   9   34.14    2.11
   8   4  -9   34.17    2.46
  -8   4   9   33.17    2.56
  -7  -4   9    9.63    1.22
   7  -4  -9   11.22    1.48
  -7  -4   9    9.93    1.42
   7  -4  -9    9.83    1.21
  -7  -4   9    7.83    1.16
   7   4  -9   11.80    1.56
  -7   4   9    8.30    1.35
  -7   4   9   12.07    1.59
  -7   4   9   10.26    1.19
   7   4  -9   10.25    1.34
  -7   4   9   10.46    1.74
   7   4  -9   10.27    1.35
   6  -4  -9    2.11    0.88
  -6  -4   9    5.14    0.92
  -6  -4   9    3.10    1.12
   6  -4  -9    4.19    0.88
   6  -4  -9    6.60    1.23
  -6  -4   9    5.66    1.12
  -6   4   9    4.43    0.91
   6   4  -9    3.90    0.88
  -6   4   9    8.39    1.48
   6   4  -9    5.98    1.29
  -6   4   9    2.67    0.92
  -6   4   9    4.33    1.08
  -5  -4   9   29.37    1.95
  -5  -4   9   31.68    1.90
  -5  -4   9   31.60    1.96
   5  -4  -9   29.37    1.99
   5  -4  -9   30.97    2.05
   5  -4  -9   33.19    2.16
  -5   4   9   30.30    1.81
   5   4  -9   28.43    1.95
   5   4  -9   27.77    2.10
  -5   4   9   31.67    2.48
   5   4  -9   34.24    2.09
  -5   4   9   29.13    2.05
   4  -4  -9   31.24    2.27
  -4  -4   9   28.70    1.82
  -4  -4   9   30.30    1.84
  -4  -4   9   28.29    2.16
   4  -4  -9   29.39    2.01
   4   4  -9   26.40    2.03
   4   4  -9   30.48    2.26
  -4   4   9   28.45    2.05
  -4   4   9   28.98    1.93
   4   4  -9   33.80    2.23
  -4   4   9   34.06    1.85
  -3  -4   9   26.81    1.69
   3  -4  -9   25.74    1.81
   3  -4  -9   23.35    1.78
  -3  -4   9   23.55    1.54
   3   4  -9   23.57    1.77
   3   4  -9   23.22    1.61
  -3   4   9   22.20    1.47
   3   4  -9   21.04    1.60
  -3   4   9   25.49    1.87
  -3   4   9   25.11    1.88
   3   4  -9   25.27    1.78
  -2  -4   9   28.46    1.48
   2  -4  -9   25.31    1.67
   2  -4  -9   27.81    1.92
   2  -4  -9   31.94    1.95
  -2  -4   9   27.93    1.95
  -2   4   9   27.83    1.94
   2   4  -9   27.92    1.85
   2   4  -9   30.48    2.17
  -2   4   9   26.74    2.25
   2   4  -9   29.91    1.95
   1  -4  -9    1.83    0.63
   1  -4  -9    1.61    1.06
  -1  -4   9    1.42    0.66
   1   4  -9    0.68    0.86
  -1   4   9    1.69    0.89
   1   4  -9    1.71    1.01
   1   4  -9    3.15    1.08
   0  -4  -9   22.94    1.70
   0  -4   9   16.13    1.43
   0   4  -9   15.65    1.37
   0   4  -9   18.52    1.70
   0   4   9   19.39    1.51
   0   4  -9   17.07    1.71
  -1  -4  -9    4.16    0.95
   1  -4   9    6.15    0.98
  -1   4  -9    4.84    1.04
   1   4   9    3.58    0.96
  -1   4  -9    5.25    1.20
  -1   4  -9    5.12    0.79
  -2  -4  -9    2.07    1.05
   2  -4   9    3.34    0.88
  -2   4  -9    2.73    0.83
   2   4   9    2.65    0.89
  -2   4  -9    1.97    1.04
  -2   4  -9    1.97    0.90
   3  -4   9    3.97    0.84
  -3  -4  -9    4.48    0.96
  -3   4  -9    4.35    1.15
  -3   4  -9    2.94    1.31
   3   4   9    3.73    0.92
  -3   4  -9    4.34    0.86
   7  -5  -9   -1.58    1.08
  -7  -5   9   -0.74    0.72
   7  -5  -9    1.00    1.13
  -7  -5   9    0.08    0.80
  -7  -5   9    0.67    1.07
  -7   5   9    3.83    1.51
  -7   5   9    1.83    1.30
   7   5  -9    0.77    1.08
  -7   5   9    1.72    1.13
   7   5  -9    0.51    0.89
   6  -5  -9   16.85    1.96
   6  -5  -9   14.95    1.69
  -6  -5   9   17.17    1.66
  -6  -5   9   17.78    1.73
   6  -5  -9   15.65    1.71
  -6  -5   9   17.20    1.72
  -6   5   9   18.73    2.09
   6   5  -9   16.96    1.71
  -6   5   9   17.17    1.54
   6   5  -9   20.12    1.95
   6   5  -9   16.96    1.53
  -6   5   9   14.90    1.44
   5  -5  -9    5.08    1.05
   5  -5  -9    4.62    1.19
  -5  -5   9    3.56    1.10
   5  -5  -9    3.14    1.17
  -5  -5   9    1.84    1.11
   5   5  -9    4.15    1.19
  -5   5   9    3.64    0.89
   5   5  -9    2.52    1.27
   5   5  -9    3.27    0.86
  -5   5   9    3.38    1.38
  -5   5   9    5.22    0.97
   5   5  -9    2.88    0.86
   4  -5  -9    0.63    0.98
   4  -5  -9    2.25    1.19
  -4  -5   9    0.12    0.83
  -4  -5   9    0.92    1.04
  -4   5   9    0.13    0.65
  -4   5   9    2.78    1.06
   4   5  -9    1.16    0.95
   4   5  -9    1.57    0.79
   4   5  -9    0.28    0.71
   4   5  -9    2.09    0.90
  -4   5   9    2.46    1.24
  -3  -5   9    9.16    1.40
  -3  -5   9   10.15    1.11
   3  -5  -9   11.52    1.39
   3  -5  -9   10.03    1.15
  -3   5   9    8.86    1.34
   3   5  -9   10.41    1.48
  -3   5   9   12.30    1.40
   3   5  -9   11.03    1.42
   3   5  -9   12.76    1.61
  -2  -5   9    5.29    0.83
  -2  -5   9    5.28    1.16
   2  -5  -9    4.49    1.06
   2   5  -9    6.23    1.31
  -2   5   9    4.81    1.12
   2   5  -9    5.88    1.37
   2   5  -9    4.62    1.14
  -2   5   9    4.62    1.37
  -1  -5   9   25.14    1.94
   1  -5  -9   20.00    1.97
   1   5  -9   24.89    2.06
  -1   5   9   23.39    1.66
   1   5  -9   23.77    1.86
   1   5  -9   24.97    2.15
   0  -5   9    1.86    0.99
   0  -5  -9    0.18    0.78
   0   5   9    2.14    0.75
   0   5  -9    1.11    1.11
   0   5  -9    0.81    0.91
   0   5  -9   -0.88    0.99
   1  -5   9   11.20    1.16
  -1  -5  -9   10.72    1.55
  -1   5  -9   10.53    1.26
  -1   5  -9   10.27    1.32
   1   5   9   12.04    1.37
  -1   5  -9   10.60    1.59
  -2  -5  -9    1.61    0.86
   2  -5   9    1.67    0.89
   2   5   9    1.30    0.70
  -2   5  -9    1.25    1.16
  -2   5  -9    2.16    0.90
  -2   5  -9    1.14    0.92
   5  -6  -9    0.95    1.21
   5  -6  -9    0.95    0.85
  -5  -6   9    0.38    0.80
  -5  -6   9    0.61    1.03
   5   6  -9    1.21    1.27
  -5   6   9    0.25    0.78
   5   6  -9    1.46    1.06
   5   6  -9   -0.18    0.72
  -5   6   9    0.66    1.39
  -5   6   9    0.95    1.12
   5   6  -9    0.48    1.13
   4  -6  -9   15.02    1.46
  -4  -6   9   11.31    1.33
   4  -6  -9    9.96    1.65
  -4  -6   9   13.95    1.65
   4   6  -9   11.33    1.53
  -4   6   9    9.61    1.49
   4   6  -9   12.87    1.77
   4   6  -9   11.55    1.35
  -4   6   9   11.25    1.52
  -3  -6   9   -0.24    0.75
   3  -6  -9    1.03    1.25
  -3  -6   9    1.52    0.79
  -3   6   9   -0.02    1.27
   3   6  -9    0.39    0.85
   3   6  -9    0.95    1.11
  -3   6   9    1.18    0.84
   3   6  -9    1.40    1.06
  -2  -6   9    6.86    1.32
   2  -6  -9    6.07    1.44
   2   6  -9    4.76    1.06
  -2   6   9    4.66    1.51
   2   6  -9    5.65    1.26
  -2   6   9    4.80    1.27
   2   6  -9    3.07    1.34
  -1  -6   9    4.64    1.25
   1  -6  -9    3.84    1.38
  -1   6   9    7.00    1.34
   1   6  -9    4.04    1.04
   1   6  -9    5.15    1.46
   1   6  -9    4.64    1.24
   0  -6  -9   66.81    3.44
   0  -6   9   57.71    2.72
   0   6  -9   55.14    2.66
   0   6  -9   59.43    3.31
   0   6   9   59.11    2.99
   0   6  -9   58.45    3.30
  -9   0  10   -0.88    0.79
   9   0 -10    0.17    0.76
  -9   0  10   -0.04    1.04
  -8   0  10  172.80    6.10
   8   0 -10  172.28    5.88
  -8   0  10  180.48    5.82
  -8   0  10  177.73    5.96
  -7   0  10    0.04    1.02
  -7   0  10    0.24    0.64
   7   0 -10   -0.93    0.89
  -7   0  10    0.50    0.67
   7   0 -10   -0.37    0.89
  -6   0  10   34.30    2.06
   6   0 -10   34.21    2.12
  -6   0  10   34.28    1.96
   6   0 -10   36.00    1.95
  -6   0  10   37.04    2.19
   6   0 -10   33.51    2.04
   5   0 -10   -0.72    0.60
   5   0 -10   -0.80    0.51
   5   0 -10   -0.80    0.92
  -5   0  10   -0.98    0.83
  -5   0  10    0.14    0.79
  -5   0  10    1.97    0.93
  -4   0  10  156.63    5.21
   4   0 -10  165.65    5.24
   4   0 -10  155.55    5.43
   4   0 -10  159.02    5.16
  -4   0  10  163.67    5.18
   4   0 -10  161.39    5.53
  -4   0  10  153.73    5.04
   3   0 -10   -0.57    0.96
  -3   0  10   -0.22    0.58
   3   0 -10   -0.06    0.64
   3   0 -10    0.57    0.60
  -3   0  10    0.79    0.87
  -3   0  10    1.34    0.75
   2   0 -10    2.45    1.01
  -2   0  10    2.30    0.75
  -2   0  10    3.11    0.76
  -2   0  10    2.31    0.89
   2   0 -10    4.13    0.94
   2   0 -10    3.23    0.88
   1   0 -10    0.14    0.52
   1   0 -10   -0.58    0.69
  -1   0  10    0.59    0.75
   1   0 -10   -0.51    0.82
   1   0 -10    0.30    0.92
  -1   0  10   -1.61    0.66
  -1   0  10   -0.11    0.56
   0   0 -10   79.33    3.07
   0   0 -10   79.09    3.42
   0   0  10   80.93    2.82
   0   0 -10   82.11    3.37
   0   0  10   78.84    3.10
   0   0 -10   83.50    3.00
   0   0  10   81.28    2.92
  -1   0 -10   -0.36    0.60
  -1   0 -10   -0.60    0.58
  -1   0 -10    1.06    0.88
   1   0  10   -0.15    0.42
   1   0  10    0.10    0.46
  -2   0 -10    5.20    0.78
   2   0  10    6.61    0.83
  -2   0 -10    7.89    1.22
   2   0  10    7.31    0.93
  -2   0 -10    8.90    1.08
  -3   0 -10    0.10    0.52
  -3   0 -10    0.94    0.93
   3   0  10   -0.33    0.51
  -4   0 -10   59.55    2.80
  -4   0 -10   56.58    2.19
   4   0  10   58.35    2.21
  -9  -1  10    1.24    1.26
   9  -1 -10   -1.05    0.90
  -9  -1  10   -0.91    1.03
   9  -1 -10    0.44    1.12
  -9   1  10    0.92    1.24
   9   1 -10    0.26    0.78
  -9   1  10   -0.37    0.73
   8  -1 -10    0.35    0.74
  -8  -1  10   -0.12    1.02
  -8  -1  10    0.18    0.77
   8  -1 -10   -0.70    0.89
  -8  -1  10   -0.13    0.87
   8   1 -10    1.50    0.78
  -8   1  10    0.68    0.71
  -8   1  10    1.21    1.17
  -8   1  10   -0.72    0.88
   8   1 -10    1.30    0.87
   7  -1 -10  114.95    4.26
  -7  -1  10  115.15    4.11
  -7  -1  10  113.43    4.13
   7  -1 -10  118.63    4.32
   7  -1 -10  109.49    4.08
  -7  -1  10  113.64    4.34
  -7   1  10  119.30    4.27
   7   1 -10  117.08    4.30
  -7   1  10  109.15    4.22
   7   1 -10  112.63    4.25
  -7   1  10  110.83    4.09
  -6  -1  10   16.17    1.37
  -6  -1  10   17.28    1.56
   6  -1 -10   18.02    1.58
   6  -1 -10   14.66    1.55
   6  -1 -10   12.41    1.43
  -6  -1  10   15.54    1.34
  -6   1  10   16.95    1.50
   6   1 -10   19.79    1.58
   6   1 -10   15.85    1.48
  -6   1  10   13.30    1.35
  -6   1  10   16.46    1.38
   5  -1 -10    4.10    0.93
  -5  -1  10    3.89    0.75
   5  -1 -10    4.53    0.87
   5  -1 -10    5.15    1.01
  -5  -1  10    4.07    0.83
  -5  -1  10    4.32    1.05
   5   1 -10    2.90    1.01
  -5   1  10    4.72    0.83
   5   1 -10    2.39    1.20
  -5   1  10    3.72    1.05
  -5   1  10    5.92    1.13
   4  -1 -10   37.24    1.96
   4  -1 -10   34.88    2.01
  -4  -1  10   31.31    1.81
  -4  -1  10   31.45    1.90
   4  -1 -10   36.44    2.26
  -4  -1  10   31.35    1.63
  -4   1  10   34.44    2.28
   4   1 -10   31.87    2.28
  -4   1  10   33.90    2.01
   4   1 -10   33.24    2.04
  -4   1  10   34.90    1.88
  -4   1  10   30.92    1.79
  -3  -1  10  140.23    4.76
   3  -1 -10  140.26    4.97
   3  -1 -10  136.45    5.08
   3  -1 -10  146.46    4.83
   3  -1 -10  146.73    4.68
  -3  -1  10  148.57    4.69
   3   1 -10  146.54    4.77
  -3   1  10  139.20    4.81
   3   1 -10  145.11    5.18
  -3   1  10  146.41    4.78
  -3   1  10  142.56    4.99
   2  -1 -10    0.21    0.95
  -2  -1  10    0.85    0.84
   2  -1 -10    2.65    0.86
  -2  -1  10    1.35    0.65
   2  -1 -10    2.02    0.71
   2   1 -10    1.10    0.84
  -2   1  10    2.13    0.93
  -2   1  10    0.81    0.54
  -2   1  10    0.17    0.83
   2   1 -10   -0.61    0.97
   2   1 -10    1.37    0.68
   1  -1 -10   34.10    1.88
  -1  -1  10   32.87    1.92
   1  -1 -10   34.65    2.06
   1  -1 -10   34.29    1.85
  -1  -1  10   33.82    1.57
   1   1 -10   36.41    1.88
   1   1 -10   35.72    2.24
  -1   1  10   36.84    1.92
   1   1 -10   34.17    1.90
  -1   1  10   34.07    1.77
  -1   1  10   37.09    1.94
   0  -1 -10    3.15    1.11
   0  -1 -10    4.71    0.99
   0  -1 -10    4.43    0.81
   0  -1 -10    2.76    0.63
   0  -1  10    3.62    0.73
   0  -1  10    3.56    0.84
   0   1 -10    4.24    0.86
   0   1  10    2.45    0.94
   0   1 -10    3.53    0.88
   0   1 -10    2.80    0.83
   0   1  10    3.87    0.85
  -1  -1 -10  121.83    4.09
  -1  -1 -10  125.22    4.14
  -1  -1 -10  120.57    4.52
  -1  -1 -10  132.30    4.51
   1  -1  10  120.97    4.14
  -1   1 -10  132.41    4.71
   1   1  10  121.44    4.13
  -1   1 -10  125.22    4.16
   1   1  10  131.78    4.47
  -1   1 -10  124.60    4.29
  -2  -1 -10    7.15    1.11
  -2  -1 -10   10.27    1.36
   2  -1  10    8.05    0.92
  -2   1 -10    9.66    1.07
   2   1  10    8.09    0.84
  -2   1 -10    7.78    0.90
  -2   1 -10   10.36    1.25
   2   1  10    8.73    1.15
  -3  -1 -10   13.66    1.43
  -3  -1 -10   13.68    1.48
   3  -1  10   13.91    1.07
   3   1  10   11.73    1.02
  -3   1 -10   12.40    1.56
  -3   1 -10   11.23    0.98
   4  -1  10    3.85    0.65
  -4  -1 -10    5.09    1.08
  -4   1 -10    1.76    0.89
   4   1  10    3.39    0.66
  -4   1 -10    3.75    0.65
   9  -2 -10    1.82    1.03
   9  -2 -10    2.46    0.91
  -9  -2  10    0.99    1.12
  -9  -2  10    0.64    0.87
  -9   2  10    0.85    0.95
  -9   2  10    0.11    0.74
  -8  -2  10    0.91    0.79
  -8  -2  10    0.20    0.79
   8  -2 -10    0.08    0.97
   8  -2 -10   -0.57    1.05
  -8  -2  10   -0.58    0.87
  -8   2  10   -1.33    0.95
  -8   2  10    0.60    1.16
  -8   2  10    1.50    0.96
   7  -2 -10    4.27    1.17
  -7  -2  10    3.37    0.91
   7  -2 -10    5.33    1.15
  -7  -2  10    5.25    0.95
  -7  -2  10    3.64    1.16
   7  -2 -10    3.31    0.86
   7   2 -10    5.27    1.14
   7   2 -10    5.34    1.36
  -7   2  10    4.49    1.23
  -7   2  10    5.11    1.11
  -7   2  10    3.66    1.10
   6  -2 -10   92.16    3.63
  -6  -2  10   88.21    3.48
  -6  -2  10   83.62    3.57
   6  -2 -10   93.06    3.47
   6  -2 -10   86.12    3.45
  -6  -2  10   91.81    3.54
  -6   2  10   88.50    3.69
   6   2 -10   85.82    3.59
   6   2 -10   91.53    3.98
  -6   2  10   90.48    3.59
  -6   2  10   95.05    3.60
  -5  -2  10    1.09    0.94
   5  -2 -10   -0.90    0.87
  -5  -2  10   -0.18    0.86
  -5  -2  10    1.72    0.65
   5  -2 -10   -0.04    0.66
   5  -2 -10    1.16    0.91
   5   2 -10    1.37    1.14
  -5   2  10    1.49    1.12
   5   2 -10   -0.35    0.61
  -5   2  10    0.18    0.93
  -5   2  10    0.65    0.86
  -5   2  10    1.51    1.01
   4  -2 -10   21.06    1.68
  -4  -2  10   20.86    1.64
  -4  -2  10   19.91    1.56
   4  -2 -10   22.68    1.85
  -4  -2  10   18.03    1.29
   4  -2 -10   21.82    1.51
   4   2 -10   19.00    1.67
   4   2 -10   21.97    1.70
  -4   2  10   23.02    1.63
  -4   2  10   22.05    1.68
  -4   2  10   20.13    1.87
   4   2 -10   19.85    1.78
  -4   2  10   23.48    1.83
  -3  -2  10   10.89    1.08
   3  -2 -10   11.47    1.03
  -3  -2  10    9.53    1.20
   3  -2 -10    9.16    1.33
   3  -2 -10    8.41    1.24
   3  -2 -10    9.14    1.15
   3   2 -10    9.54    1.32
   3   2 -10    9.47    1.19
  -3   2  10   10.21    1.24
  -3   2  10    8.08    1.17
   3   2 -10   11.66    1.30
  -3   2  10    8.47    1.03
   2  -2 -10   69.91    2.91
  -2  -2  10   75.82    2.65
   2  -2 -10   70.29    3.03
   2  -2 -10   75.87    3.32
  -2  -2  10   70.89    2.85
   2   2 -10   64.94    3.05
  -2   2  10   76.67    2.98
   2   2 -10   71.30    3.00
  -2   2  10   75.29    3.26
   2   2 -10   67.33    2.94
   1  -2 -10    0.88    0.77
   1  -2 -10    1.05    0.75
  -1  -2  10    0.13    0.54
  -1  -2  10    1.15    0.84
  -1   2  10    0.97    0.74
  -1   2  10   -0.67    0.74
   1   2 -10    1.50    0.92
   1   2 -10   -2.16    0.93
   1   2 -10    1.97    0.86
   0  -2  10  109.93    3.87
   0  -2 -10  107.64    4.26
   0  -2 -10  110.63    3.96
   0   2 -10  112.07    4.33
   0   2  10  112.08    4.21
   0   2 -10  110.40    4.05
   0   2 -10  102.59    3.73
   0   2  10  113.70    3.87
   1  -2  10    1.67    0.77
  -1  -2 -10    1.40    0.80
  -1  -2 -10    2.98    0.84
   1   2  10    3.28    0.66
  -1   2 -10    2.74    0.80
  -1   2 -10    2.79    0.90
  -1   2 -10    2.55    0.89
  -2  -2 -10    3.42    0.86
   2  -2  10    2.57    0.75
  -2  -2 -10    3.26    1.10
  -2   2 -10    3.59    1.21
   2   2  10    3.08    0.78
  -2   2 -10    3.85    0.93
  -2   2 -10    4.74    0.82
  -3  -2 -10    3.69    0.88
  -3  -2 -10   -0.43    0.92
   3  -2  10    0.56    0.60
  -3   2 -10   -0.18    0.77
  -3   2 -10    4.09    1.25
  -3   2 -10   -0.50    0.56
   3   2  10    0.48    0.66
  -4  -2 -10   64.58    3.24
   4  -2  10   59.21    2.30
   4   2  10   55.37    2.36
  -4   2 -10   58.27    2.29
  -4   2 -10   60.38    3.30
   8  -3 -10   -1.13    1.05
  -8  -3  10   -0.30    0.69
  -8  -3  10    0.33    0.73
  -8  -3  10   -0.33    0.77
   8  -3 -10    0.10    0.74
   8   3 -10    0.92    0.91
   8   3 -10   -1.57    1.11
  -8   3  10    1.09    0.91
  -8   3  10    1.22    1.10
  -7  -3  10    3.20    1.12
  -7  -3  10    4.66    1.18
   7  -3 -10    3.27    1.17
   7  -3 -10    2.56    1.14
  -7  -3  10    4.17    0.94
   7  -3 -10    3.25    1.11
   7   3 -10    3.58    1.16
  -7   3  10    2.80    0.85
  -7   3  10    2.19    1.04
  -7   3  10    3.04    0.97
   7   3 -10    5.03    1.35
   7   3 -10    3.09    1.28
  -6  -3  10   22.96    1.87
   6  -3 -10   25.88    1.98
  -6  -3  10   28.20    1.77
  -6  -3  10   24.86    1.67
   6  -3 -10   24.74    1.73
   6  -3 -10   24.93    2.14
  -6   3  10   26.06    2.02
   6   3 -10   27.17    1.77
   6   3 -10   26.31    1.92
   6   3 -10   24.30    2.23
  -6   3  10   24.83    1.70
  -6   3  10   22.88    2.18
  -6   3  10   26.43    2.03
   5  -3 -10   12.08    1.39
  -5  -3  10   12.80    1.28
  -5  -3  10   13.11    1.20
   5  -3 -10   11.15    1.23
   5  -3 -10    8.24    1.36
  -5  -3  10   11.16    1.39
  -5   3  10    8.68    1.13
  -5   3  10   10.76    1.41
   5   3 -10   11.52    1.40
   5   3 -10    6.62    1.37
  -5   3  10   11.55    1.32
  -5   3  10   11.22    1.45
   5   3 -10   10.28    1.57
  -4  -3  10    5.20    1.18
   4  -3 -10    6.16    0.96
  -4  -3  10    5.39    0.97
   4  -3 -10    4.17    0.98
   4  -3 -10    5.22    1.11
  -4   3  10    7.50    1.21
   4   3 -10    5.62    1.09
  -4   3  10    6.29    1.16
   4   3 -10    6.66    1.21
   4   3 -10    4.57    1.23
  -4   3  10    7.30    0.96
   3  -3 -10   13.33    1.16
  -3  -3  10   13.28    1.41
   3  -3 -10   12.75    1.38
   3  -3 -10   12.77    1.37
  -3  -3  10   14.11    1.16
  -3   3  10   13.72    1.27
  -3   3  10   14.00    1.66
   3   3 -10   11.50    1.54
   3   3 -10   14.60    1.59
   3   3 -10   14.73    1.46
   2  -3 -10    0.49    0.72
  -2  -3  10    1.05    0.90
  -2  -3  10    1.14    0.67
   2  -3 -10    0.75    0.78
   2   3 -10    2.15    0.97
  -2   3  10    1.01    0.89
   2   3 -10    1.82    1.06
   2   3 -10    0.19    1.06
  -2   3  10   -0.24    0.70
   1  -3 -10   -0.92    0.98
  -1  -3  10   -0.38    0.54
   1  -3 -10    0.05    0.65
  -1   3  10    0.14    0.83
   1   3 -10    0.01    0.80
  -1   3  10   -0.03    1.01
   1   3 -10   -0.07    0.65
   1   3 -10    0.29    1.05
   0  -3 -10    7.55    1.29
   0   3 -10    9.54    1.41
   0   3 -10    8.23    1.04
  -1  -3 -10   23.01    1.49
  -1  -3 -10   19.84    1.82
   1  -3  10   20.95    1.59
  -1   3 -10   22.10    1.61
  -1   3 -10   20.91    1.57
  -1   3 -10   21.67    1.95
   1   3  10   19.57    1.51
  -2  -3 -10    0.93    1.07
   2  -3  10    3.08    0.82
  -2   3 -10    0.48    0.92
   2   3  10    2.74    0.83
  -2   3 -10    1.53    0.76
  -2   3 -10    1.13    1.18
   3  -3  10    0.58    0.67
  -3  -3 -10    0.82    0.99
   3   3  10    1.44    0.74
  -3   3 -10   -0.06    0.83
  -3   3 -10    1.16    1.24
  -3   3 -10    0.28    0.66
  -7  -4  10   18.83    1.62
  -7  -4  10   21.05    1.92
  -7  -4  10   18.50    1.61
   7  -4 -10   17.79    1.81
   7  -4 -10   20.82    1.74
   7   4 -10   20.38    1.84
   7   4 -10   19.59    1.80
  -7   4  10   23.26    2.05
  -7   4  10   21.05    2.28
  -7   4  10   22.11    1.87
   7   4 -10   19.54    1.77
  -7   4  10   17.76    1.55
   6  -4 -10    2.09    1.12
   6  -4 -10    3.46    1.22
  -6  -4  10    4.86    1.13
  -6  -4  10    2.84    1.08
  -6  -4  10    3.18    1.21
   6  -4 -10    2.58    0.93
   6   4 -10    3.73    0.95
  -6   4  10    4.51    1.16
   6   4 -10    2.79    0.95
   6   4 -10    3.59    1.02
  -6   4  10    2.55    1.11
  -6   4  10    4.18    1.29
  -6   4  10    2.89    1.16
   5  -4 -10   42.79    2.43
  -5  -4  10   42.52    2.12
   5  -4 -10   41.34    2.19
   5  -4 -10   40.32    2.23
  -5  -4  10   38.44    2.23
   5   4 -10   39.11    2.37
  -5   4  10   45.46    2.41
   5   4 -10   39.02    2.45
  -5   4  10   46.64    2.63
  -5   4  10   41.06    2.47
   5   4 -10   38.68    2.41
   4  -4 -10   -0.20    0.87
  -4  -4  10   -0.09    0.69
   4  -4 -10   -0.84    1.04
  -4  -4  10    0.61    0.56
   4  -4 -10    1.56    1.00
   4   4 -10   -0.70    1.06
   4   4 -10   -0.34    1.01
  -4   4  10    0.33    0.70
  -4   4  10    0.78    1.24
   4   4 -10    0.03    1.00
  -3  -4  10    8.16    1.01
   3  -4 -10    6.21    1.34
  -3  -4  10    6.80    1.24
  -3   4  10    5.73    1.14
   3   4 -10    7.44    1.14
  -3   4  10    8.41    1.32
   3   4 -10    7.12    1.03
   3   4 -10    8.00    1.39
   2  -4 -10    5.95    0.96
  -2  -4  10    6.17    1.15
   2  -4 -10    5.17    1.28
  -2   4  10    5.28    1.39
   2   4 -10    5.06    1.15
   2   4 -10    6.95    1.38
  -2   4  10    5.80    1.17
   2   4 -10    3.69    0.96
  -1  -4  10    6.63    1.15
   1  -4 -10    3.97    1.27
   1  -4 -10    4.93    0.99
   1   4 -10    4.46    1.25
   1   4 -10    5.21    1.05
  -1   4  10    4.55    1.34
  -1   4  10    4.20    1.10
   1   4 -10    3.79    1.03
   0  -4  10   17.00    1.49
   0  -4 -10   16.80    1.77
   0   4 -10   16.75    1.47
   0   4 -10   15.16    1.73
   0   4  10   13.81    1.46
   0   4 -10   18.15    1.62
   1  -4  10    8.59    1.16
  -1  -4 -10    8.75    1.48
  -1   4 -10    7.28    1.34
   1   4  10    8.30    1.01
  -1   4 -10    8.99    1.15
  -1   4 -10    6.72    1.46
   2  -4  10    1.57    0.85
  -2  -4 -10    1.77    1.15
  -2   4 -10    0.78    1.04
   2   4  10    2.61    0.96
  -2   4 -10    1.57    0.84
  -2   4 -10    2.12    0.97
  -6  -5  10   17.73    1.77
  -6  -5  10   20.60    1.90
   6  -5 -10   18.68    1.98
   6  -5 -10   21.74    1.80
   6  -5 -10   19.69    1.67
   6   5 -10   16.77    1.98
   6   5 -10   20.99    1.92
  -6   5  10   22.08    2.29
   6   5 -10   21.28    2.02
  -6   5  10   18.45    1.81
  -6   5  10   18.78    1.82
   5  -5 -10    7.60    1.34
   5  -5 -10    6.61    1.13
  -5  -5  10    7.09    1.06
   5  -5 -10    6.44    1.21
  -5  -5  10    7.55    1.19
   5   5 -10    5.73    1.40
  -5   5  10    6.47    1.32
  -5   5  10    5.92    1.06
   5   5 -10    5.99    1.21
   5   5 -10    6.10    1.37
  -4  -5  10   38.71    2.15
   4  -5 -10   38.38    2.73
   4  -5 -10   35.36    2.37
  -4  -5  10   40.04    2.56
  -4   5  10   38.59    2.45
   4   5 -10   36.82    2.38
   4   5 -10   41.89    2.25
   4   5 -10   38.14    2.61
  -4   5  10   36.06    2.80
  -3  -5  10    5.85    0.97
   3  -5 -10    6.26    1.18
  -3  -5  10    5.40    1.30
  -3   5  10    7.47    1.31
   3   5 -10    5.16    1.43
   3   5 -10    6.57    1.34
   3   5 -10    7.94    1.46
  -3   5  10    7.30    1.12
  -2  -5  10   98.93    4.00
   2  -5 -10  102.86    4.38
   2   5 -10   94.37    4.22
   2   5 -10  101.77    3.94
  -2   5  10  100.08    3.82
   2   5 -10   93.69    4.02
  -2   5  10   95.69    4.38
  -1  -5  10    1.01    0.99
   1  -5 -10    1.01    1.24
   1   5 -10   -0.03    0.96
  -1   5  10    0.86    0.78
   1   5 -10   -0.79    1.11
   1   5 -10   -0.28    1.16
   0  -5 -10   13.02    1.85
   0  -5  10   17.93    1.68
   0   5 -10   15.59    1.83
   0   5  10   15.19    1.60
   0   5 -10   18.81    1.62
   0   5 -10   18.71    1.79
  -1   5 -10    1.67    0.95
   1   5  10    1.32    1.03
  -9   0  11   55.54    2.74
  -9   0  11   55.13    3.13
   9   0 -11   52.35    2.99
   8   0 -11   -1.22    1.04
  -8   0  11    0.76    1.01
   8   0 -11    0.22    1.04
  -8   0  11   -0.47    1.12
  -8   0  11    0.91    0.78
   7   0 -11   15.80    1.47
  -7   0  11   20.10    1.62
  -7   0  11   17.74    1.75
  -7   0  11   21.14    1.75
   7   0 -11   26.06    2.03
  -6   0  11   -0.69    0.58
   6   0 -11   -1.26    0.85
  -6   0  11   -0.27    0.92
  -6   0  11   -1.51    0.91
   6   0 -11    0.28    0.97
   5   0 -11   16.86    1.57
   5   0 -11   14.35    1.54
  -5   0  11   13.74    1.37
  -5   0  11   15.87    1.58
  -5   0  11   15.05    1.35
   5   0 -11   16.48    1.83
   5   0 -11   17.20    1.40
   4   0 -11    0.28    0.74
  -4   0  11    1.28    0.99
   4   0 -11   -0.36    0.73
  -4   0  11    0.51    0.83
   4   0 -11    0.13    0.95
   3   0 -11   11.18    1.33
  -3   0  11   13.18    1.40
  -3   0  11   12.37    1.23
   3   0 -11   10.04    1.32
   3   0 -11   12.30    1.55
  -2   0  11    1.03    0.70
   2   0 -11   -0.65    0.69
  -2   0  11    0.12    0.85
  -2   0  11    0.09    0.58
   2   0 -11   -0.72    0.54
   2   0 -11    0.37    0.97
   1   0 -11   38.82    2.15
   1   0 -11   37.60    2.11
  -1   0  11   35.96    1.76
  -1   0  11   35.22    2.03
  -1   0  11   35.93    2.10
   1   0 -11   31.38    2.36
   1   0 -11   34.47    1.97
   0   0 -11    0.06    0.95
   0   0  11    0.10    0.76
   0   0 -11    0.12    0.72
   0   0 -11    0.94    0.77
   0   0  11    1.53    0.79
  -1   0 -11   76.25    3.02
  -1   0 -11   82.86    3.03
   1   0  11   77.48    3.02
  -1   0 -11   78.07    3.44
   1   0  11   77.38    3.02
  -2   0 -11    0.38    0.68
   2   0  11    0.04    0.64
  -2   0 -11    0.47    0.64
  -3   0 -11   31.65    1.67
   3   0  11   30.61    1.69
  -3   0 -11   32.96    2.35
   9  -1 -11    3.74    1.03
  -9  -1  11    2.72    1.05
  -9  -1  11    4.50    1.28
   9   1 -11    3.18    1.00
  -9   1  11    5.42    1.48
  -9   1  11    4.36    1.27
   8  -1 -11   42.62    2.38
  -8  -1  11   44.12    2.33
   8  -1 -11   40.95    2.35
  -8  -1  11   39.64    2.36
  -8  -1  11   45.96    2.59
   8   1 -11   41.74    3.00
   8   1 -11   38.13    2.53
  -8   1  11   41.70    2.53
  -8   1  11   41.22    2.27
  -8   1  11   44.89    2.49
  -7  -1  11    0.99    0.99
   7  -1 -11    0.85    0.73
  -7  -1  11   -1.07    1.02
   7  -1 -11    0.25    1.06
  -7  -1  11    0.61    1.01
   7  -1 -11    1.08    0.77
  -7   1  11    1.14    1.11
  -7   1  11    0.27    1.01
  -7   1  11   -0.63    0.95
   7   1 -11    0.56    0.75
  -6  -1  11    3.88    1.14
   6  -1 -11    3.14    1.13
   6  -1 -11    4.72    1.18
  -6  -1  11    4.12    1.06
   6  -1 -11    4.26    1.02
  -6  -1  11    6.02    1.22
   6   1 -11    4.72    1.42
   6   1 -11    3.37    0.91
  -6   1  11    4.82    0.92
  -6   1  11    3.69    1.21
  -6   1  11    4.13    0.96
  -5  -1  11    3.51    1.07
  -5  -1  11    2.95    1.09
   5  -1 -11    6.09    1.10
   5  -1 -11    4.30    1.15
   5  -1 -11    3.07    1.01
   5   1 -11    4.21    1.30
  -5   1  11    3.84    0.89
   5   1 -11    4.95    1.21
  -5   1  11    4.79    0.88
  -5   1  11    2.66    1.10
   4  -1 -11  110.36    4.58
   4  -1 -11  118.40    4.66
  -4  -1  11  121.11    4.14
  -4  -1  11  122.27    4.30
   4  -1 -11  118.32    4.21
   4  -1 -11  118.77    4.36
   4   1 -11  125.87    4.43
  -4   1  11  116.52    4.30
   4   1 -11  119.55    4.73
  -4   1  11  128.42    4.43
  -4   1  11  121.12    4.69
  -3  -1  11   25.99    1.67
   3  -1 -11   22.18    2.02
  -3  -1  11   25.70    1.94
   3  -1 -11   26.36    2.11
   3  -1 -11   23.27    1.88
  -3   1  11   26.36    1.81
   3   1 -11   26.54    1.95
   3   1 -11   27.01    1.84
  -3   1  11   27.53    1.87
   3   1 -11   26.30    1.93
  -3   1  11   29.38    1.98
  -2  -1  11    0.51    0.64
   2  -1 -11   -0.02    0.86
   2  -1 -11    0.79    0.65
   2  -1 -11   -1.56    0.66
  -2  -1  11    0.00    0.61
  -2   1  11    0.11    0.74
  -2   1  11   -0.57    0.92
   2   1 -11    0.40    0.91
   2   1 -11    0.70    1.01
  -2   1  11    0.31    0.61
   2   1 -11    1.43    0.67
  -1  -1  11    8.61    0.98
   1  -1 -11    8.15    1.42
   1  -1 -11    8.87    1.24
   1  -1 -11    7.98    1.07
  -1   1  11    7.81    1.23
  -1   1  11    7.08    0.97
   1   1 -11    7.65    1.03
   1   1 -11    6.03    1.07
  -1   1  11    6.49    0.91
   1   1 -11    8.25    1.38
   0  -1 -11   51.43    2.57
   0  -1 -11   46.49    2.78
   0  -1 -11   47.36    2.23
   0  -1  11   48.31    2.30
   0  -1 -11   46.14    2.24
   0   1 -11   46.38    2.40
   0   1  11   46.96    2.09
   0   1  11   46.72    2.49
   0   1  11   47.97    2.29
   0   1 -11   50.83    2.32
   0   1 -11   40.66    2.39
   1  -1  11   11.73    1.16
  -1  -1 -11   10.15    1.30
  -1  -1 -11   11.93    1.16
  -1  -1 -11   11.02    1.49
   1   1  11   11.29    1.17
  -1   1 -11   10.99    1.51
  -1   1 -11    9.57    1.12
  -1   1 -11   11.10    1.23
   1   1  11   10.90    1.31
  -2  -1 -11    9.72    1.26
   2  -1  11    9.94    1.08
  -2  -1 -11    9.25    1.03
  -2  -1 -11    8.02    1.26
  -2   1 -11    9.05    1.03
  -2   1 -11    9.12    1.46
  -2   1 -11    8.50    1.29
   2   1  11   10.66    1.07
   2   1  11    8.91    1.07
  -3  -1 -11   26.96    1.60
   3  -1  11   28.13    1.61
  -3  -1 -11   27.15    1.82
  -3   1 -11   25.72    1.68
   3   1  11   25.30    1.57
  -3   1 -11   26.88    2.01
  -8  -2  11    1.84    1.20
  -8  -2  11    0.91    1.02
  -8  -2  11    1.63    1.10
   8  -2 -11    2.05    1.10
   8  -2 -11    3.00    1.18
   8   2 -11   -0.36    1.23
  -8   2  11    2.13    0.92
  -8   2  11    1.09    0.78
   8   2 -11    1.42    1.30
  -8   2  11    2.07    1.13
   7  -2 -11   68.14    3.14
  -7  -2  11   60.68    2.87
  -7  -2  11   63.56    2.99
   7  -2 -11   58.07    3.00
  -7  -2  11   60.75    3.03
   7  -2 -11   58.76    2.94
  -7   2  11   63.69    3.06
   7   2 -11   57.70    2.78
  -7   2  11   64.80    3.02
   7   2 -11   61.08    3.44
  -7   2  11   63.34    2.95
  -6  -2  11    1.36    1.06
  -6  -2  11    0.53    0.98
   6  -2 -11    0.16    0.69
   6  -2 -11   -0.55    0.70
   6  -2 -11    2.25    1.10
  -6  -2  11   -0.26    0.89
  -6   2  11    0.89    0.82
   6   2 -11    1.16    0.88
  -6   2  11    1.49    1.06
   6   2 -11    0.65    0.75
  -6   2  11    1.76    1.01
   5  -2 -11   50.76    2.38
  -5  -2  11   48.70    2.49
   5  -2 -11   52.14    2.46
   5  -2 -11   51.31    2.88
  -5  -2  11   53.45    2.50
   5   2 -11   47.42    2.64
  -5   2  11   45.79    2.89
   5   2 -11   50.62    2.97
   5   2 -11   46.34    2.61
  -5   2  11   54.00    2.67
  -5   2  11   48.43    3.00
  -5   2  11   48.54    2.65
  -4  -2  11   15.83    1.37
  -4  -2  11   13.60    1.50
   4  -2 -11   14.82    1.66
   4  -2 -11   14.49    1.47
   4  -2 -11   14.93    1.51
   4  -2 -11   18.04    1.36
  -4   2  11   16.79    1.43
   4   2 -11   16.55    1.72
  -4   2  11   17.59    1.63
   4   2 -11   12.52    1.44
   4   2 -11   17.20    1.83
  -4   2  11   15.67    1.77
   3  -2 -11   13.69    1.39
   3  -2 -11   16.66    1.52
  -3  -2  11   16.63    1.19
  -3  -2  11   15.05    1.53
   3  -2 -11   15.15    1.51
  -3   2  11   14.10    1.45
  -3   2  11   13.50    1.34
   3   2 -11   16.48    1.76
  -3   2  11   12.76    1.44
   3   2 -11   15.40    1.62
   3   2 -11   14.67    1.35
   2  -2 -11    3.38    0.80
  -2  -2  11    2.46    1.01
  -2  -2  11    4.50    0.76
   2  -2 -11    4.11    1.09
   2  -2 -11    0.82    1.12
  -2   2  11    3.28    0.82
   2   2 -11    3.56    1.04
   2   2 -11    2.56    0.87
  -2   2  11    4.46    1.22
   2   2 -11    2.50    1.23
   1  -2 -11  119.89    4.27
   1  -2 -11  111.79    4.08
  -1  -2  11  109.29    4.13
   1  -2 -11  112.72    4.56
   1   2 -11  112.03    4.13
  -1   2  11  115.83    4.13
  -1   2  11  114.97    4.46
   1   2 -11  118.57    4.37
   1   2 -11  114.00    4.59
   0  -2  11    8.26    1.00
   0  -2 -11    8.42    1.04
   0  -2 -11   10.57    1.50
   0   2  11    9.04    1.15
   0   2 -11   10.12    1.19
   0   2  11   10.02    1.41
   0   2 -11    7.27    1.41
   0   2 -11    8.59    1.26
   1  -2  11    2.55    0.80
  -1  -2 -11    1.93    1.14
  -1  -2 -11    0.72    0.80
   1   2  11    1.28    1.01
  -1   2 -11    2.22    0.84
  -1   2 -11    1.38    1.12
   1   2  11    2.01    0.84
  -1   2 -11    2.51    0.77
  -2  -2 -11    0.45    1.05
   2  -2  11    1.49    0.74
  -2  -2 -11    0.53    0.78
  -2   2 -11   -0.63    0.81
  -2   2 -11    1.37    1.16
  -2   2 -11    1.36    0.73
   2   2  11    1.48    0.79
  -8  -3  11    9.29    1.47
   7  -3 -11    7.24    1.14
  -7  -3  11    6.84    1.32
  -7  -3  11    6.20    1.32
  -7  -3  11    4.08    1.02
   7  -3 -11    7.37    1.39
   7  -3 -11    7.22    1.20
   7   3 -11    6.70    1.24
  -7   3  11    9.72    1.43
   7   3 -11    9.52    1.47
  -7   3  11    8.05    1.36
   7   3 -11    6.09    1.23
  -7   3  11    5.73    1.42
   6  -3 -11    0.65    0.73
   6  -3 -11   -0.90    0.71
  -6  -3  11    0.80    1.04
  -6  -3  11    0.35    0.68
   6  -3 -11   -0.39    1.03
  -6   3  11    0.22    1.01
  -6   3  11    1.45    1.14
   6   3 -11    2.91    1.28
   6   3 -11   -0.63    0.84
  -6   3  11   -0.32    0.90
   6   3 -11    0.64    0.78
  -6   3  11    0.80    0.75
  -5  -3  11    7.81    1.03
  -5  -3  11    9.85    1.26
   5  -3 -11    8.79    1.51
   5  -3 -11   11.25    1.46
   5  -3 -11    8.10    1.35
  -5   3  11   11.60    1.53
   5   3 -11    9.02    1.23
  -5   3  11   10.71    1.70
   5   3 -11    9.76    1.40
   5   3 -11    9.97    1.34
  -5   3  11   13.17    1.50
  -4  -3  11   24.76    1.71
   4  -3 -11   18.72    1.74
   4  -3 -11   23.33    1.65
  -4  -3  11   20.33    1.70
  -4   3  11   23.86    1.87
   4   3 -11   26.34    2.22
   4   3 -11   22.67    1.87
  -4   3  11   21.70    1.94
   4   3 -11   28.44    2.33
  -4   3  11   23.73    1.92
  -3  -3  11    0.46    0.64
   3  -3 -11    0.61    0.70
   3  -3 -11    1.23    0.68
   3  -3 -11    0.92    0.82
  -3  -3  11    0.83    0.74
   3   3 -11    1.35    0.83
   3   3 -11    1.16    0.77
  -3   3  11    0.88    0.74
  -3   3  11    1.82    1.22
   3   3 -11    1.32    0.85
   2  -3 -11   13.86    1.39
  -2  -3  11   15.45    1.51
   2  -3 -11   12.22    1.43
   2   3 -11   15.50    1.77
   2   3 -11   12.74    1.45
  -2   3  11   12.37    1.65
   2   3 -11   12.73    1.58
  -2   3  11   16.37    1.52
  -1  -3  11    3.18    0.81
   1  -3 -11    3.91    0.91
   1  -3 -11    3.34    1.23
  -1   3  11    3.23    1.25
  -1   3  11    3.80    1.02
   1   3 -11    3.30    1.10
   1   3 -11    2.98    0.79
   1   3 -11    4.34    1.30
   0  -3 -11    8.81    1.50
   0  -3  11    9.29    1.07
   0  -3 -11    8.81    1.13
   0   3  11   10.59    1.25
   0   3 -11   10.49    1.42
   0   3  11   11.97    1.59
   0   3 -11   10.65    1.36
   0   3 -11    7.42    1.17
  -1  -3 -11   -0.98    1.04
   1  -3  11    0.26    0.82
  -1   3 -11    0.06    0.83
  -1   3 -11    0.84    0.85
  -1   3 -11    0.64    0.99
   1   3  11   -0.14    0.87
  -2  -3 -11   16.75    1.65
   2  -3  11   14.82    1.25
  -2   3 -11   15.27    1.71
  -2   3 -11   16.21    1.48
   2   3  11   16.39    1.43
  -2   3 -11   16.16    1.39
  -6  -4  11    7.22    1.30
   6  -4 -11    5.71    1.33
  -6  -4  11    5.43    1.38
   6  -4 -11    3.62    1.23
   6  -4 -11    7.17    1.47
   6   4 -11    4.61    1.16
  -6   4  11    7.24    1.49
  -6   4  11    7.06    1.12
   6   4 -11    6.48    1.53
  -6   4  11    5.04    1.28
   6   4 -11    5.49    1.09
  -6   4  11    5.81    1.31
   5  -4 -11   -0.22    0.72
   5  -4 -11   -0.36    0.78
  -5  -4  11    0.64    0.64
  -5  -4  11    1.82    1.15
   5  -4 -11   -0.37    1.03
   5   4 -11    0.43    0.83
   5   4 -11   -0.04    0.75
  -5   4  11    0.64    1.07
  -5   4  11   -0.63    1.29
   5   4 -11    1.70    1.27
  -4  -4  11    8.82    1.10
   4  -4 -11    9.18    1.36
   4  -4 -11    9.88    1.60
  -4  -4  11    7.43    1.39
   4   4 -11    7.42    1.15
  -4   4  11    6.81    1.10
   4   4 -11    8.37    1.29
   4   4 -11    6.12    1.45
  -4   4  11    7.85    1.63
   3  -4 -11    1.25    1.22
  -3  -4  11    1.83    1.08
   3  -4 -11    1.63    0.91
   3   4 -11    2.42    1.13
  -3   4  11    1.14    0.92
  -3   4  11    1.35    0.79
   3   4 -11    1.33    1.20
   3   4 -11    2.20    1.26
   2  -4 -11   19.01    1.96
   2  -4 -11   18.79    1.59
  -2  -4  11   16.57    1.64
   2   4 -11   16.00    1.84
   2   4 -11   17.15    1.65
  -2   4  11   18.79    1.57
  -2   4  11   17.60    1.78
   2   4 -11   16.64    1.70
   1  -4 -11    2.92    0.98
  -1  -4  11    1.09    0.71
  -1   4  11    1.25    0.91
   1   4 -11    1.63    1.23
   1   4 -11   -0.25    0.90
   1   4 -11    1.56    1.19
  -1   4  11    2.54    1.10
   0  -4  11    0.07    0.90
   0  -4 -11    1.35    1.27
   0   4 -11    0.45    0.89
   0   4  11   -0.07    0.93
   0   4 -11    0.15    0.87
   0   4 -11   -0.07    1.05
   3  -5 -11   77.42    3.91
  -3  -5  11   76.99    3.42
  -3   5  11   84.69    3.90
   3   5 -11   78.51    3.64
   3   5 -11   79.44    3.40
  -3   5  11   79.57    3.60
   3   5 -11   78.37    3.88
   2   5 -11    0.47    1.08
  -2   5  11   -0.10    1.08
  -8   0  12    0.29    0.79
   8   0 -12    1.47    0.85
  -8   0  12    0.38    1.18
   8   0 -12    0.78    1.13
  -8   0  12    3.27    1.20
  -7   0  12   -0.61    0.68
   7   0 -12   -0.78    1.04
  -7   0  12   -1.37    0.72
   7   0 -12    0.71    1.03
  -7   0  12   -0.61    1.07
   6   0 -12    0.41    1.09
   6   0 -12    1.96    1.34
  -6   0  12    1.41    1.14
  -6   0  12    3.37    0.93
   6   0 -12    0.88    1.02
  -5   0  12    0.25    0.69
   5   0 -12    0.29    1.06
   5   0 -12    0.80    1.19
  -5   0  12   -0.05    0.94
   4   0 -12   46.85    2.39
   4   0 -12   43.47    2.62
  -4   0  12   50.67    2.45
  -4   0  12   47.56    2.46
   3   0 -12    0.55    0.98
  -3   0  12    0.03    0.78
  -3   0  12    0.75    0.98
   3   0 -12    0.21    0.75
   2   0 -12    1.96    0.85
  -2   0  12    1.61    0.98
   2   0 -12    0.73    0.96
  -2   0  12    0.41    0.94
   2   0 -12    1.22    0.99
  -2   0  12    0.95    0.72
   1   0 -12   -1.11    0.79
  -1   0  12   -0.28    0.58
   1   0 -12   -0.90    0.96
   1   0 -12    1.04    0.90
  -1   0  12   -0.14    0.60
   0   0 -12   77.30    3.61
   0   0 -12   79.65    3.19
   0   0  12   82.18    3.32
   0   0  12   77.79    3.20
   0   0 -12   78.07    3.27
  -1   0 -12   -0.69    0.97
  -1   0 -12    0.50    0.79
   1   0  12    0.53    0.79
  -8  -1  12   32.33    2.40
  -8  -1  12   32.34    2.09
   8  -1 -12   31.73    2.21
   8  -1 -12   38.35    2.53
  -8  -1  12   30.36    2.19
  -8   1  12   30.46    2.55
  -8   1  12   31.11    2.09
   8   1 -12   29.62    2.27
  -8   1  12   35.55    2.13
  -7  -1  12    1.60    1.17
   7  -1 -12   -0.57    1.13
   7  -1 -12    0.73    0.79
  -7  -1  12    0.88    1.10
   7  -1 -12    2.08    0.89
  -7  -1  12    1.75    0.85
  -7   1  12    3.49    1.26
  -7   1  12    0.90    1.11
  -7   1  12    2.13    1.16
   7   1 -12    3.71    1.24
   7   1 -12    1.48    1.35
  -6  -1  12   -0.54    0.64
  -6  -1  12    1.07    1.08
   6  -1 -12    0.21    0.80
   6  -1 -12   -1.47    0.94
   6  -1 -12   -0.71    0.72
   6   1 -12   -0.43    1.21
  -6   1  12    0.28    0.76
   6   1 -12   -0.60    0.72
  -6   1  12    0.34    1.09
  -5  -1  12   21.12    1.86
   5  -1 -12   21.53    1.74
   5  -1 -12   20.18    1.87
   5  -1 -12   18.47    1.98
  -5  -1  12   23.24    1.78
   5   1 -12   24.67    1.97
  -5   1  12   20.82    1.82
  -5   1  12   21.98    1.86
   5   1 -12   17.85    2.01
   4  -1 -12   71.14    3.48
   4  -1 -12   73.65    3.37
  -4  -1  12   73.91    3.03
   4  -1 -12   68.79    3.01
  -4  -1  12   70.47    3.05
   4   1 -12   70.83    3.05
  -4   1  12   67.49    3.24
   4   1 -12   67.52    3.32
  -4   1  12   73.65    3.24
  -4   1  12   68.13    3.08
  -3  -1  12    0.39    0.75
   3  -1 -12    1.35    0.89
  -3  -1  12    0.95    0.76
   3  -1 -12    1.44    1.08
   3  -1 -12   -0.43    0.92
  -3   1  12    0.26    0.97
  -3   1  12    0.15    0.84
  -3   1  12    1.78    1.14
   3   1 -12    2.62    1.08
   3   1 -12    0.65    1.03
   3   1 -12    0.88    1.18
   2  -1 -12   29.49    2.39
  -2  -1  12   24.34    1.55
   2  -1 -12   26.31    1.70
   2  -1 -12   24.88    2.09
  -2  -1  12   25.58    2.00
  -2   1  12   23.93    1.83
   2   1 -12   31.02    2.38
  -2   1  12   24.33    1.69
   2   1 -12   29.29    2.01
  -2   1  12   25.27    1.58
   2   1 -12   26.77    2.12
   1  -1 -12   22.97    1.85
  -1  -1  12   23.57    1.65
   1  -1 -12   26.72    2.09
   1  -1 -12   24.61    1.66
   1  -1 -12   24.45    2.01
   1   1 -12   27.45    2.31
  -1   1  12   27.18    1.96
   1   1 -12   24.89    1.66
   1   1 -12   24.58    2.02
  -1   1  12   27.97    1.85
  -1   1  12   24.51    1.67
   0  -1 -12   10.24    1.19
   0  -1  12   11.97    1.34
   0  -1 -12   11.07    1.41
   0  -1 -12   14.06    1.35
   0  -1 -12   11.60    1.32
   0   1  12   12.05    1.47
   0   1 -12   10.73    1.37
   0   1  12   12.45    1.31
   0   1 -12   10.62    1.31
   0   1 -12   12.51    1.39
  -1  -1 -12    0.88    0.97
   1  -1  12    0.88    0.83
  -1  -1 -12    1.43    0.89
  -1  -1 -12    1.68    0.62
  -1   1 -12    1.81    0.88
   1   1  12    1.90    0.87
  -1   1 -12    1.67    0.85
  -1   1 -12    0.61    0.80
   1   1  12    2.08    0.99
   7  -2 -12   36.03    2.70
  -7  -2  12   38.25    2.26
   7  -2 -12   38.55    2.56
   7  -2 -12   37.78    2.28
  -7  -2  12   44.23    2.40
  -7   2  12   37.55    2.55
   7   2 -12   42.85    2.71
  -7   2  12   40.03    2.46
   7   2 -12   34.00    2.49
  -7   2  12   33.71    2.59
   6  -2 -12   91.37    3.82
   6  -2 -12   83.18    3.69
  -6  -2  12   96.35    3.71
   6  -2 -12   95.45    4.12
  -6  -2  12   88.93    3.72
   6   2 -12   81.25    3.90
   6   2 -12   87.14    3.80
  -6   2  12   81.93    3.58
  -6   2  12   88.49    3.79
   6   2 -12   82.69    3.83
  -5  -2  12   23.62    1.94
   5  -2 -12   19.37    2.01
   5  -2 -12   22.19    1.88
   5  -2 -12   17.65    1.74
  -5  -2  12   21.33    1.72
   5   2 -12   23.35    2.14
  -5   2  12   25.53    1.79
   5   2 -12   24.31    2.05
  -5   2  12   19.92    1.93
  -5   2  12   22.38    1.95
   5   2 -12   24.52    1.99
   4  -2 -12    1.57    0.79
   4  -2 -12   -0.80    0.68
  -4  -2  12   -0.08    0.80
  -4  -2  12    0.73    1.06
   4  -2 -12    1.47    1.25
   4   2 -12    0.74    1.17
  -4   2  12   -0.83    0.71
   4   2 -12    1.17    1.23
   4   2 -12    0.86    1.11
  -4   2  12    0.71    1.00
  -4   2  12    1.29    0.90
   3  -2 -12    3.60    1.33
  -3  -2  12    6.97    1.29
   3  -2 -12    6.88    1.28
  -3  -2  12    6.37    0.97
   3  -2 -12    6.11    1.01
  -3   2  12    8.19    1.24
   3   2 -12    6.38    1.34
  -3   2  12    6.53    1.19
   3   2 -12    4.73    1.41
   3   2 -12    6.80    1.30
  -3   2  12    7.95    1.30
   2  -2 -12   66.59    2.94
   2  -2 -12   62.53    3.12
   2  -2 -12   61.14    3.02
  -2  -2  12   65.36    3.00
  -2   2  12   56.64    2.96
   2   2 -12   61.24    2.94
  -2   2  12   67.46    3.02
  -2   2  12   60.21    2.67
   2   2 -12   64.63    3.00
   2   2 -12   61.50    3.33
   1  -2 -12   68.73    3.45
   1  -2 -12   58.88    2.94
   1  -2 -12   57.78    2.79
  -1  -2  12   60.81    2.71
  -1   2  12   60.54    2.73
  -1   2  12   59.11    2.94
   1   2 -12   60.61    2.85
  -1   2  12   61.13    2.69
   1   2 -12   62.97    3.07
   1   2 -12   64.56    3.36
   0  -2 -12   12.66    1.43
   0  -2 -12    9.37    1.10
   0  -2  12   13.08    1.35
   0  -2 -12   10.98    1.69
   0   2 -12   12.64    1.50
   0   2 -12   10.99    1.64
   0   2  12   11.31    1.19
   0   2  12    9.97    1.47
   0   2 -12   11.65    1.19
   1  -2  12    3.03    0.96
  -1  -2 -12    2.05    0.69
  -1  -2 -12    3.42    0.99
  -1  -2 -12    2.30    1.30
  -1   2 -12    3.66    1.07
  -1   2 -12    3.29    0.96
   1   2  12    2.04    1.10
  -1   2 -12    3.22    1.29
   1   2  12    2.86    0.95
   6  -3 -12    0.48    1.17
  -6  -3  12    0.31    0.82
   6  -3 -12    1.19    1.16
  -6  -3  12   -0.34    0.71
   6  -3 -12    0.72    1.28
   6   3 -12    0.09    1.32
  -6   3  12    1.75    1.21
   6   3 -12   -0.66    1.25
  -6   3  12    0.17    1.39
   6   3 -12    0.60    1.18
  -6   3  12    1.11    1.17
   5  -3 -12   35.59    2.39
   5  -3 -12   34.74    2.20
  -5  -3  12   39.53    2.29
  -5  -3  12   36.00    2.21
  -5   3  12   34.79    2.52
   5   3 -12   38.92    2.72
  -5   3  12   38.21    2.53
  -5   3  12   38.62    2.52
   5   3 -12   35.16    2.77
   5   3 -12   34.54    2.48
   4  -3 -12    2.65    1.14
  -4  -3  12    4.29    0.96
  -4  -3  12    6.40    1.37
   4  -3 -12    2.86    1.04
   4  -3 -12    3.91    1.22
  -4   3  12    5.73    1.32
   4   3 -12    5.25    1.29
   4   3 -12    3.85    1.08
  -4   3  12    4.26    1.19
   4   3 -12    4.84    1.44
  -4   3  12    2.42    1.23
   3  -3 -12   51.04    2.71
   3  -3 -12   52.59    2.87
   3  -3 -12   53.81    2.79
  -3  -3  12   56.68    2.66
   3   3 -12   49.97    2.78
   3   3 -12   51.57    2.89
  -3   3  12   53.20    3.18
  -3   3  12   46.79    2.74
   3   3 -12   50.78    2.78
   2  -3 -12    5.90    1.23
   2  -3 -12    8.12    1.31
  -2  -3  12    7.18    1.29
   2  -3 -12    7.89    1.19
   2   3 -12    6.62    1.18
   2   3 -12    4.87    1.25
  -2   3  12    4.83    1.45
   2   3 -12    7.70    1.60
  -2   3  12    6.18    1.04
   1  -3 -12   10.73    1.32
   1  -3 -12   10.86    1.71
  -1  -3  12    9.86    1.21
  -1   3  12   10.54    1.40
   1   3 -12    9.05    1.35
   1   3 -12   13.23    1.58
  -1   3  12   15.22    1.58
   0  -3 -12   36.45    2.70
   0  -3  12   28.34    2.08
   0   3  12   30.68    2.20
   0   3 -12   29.63    2.27
   0   3 -12   31.44    2.13
   0   3  12   32.88    1.91
   0   3 -12   34.33    2.16
   4  -4 -12    3.38    0.94
   4  -4 -12    3.84    1.47
  -4  -4  12    2.14    0.99
   4   4 -12    0.59    1.23
   4   4 -12    3.97    1.50
  -4   4  12    3.26    1.13
  -4   4  12    3.95    1.29
   3  -4 -12   14.54    1.55
  -3  -4  12   14.69    1.70
   3  -4 -12   15.42    1.68
   3  -4 -12   15.75    1.94
   3   4 -12   12.40    1.85
   3   4 -12   15.46    1.70
  -3   4  12   15.83    1.70
   3   4 -12   10.50    1.56
  -3   4  12   13.39    1.73
   6   0 -13    0.61    1.19
   6   0 -13    0.28    1.31
  -6   0  13    0.55    1.08
  -6   0  13    0.32    0.81
   5   0 -13   30.51    2.59
   5   0 -13   33.48    2.11
  -5   0  13   31.84    2.41
  -5   0  13   31.06    2.23
  -4   0  13   -2.22    0.96
   4   0 -13   -0.35    0.78
   4   0 -13   -0.13    1.08
  -4   0  13   -2.47    0.86
  -3   0  13   14.04    1.62
   3   0 -13   12.70    1.73
   3   0 -13   14.12    1.72
  -3   0  13   12.63    1.35
   3   0 -13   14.27    1.59
   2   0 -13   -0.77    1.07
   2   0 -13   -1.08    0.61
  -2   0  13    1.56    1.04
   2   0 -13   -0.77    0.98
   1   0 -13    6.25    1.21
   1   0 -13    6.68    1.24
   1   0 -13    6.52    1.45
  -1   0  13    6.32    1.24
  -1   0  13    6.94    1.22
   6  -1 -13    9.82    1.46
   6  -1 -13    8.68    1.54
  -6  -1  13    8.73    1.50
   6  -1 -13    4.54    1.55
  -6  -1  13   11.25    1.52
   6   1 -13   11.27    1.86
  -6   1  13   10.04    1.54
  -6   1  13   11.28    1.35
   6   1 -13    7.91    1.27
  -5  -1  13   29.20    2.03
   5  -1 -13   27.78    2.39
   5  -1 -13   31.60    2.35
  -5  -1  13   28.27    1.81
   5  -1 -13   29.38    2.23
  -5   1  13   24.96    2.03
   5   1 -13   26.89    2.46
   5   1 -13   26.53    2.12
  -5   1  13   28.39    2.01
   4  -1 -13    8.23    1.54
   4  -1 -13    7.11    1.15
  -4  -1  13    8.97    1.21
  -4  -1  13    6.75    1.41
   4  -1 -13    6.28    1.54
  -4   1  13    7.82    1.53
   4   1 -13    7.01    1.58
  -4   1  13    7.38    1.40
   4   1 -13    8.30    1.55
   4   1 -13    6.47    1.38
  -4   1  13    6.29    1.28
   3  -1 -13    7.24    1.44
  -3  -1  13    8.48    1.11
   3  -1 -13    7.59    1.55
   3  -1 -13    6.40    1.30
  -3  -1  13    9.02    1.44
  -3   1  13    8.37    1.30
  -3   1  13   10.79    1.31
   3   1 -13    9.96    1.63
   3   1 -13    5.91    1.42
  -3   1  13    8.71    1.40
   3   1 -13    8.01    1.37
   2  -1 -13   29.95    2.62
   2  -1 -13   31.31    2.18
   2  -1 -13   31.35    2.40
  -2  -1  13   31.14    2.23
  -2   1  13   28.67    2.06
  -2   1  13   31.62    2.24
  -2   1  13   33.94    2.02
   2   1 -13   31.26    2.10
   2   1 -13   34.06    2.31
   2   1 -13   26.99    2.15
   1  -1 -13    1.01    0.70
   1  -1 -13    1.99    1.31
   1  -1 -13    0.09    0.93
   1  -1 -13    0.95    0.81
  -1  -1  13   -0.48    0.67
   1   1 -13   -0.67    0.66
   1   1 -13    1.53    0.94
  -1   1  13    0.82    0.99
   1   1 -13    0.32    0.99
  -1   1  13    0.18    1.00
   5  -2 -13    4.72    1.47
  -5  -2  13    3.40    1.29
  -5  -2  13    5.88    1.22
   5  -2 -13    4.68    1.40
   5  -2 -13    2.35    1.26
   5   2 -13    5.55    1.41
   5   2 -13    5.31    1.48
  -5   2  13    3.84    1.24
  -5   2  13    4.84    1.11
  -5   2  13    5.29    1.26
   5   2 -13    8.97    1.69
  -4  -2  13   15.64    1.40
   4  -2 -13   13.38    1.86
  -4  -2  13   13.09    1.66
   4  -2 -13   13.71    1.72
   4  -2 -13   13.31    1.47
   4   2 -13   10.99    1.82
   4   2 -13   11.57    1.51
  -4   2  13   12.68    1.61
  -4   2  13   11.03    1.33
  -4   2  13   11.48    1.58
   4   2 -13   15.56    1.75
   3  -2 -13   25.02    2.18
  -3  -2  13   22.34    1.95
   3  -2 -13   20.07    2.14
   3  -2 -13   22.62    1.95
   3   2 -13   21.54    2.05
   3   2 -13   23.64    1.99
   3   2 -13   24.39    2.14
  -3   2  13   21.81    1.92
  -3   2  13   22.26    1.80
  -3   2  13   21.99    1.97
   2  -2 -13   11.67    1.30
  -2  -2  13   10.69    1.29
   2  -2 -13    8.72    1.43
   2  -2 -13   10.04    1.72
  -2   2  13   10.32    1.48
  -2   2  13    9.79    1.34
   2   2 -13   12.17    1.34
   2   2 -13   11.41    1.45
   2   2 -13    8.03    1.65
  -2   2  13    8.43    1.59
   0   0   0    0.00    0.00
;
loop_
_symmetry_equiv_pos_as_xyz
'x, y, z'
'-x+1/2, y+1/2, -z+1/2'
'-x, -y, -z'
'x-1/2, -y-1/2, z-1/2'
loop_
_atom_site_label
_atom_site_type_symbol
_atom_site_fract_x
_atom_site_fract_y
_atom_site_fract_z
_atom_site_U_iso_or_equiv
_atom_site_adp_type
_atom_site_occupancy
_atom_site_site_symmetry_order
_atom_site_calc_flag
_atom_site_refinement_flags_posn
_atom_site_refinement_flags_adp
C1 C 0.8455(5) 0.8608(6) 0.0553(4) 0.0155(8) Uani 1 1 d . .
H1A H 0.829045 0.748712 -0.004005 0.019 Uiso 1 1 calc R U
H1B H 0.760649 0.955679 0.017109 0.019 Uiso 1 1 calc R U
C2 C 1.0030(5) 0.9572(6) 0.0652(4) 0.0177(9) Uani 1 1 d . .
H2A H 1.026015 1.062134 0.130237 0.021 Uiso 1 1 calc R U
H2B H 1.08782 0.859386 0.092857 0.021 Uiso 1 1 calc R U
C3 C 1.0099(5) 0.6351(6) 0.2777(4) 0.0184(9) Uani 1 1 d . .
H3A H 1.0995 0.726335 0.298417 0.022 Uiso 1 1 calc R U
H3B H 1.00846 0.575633 0.358988 0.022 Uiso 1 1 calc R U
C4 C 1.0363(5) 0.4747(6) 0.1914(4) 0.0241(10) Uani 1 1 d . .
H4A H 0.945282 0.387946 0.165671 0.036 Uiso 1 1 calc R U
H4B H 1.129804 0.400033 0.237983 0.036 Uiso 1 1 calc R U
H4C H 1.050592 0.533186 0.114945 0.036 Uiso 1 1 calc R U
S1 S 0.82800(11) 0.77460(14) 0.20804(9) 0.0132(2) Uani 1 1 d . .
Cl1 Cl 0.86879(12) 0.86458(16) 0.55181(10) 0.0232(3) Uani 1 1 d . .
Cu1 Cu 0.86741(6) 1.03685(8) 0.35699(5) 0.02051(17) Uani 1 1 d . .
loop_
_atom_site_aniso_label
_atom_site_aniso_U_11
_atom_site_aniso_U_22
_atom_site_aniso_U_33
_atom_site_aniso_U_23
_atom_site_aniso_U_13
_atom_site_aniso_U_12
C1 0.016(2) 0.0155(19) 0.0129(19) 0.0033(16) 0.0026(16) 0.0008(16)
C2 0.018(2) 0.018(2) 0.017(2) 0.0010(17) 0.0057(17) -0.0026(18)
C3 0.015(2) 0.019(2) 0.017(2) 0.0049(17) 0.0004(17) 0.0020(17)
C4 0.025(3) 0.020(2) 0.028(2) 0.0042(19) 0.010(2) 0.0083(19)
S1 0.0134(5) 0.0137(5) 0.0125(5) -0.0001(4) 0.0042(4) -0.0004(4)
Cl1 0.0192(6) 0.0290(6) 0.0200(5) 0.0068(4) 0.0045(4) -0.0059(4)
Cu1 0.0182(3) 0.0245(3) 0.0188(3) -0.0002(2) 0.0059(2) 0.0039(2)
loop_
_atom_type_symbol
_atom_type_description
_atom_type_scat_dispersion_real
_atom_type_scat_dispersion_imag
_atom_type_scat_source
C C 0.0033 0.0016 'International Tables Vol C Tables 4.2.6.8 and 6.1.1.4'
H H 0 0 'International Tables Vol C Tables 4.2.6.8 and 6.1.1.4'
S S 0.1246 0.1234 'International Tables Vol C Tables 4.2.6.8 and 6.1.1.4'
Cl Cl 0.1484 0.1585 'International Tables Vol C Tables 4.2.6.8 and 6.1.1.4'
Cu Cu 0.3201 1.2651 'International Tables Vol C Tables 4.2.6.8 and 6.1.1.4'
loop_
_geom_angle_atom_site_label_1
_geom_angle_atom_site_label_2
_geom_angle_atom_site_label_3
_geom_angle
_geom_angle_site_symmetry_1
_geom_angle_site_symmetry_3
C2 C1 S1 115.2(3) . .
C2 C2 C1 110.3(4) 3_775 .
C4 C3 S1 114.5(3) . .
C1 S1 C3 102.63(19) . .
C1 S1 Cu1 102.96(13) . 2_645
C3 S1 Cu1 104.34(14) . 2_645
C1 S1 Cu1 110.50(13) . .
C3 S1 Cu1 101.07(14) . .
Cu1 S1 Cu1 131.81(4) 2_645 .
Cu1 Cl1 Cu1 87.26(4) 3_776 .
S1 Cu1 Cl1 119.14(4) 2_655 3_776
S1 Cu1 S1 112.73(2) 2_655 .
Cl1 Cu1 S1 114.41(4) 3_776 .
S1 Cu1 Cl1 113.19(4) 2_655 .
Cl1 Cu1 Cl1 92.74(4) 3_776 .
S1 Cu1 Cl1 101.38(4) . .
loop_
_geom_bond_atom_site_label_1
_geom_bond_atom_site_label_2
_geom_bond_distance
_geom_bond_site_symmetry_2
C1 C2 1.526(5) .
C1 S1 1.822(4) .
C2 C2 1.524(7) 3_775
C3 C4 1.509(6) .
C3 S1 1.823(4) .
S1 Cu1 2.3165(11) 2_645
S1 Cu1 2.3615(11) .
Cl1 Cu1 2.3419(12) 3_776
Cl1 Cu1 2.4259(11) .
loop_
_geom_hbond_atom_site_label_D
_geom_hbond_atom_site_label_H
_geom_hbond_atom_site_label_A
_geom_hbond_distance_DH
_geom_hbond_distance_HA
_geom_hbond_distance_DA
_geom_hbond_angle_DHA
_geom_hbond_site_symmetry_A
C1 H1B Cl1 0.98 3.01 3.913(4) 153.6 2_655
C4 H4B Cl1 0.97 2.91 3.516(4) 121.3 3_766
C1 H1B Cl1 0.98 3.01 3.913(4) 153.6 2_655
C4 H4B Cl1 0.97 2.91 3.516(4) 121.3 3_766
