#------------------------------------------------------------------------------
#$Date: 2019-09-10 03:35:06 +0300 (Tue, 10 Sep 2019) $
#$Revision: 218107 $
#$URL: file:///home/coder/svn-repositories/cod/cif/7/23/37/7233724.cif $
#------------------------------------------------------------------------------
#
# This file is available in the Crystallography Open Database (COD),
# http://www.crystallography.net/
#
# All data on this site have been placed in the public domain by the
# contributors.
#
data_7233724
loop_
_publ_author_name
'Molcanov, Kresimir'
'Milasinovic, Valentina'
'Ivic, Nives'
'Stilinovi\'c, Vladimir'
'Kolaric, Dinko'
'Kojic-Prodic, Biserka'
_publ_section_title
;
 Influence of organic cations on stacking of semiquinone radical anions
;
_journal_name_full               CrystEngComm
_journal_paper_doi               10.1039/C9CE00919A
_journal_year                    2019
_chemical_formula_moiety         '2(C6 Br4 O2), 2(C1.50 O0.50), C6 H9 N2'
_chemical_formula_sum            'C21 H9 Br8 N2 O5'
_chemical_formula_weight         1008.50
_chemical_name_systematic
'N-methylpyridinium tetrabromosemiquinonate acetone solvate'
_space_group_IT_number           2
_space_group_name_Hall           '-P 1'
_space_group_name_H-M_alt        'P -1'
_symmetry_cell_setting           triclinic
_symmetry_space_group_name_Hall  '-P 1'
_symmetry_space_group_name_H-M   'P -1'
_atom_sites_solution_hydrogens   geom
_audit_creation_date             2019-03-26T15:38:08-00:00
_audit_creation_method           'WinGX routine CIF_UPDATE'
_audit_update_record
;
2019-06-10 deposited with the CCDC.    2019-09-02 downloaded from the CCDC.
;
_cell_angle_alpha                91.145(6)
_cell_angle_beta                 91.064(5)
_cell_angle_gamma                92.337(5)
_cell_formula_units_Z            1
_cell_length_a                   3.7890(2)
_cell_length_b                   12.3018(9)
_cell_length_c                   13.8689(9)
_cell_measurement_reflns_used    3025
_cell_measurement_temperature    100(2)
_cell_measurement_theta_max      75.928
_cell_measurement_theta_min      3.574
_cell_volume                     645.66(7)
_computing_cell_refinement       'CrysAlisPro 1.171.39.46 (Rigaku OD, 2018)'
_computing_data_collection       'CrysAlisPro 1.171.39.46 (Rigaku OD, 2018)'
_computing_data_reduction        'CrysAlisPro 1.171.39.46 (Rigaku OD, 2018)'
_computing_structure_refinement  'SHELXL-2017/1 (Sheldrick, 2017)'
_diffrn_ambient_temperature      100(2)
_diffrn_detector_area_resol_mean 10.4323
_diffrn_measured_fraction_theta_full 0.998
_diffrn_measured_fraction_theta_max 0.985
_diffrn_measurement_device_type  'Xcalibur, Ruby, Nova'
_diffrn_measurement_method       '\w scans'
_diffrn_radiation_monochromator  mirror
_diffrn_radiation_type           CuK\a
_diffrn_radiation_wavelength     1.54184
_diffrn_reflns_av_R_equivalents  0.0371
_diffrn_reflns_av_unetI/netI     0.0533
_diffrn_reflns_Laue_measured_fraction_full 0.998
_diffrn_reflns_Laue_measured_fraction_max 0.985
_diffrn_reflns_limit_h_max       3
_diffrn_reflns_limit_h_min       -4
_diffrn_reflns_limit_k_max       15
_diffrn_reflns_limit_k_min       -14
_diffrn_reflns_limit_l_max       17
_diffrn_reflns_limit_l_min       -17
_diffrn_reflns_number            4871
_diffrn_reflns_point_group_measured_fraction_full 0.998
_diffrn_reflns_point_group_measured_fraction_max 0.985
_diffrn_reflns_theta_full        67.684
_diffrn_reflns_theta_max         76.246
_diffrn_reflns_theta_min         3.188
_diffrn_source                   'micro-focus sealed X-ray tube'
_exptl_absorpt_coefficient_mu    15.101
_exptl_absorpt_correction_T_max  1
_exptl_absorpt_correction_T_min  0.44844
_exptl_absorpt_correction_type   multi-scan
_exptl_absorpt_process_details
;
        CrysAlisPro 1.171.39.46 (Rigaku Oxford Diffraction, 2018)
        Empirical absorption correction using spherical harmonics,
 implemented in SCALE3 ABSPACK scaling algorithm.
;
_exptl_crystal_colour            black
_exptl_crystal_density_diffrn    2.594
_exptl_crystal_description       rod
_exptl_crystal_F_000             443
_exptl_crystal_recrystallization_method
'Re-crystallisation from solvent: acetone'
_exptl_crystal_size_max          0.20
_exptl_crystal_size_mid          0.05
_exptl_crystal_size_min          0.03
_refine_diff_density_max         0.683
_refine_diff_density_min         -0.802
_refine_diff_density_rms         0.158
_refine_ls_extinction_coef       0.0009(2)
_refine_ls_extinction_method     'SHELXL-2017/1 (Sheldrick 2017)'
_refine_ls_goodness_of_fit_ref   1.062
_refine_ls_hydrogen_treatment    constr
_refine_ls_matrix_type           full
_refine_ls_number_parameters     182
_refine_ls_number_reflns         2660
_refine_ls_number_restraints     31
_refine_ls_restrained_S_all      1.07
_refine_ls_R_factor_all          0.0373
_refine_ls_R_factor_gt           0.0344
_refine_ls_shift/su_max          0.001
_refine_ls_shift/su_mean         0
_refine_ls_structure_factor_coef Fsqd
_refine_ls_weighting_details
'w=1/[\s^2^(Fo^2^)+(0.0538P)^2^] where P=(Fo^2^+2Fc^2^)/3'
_refine_ls_weighting_scheme      calc
_refine_ls_wR_factor_ref         0.094
_reflns_number_gt                2423
_reflns_number_total             2660
_reflns_threshold_expression     'I > 2\s(I)'
_iucr_refine_instructions_details
;
TITL Br4Q in P-1
    shelx.res
    created by SHELXL-2017/1 at 15:37:59 on 26-Mar-2019
CELL  1.54184   3.7890  12.3018  13.8689   91.145   91.064   92.337
ZERR     2.00   0.0002   0.0009   0.0009    0.006    0.005    0.005
LATT   1
SFAC  C    H    BR   N    O
UNIT  19 10 8 1 4
MERG   2
OMIT    3 9 6
OMIT    -3 -5 6
EXYZ N1 C6
EADP N1 C6
EXYZ N2 C7
EADP N2 C7
FREE C7 C6
FREE C4 C6
FREE C5 C6
BIND N2 N1
FREE N2 C6
FREE N2 C7
HTAB C4 O1B
HTAB C7 O1B
HTAB C7 O1A
HTAB N2 Br1A
HTAB N2 O1A
HTAB N2 O1B
DFIX  1.220 0.020 C8 O2
DFIX     1.540   0.020 C8 C10
DFIX     1.540   0.020 C9 C8
DANG     2.300   0.040 C9 C10
DANG     2.300   0.040 C9 O2
DANG     2.300   0.040 C10 O2
FLAT     0.100 O2 C8  C9 C10
DELU     0.010   0.010 O2 C8 C9 C10
SIMU     0.040   0.080   1.700 O2 C8 C9 C10
FMAP   2
PLAN   20
ACTA
BOND   $H
CONF
L.S.  10
WGHT    0.053800
EXTI    0.000854
FVAR       5.48770
MOLE    1
BR1A  3    0.254197    0.231098    0.096065    11.00000    0.02689    0.02939 =
         0.02865   -0.00430    0.00143    0.00347
BR2A  3    0.215990    0.186020   -0.146428    11.00000    0.02537    0.03420 =
         0.02571    0.00728   -0.00036    0.00390
O1A   5    0.534601    0.035929    0.191754    11.00000    0.07384    0.03153 =
         0.02078   -0.00052   -0.00164    0.00355
C1A   1    0.518224    0.019168    0.104504    11.00000    0.03863    0.02461 =
         0.02099    0.00288    0.00071   -0.00334
C2A   1    0.391315    0.100801    0.037752    11.00000    0.03004    0.02192 =
         0.02264    0.00183    0.00120   -0.00436
C3A   1    0.377001    0.082900   -0.058628    11.00000    0.02906    0.02250 =
         0.02132    0.00360    0.00209   -0.00636
MOLE    2
BR1B  3    0.773292    0.347739    0.682996    11.00000    0.02070    0.02033 =
         0.02685    0.00733    0.00452    0.00150
BR2B  3    1.240935    0.590847    0.717160    11.00000    0.02085    0.02739 =
         0.02356   -0.00385    0.00028   -0.00019
O1B   5    0.582717    0.319069    0.474950    11.00000    0.03895    0.02122 =
         0.03071   -0.00104    0.00723   -0.01450
C1B   1    0.780740    0.400742    0.486352    11.00000    0.02365    0.02004 =
         0.02482   -0.00273    0.00437   -0.00100
C2B   1    0.906647    0.438943    0.581591    11.00000    0.02239    0.01847 =
         0.02430    0.00492    0.00256    0.00154
C3B   1    1.100865    0.533515    0.595419    11.00000    0.02183    0.02020 =
         0.01918   -0.00051   -0.00065   -0.00332
MOLE    3
N1    4    0.077142    0.074358    0.428921    10.50000    0.02809    0.02142 =
         0.02051    0.00237    0.00465    0.00624
C4    1    0.143592    0.101284    0.525533    11.00000    0.03168    0.02068 =
         0.02404   -0.00078    0.00574    0.00310
AFIX  43
H4    2    0.239927    0.169778    0.542922    11.00000   -1.20000
AFIX   0
C5    1   -0.067256   -0.026996    0.404902    11.00000    0.03406    0.02137 =
         0.02098   -0.00083   -0.00161    0.00316
AFIX  43
H5    2   -0.113863   -0.045429    0.340430    11.00000   -1.20000
AFIX   0
C6    1    0.077142    0.074358    0.428921    10.50000    0.02809    0.02142 =
         0.02051    0.00237    0.00465    0.00624
C7    1    0.164197    0.150091    0.357419    10.50000    0.06042    0.01680 =
         0.02107    0.00225    0.01087   -0.00066
AFIX  33
H7A   2    0.261366    0.215936    0.387447    10.50000   -1.50000
H7B   2    0.335132    0.120216    0.315242    10.50000   -1.50000
H7C   2   -0.044575    0.165736    0.320837    10.50000   -1.50000
AFIX   0
N2    4    0.164197    0.150091    0.357419    10.50000    0.06042    0.01680 =
         0.02107    0.00225    0.01087   -0.00066
AFIX  93
H2A   2    0.127088    0.133186    0.297516    10.50000   -1.50000
H2B   2    0.254457    0.213235    0.373668    10.50000   -1.50000
AFIX   0
MOLE    4
O2    5   -0.229038    0.467618   -0.057315    10.50000    0.15872    0.03330 =
         0.03152    0.00185    0.01504   -0.00468
C8    1   -0.197971    0.512878    0.022635    10.50000    0.14562    0.04500 =
         0.04051   -0.00025    0.00996   -0.00009
C9    1   -0.488528    0.546371    0.085503    10.50000    0.19066    0.07066 =
         0.07100    0.00757    0.04208    0.02459
C10   1    0.122720    0.554041    0.080205    10.50000    0.18940    0.18721 =
         0.08978   -0.02604   -0.04256    0.00273
HKLF    4
 
 
 
 
REM  Br4Q in P-1
REM R1 =  0.0344 for    2423 Fo > 4sig(Fo)  and  0.0373 for all    2660 data
REM    182 parameters refined using     31 restraints
 
END
 
WGHT      0.0539      0.0000
 
REM Highest difference peak  0.683,  deepest hole -0.802,  1-sigma level  0.158
Q1    1   0.9811  0.3943  0.7090  11.00000  0.05    0.68
Q2    1  -0.1149  0.3048 -0.1768  11.00000  0.05    0.61
Q3    1   0.1921  0.2568 -0.2584  11.00000  0.05    0.59
Q4    1   1.0180  0.5422  0.6979  11.00000  0.05    0.57
Q5    1   1.0618  0.2087  0.6971  11.00000  0.05    0.54
Q6    1   0.5663  0.2984  0.6687  11.00000  0.05    0.54
Q7    1   0.1386  0.2946 -0.0235  11.00000  0.05    0.53
Q8    1   0.7339  0.2696  0.7819  11.00000  0.05    0.53
Q9    1   0.3040  0.3194  0.0170  11.00000  0.05    0.52
Q10   1   0.0139  0.1321 -0.1599  11.00000  0.05    0.51
Q11   1   0.7583  0.1564  0.1134  11.00000  0.05    0.51
Q12   1   1.4518  0.6379  0.7185  11.00000  0.05    0.51
Q13   1   1.0084  0.6196  0.6589  11.00000  0.05    0.50
Q14   1  -0.6121 -0.1033  0.3306  11.00000  0.05    0.50
Q15   1   0.0965  0.2001  0.2400  11.00000  0.05    0.49
Q16   1   0.7483  0.4094  0.5426  11.00000  0.05    0.49
Q17   1   0.7946  0.3562  0.7524  11.00000  0.05    0.49
Q18   1   0.3028  0.2264  0.1666  11.00000  0.05    0.49
Q19   1   0.1898  0.2326  0.0189  11.00000  0.05    0.48
Q20   1   0.1912  0.0990 -0.0726  11.00000  0.05    0.48
;
_cod_data_source_file            c9ce00919a2.cif
_cod_data_source_block           br4q_4ampy_100k_2
_cod_database_code               7233724
_iucr_refine_reflections_details
;
   0   0   1 13061.4 525.460   2
   0   0   2 12522.6 616.494   2
   0   0   3 3030.87 317.952   2
   0   0   4 110519. 3882.79   2
   0   0  -4 112916. 4123.20   1
   0   0   5 562587. 17510.2   2
   0   0  -5 575139. 17857.2   1
   0   0  -6 700.854 252.489   1
   0   0   6 846.723 231.643   2
   0   0  -7 112092. 4837.05   1
   0   0   7 121533. 4541.55   2
   0   0  -8 30009.0 2114.57   1
   0   0  -9 7893.58 1099.69   1
   0   0 -10 42745.2 2927.87   1
   0   0 -11 1667.28 454.312   9
   0   0 -11 1746.79 595.451   1
   0   0 -12 517.815 296.970   9
   0   0 -13 6642.44 956.480   9
   0   0 -14 2440.71 548.775   9
   0   0 -15 684.088 326.895   9
   0   0 -16 32085.9 1844.69   9
   0   0 -17 12651.3 890.055   9
   0   1 -17 24271.3 1314.13   9
   0   1 -16 19352.8 1355.84   9
   0   1 -15 7457.38 895.631   9
   0   1 -14 645.673 323.495   9
   0   1 -13 4292.45 769.493   9
   0   1 -12 212761. 9373.71   1
   0   1 -12 238304. 8646.77   9
   0   1 -11 48040.7 2789.60   9
   0   1 -11 45934.8 3261.16   1
   0   1 -10 241303. 9520.39   1
   0   1  -9 3451.95 708.410   1
   0   1  -8 18314.1 1614.47   1
   0  -1   8 19323.3 1367.97   2
   0   1  -7 339674. 11629.8   1
   0  -1   7 338682. 11100.7   2
   0   1  -6 3993.53 616.380   1
   0  -1   6 3532.30 480.747   2
   0  -1   5 675984. 20705.7   2
   0  -1   4 27541.2 1325.07   2
   0  -1   3 101642. 3454.97   2
   0  -1   2 131669. 4210.19   2
   0  -1   1 69249.9 2256.07   2
   0   1   0 31426.7 1106.29   4
   0  -1  -1 157032. 4860.15   1
   0  -1  -2 56083.9 2044.87   1
   0  -1  -3 392476. 12195.3   1
   0  -1  -4 264988. 8655.93   1
   0  -1  -5 11834.7 980.236   1
   0  -1  -6 413.331 205.637   1
   0  -1  -7 50524.2 2720.99   1
   0  -1  -8 151404. 6191.75   1
   0  -1  -9 80272.7 4116.04   1
   0  -1 -10 17129.3 1712.75   1
   0  -1 -11 53279.0 2992.02   9
   0  -1 -11 53129.2 3389.79   1
   0  -1 -12 140200. 5892.75   9
   0  -1 -13 4911.49 811.354   9
   0  -1 -14 381.304 275.949   9
   0  -1 -15 13950.3 1252.77   9
   0  -1 -16 28824.1 1712.07   9
   0   1  17 6202.25 515.883  19
   0  -1 -17 11370.8 787.144   9
   0   2 -17 61913.4 2494.31   9
   0   2 -16 335.334 210.234   9
   0   2 -15 39537.1 2290.57   9
   0   2 -14 21648.1 1724.65   9
   0   2 -13 2936.71 660.250   9
   0   2 -12 8778.38 1123.15   9
   0   2 -11 838.093 362.267   9
   0   2 -11 350.604 275.432   1
   0   2 -10 129109. 6184.05   1
   0   2 -10 139512. 5638.81   9
   0   2  -9 260309. 9929.91   1
   0  -2   8 237974. 8105.23   2
   0   2  -8 216901. 8623.82   1
   0  -2   7 30927.7 1778.26   2
   0  -2   6 17528.8 1190.19   2
   0  -2   5 78570.4 3101.66   2
   0  -2   4 478190. 14792.7   2
   0  -2   3 155147. 5129.46   2
   0  -2   2 59635.7 2188.22   2
   0   2  -1 127721. 4137.67   4
   0   2   0 17912.5 837.632   4
   0  -2  -1 69219.6 2351.95   1
   0   2   1 67683.4 2405.26   4
   0   2   2 69158.9 2504.20   4
   0  -2  -2 66326.3 2442.20   1
   0  -2  -3 7568.08 600.937   1
   0  -2  -4 11879.1 877.199   1
   0  -2  -5 234837. 7995.77   1
   0  -2  -6 178898. 6548.33   1
   0  -2  -7 5417.82 768.806   1
   0  -2  -8 57564.5 3122.04   1
   0  -2  -9 6343.80 932.214   1
   0  -2 -10 89675.7 4514.58   1
   0  -2 -10 88509.9 4130.90   9
   0  -2 -11 3603.02 683.611   9
   0  -2 -12 16439.3 1544.72   9
   0  -2 -13 167959. 6738.63   9
   0  -2 -14 1486.18 425.411   9
   0  -2 -15 120260. 4907.73   9
   0  -2 -16 3671.54 548.885   9
   0  -2 -17 1502.89 277.878   9
   0   3 -17-80.3467 103.357   9
   0   3 -16 26111.9 1554.66   9
   0   3 -15 19502.9 1473.38   9
   0   3 -14 96638.0 4389.71   9
   0   3 -13 90600.3 4323.73   9
   0   3 -12 1403.50 461.816   9
   0   3 -11 446.603 276.055   9
   0   3 -11 907.128 462.563   1
   0   3 -10 25420.6 2299.99   1
   0   3 -10 27748.5 1988.37   9
   0   3  -9 89079.4 4636.64   1
   0  -3   8 27580.4 1790.65   2
   0  -3   7 72.0530 119.039   2
   0  -3   6 175.391 114.831   2
   0  -3   5 35019.0 1803.61   2
   0  -3   4 35056.9 1714.62   2
   0  -3   3 13322.8 876.120   2
   0   3  -2 190855. 6230.98   4
   0  -3   2 189828. 6237.73   2
   0   3  -1 69325.2 2565.71   4
   0   3   0 2327.58 301.629   4
   0   3   1 386806. 11902.0   4
   0  -3  -1 379798. 11739.4   1
   0   3   2 364.505 140.218   4
   0  -3  -2 234.543 113.339   1
   0   3   3 746406. 22906.0   4
   0  -3  -3 750188. 22780.8   1
   0  -3  -4 229914. 7826.31   1
   0   3   4 242630. 8009.90   4
   0  -3  -5 26295.5 1573.30   1
   0   3   5 26663.1 1685.10   4
   0  -3  -6 59445.7 2849.39   1
   0  -3  -7 41754.5 2397.72   1
   0  -3  -8 569998. 18742.9   1
   0   3   8 578000. 19058.7   4
   0   3   9 2298.39 621.319   4
   0  -3  -9 2087.60 530.822   1
   0  -3 -10 120546. 5160.95   9
   0   3  10 115291. 5696.65   4
   0  -3 -11 7780.03 1022.60   9
   0   3  11 8018.83 1289.51   4
   0  -3 -12 1087.44 412.746   9
   0  -3 -13 64324.5 3417.75   9
   0  -3 -14 4808.34 762.512   9
   0  -3 -15 10079.4 1019.24   9
   0   3  16 13945.2 959.122  19
   0  -3 -16 15911.5 1125.18   9
   0  -3 -17 4295.26 433.162   9
   0   4 -16 141.290 151.036   9
   0   4 -15 204.823 173.058   9
   0   4 -14 4963.55 762.175   9
   0   4 -13 22195.7 1807.03   9
   0   4 -12 903.445 380.347   9
   0   4 -11 682.401 351.129   9
   0   4 -11 1050.25 539.043   1
   0   4 -10 30517.0 2370.22  20
   0   4 -10 30234.2 2106.75  16
   0   4 -10 31729.4 2180.96   9
   0   4 -10 29334.3 2578.34   1
   0   4  -9 194383. 8170.64   1
   0  -4   8 91199.2 4114.53   2
   0  -4   7 31403.7 1968.62   2
   0  -4   6 80891.0 3533.05   2
   0  -4   5 237.122 145.069   2
   0  -4   3 13023.8 965.541   2
   0   4  -1 63604.8 2553.36   4
   0   4   0 39152.1 1795.96   4
   0   4   1 379958. 12029.4   4
   0   4   2 13484.9 969.605   4
   0  -4  -2 13813.2 872.456   1
   0  -4  -3 361515. 11657.7   1
   0   4   3 378209. 11915.1   4
   0   4   4 51023.2 2495.89   4
   0  -4  -4 51210.1 2330.20   1
   0   4   5 118115. 4778.70   4
   0  -4  -5 116715. 4548.83   1
   0  -4  -6 222147. 7877.17   1
   0   4   6 220855. 8145.89   4
   0  -4  -7 83382.1 3844.86   1
   0   4   7 86020.9 4133.09   4
   0  -4  -8 691.998 303.117   1
   0   4   8 1057.22 414.261   4
   0   4   9 19406.9 1898.96   4
   0  -4 -10 190.209 242.996   9
   0   4  10 280.700 280.050   4
   0   4  11 119214. 6001.13   4
   0  -4 -11 115890. 5211.12   9
   0  -4 -12 67215.2 3571.07   9
   0  -4 -13 2397.30 560.967   9
   0  -4 -14 5604.75 823.350   9
   0   4  15 9916.85 879.115  19
   0  -4 -15 8583.29 778.128   8
   0  -4 -15 10697.8 1013.69   9
   0   4  16 9483.60 724.036  19
   0  -4 -16 13809.3 967.341   9
   0   5 -16 7187.96 658.943   9
   0   5 -15 3783.15 577.250   9
   0   5 -14 95505.0 4226.11   9
   0   5 -13 21156.1 1740.52  17
   0   5 -13 23575.0 1826.77   9
   0   5 -12 7974.16 1078.95   9
   0   5 -11 26194.6 2037.00   9
   0   5 -10 30226.7 2431.91  20
   0   5 -10 27113.8 2560.39   1
   0   5 -10 28929.9 2076.53  16
   0   5 -10 31077.7 2192.77   9
   0   5  -9 143589. 6134.29  20
   0   5  -9 146135. 5778.04   9
   0  -5   8 7585.05 968.122   2
   0  -5   7 172221. 6701.88   2
   0  -5   6 171364. 6524.30   2
   0  -5   5 262968. 9148.74   2
   0  -5   4 4460.78 619.870   2
   0  -5   3 24558.9 1531.13   2
   0   5  -2 46154.0 2223.47   4
   0  -5   2 49411.0 2313.54   2
   0   5  -1 465070. 14672.0   4
   0   5   0 256489. 8539.36   4
   0   5   1 91010.1 3636.80   4
   0   5   2 263407. 8900.34   4
   0   5   3 32749.9 1877.19   4
   0  -5  -3 30763.5 1639.93   1
   0  -5  -4 216766. 7612.62   1
   0   5   4 235677. 8070.86   4
   0  -5  -5 21114.1 1422.09   1
   0   5   5 21430.4 1631.95   4
   0   5   6 78263.5 3815.71   4
   0  -5  -6 73932.1 3398.78   1
   0   5   7 71999.1 3825.30   4
   0   5   8 32585.7 2473.43   4
   0   5   9 9089.90 1312.22   4
   0  -5  -9 8978.33 1106.61   9
   0   5  10 316.652 329.117   4
   0  -5 -10 198.750 226.985   9
   0  -5 -11 4351.72 802.211   9
   0  -5 -12 466.490 307.906   9
   0  -5 -13 11920.7 1262.56   9
   0   5  13 12335.8 1186.72  19
   0  -5 -14 2162.65 507.609   9
   0  -5 -14 1726.37 386.719   8
   0   5  14 1874.34 411.511  19
   0  -5 -15 116.194 127.261   9
   0  -5 -15 60.4878 94.8731   8
   0   5  15 254.701 160.601  19
   0   5  16 26190.6 1313.33  19
   0  -5 -16 44765.6 1739.38   9
   0   6 -16 1537.58 264.767   9
   0   6 -15 11695.1 958.962   9
   0   6 -14 11170.9 1084.87   9
   0   6 -13 63645.8 3225.77   9
   0   6 -13 55478.2 3121.09  17
   0   6 -12 118125. 5241.56   9
   0   6 -11 60678.0 3378.01   9
   0   6 -10 101654. 4804.87  16
   0   6 -10 110016. 5960.57   1
   0   6 -10 113119. 5037.17   9
   0   6 -10 116594. 5564.19  20
   0   6  -9 461.653 292.411  16
   0   6  -9 547.065 324.533  20
   0   6  -9 672.297 331.863  15
   0   6  -8 39801.0 2445.70  15
   0   6  -8 40522.4 2430.09  16
   0  -6   7 28007.2 2070.93   2
   0  -6   6 290541. 10369.9   2
   0  -6   5 179655. 6894.06   2
   0  -6   4 29783.0 1931.20   2
   0  -6   3 1753.37 408.203   2
   0   6  -2 3071.47 510.881   4
   0  -6   2 3308.87 558.906   2
   0   6  -1 17989.5 1285.02   4
   0   6   0 1192.82 331.358   4
   0   6   1 996.824 290.683   4
   0   6   2 77469.3 3478.66   4
   0   6   3 12912.5 1204.21   4
   0   6   4 98876.6 4398.30   4
   0   6   5 6578.62 944.938   4
   0  -6  -5 7993.10 857.671   1
   0   6   6 208071. 8169.99   4
   0   6   7 42885.4 2926.62   4
   0   6   8 18533.9 1887.56   4
   0  -6  -8 16892.3 1563.15   9
   0   6   9 82228.3 4597.32   4
   0  -6  -9 74864.3 3923.65   9
   0  -6 -10 1218.38 483.377   9
   0   6  10 1469.29 430.497  19
   0   6  11 181078. 7175.36  19
   0  -6 -11 191208. 7470.40   9
   0  -6 -12 24453.2 1819.86   8
   0   6  12 25891.4 1848.69  19
   0  -6 -12 24600.4 1935.84   9
   0  -6 -13 20944.6 1646.69   9
   0  -6 -13 20566.7 1500.05   8
   0   6  13 18501.7 1452.08  19
   0   6  14 9367.17 874.171  19
   0  -6 -14 10264.9 1006.49   9
   0  -6 -14 9805.81 863.069   8
   0   6  15 1622.09 300.670  19
   0  -6 -15 2669.82 415.721   9
   0   7 -15 8493.68 726.035   9
   0   7 -14 3943.00 591.898   9
   0   7 -14 3780.65 562.122  17
   0   7 -13 9652.51 1097.12  17
   0   7 -13 10377.0 1091.83   9
   0   7 -12 2992.04 634.745   9
   0   7 -11 36183.6 2713.40  20
   0   7 -11 37927.3 2509.95   9
   0   7 -10 4612.84 779.380  16
   0   7 -10 4656.44 822.703   9
   0   7 -10 5213.71 964.152  20
   0   7  -9 27905.5 2018.04  16
   0   7  -9 26171.0 2008.61  15
   0   7  -8 2757.50 687.352  20
   0   7  -8 1960.97 473.594  16
   0   7  -8 1667.58 434.974  15
   0   7  -7 4647.92 745.766  15
   0  -7   7 6545.22 1013.90   2
   0   7  -7 6099.74 947.142  20
   0   7  -7 5459.46 763.980  16
   0  -7   6 46784.6 2903.67   2
   0  -7   5 93824.5 4457.07   2
   0  -7   4 1204.76 390.414   2
   0  -7   3 9551.82 1078.07   2
   0  -7   2 49823.7 2700.49   2
   0   7  -2 44952.5 2501.27   4
   0   7  -1 308171. 10516.4   4
   0   7   0 69608.5 3261.84   4
   0   7   1 78229.2 3597.23   4
   0   7   2 12833.9 1222.25   4
   0   7   3 3365.83 643.121   4
   0   7   4 256585. 9512.12   4
   0   7   5 8141.41 1123.00   4
   0   7   6 156469. 6847.47   4
   0   7   7 1133.99 388.797  19
   0   7   7 1342.81 480.261   4
   0  -7  -7 1411.69 463.868   8
   0  -7  -7 799.907 392.724   9
   0  -7  -8 92795.0 4498.52   9
   0  -7  -8 90366.2 4414.17   8
   0   7   8 90752.5 4328.33  19
   0   7   8 103043. 5209.94   4
   0  -7  -9 67159.4 3674.98   9
   0   7   9 74938.5 4403.34   4
   0  -7  -9 66167.6 3593.35   8
   0   7   9 66428.8 3499.30  19
   0  -7 -10 2856.32 630.877   8
   0   7  10 2583.24 570.546  19
   0  -7 -10 2486.25 627.875   9
   0   7  11 14746.5 1377.64  19
   0  -7 -11 13934.2 1430.55   9
   0  -7 -11 14965.0 1421.09   8
   0   7  12 22241.9 1641.75  19
   0  -7 -12 20203.4 1582.19   8
   0  -7 -12 23012.5 1786.73   9
   0   7  13 25007.5 1600.18  19
   0  -7 -13 23970.8 1551.33   8
   0  -7 -13 22667.1 1653.05   9
   0  -7 -14 52018.3 2449.90   9
   0  -7 -14 48950.3 2176.36   8
   0   7  14 48975.9 2243.98  19
   0   7  15 20348.7 1021.21  19
   0   8 -14 44770.3 2063.68   9
   0   8 -14 37067.5 1943.34  17
   0   8 -13 20401.5 1469.51   9
   0   8 -13 18811.9 1499.16  17
   0   8 -12 4802.89 743.248   9
   0   8 -11 33420.0 2244.72   9
   0   8 -11 29102.0 2363.06  20
   0   8 -10 32893.2 2530.48  20
   0   8 -10 29643.1 2089.62  16
   0   8 -10 34698.0 2343.75   9
   0   8  -9 3534.91 684.123  15
   0   8  -9 3647.59 674.586  16
   0   8  -9 3158.54 777.586  20
   0   8  -8 3338.77 624.178  16
   0   8  -8 4365.03 872.661  20
   0   8  -8 3214.58 659.323  15
   0   8  -7 5777.27 973.020  20
   0   8  -7 5039.41 833.575  15
   0   8  -7 4971.65 752.467  16
   0   8  -6 100079. 4639.32  20
   0  -8   6 102813. 4923.31   2
   0  -8   5 17415.3 1706.80   2
   0   8  -5 17485.9 1577.58  20
   0   8  -5 15320.3 1444.92  15
   0  -8   4 107412. 5051.51   2
   0  -8   3 21859.0 1851.98   2
   0  -8   2 60754.2 3358.36   2
   0   8  -1 102566. 4579.66   4
   0  -8   1 108509. 4882.25   2
   0   8   0 11290.1 1178.33   4
   0   8   1 77359.6 3755.24   4
   0   8   2 114066. 5032.59   4
   0   8   3 324513. 11594.5   4
   0   8   4 53355.9 3202.00   4
   0  -8  -5 9273.75 1099.47   9
   0   8   5 8728.67 1236.78   4
   0   8   5 8667.38 1027.07  19
   0  -8  -5 8326.24 1046.60   8
   0  -8  -6 1526.96 466.429   8
   0   8   6 1811.79 469.935  19
   0  -8  -6 2796.65 633.924   9
   0   8   6 2902.02 729.304   4
   0   8   7 221574. 8511.48  19
   0  -8  -7 226932. 8689.80   9
   0  -8  -7 220857. 8624.28   8
   0   8   7 243369. 9553.04   4
   0  -8  -8 30474.4 2251.48   9
   0  -8  -8 29204.3 2205.57   8
   0   8   8 30024.1 2143.08  19
   0  -8  -9 31320.4 2302.08   9
   0   8   9 31178.0 2181.48  19
   0  -8  -9 30815.4 2242.60   8
   0  -8 -10 52528.2 3071.57   9
   0  -8 -10 51263.3 2961.07   8
   0   8  10 51568.7 2904.65  19
   0  -8 -11 1304.51 406.019   8
   0  -8 -11 1259.87 395.429   9
   0   8  11 1622.65 447.362  19
   0  -8 -12 8642.55 993.340   9
   0   8  12 8090.33 888.353  19
   0  -8 -12 8345.81 898.208   8
   0  -8 -13 7451.90 726.088   8
   0   8  13 6883.74 717.581  19
   0  -8 -13 7522.50 817.610   9
   0   8  14 2050.13 312.252  19
   0   9 -14 23887.3 1230.01   9
   0   9 -13 776.493 264.288   9
   0   9 -13 231.807 215.444  17
   0   9 -12 6931.05 836.358   9
   0   9 -11 16846.1 1630.24  20
   0   9 -11 17569.1 1484.16   9
   0   9 -10 24932.0 2133.34  20
   0   9 -10 26263.9 1939.09   9
   0   9 -10 22337.7 1693.40  16
   0   9  -9 118386. 5461.86  20
   0   9  -9 105667. 4709.87  16
   0   9  -8 24879.1 2023.24  15
   0   9  -8 25036.1 1845.97  16
   0   9  -7 72016.9 3818.90  15
   0   9  -7 65808.2 3402.28  16
   0   9  -6 639.351 283.160  15
   0  -9   6 453.505 333.771   2
   0   9  -6 521.094 370.640  20
   0   9  -5 133600. 5973.26  15
   0  -9   5 144057. 6492.97   2
   0   9  -5 146698. 6155.20  20
   0   9  -4 123439. 5432.47  15
   0  -9   4 117359. 5749.64   2
   0   9  -4 128103. 5480.41  20
   0   9  -3 157649. 6268.98  15
   0  -9   3 162313. 5962.23  10
   0  -9   3 146298. 6545.22   2
   0   9  -3 161336. 6235.31  20
   0  -9   2 270594. 9330.96  10
   0  -9   2 251574. 9998.41   2
   0  -9   2 262547. 9525.68  25
   0   9  -1 1978.39 495.753   4
   0  -9   1 2690.42 544.843  10
   0  -9   1 2303.72 607.947   2
   0   9   0 26297.6 2001.26   4
   0  -9   0 26193.7 2212.43   2
   0   9   1 14363.6 1463.88   4
   0   9   1 15331.3 1348.53  19
   0  -9  -1 15750.3 1373.23  10
   0   9   2 85474.6 3902.34  19
   0   9   2 82321.1 4202.07   4
   0  -9  -2 83105.3 3896.86  25
   0  -9  -3 36665.2 2322.01   8
   0  -9  -3 31661.4 2114.56  25
   0   9   3 33258.7 2170.30  19
   0   9   3 34871.2 2500.38   4
   0   9   4 17023.2 1510.89  19
   0  -9  -4 16261.6 1514.76   8
   0  -9  -4 17073.4 1461.20  25
   0   9   4 17494.3 1725.44   4
   0   9   5 641.017 330.097   4
   0  -9  -5 458.666 296.929  25
   0  -9  -5-11.1707 176.740   8
   0   9   5-19.1151 101.759  19
   0   9   6 35394.4 2377.26  19
   0   9   6 38184.0 2862.31   4
   0  -9  -6 34341.2 2198.06  25
   0  -9  -6 37169.8 2493.22   8
   0   9   7 244.429 224.691  19
   0  -9  -7-158.476 249.899   8
   0  -9  -8 61.0462 265.253   9
   0  -9  -8-3.26672 210.375   8
   0   9   8 139.179 217.333  19
   0  -9  -9 4562.93 827.164   9
   0  -9  -9 4296.35 756.165   8
   0   9   9 4876.41 783.154  19
   0  -9 -10 15401.7 1417.80   8
   0   9  10 16096.3 1408.44  19
   0  -9 -11 10315.3 1035.74   8
   0   9  11 9824.36 992.459  19
   0   9  12 12407.4 1030.21  19
   0  -9 -12 11035.0 951.301   8
   0   9  13-230.652 132.909  19
   0  10 -13 6025.30 554.365   9
   0  10 -13 5476.75 596.527  17
   0  10 -12 8780.64 832.377   9
   0  10 -11 13660.3 1189.93   9
   0  10 -10 54284.8 2904.07   9
   0  10 -10 54161.6 3198.54  20
   0  10  -9 34580.7 2484.98  20
   0  10  -9 31260.0 1988.11  16
   0  10  -8 29763.8 1963.31  16
   0  10  -8 33540.0 2461.65  20
   0  10  -8 30340.9 2233.57  15
   0  10  -7 9893.82 1225.90  15
   0  10  -7 11186.2 1363.16  20
   0  10  -6 41294.0 2766.58  20
   0  10  -6 35868.5 2556.12  15
   0  10  -5 218.230 228.733  15
   0  10  -5 184.411 207.299  20
   0 -10   4 59492.9 3764.44   2
   0  10  -4 59258.3 3392.23  20
   0  10  -4 56226.9 3351.67  15
   0  10  -3 9643.58 1212.17  15
   0  10  -3 9636.02 1202.05  20
   0 -10   3 9915.55 1402.45   2
   0  10  -2 107525. 4912.72  15
   0 -10   2 103494. 4843.35  25
   0 -10   2 100691. 4562.59  10
   0 -10   2 104153. 5367.29   2
   0 -10   1 86588.8 4062.66  10
   0 -10   1 87995.6 4304.25  25
   0 -10   1 79362.7 4665.16   2
   0  10   0 68.1644 113.079   4
   0 -10   0 58.2560 154.111  25
   0 -10   0-50.7519 152.864   2
   0 -10  -1 32137.1 2229.44  25
   0  10   1 30070.9 2309.34   4
   0 -10  -1 30212.3 2590.72   2
   0  10   1 32439.3 2162.34  19
   0 -10  -1 31972.4 2167.89  10
   0  10   2 76099.7 3825.69  19
   0 -10  -2 81935.5 3963.20  25
   0 -10  -2 80965.3 3939.34  10
   0 -10  -3 61330.1 3311.77  25
   0  10   3 63664.1 3352.31  19
   0 -10  -3 64921.3 3431.59  10
   0  10   4 526.268 313.848  19
   0 -10  -4 350.152 246.644  25
   0 -10  -5 528.020 275.432  25
   0  10   5 649.938 301.043  19
   0  10   6 24553.7 1910.16  19
   0 -10  -6 23102.2 1738.74  25
   0 -10  -6 25144.1 2001.57   8
   0  10   7 49467.1 2874.08  19
   0 -10  -7 49728.1 2966.75   8
   0 -10  -8 30549.1 2152.97   8
   0  10   8 28896.9 2036.59  19
   0  10   9 52143.8 2823.17  19
   0 -10  -9 54471.6 2934.06   8
   0 -10 -10 916.069 320.891   8
   0  10  10 719.179 280.516  19
   0  10  11 69.6611 139.925  19
   0 -10 -12 20749.7 1238.42  10
   0  10  12 31887.7 1453.13  19
   0  11 -12 866.983 253.284  17
   0  11 -12 998.708 217.007   9
   0  11 -11 53998.5 2475.64   9
   0  11 -10 8767.52 917.506   9
   0  11 -10 7301.36 968.053  20
   0  11  -9 11539.6 1130.89   9
   0  11  -9 10455.9 1228.92  20
   0  11  -8 4040.29 760.571  20
   0  11  -7 40096.2 2628.67  15
   0  11  -7 44433.0 2832.70  20
   0  11  -6 25461.4 2067.23  15
   0  11  -6 29222.9 2255.72  20
   0  11  -5 12836.4 1430.56  15
   0  11  -5 13613.6 1501.87  20
   0  11  -4-73.4503 186.440  20
   0  11  -4-109.270 180.385  15
   0  11  -3 19097.7 1768.78  20
   0  11  -3 19874.0 1810.68  15
   0  11  -2 11912.0 1385.18  15
   0  11  -2 13062.8 1407.37  20
   0 -11   1 7885.51 1004.98  10
   0  11  -1 8871.78 1112.91  15
   0 -11   1 7633.09 1088.56  25
   0 -11   0 5596.28 888.776  25
   0 -11   0 4516.10 746.791  10
   0 -11  -1 5717.60 920.007  25
   0 -11  -1 5405.60 848.681  10
   0  11   2 22327.0 1798.29  19
   0 -11  -2 22189.3 1808.53  10
   0 -11  -2 24303.0 1924.75  25
   0  11   3 690.628 318.704  19
   0 -11  -3 941.329 365.284  10
   0 -11  -3 1068.32 424.016  25
   0 -11  -4 47021.6 2814.84  10
   0  11   4 49218.1 2841.63  19
   0 -11  -4 46267.1 2750.02  25
   0 -11  -5 39876.8 2550.13  10
   0  11   5 41553.1 2558.18  19
   0 -11  -5 38953.8 2397.21  25
   0 -11  -6 40602.1 2586.03  10
   0  11   6 45531.7 2647.90  19
   0  11   7 4261.35 713.720  19
   0  11   8 1160.69 353.368  19
   0  11   9 11140.9 1033.22  19
   0 -11  -9 11631.0 1053.95  10
   0 -11 -10 68607.0 2948.52  10
   0  11  10 68803.8 2940.43  19
   0  11  11 63461.4 2432.91  19
   0 -11 -11 53499.6 2325.92  10
   0  12 -11 134.769 119.320  17
   0  12 -10 160.015 145.246   9
   0  12  -9 1410.26 395.036  20
   0  12  -9 1439.37 355.855   9
   0  12  -8 4048.33 724.744  20
   0  12  -7 1723.35 474.703  20
   0  12  -6 82953.4 4082.60  20
   0  12  -6 76341.4 3856.14  15
   0  12  -5 3366.92 717.047  20
   0  12  -5 3328.12 670.483  15
   0  12  -4 3224.16 703.795  20
   0  12  -4 2964.12 651.994  15
   0  12  -3-113.314 216.801  15
   0  12  -3 49.5190 187.756  20
   0  12  -2 9213.24 1192.17  20
   0  12  -2 9938.67 1167.44  15
   0  12  -1 153716. 6457.30  20
   0 -12   0 39490.2 2435.38  10
   0 -12  -1 93189.6 4494.16  25
   0 -12  -1 90986.4 4232.96  10
   0 -12  -2 6989.48 937.953  10
   0 -12  -2 6836.42 981.822  25
   0 -12  -3 38557.2 2411.95  10
   0 -12  -3 38963.9 2456.05  25
   0  12   4 32515.3 2157.46  19
   0 -12  -4 31669.0 2140.12  10
   0 -12  -4 31754.6 2097.47  25
   0 -12  -5 63093.8 3049.75  25
   0 -12  -5 58695.3 3128.85  10
   0  12   5 60202.2 3137.39  19
   0 -12  -6 43977.2 2517.13  10
   0  12   6 46903.7 2557.79  19
   0 -12  -7 8724.85 931.110  10
   0  12   7 7283.26 850.327  19
   0  12   8 2043.85 421.806  19
   0 -12  -8 2300.30 424.698  10
   0  12   9 11848.7 916.438  19
   0 -12  -9 11849.6 917.912  10
   0 -12 -10 150.730 104.593  10
   0  13  -9 1116.69 289.995  20
   0  13  -9 1203.39 252.353   9
   0  13  -8 9418.41 953.924  20
   0  13  -8 10592.1 871.670   9
   0  13  -7 32077.8 2017.26  20
   0  13  -6 89257.6 4066.24  20
   0  13  -5 16974.1 1504.09  20
   0  13  -4 4773.54 764.031  20
   0  13  -3 20315.2 1564.24  15
   0  13  -3 24000.0 1845.98  20
   0  13  -2 18249.9 1611.25  20
   0  13  -1 24410.5 1902.71  20
   0  13   0 12798.5 1327.54  20
   0 -13  -1 115.523 175.185  10
   0 -13  -2 74240.2 3504.42  10
   0 -13  -3 69.2178 158.515  10
   0 -13  -4 19548.8 1480.13  10
   0 -13  -5 4113.83 622.937  10
   0 -13  -6 12525.7 1048.54  10
   0 -13  -7 20252.3 1285.80  10
   0 -13  -8 383.339 160.688  10
   0  14  -7-47.2744 93.6252  20
   0  14  -7-92.2682 99.9889   9
   0  14  -6 1455.30 344.727  20
   0  14  -5 34075.0 1976.70  20
   0  14  -4 4722.33 677.540  20
   0  14  -3 80367.5 3662.82  20
   0  14  -2 3676.88 619.909  20
   0  14  -1 639.002 293.818  20
   0  14   0 976.583 355.134  20
   0  14   1 13369.2 1209.68  20
   0  14   2 27902.4 1806.36  20
   0  14   3 185.730 180.716  20
   0  14   4 3453.15 544.891  20
   0 -14  -5 6591.86 647.130  10
   0 -14  -6 143.333 107.288  10
   0  15  -4 365.587 157.418  20
   0  15  -3 4636.13 554.749  20
   0  15  -2 903.131 248.323  20
   0  15  -1 1163.69 298.741  20
   0  15   0 200.282 147.677  20
   0  15   1 14029.6 1030.02  20
   0  15   2 30408.9 1600.85  20
   0  15   3 753.556 206.926  20
  -1  15   2 2353.06 418.406  12
  -1  15   1 2631.87 469.358  12
  -1  15   0 17938.8 1326.11  12
  -1  15  -1 12850.7 1082.32  12
  -1  15  -2 36866.5 1934.48  12
   1 -14  -6 15405.8 892.426  10
   1 -14  -5 54552.8 2275.72  10
   1 -14  -4 1144.09 265.333  10
  -1  14   3 23891.7 1401.39  20
  -1  14   2 9565.91 882.935  20
  -1  14   1 11558.9 1020.91  20
  -1  14   0 58429.8 2787.62  20
  -1  14  -1 27399.7 1728.01  20
  -1  14  -2 1755.47 397.228  20
  -1  14  -3 15691.9 1228.54  20
  -1  14  -3 16558.1 1472.37  12
  -1  14  -4 1638.73 420.115  12
  -1  14  -4 1776.05 397.693  20
  -1  14  -5 15084.1 1119.70  20
  -1  14  -6 3411.74 473.089  20
   1 -13  -8 288.733 135.748  10
   1 -13  -7 30422.7 1612.54  10
   1 -13  -6 1408.41 321.495  10
  -1  13   6 1583.11 314.018   7
  -1  13   5 14238.1 1057.49   7
  -1  13   5 14113.8 1118.04  20
   1 -13  -5 14588.9 1150.60  10
  -1  13   4 18653.5 1392.63  20
   1 -13  -4 18551.1 1369.22  10
  -1  13   4 19073.8 1322.40   7
  -1  13   3 6027.70 731.272   7
   1 -13  -3 6238.89 757.744  10
  -1  13   3 6021.53 782.599  20
   1 -13  -2 100495. 4194.39  10
  -1  13   2 103728. 4430.11  20
  -1  13   2 98154.1 4158.74   7
   1 -13  -1 12867.3 1136.33  10
  -1  13   1 13352.6 1287.58  20
  -1  13   0 2224.92 506.394  20
  -1  13  -1 761.033 346.963  20
  -1  13  -2 31914.2 2139.11  20
  -1  13  -3 43713.3 2569.97  20
  -1  13  -4 140.034 201.340  20
  -1  13  -5 12420.1 1003.66  16
  -1  13  -5 11305.6 1150.90  20
  -1  13  -5 11840.5 1222.25  12
  -1  13  -6 7790.41 867.658  17
  -1  13  -6 7837.02 760.698  16
  -1  13  -6 7988.16 920.380  20
  -1  13  -7 14155.0 1187.96  20
  -1  13  -7 14632.1 1001.01  16
  -1  13  -7 15129.8 1169.67  17
  -1  13  -8 1190.24 322.249  20
  -1  13  -8 858.928 263.869  17
   1 -12 -10-38.9951 87.4502  10
  -1  12   9 35943.9 1686.23   7
   1 -12  -9 47324.5 2057.45  10
   1 -12  -8 173.369 164.396  10
  -1  12   8 267.840 165.452   7
  -1  12   7 27666.8 1669.48   7
   1 -12  -7 26590.6 1732.18  10
   1 -12  -6 16164.8 1380.99  10
  -1  12   6 17723.4 1374.03   7
   1 -12  -5 233.750 221.240  10
  -1  12   5 397.224 220.909   7
  -1  12   4 4323.33 696.464   7
   1 -12  -4 4583.83 720.801  10
   1 -12  -3 1789.50 484.766  10
  -1  12   3 2049.88 480.312   7
   1 -12  -2 5239.45 786.008  10
  -1  12   2 5468.96 811.643   7
  -1  12   1 289.781 262.306  20
  -1  12   1 480.515 280.271   7
   1 -12  -1 1072.17 382.284  10
  -1  12   0 1605.54 491.039  20
   1 -12   0 1225.03 404.912  10
  -1  12   0 1094.51 389.504   7
  -1  12  -1 2414.81 582.842  20
  -1  12  -2 560.329 312.225  20
  -1  12  -3 88789.4 4311.12  20
  -1  12  -4 7994.29 1064.71  20
  -1  12  -5 43393.1 2677.81  20
  -1  12  -6 2133.20 537.656  20
  -1  12  -6 2144.44 475.954  16
  -1  12  -7 12322.4 1083.32  16
  -1  12  -7 10047.0 1137.25  20
  -1  12  -8 30122.6 1740.38  16
  -1  12  -8 27764.1 1900.98  20
  -1  12  -9 15478.4 1082.94  16
  -1  12  -9 15201.2 1283.58  17
  -1  12 -10 82238.2 3393.92  17
   1 -11 -11 667.282 197.550  10
  -1  11  10 1184.40 272.923   7
  -1  11   9 26.4106 115.825   7
  -1  11   8 2689.66 459.607  19
  -1  11   8 2905.86 557.890   7
  -1  11   7 47837.1 2681.13   7
  -1  11   7 43189.5 2350.41  19
  -1  11   6 16801.5 1381.95  19
  -1  11   6 16060.6 1492.30   7
  -1  11   5 7234.30 987.572   7
   1 -11  -4 4962.38 816.782  10
  -1  11   4 5330.48 865.392   7
  -1  11   3 43446.3 2669.71   7
   1 -11  -3 41317.0 2621.33  10
   1 -11  -2 147104. 6057.34  10
  -1  11   2 146191. 6087.70   7
   1 -11  -1 2240.11 518.755  10
  -1  11   1 1743.50 486.247   7
  -1  11   0 28201.1 2072.44   7
  -1  11   0 32283.6 2269.32  20
   1 -11   0 30125.7 2037.99  10
   1 -11   1 16045.1 1407.26  10
  -1  11  -1 15741.4 1538.70  20
  -1  11  -1 16842.5 1536.90   7
  -1  11  -2 31046.8 2255.22  20
  -1  11  -3 78678.1 4040.76  20
  -1  11  -4 18593.4 1712.63  20
  -1  11  -5 50479.2 3049.88  20
  -1  11  -6 31438.7 2287.17  20
  -1  11  -7 460.209 275.579  16
  -1  11  -7 25.9833 217.598  20
  -1  11  -8 32623.5 2035.80  16
  -1  11  -8 30246.5 2196.34  20
  -1  11  -9 14553.9 1230.66  16
  -1  11  -9 14132.0 1364.39  20
  -1  11 -10 2774.04 563.067  17
  -1  11 -10 2074.21 424.266  16
  -1  11 -11 60980.3 2843.42  17
  -1  11 -12 430.548 173.742  17
  -1  10  12 8810.95 684.750   7
   1 -10 -11 6894.50 755.087   8
  -1  10  11 5237.89 660.723   7
  -1  10  10 20781.4 1555.57   7
   1 -10 -10 23306.7 1634.14   8
  -1  10   9 19300.9 1603.34   7
   1 -10  -9 20355.3 1631.89   8
  -1  10   9 17671.4 1297.62  19
  -1  10   8 1315.22 361.956  19
  -1  10   8 2160.99 551.543   7
   1 -10  -8 1178.02 434.141   8
   1 -10  -7 86171.2 4187.67   8
  -1  10   7 82185.8 4199.17   7
  -1  10   7 80521.0 3779.59  19
   1 -10  -6 15059.5 1515.43   8
  -1  10   6 14097.1 1331.58  19
  -1  10   6 14753.9 1537.78   7
   1 -10  -5 5821.21 939.142   8
  -1  10   5 5381.14 823.152  19
  -1  10   5 5557.11 929.895   7
  -1  10   4 109255. 5137.89   7
  -1  10   4 111033. 4847.92  19
   1 -10  -4 113975. 5111.63   8
  -1  10   3 1300.01 415.028  19
  -1  10   3 1566.98 487.874   7
  -1  10   2 20504.6 2099.96   4
   1 -10  -2 18734.1 1630.51  10
  -1  10   2 18478.5 1672.73   7
  -1  10   1 57485.6 3180.92   7
  -1  10   1 59872.1 3784.05   4
   1 -10  -1 56599.0 3081.39  10
   1 -10   0 13798.3 1294.10  10
  -1  10   0 11646.1 1277.27   7
  -1  10   0 11708.4 1547.26   4
   1 -10   1 190518. 8218.81   2
  -1  10  -1 190898. 7601.79   7
  -1  10  -1 200517. 8484.98   4
  -1  10  -1 203323. 7742.13  20
   1 -10   1 204194. 7446.73  10
   1 -10   2 11425.4 1476.00   2
   1 -10   2 13929.8 1266.13  10
  -1  10  -2 12033.7 1299.42   7
  -1  10  -2 12968.4 1362.96  20
  -1  10  -3 21248.5 1833.20  20
  -1  10  -3 30134.7 3666.77   3
  -1  10  -4 39172.9 2593.82  20
  -1  10  -5 25184.7 2036.89  20
  -1  10  -6 181722. 7399.26  20
  -1  10  -7 4401.43 809.000  20
  -1  10  -8 9938.35 1129.60  16
  -1  10  -8 8476.63 1160.90  20
  -1  10  -9 9209.29 1039.52  16
  -1  10  -9 7720.41 1077.04  20
  -1  10 -10 19177.2 1494.41  16
  -1  10 -10 17467.4 1566.17  20
  -1  10 -11 18002.2 1495.17  17
  -1  10 -11 18332.0 1353.25  16
  -1  10 -12 4198.88 600.693  17
  -1  10 -13 2125.97 339.890  17
   1  -9 -13 2136.51 356.491   8
  -1   9  13 1459.71 276.519   7
   1  -9 -12 404.899 229.337   8
   1  -9 -11 85204.1 3839.98   8
   1  -9 -10 43301.6 2596.85   8
  -1   9   9 69105.4 3278.25  19
   1  -9  -9 72342.9 3715.80   8
  -1   9   8 722.705 314.704  19
   1  -9  -8 524.341 332.561   8
   1  -9  -7 1136.12 442.215   8
  -1   9   7 905.383 361.443  19
  -1   9   6 177812. 6824.88  19
   1  -9  -6 171043. 7125.78   8
  -1   9   5 11969.6 1662.76   4
   1  -9  -5 9808.63 1219.51   8
  -1   9   5 10343.9 1787.49   3
  -1   9   5 10244.0 1131.50  19
  -1   9   4 188947. 9518.09   3
  -1   9   4 179944. 7940.28   4
  -1   9   4 166452. 6653.39  19
  -1   9   4 175264. 7153.70   7
   1  -9  -4 173317. 6958.77   8
  -1   9   3 20072.4 1606.12  19
  -1   9   3 22087.4 2148.96   4
  -1   9   3 22221.1 1849.27   7
   1  -9  -3 21537.8 1752.96   8
  -1   9   2 3550.28 716.033   7
  -1   9   2 4704.19 924.235   4
   1  -9  -2 4020.98 723.327   8
  -1   9   2 3497.51 632.726  19
  -1   9   1 80958.9 3923.09   7
  -1   9   1 80090.1 4421.37   4
  -1   9   0 3552.09 800.843   4
  -1   9   0 3535.14 671.040   7
   1  -9   0 3769.14 667.058  10
  -1   9  -1 160325. 7194.43   4
  -1   9  -1 162325. 6567.28   7
   1  -9   1 177422. 6463.37  10
  -1   9  -2 10855.4 1206.67  20
  -1   9  -2 10116.7 1134.90   7
   1  -9   2 11733.9 1113.72  10
   1  -9   2 10509.8 1298.52   2
  -1   9  -2 11062.9 1424.12   4
  -1   9  -3 853.166 369.225   7
  -1   9  -3 722.975 344.892  20
  -1   9  -3 433.753 477.338   3
  -1   9  -4 6896.57 1589.94   3
  -1   9  -4 6605.06 966.018  20
  -1   9  -5 392.350 354.158   3
  -1   9  -5 35.7223 212.689  20
  -1   9  -6 4245.50 775.431  20
  -1   9  -7 5393.18 908.885  20
  -1   9  -8 3032.05 575.756   9
  -1   9  -8 2437.39 623.951  20
  -1   9  -8 3906.03 731.385  16
  -1   9  -9 16075.5 1335.22   9
  -1   9  -9 15051.1 1585.80  20
  -1   9  -9 16303.9 1523.93  16
  -1   9 -10 14121.7 1190.97   9
  -1   9 -10 13749.8 1361.43  16
  -1   9 -10 12668.3 1415.14  20
  -1   9 -11 50751.0 2970.53  17
  -1   9 -11 50204.6 2758.07  16
  -1   9 -12 1401.20 404.866  17
  -1   9 -13 41861.7 2165.38  17
   1  -8 -14 5015.44 506.875   8
  -1   8  14 3075.58 391.225   7
   1  -8 -13 18091.7 1269.01   8
   1  -8 -12 1158.85 366.117   8
   1  -8 -11 78692.1 3648.78   9
   1  -8 -11 80605.4 3869.88   8
   1  -8 -10 9951.62 1194.28   8
   1  -8 -10 10899.3 1143.43   9
  -1   8   9 9752.73 1022.63  19
   1  -8  -9 8882.34 1165.50   8
   1  -8  -9 7880.00 1033.23   9
   1  -8  -8 5751.82 963.306   8
  -1   8   8 5716.35 818.268  19
   1  -8  -8 5844.86 882.523   9
  -1   8   7 40588.4 3258.36   4
  -1   8   7 36112.5 2295.66  19
   1  -8  -7 34754.3 2492.05   8
   1  -8  -7 36808.9 2408.35   9
   1  -8  -6 27428.4 2018.00   9
   1  -8  -6 27825.5 2148.82   8
  -1   8   6 33009.3 2820.15   4
  -1   8   6 31768.3 2077.71  19
   1  -8  -5-98.0574 204.529   8
  -1   8   5-622.384 437.056   3
  -1   8   5-547.719 266.728  19
  -1   8   4 1907.20 604.238   4
  -1   8   4 2162.17 819.840   3
   1  -8  -4 1472.21 467.166   8
  -1   8   3 101490. 5135.51   4
  -1   8   2 48160.5 3126.95   4
  -1   8   1 4540.12 846.664   4
  -1   8   0 32196.1 2382.94   4
  -1   8  -1 218538. 8567.69   4
  -1   8  -2 97700.1 4801.71   4
   1  -8   3 169.698 155.132   2
  -1   8  -4 1186.05 661.034   3
  -1   8  -4 552.994 313.036  20
  -1   8  -5 75469.0 3801.31  20
  -1   8  -5 83210.7 5378.49   3
  -1   8  -6 184148. 7409.86  20
  -1   8  -6 195360. 8857.32   1
  -1   8  -7 2743.89 830.741   1
  -1   8  -7 1826.01 531.187  20
  -1   8  -8 45522.7 2985.95  20
  -1   8  -8 50079.4 2685.64   9
  -1   8  -9 14195.5 1290.71   9
  -1   8  -9 14676.7 1493.17  16
  -1   8  -9 13299.9 1513.01  20
  -1   8 -10 4914.07 860.204  20
  -1   8 -10 4298.69 673.960   9
  -1   8 -10 4492.79 794.089  16
  -1   8 -11 39283.2 2680.76  17
  -1   8 -11 41655.0 2582.94  16
  -1   8 -11 41625.3 2258.62   9
  -1   8 -12 17350.0 1552.14  17
  -1   8 -12 18896.4 1277.66   9
  -1   8 -13 21843.7 1583.44  17
  -1   8 -14 28834.6 1588.89  17
   1  -7 -15 3903.38 397.702   8
   1  -7 -14 20863.4 1311.23   8
   1  -7 -13 10772.5 958.965   9
   1  -7 -13 11502.8 1079.39   8
   1  -7 -12 35905.0 2239.70   8
   1  -7 -12 31953.7 2027.74   9
   1  -7 -11 16421.0 1450.58   9
   1  -7 -10 22381.4 1797.35   9
   1  -7  -9 955.250 385.335   9
  -1   7   8 52012.0 3732.94   4
   1  -7  -8 44187.1 2734.76   9
  -1   7   7 94615.5 5190.81   4
   1  -7  -7 82032.9 4053.92   9
  -1   7   6 107829. 5634.11   4
  -1   7   5 136.420 227.157   4
  -1   7   5 541.256 373.934   3
  -1   7   4 137974. 6369.15   4
  -1   7   4 152804. 7675.96   3
  -1   7   3 847.648 431.890   4
  -1   7   2 6501.88 965.540   4
  -1   7   1 58840.1 3284.62   4
  -1   7   0 1286.77 436.899   4
  -1   7  -1 48901.2 2871.09   4
  -1   7  -2 114899. 5144.18   4
   1  -7   3 39884.0 2340.56   2
  -1   7  -4 249316. 10900.7   3
  -1   7  -5 29943.1 2830.87   3
  -1   7  -6 8751.86 1427.81   1
  -1   7  -6 7919.44 1017.44  20
  -1   7  -7 75601.3 3907.49  20
  -1   7  -7 80344.1 4859.27   1
  -1   7  -8 2829.30 679.067  20
  -1   7  -8 3382.61 601.688   9
  -1   7  -8 2953.23 854.952   1
  -1   7  -9 269466. 9369.41   9
  -1   7  -9 269581. 9834.84  16
  -1   7  -9 243478. 9893.36  20
  -1   7 -10 20828.8 1971.53  20
  -1   7 -10 25332.5 2032.97  16
  -1   7 -10 25679.2 1789.61   9
  -1   7 -11 10885.4 1097.44   9
  -1   7 -11 12353.3 1363.61  16
  -1   7 -11 10741.1 1339.02  17
  -1   7 -12 1650.40 535.808  17
  -1   7 -12 2168.86 431.513   9
  -1   7 -12 3101.26 646.528  16
  -1   7 -13 11116.5 1162.89  17
  -1   7 -13 12823.5 981.174   9
  -1   7 -14 92252.1 3831.87  17
  -1   7 -15 13.0398 134.252  21
   1  -6 -15 3626.56 466.104   8
   1  -6 -15 3240.21 383.671   9
   1  -6 -14 3464.95 544.033   8
   1  -6 -14 3437.23 493.269   9
   1  -6 -13 472.472 234.580   9
   1  -6 -12 2130.54 509.532   9
   1  -6 -11 8009.06 1034.14   9
   1  -6 -10 13609.4 1379.45   9
  -1   6   9 25782.5 2537.29   4
   1  -6  -9 24329.7 1907.74   9
  -1   6   8 62586.7 4051.14   4
   1  -6  -8 58232.5 3188.31   9
  -1   6   7 51683.4 3547.25   4
  -1   6   6 43278.8 3061.62   4
  -1   6   5 3638.25 793.063   4
  -1   6   5 3776.44 891.722   3
  -1   6   4 741.280 374.742   4
  -1   6   4 465.413 434.335   3
  -1   6   3 462844. 15666.9   4
  -1   6   2 146969. 6010.25   4
  -1   6   1 382066. 12994.5   4
  -1   6   0 13674.1 1277.76   4
  -1   6  -1 6400.22 855.870   4
  -1   6  -2 345718. 11890.7   4
   1  -6   3 53296.4 2556.10   2
  -1   6  -3 48237.4 2819.07   4
   1  -6   4 496833. 15950.2   2
  -1   6  -4 500342. 17887.8   3
  -1   6  -5 645.969 370.003   3
  -1   6  -6 2.12332 242.196   3
  -1   6  -6 463.658 308.353   1
  -1   6  -7 30546.8 2689.88   1
  -1   6  -8 741.532 361.055  20
  -1   6  -8 1095.95 487.876   1
  -1   6  -9 24525.9 2073.71  20
  -1   6  -9 26833.6 1837.07   9
  -1   6  -9 24599.7 2517.54   1
  -1   6  -9 25559.5 2013.54  16
  -1   6 -10 3671.36 670.614   9
  -1   6 -10 4594.76 827.278  16
  -1   6 -11 20026.1 1892.33  17
  -1   6 -11 25419.8 2017.83  16
  -1   6 -11 22243.1 1661.61   9
  -1   6 -12 7754.70 887.390   9
  -1   6 -12 9488.24 1159.35  16
  -1   6 -12 7787.20 1090.45  17
  -1   6 -13 12669.4 1288.65  17
  -1   6 -13 12397.1 1042.23   9
  -1   6 -14 16182.3 1306.93  17
  -1   6 -14 16742.0 1081.52   9
  -1   6 -15 7302.45 649.723  17
   1  -5 -16 647.117 163.096   8
   1  -5 -15 35312.3 1821.57   8
   1  -5 -15 33763.5 1698.04   9
   1  -5 -14 20838.0 1446.35   9
  -1   5  14 21892.3 1546.55  23
   1  -5 -13 96379.8 4208.40   9
   1  -5 -12 54840.2 2981.47   9
   1  -5 -11 2233.77 550.575   9
  -1   5  10 49190.4 3591.50   4
   1  -5 -10 46985.9 2798.51   9
   1  -5  -9 2923.48 606.808   9
  -1   5   9 2897.50 780.112   4
  -1   5   8 334114. 12708.4   4
  -1   5   7 70433.2 4091.20   4
  -1   5   6 107392. 5194.43   4
  -1   5   5 72044.7 4071.50   3
  -1   5   5 68597.5 3715.83   4
  -1   5   4 16389.7 1821.54   3
  -1   5   4 15793.3 1472.95   4
  -1   5   3 208826. 8159.28   4
  -1   5   3 259035. 9763.75   3
  -1   5   2 8900.66 982.795   4
  -1   5   1 81215.4 3627.06   4
  -1   5   0 91520.4 3919.57   4
  -1   5  -1 146382. 5612.03   4
  -1   5  -2-54.7355 112.984   4
  -1   5  -3 183.458 172.403   4
  -1   5  -3 226.319 307.009   3
   1  -5   3 622.040 202.386   2
   1  -5   4 1935.60 363.737   2
  -1   5  -4 2132.29 618.728   3
  -1   5  -5 210089. 8255.13   1
  -1   5  -5 190888. 8007.55   3
  -1   5  -6 86114.0 4367.77   3
  -1   5  -6 93872.1 4838.13   1
  -1   5  -7 798.849 409.236   1
  -1   5  -8 63094.1 3223.27  16
  -1   5  -8 57089.8 3254.94  20
  -1   5  -8 55938.9 3802.44   1
  -1   5  -9 126601. 5421.50  16
  -1   5  -9 118188. 6206.06   1
  -1   5  -9 122725. 5014.55   9
  -1   5  -9 117021. 5444.63  20
  -1   5 -10 19959.0 2234.81   1
  -1   5 -10 22972.5 1908.00  16
  -1   5 -10 20513.3 1600.20   9
  -1   5 -11 16894.5 1430.03   9
  -1   5 -11 16765.6 1643.84  16
  -1   5 -11 15277.7 1614.00  17
  -1   5 -12 2452.70 523.290   9
  -1   5 -12 2197.98 589.501  17
  -1   5 -13 13500.4 1369.88  17
  -1   5 -13 13817.1 1170.93   9
  -1   5 -14 38687.3 1978.11   9
  -1   5 -14 39179.0 2264.26  17
  -1   5 -15 5341.66 507.844   9
  -1   5 -15 5436.97 618.961  17
  -1   5 -16 11538.7 955.759  21
   1  -4 -16 8529.06 630.255   9
   1  -4 -16 9337.37 715.551   8
  -1   4  15 33989.3 1937.43  23
   1  -4 -15 31689.7 1748.00   9
   1  -4 -14 5386.06 720.440   9
   1  -4 -13 25448.0 1818.89   9
   1  -4 -12 5160.76 821.647   9
   1  -4 -11 90996.1 4275.29   9
   1  -4 -10 63914.1 3371.86   9
  -1   4  10 67188.5 4202.00   4
  -1   4   9 88295.0 4851.56   4
   1  -4  -9 87073.3 4062.47   9
  -1   4   8 14380.9 1658.80   4
  -1   4   7 48186.4 3102.62   4
  -1   4   6 254541. 9505.59   4
  -1   4   6 250407. 9381.59   3
  -1   4   5 216323. 8245.76   3
  -1   4   5 203184. 7892.37   4
  -1   4   4 325465. 11256.0   3
  -1   4   4 285125. 10379.2   4
  -1   4   3 138419. 5429.60   4
  -1   4   3 143768. 6355.56   3
  -1   4   2 175284. 7294.67   3
  -1   4   2 161110. 6075.50   4
  -1   4   1 9444.42 891.380   4
  -1   4   0 109950. 4287.49   4
  -1   4  -1 126580. 4791.09   4
  -1   4  -2 31806.2 2399.67   3
  -1   4  -2 28303.7 1696.22   4
  -1   4  -3 31938.3 2361.97   3
   1  -4   3 32228.5 1524.62   2
   1  -4   4 153184. 5057.77   2
  -1   4  -4 139037. 6130.23   3
  -1   4  -4 146997. 6150.68   1
  -1   4  -5 1944.57 550.547   1
  -1   4  -5 1525.89 443.956   3
  -1   4  -6 36996.4 2371.33   3
  -1   4  -6 40612.7 2762.52   1
  -1   4  -7 61622.2 3736.89   1
  -1   4  -8 8469.67 1320.37   1
  -1   4  -9 43670.3 2637.53  16
  -1   4  -9 40718.1 3157.38   1
  -1   4 -10 143350. 5751.20   9
  -1   4 -10 137034. 6972.62   1
  -1   4 -10 152830. 6244.00  16
  -1   4 -11 998.034 409.369  16
  -1   4 -11 954.949 417.272  17
  -1   4 -11 1131.88 375.733   9
  -1   4 -12 99156.1 4739.04  17
  -1   4 -12 99535.6 4317.96   9
  -1   4 -13 45858.5 2766.46  17
  -1   4 -13 46156.8 2462.47   9
  -1   4 -14 6489.09 863.866  17
  -1   4 -14 6961.15 746.592   9
  -1   4 -15 10570.1 826.267   9
  -1   4 -16 29.3009 114.981  21
   1  -3 -16 73327.9 2923.08   9
  -1   3  16 79075.1 3181.47  23
   1  -3 -15 181.233 194.826   9
   1  -3 -14 2368.89 498.648   9
   1  -3 -13 2437.32 576.361   9
   1  -3 -12 59610.6 3188.10   9
  -1   3  11 62257.1 4017.45   4
   1  -3 -11 60949.5 3259.29   9
   1  -3 -10 229.483 263.708   9
  -1   3  10 462.279 321.974   4
  -1   3   9 13384.4 1598.35   4
  -1   3   8 12249.5 1456.61   4
  -1   3   7 10788.0 1289.05   4
  -1   3   6 1867.62 504.164   4
  -1   3   6 1757.54 423.920   3
  -1   3   5 18474.8 1499.99   4
  -1   3   5 17731.3 1523.11   3
  -1   3   4 19411.3 1452.16   4
  -1   3   4 22631.2 1752.22   3
  -1   3   3 315.741 180.445   4
  -1   3   3 311.780 236.024   3
  -1   3   2 49329.8 2339.75   4
  -1   3   2 54402.0 3050.17   3
  -1   3   1 14442.6 1474.94   3
  -1   3   1 16131.3 1087.07   4
  -1   3   0 712715. 21023.1   1
  -1   3   0 629948. 22391.6   3
  -1   3  -1 251135. 8797.43   3
  -1   3  -1 236865. 7695.47   4
  -1   3  -2 56075.0 2459.95   4
  -1   3  -2 49774.1 2552.78   1
   1  -3   3 58538.8 2145.59   2
  -1   3  -3 61907.2 3142.23   3
  -1   3  -3 56249.6 2903.31   1
  -1   3  -4 20811.7 1640.00   1
  -1   3  -4 19405.4 1560.77   3
  -1   3  -5 699248. 22505.3   3
  -1   3  -5 723388. 22931.8   1
  -1   3  -6 83482.7 4221.38   1
  -1   3  -6 81640.2 3685.56   3
  -1   3  -7 263100. 10118.0   1
  -1   3  -8 47374.3 3221.63   1
  -1   3  -9 2480.01 694.007   1
  -1   3  -9 2750.68 602.310  16
  -1   3 -10 188024. 8459.49   1
  -1   3 -10 188463. 7613.29  17
  -1   3 -10 196726. 7527.31  16
  -1   3 -10 185920. 7080.82   9
  -1   3 -11 9236.78 1450.32   1
  -1   3 -11 9423.88 1200.99  17
  -1   3 -11 10899.4 1120.24   9
  -1   3 -11 9893.62 1211.98  16
  -1   3 -12 85465.7 4322.91  17
  -1   3 -12 90052.8 4009.56   9
  -1   3 -13 707.227 359.176  17
  -1   3 -13 1408.68 398.814   9
  -1   3 -14 19913.8 1547.16  17
  -1   3 -14 18869.5 1369.43   9
  -1   3 -15 7507.36 719.821   9
  -1   3 -16 972.527 207.583   9
  -1   3 -16 1210.57 344.172  21
   1  -2 -16 639.186 212.983   9
  -1   2  16 1145.55 319.856  23
   1  -2 -15 1877.92 415.721   9
   1  -2 -14 488.127 230.554   9
   1  -2 -13 7363.55 955.307   9
   1  -2 -12 37542.6 2389.54   9
  -1   2  11 69163.0 4215.12   4
   1  -2 -11 66957.2 3460.17   9
  -1   2  10 21507.9 2103.46   4
   1  -2 -10 21646.9 1693.30   9
  -1   2   9 44324.7 3049.40   4
  -1   2   8 27562.2 2191.69   4
  -1   2   7 224478. 8573.88   4
  -1   2   6 44341.3 2598.59   4
  -1   2   5 443231. 14706.5   4
  -1   2   5 455694. 14736.7   3
  -1   2   4 214342. 7424.65   4
  -1   2   4 211330. 7711.11   3
  -1   2   4 209574. 7541.77   2
  -1   2   3 20684.7 1556.51   3
  -1   2   3 18580.0 1212.43   4
  -1   2   2 2399.39 366.688   4
  -1   2   2 2329.35 520.205   3
  -1   2   1 344979. 10888.3   4
  -1   2   1 344131. 11739.1   3
  -1   2   0 999999. 31045.3   3
  -1   2  -1 12449.5 839.826   1
  -1   2  -1 11901.7 1147.49   3
  -1   2  -1 11933.0 805.721   4
  -1   2  -2 146940. 4992.27   4
  -1   2  -2 145834. 5635.25   3
  -1   2  -2 138418. 5188.13   1
  -1   2  -3 113884. 4453.98   3
  -1   2  -3 96354.6 4187.09   1
  -1   2  -4 216786. 7609.20   3
  -1   2  -4 204395. 7688.73   1
  -1   2  -5 57485.4 3090.01   1
  -1   2  -5 56725.3 2766.30   3
  -1   2  -6 37.0017 111.800   1
  -1   2  -7 49964.9 3162.76   1
  -1   2  -8 159756. 7048.07   1
  -1   2  -9 229379. 9454.12   1
  -1   2 -10 587.753 294.440  16
  -1   2 -10 351.644 199.956   9
  -1   2 -10-177.684 209.196  17
  -1   2 -10 416.613 326.813   1
  -1   2 -11 560.467 277.529  17
  -1   2 -11-85.5239 215.316   1
  -1   2 -11 1042.93 375.668   9
  -1   2 -12 32298.9 2289.51  17
  -1   2 -12 30289.8 2020.66   9
  -1   2 -13 58565.8 3203.18  17
  -1   2 -13 58653.9 2972.22   9
  -1   2 -14 16389.4 1289.00   9
  -1   2 -15 389.363 206.633   9
  -1   2 -16 26284.4 1676.76  21
  -1   2 -16 24817.1 1262.97   9
  -1   1  17 25253.5 1355.98  23
   1  -1 -16 40914.6 1973.33   9
   1  -1 -15 3954.03 590.522   9
   1  -1 -14 3793.52 634.026   9
   1  -1 -13 625.279 297.827   9
   1  -1 -12 80078.2 3893.07   9
   1  -1 -11 74359.5 3650.47   9
  -1   1  11 69863.2 4244.96   4
   1  -1 -10 160462. 6247.45   9
  -1   1  10 150393. 6967.98   4
  -1   1   9 12224.4 1474.30   4
  -1   1   8 219145. 8430.55   2
  -1   1   7 23295.8 1810.49   2
  -1   1   6 95481.8 4261.04   2
   1  -1  -6 96830.1 3666.93   1
  -1   1   5 71196.1 3353.80   4
   1  -1  -5 79882.6 2899.56   1
  -1   1   5 73349.4 3434.21   2
  -1   1   4 253732. 8727.14   2
  -1   1   4 255719. 8576.67   4
  -1   1   3 510176. 16012.3   4
  -1   1   3 525428. 16572.4   3
  -1   1   3 515065. 16263.4   2
  -1   1   2 99906.1 3614.73   4
  -1   1   2 104970. 3878.76   2
  -1   1   2 107293. 4291.53   3
  -1   1   1 282753. 9090.16   4
  -1   1   1 297133. 8816.67   1
  -1   1   1 276438. 9865.46   3
  -1   1   1 292325. 9291.58   2
  -1   1   0 8846.10 573.833   4
  -1   1   0 8581.27 546.160   1
  -1   1   0 7425.47 848.386   3
  -1   1   0 8554.43 598.723   2
  -1   1  -1 118921. 4180.33   1
  -1   1  -1 120292. 4761.53   3
  -1   1  -1 121828. 4042.69   4
  -1   1  -2 202825. 7046.30   3
  -1   1  -2 190417. 6653.12   1
  -1   1  -3 216911. 7480.36   3
  -1   1  -3 205249. 7366.13   1
  -1   1  -4 295375. 10174.7   1
  -1   1  -5 36083.6 2286.53   1
  -1   1  -6 124.466 187.563   1
  -1   1  -7 6401.62 1008.03   1
  -1   1  -8 48258.9 3176.16   1
  -1   1  -9 1297.60 508.710   1
  -1   1 -10 305.057 285.078   1
  -1   1 -10 219.298 184.238   9
  -1   1 -10 292.022 237.059  17
  -1   1 -11 4561.21 1055.92   1
  -1   1 -11 4256.48 704.637   9
  -1   1 -11 4783.01 850.871  17
  -1   1 -12 6427.42 940.962  17
  -1   1 -12 6011.18 852.012   9
  -1   1 -13 20128.4 1563.74   9
  -1   1 -14 17115.9 1338.76   9
  -1   1 -15 32210.0 2230.70  21
  -1   1 -15 34167.9 1837.21   9
  -1   1 -16 6565.40 772.736  21
  -1   1 -16 6938.74 607.092   9
  -1   0  17 3132.86 435.375  23
   1   0 -16 3824.42 522.188   9
   1   0 -15 66310.6 3086.20   9
   1   0 -14 42975.5 2482.62   9
   1   0 -13 136202. 5665.51   9
   1   0 -12 15147.7 1434.63   9
   1   0 -11 8688.19 1068.83   9
  -1   0  11 8085.54 1283.53   4
   1   0 -10 67936.0 3400.98   9
  -1   0   9 198302. 7959.45   2
  -1   0   8 342936. 12111.4   2
  -1   0   7 26083.9 1927.92   2
   1   0  -7 29076.1 1770.44   1
  -1   0   6 35306.8 2168.09   2
  -1   0   5 637.880 264.699   2
  -1   0   4 115781. 4523.06   2
  -1   0   3 154407. 5624.18   2
  -1   0   3 160074. 5376.72   4
  -1   0   2 24180.0 1117.78   4
  -1   0   2 25074.7 1382.51   2
  -1   0   1 114533. 3706.13   4
  -1   0   1 117653. 3786.90   1
  -1   0   1 109589. 4034.09   2
  -1   0   0 15877.9 863.509   1
  -1   0   0 16313.4 704.678   4
  -1   0   0 15038.7 866.035   2
  -1   0  -1 29705.9 1420.21   1
  -1   0  -1 28562.5 1179.05   2
  -1   0  -2 7483.03 692.726   1
  -1   0  -2 7379.44 321.173   2
  -1   0  -3 51644.5 2469.33   1
  -1   0  -4 320942. 10873.1   1
  -1   0  -5 6469.41 879.761   1
  -1   0  -6 51874.9 2983.44   1
  -1   0  -7 37545.7 2579.37   1
  -1   0  -8 340934. 12525.7   1
  -1   0  -9 154965. 6966.09   1
  -1   0 -10 77574.8 3635.41   9
  -1   0 -10 77315.7 4507.06   1
  -1   0 -10 74172.4 3850.91  17
  -1   0 -11 8214.14 1327.69   1
  -1   0 -11 7954.72 966.114   9
  -1   0 -12 971.304 349.804   9
  -1   0 -13 85953.5 3934.69   9
  -1   0 -14 9905.82 1007.94   9
  -1   0 -15 73484.2 3096.45   9
  -1   0 -15 66315.3 3442.64  21
  -1   0 -16 491.690 184.062   9
  -1  -1  17 711.366 210.105  23
   1   1 -16 977.307 275.879   9
   1   1 -15 34424.4 1998.48   9
   1   1 -14 5163.02 760.881   9
   1   1 -13 15524.6 1441.57   9
   1   1 -12 48469.1 2826.07   9
   1   1 -11 268.112 252.389   9
   1   1 -10 25843.0 1874.47   9
  -1  -1  10 25489.1 2194.47   2
   1   1  -9 6513.40 937.288   1
  -1  -1   9 7192.48 1050.29   2
   1   1  -8 10806.7 1165.39   1
  -1  -1   8 10924.2 1255.91   2
  -1  -1   7 23940.2 1827.27   2
  -1  -1   6 43244.7 2479.27   2
  -1  -1   5 45347.3 2425.01   2
  -1  -1   4 397905. 12948.2   2
  -1  -1   3 80446.0 3296.79   2
  -1  -1   2 201454. 6787.69   2
  -1  -1   1 525248. 16218.5   2
  -1  -1   0 97528.1 3492.14   2
  -1  -1   0 101500. 3560.72   1
  -1  -1  -1 408894. 12536.8   2
  -1  -1  -1 410350. 12855.7   1
  -1  -1  -2 11125.9 626.499   2
  -1  -1  -2 11649.3 901.165   1
  -1  -1  -3 458923. 13894.5   2
  -1  -1  -3 470931. 14769.8   1
  -1  -1  -4 150830. 4708.08   2
  -1  -1  -4 152776. 5784.03   1
  -1  -1  -5 109787. 4709.42   1
  -1  -1  -6 33239.7 2269.28   1
  -1  -1  -7 110475. 5127.77   1
  -1  -1  -8 94237.4 4802.82   1
  -1  -1  -9 403.859 208.854   1
  -1  -1 -10 76687.5 4571.53   1
  -1  -1 -10 84200.3 3869.33   9
  -1  -1 -11 46593.8 2685.19   9
  -1  -1 -11 45662.4 3364.83   1
  -1  -1 -12 126216. 5313.67   9
  -1  -1 -13 10398.6 1115.89   9
  -1  -1 -14 288.242 211.941   9
  -1  -1 -14-445.667 345.553  21
  -1  -1 -15 1685.70 383.147   9
  -1  -1 -16 36002.2 1684.16   9
   1   2 -16 4336.39 543.393   9
   1   2 -15-70.3043 143.840   9
   1   2 -14 14118.5 1301.70   9
   1   2 -13 66165.8 3427.43   9
   1   2 -12 15406.5 1461.84   9
   1   2 -11 14340.5 1412.62   9
  -1  -2  11 13518.7 1643.96   2
   1   2 -10 5470.76 851.019   9
  -1  -2  10 6507.52 1069.75   2
  -1  -2   9 135455. 6106.37   2
   1   2  -9 138536. 6081.96   1
  -1  -2   8 106044. 4930.89   2
  -1  -2   7 8200.41 1032.51   2
  -1  -2   6 42828.8 2516.93   2
  -1  -2   5 183844. 6801.06   2
  -1  -2   4 89912.3 3763.73   2
  -1  -2   3 37606.1 1939.14   2
  -1  -2   2 122633. 4498.60   2
  -1  -2   1 142166. 4976.43   2
  -1  -2  -1 14134.0 993.971   1
  -1  -2  -1 15922.4 938.967   2
  -1  -2  -2 234601. 7522.40   2
  -1  -2  -2 231284. 7899.14   1
  -1  -2  -3 10778.4 753.999   2
  -1  -2  -3 11344.7 1002.73   1
  -1  -2  -4 193914. 7102.42   1
  -1  -2  -5 449434. 14971.5   1
  -1  -2  -6 109530. 4938.19   1
  -1  -2  -7 183487. 7471.05   1
  -1  -2  -8 1696.55 559.801   1
  -1  -2  -9 22171.8 2077.18   1
  -1  -2 -10 17401.8 1935.85   1
  -1  -2 -10 17752.5 1540.77   9
  -1  -2 -11 64783.2 4163.29   1
  -1  -2 -11 67735.5 3453.54   9
  -1  -2 -12 64423.6 3861.12  21
  -1  -2 -12 67092.1 3408.18   9
  -1  -2 -13 4215.41 694.597   9
  -1  -2 -14 819.474 304.483   9
  -1  -2 -15 248.732 183.635   9
  -1  -2 -16 81.0080 81.6174   9
   1   3 -16 392.008 194.051   9
   1   3 -15 7523.15 827.931   9
   1   3 -14 15139.4 1339.31   9
   1   3 -13 158.210 235.073   9
   1   3 -12 91679.5 4374.15   9
  -1  -3  11 1062.03 462.556   2
   1   3 -11 2027.56 570.582   9
   1   3 -10 205844. 8750.22   1
   1   3 -10 214279. 8030.31   9
  -1  -3  10 209774. 8692.96   2
  -1  -3   9 37.3949 168.244   2
  -1  -3   8 21242.0 1879.97   2
  -1  -3   7 207856. 8041.84   2
  -1  -3   6 198851. 7564.99   2
  -1  -3   5 674290. 21433.7   2
  -1  -3   4 339.263 200.470   2
  -1  -3   3 18977.2 1324.82   2
  -1  -3   2 98559.1 3875.07   2
  -1  -3   1 186477. 6443.79   2
  -1  -3   0 253842. 8515.80   2
  -1  -3   0 263190. 8545.17   1
  -1  -3  -1 22271.5 1284.62   1
  -1  -3  -1 21794.3 1211.28   2
   1   3   2 72020.8 2524.28   4
  -1  -3  -2 73798.7 3012.73   2
  -1  -3  -2 77122.6 3207.08   1
   1   3   3 71999.2 2689.08   4
  -1  -3  -3 71997.7 3251.54   1
  -1  -3  -4 10029.9 1035.55   1
   1   3   4 8224.74 723.931   4
  -1  -3  -5 23651.7 1794.43   1
  -1  -3  -6 3038.87 652.459   1
  -1  -3  -7 509.245 307.104   1
  -1  -3  -8 46949.0 3122.91   1
  -1  -3  -9 13228.7 1309.03   9
   1   3   9 14724.1 1551.58   4
  -1  -3  -9 14069.3 1679.78   1
  -1  -3 -10 1788.96 507.427   9
   1   3  10 2138.03 578.897   4
  -1  -3 -10 2025.40 677.548   1
  -1  -3 -11 73613.8 3708.89   9
  -1  -3 -12 77082.8 3790.00   9
  -1  -3 -13 1325.31 404.680   9
  -1  -3 -14-105.848 178.232   9
  -1  -3 -15 3125.29 476.962   9
   1   3  16 58486.6 2335.97  19
  -1  -3 -16 54793.7 2221.03   9
   1   4 -16 1296.49 273.567   9
  -1  -4  16 854.059 234.209  23
   1   4 -15 35871.3 1967.93   9
   1   4 -14 2065.04 464.482   9
   1   4 -13 10755.1 1186.34   9
  -1  -4  13 11173.3 1061.86   5
   1   4 -12 96631.8 4407.40   9
  -1  -4  12 83600.4 3958.94   5
   1   4 -11 52994.8 3079.01   9
   1   4 -10 115975. 5145.35   9
  -1  -4  10 116819. 5809.56   2
   1   4  -9 25132.7 1889.19   9
  -1  -4   9 27521.6 2327.83   2
  -1  -4   8 6840.45 1075.89   2
  -1  -4   7 97633.2 4691.13   2
  -1  -4   6 3030.03 618.441   2
  -1  -4   5 25428.3 1834.84   2
  -1  -4   4 143384. 5646.23   2
  -1  -4   3 187.855 160.676   2
  -1  -4   2 189873. 6815.83   2
  -1  -4   1 68540.7 3057.60   2
  -1  -4   0 33495.4 1863.12   2
  -1  -4  -1 37920.7 1895.88   2
  -1  -4  -1 38260.7 1884.21   1
   1   4   2 107342. 3788.51   4
  -1  -4  -2 119663. 4520.14   2
  -1  -4  -2 120148. 4552.56   1
  -1  -4  -3 111230. 4653.48   1
   1   4   3 116794. 4073.22   4
   1   4   4 202997. 6881.26   4
  -1  -4  -4 199933. 7509.03   1
  -1  -4  -5 44658.3 2747.07   1
   1   4   5 52170.4 2435.96   4
  -1  -4  -6 173948. 7211.49   1
   1   4   6 183635. 6690.87   4
  -1  -4  -7 92361.4 4813.17   1
   1   4   7 106145. 4546.27   4
  -1  -4  -8 299.473 260.283   1
   1   4   8 321.615 204.154   4
  -1  -4  -9 29874.8 2106.93   9
  -1  -4  -9 28593.5 2459.30   1
   1   4   9 28463.7 2239.07   4
  -1  -4 -10 9737.81 1390.69   1
  -1  -4 -10 7813.56 1048.40   9
  -1  -4 -11 43136.2 2670.94   9
  -1  -4 -12 1685.73 506.224   9
  -1  -4 -13 72073.4 3476.37   9
  -1  -4 -14 15986.2 1116.59  25
  -1  -4 -14 14394.2 1200.38   9
  -1  -4 -15 32483.7 1716.43   9
   1   4  15 35301.7 1775.76  19
   1   4  16 3080.80 355.624  19
   1   5 -16 14222.6 868.947   9
  -1  -5  15 2263.62 395.544  23
   1   5 -15 2648.41 456.615   9
   1   5 -14 84935.5 3763.88   9
   1   5 -13 20684.2 1654.92   9
  -1  -5  13 19977.4 1463.00   5
   1   5 -12 12385.3 1319.98   9
   1   5 -11 231.974 269.673   9
   1   5 -10 48724.7 2955.30   9
  -1  -5  10 54059.9 3605.06   2
   1   5  -9 156632. 6433.57  15
   1   5  -9 163634. 6807.69  20
   1   5  -9 179425. 6848.58   9
  -1  -5   9 189724. 7783.40   2
  -1  -5   8 26491.3 2292.04   2
  -1  -5   7 12028.3 1410.27   2
  -1  -5   6 46175.1 2859.08   2
  -1  -5   5 185445. 7238.09   2
  -1  -5   4 16326.1 1440.93   2
  -1  -5   3 985.848 331.321   2
  -1  -5   2 403.100 227.111   2
  -1  -5   1 119513. 4854.46   2
  -1  -5   0 28919.1 1855.99   2
  -1  -5  -1 106003. 4458.43   2
  -1  -5  -2 919.573 303.207   2
  -1  -5  -2 507.995 233.153   1
  -1  -5  -3 179218. 6765.45   1
  -1  -5  -4 5995.23 859.653   1
  -1  -5  -5 30332.3 2192.64   1
   1   5   5 33638.4 1917.94   4
  -1  -5  -6 13563.0 1431.39   1
  -1  -5  -7 48113.3 3100.61   1
  -1  -5  -8 293280. 10556.6   9
  -1  -5  -8 297146. 11228.8   1
  -1  -5  -9 41665.5 2637.01   9
  -1  -5  -9 40948.8 3009.66   1
  -1  -5 -10 103466. 4792.04   9
  -1  -5 -11 344.872 272.615   9
  -1  -5 -12 17248.4 1528.27   9
   1   5  13 61747.0 3007.04  19
  -1  -5 -13 57786.3 2961.60   9
  -1  -5 -13 58737.1 2750.54  25
   1   5  14 25876.0 1579.68  19
  -1  -5 -14 24266.2 1332.27  25
  -1  -5 -14 23593.2 1525.35   9
   1   5  15 47168.7 2080.52  19
  -1  -5 -15 45269.8 2032.09   9
   1   6 -15 2766.61 411.711   9
   1   6 -14 16290.4 1278.46   9
  -1  -6  14 17762.8 1148.30   5
   1   6 -13 2851.66 579.164   9
  -1  -6  13 3456.04 558.321   5
   1   6 -12 7304.78 999.203   9
   1   6 -11 131.928 232.376   9
   1   6 -10 247.419 281.691   9
   1   6 -10 422.750 251.196  15
   1   6  -9 17816.8 1661.47  20
   1   6  -9 17235.1 1529.54  15
  -1  -6   9 19451.0 2070.10   2
   1   6  -8 6079.25 882.314  20
   1   6  -8 5610.21 791.994  15
  -1  -6   8 6770.65 1158.42   2
  -1  -6   7 54889.8 3428.01   2
   1   6  -7 51037.8 2755.59  15
  -1  -6   6 4703.91 869.464   2
  -1  -6   5 26712.2 2090.70   2
  -1  -6   4 297051. 10746.8   2
  -1  -6   3 3699.54 700.276   2
  -1  -6   2 551083. 18104.0   2
  -1  -6   1 4575.38 751.890   2
  -1  -6   0 9606.78 1101.73   2
  -1  -6  -1 47919.6 2780.92   2
  -1  -6  -2 112657. 5029.12   2
  -1  -6  -3 609492. 20274.0   2
  -1  -6  -3 621605. 19956.1   1
  -1  -6  -4 16127.9 1482.15   1
  -1  -6  -5 35814.2 2433.49   1
  -1  -6  -6 75767.1 4013.93   1
   1   6   7 58424.2 3068.36  19
  -1  -6  -7 54025.9 3381.27   1
  -1  -6  -7 58149.2 3177.15   9
   1   6   8 48040.9 2814.40  19
  -1  -6  -8 47279.4 3172.86   1
  -1  -6  -8 48941.1 2922.86   9
  -1  -6  -9 748.666 334.108   9
   1   6   9 633.012 328.288  19
  -1  -6 -10 4554.81 817.526   9
   1   6  10 5585.52 880.512  19
  -1  -6 -10 5708.54 833.676  25
   1   6  11 34793.8 2242.98  19
  -1  -6 -11 32697.5 2079.42  25
  -1  -6 -11 31020.5 2207.50   9
  -1  -6 -12 3032.85 599.856   9
   1   6  12 3440.09 620.266  19
  -1  -6 -12 3234.79 538.786  25
   1   6  13 10378.1 989.026  19
  -1  -6 -13 9757.41 984.392   9
  -1  -6 -13 10159.5 865.276  25
  -1  -6 -14 2699.10 436.413   9
   1   6  14 2665.80 436.636  19
   1   6  15 3440.06 398.136  19
   1   7 -15 193.011 114.870   9
  -1  -7  14 61454.5 2534.14   5
   1   7 -14 61807.7 2753.86   9
   1   7 -13 18501.8 1444.82   9
  -1  -7  13 19337.0 1350.46   5
   1   7 -12 7582.37 969.327   9
   1   7 -11 7458.17 1021.93   9
   1   7 -10 15003.7 1534.20  20
   1   7 -10 15065.1 1433.26  15
   1   7 -10 15810.4 1530.52   9
   1   7  -9 181176. 7322.84  20
   1   7  -9 175872. 7038.60  15
   1   7  -8 4887.67 819.080  20
   1   7  -8 2992.28 617.910  15
  -1  -7   8 2962.08 765.584   2
  -1  -7   7 153116. 6805.09   2
   1   7  -7 140070. 5814.28  15
   1   7  -7 139563. 5951.39  20
  -1  -7   6 20257.2 1956.65   2
   1   7  -6 19839.1 1657.35  20
   1   7  -6 22191.9 1675.97  15
  -1  -7   5 815.733 367.977   2
  -1  -7   4 108567. 5163.82   2
  -1  -7   3 36741.1 2550.26   2
  -1  -7   2 87880.4 4375.41   2
  -1  -7   1 153592. 6492.72   2
  -1  -7   0 6227.19 975.281   2
  -1  -7  -1 191671. 7726.34   2
  -1  -7  -2 25850.1 2152.29   2
  -1  -7  -3 6056.31 1029.69   2
  -1  -7  -4 56092.0 3538.34   2
  -1  -7  -5 787.070 356.234   9
  -1  -7  -5 609.474 334.599   1
   1   7   5 475.192 176.804  19
   1   7   6 184507. 6910.64  19
  -1  -7  -6 168159. 7272.43   1
  -1  -7  -6 181797. 7061.14   9
  -1  -7  -6 171405. 6840.34  25
   1   7   7 78992.9 3834.73  19
  -1  -7  -7 74243.1 4135.40   1
  -1  -7  -7 77095.7 3796.63  25
  -1  -7  -7 76173.7 3906.03   9
   1   7   8 25245.4 1931.72  19
  -1  -7  -8 23599.6 1831.19  25
  -1  -7  -8 24353.3 1981.45   9
  -1  -7  -9 2440.88 618.586   9
   1   7   9 2486.97 575.500  19
  -1  -7  -9 2708.89 577.783  25
   1   7  10 10955.9 1236.94  19
  -1  -7 -10 11536.4 1147.83  25
  -1  -7 -10 10675.7 1251.08   9
   1   7  11 22526.2 1686.01  19
  -1  -7 -11 20203.2 1661.58   9
  -1  -7 -11 20020.4 1479.71  25
   1   7  12 21878.2 1546.80  19
  -1  -7 -12 20102.2 1341.77  25
  -1  -7 -12 19836.9 1533.01   9
   1   7  13 4084.61 565.973  19
  -1  -7 -13 4326.40 600.188   9
   1   7  14 22059.9 1247.55  19
  -1  -8  14 24312.5 1214.11   5
   1   8 -14 26380.8 1391.25   9
   1   8 -13 17377.1 1282.45   9
  -1  -8  13 17771.1 1203.33   5
   1   8 -12 38629.5 2287.26   9
   1   8 -11 70838.0 3577.85   9
   1   8 -10 9286.61 1163.39  20
   1   8 -10 8842.83 1104.73   9
   1   8 -10 8185.74 1038.74  15
   1   8  -9 2676.72 644.101  20
   1   8  -9 2615.40 594.298  15
   1   8  -8 23420.5 1932.77  20
   1   8  -8 23666.1 1897.38  15
   1   8  -7 893.215 361.964  20
   1   8  -7 1054.96 376.897  15
  -1  -8   7 900.578 421.973   2
   1   8  -6 203739. 7850.70  15
   1   8  -6 202060. 7919.84  20
  -1  -8   6 217779. 8850.13   2
   1   8  -5 95211.6 4411.94  20
  -1  -8   5 91227.5 4973.32   2
   1   8  -5 99708.0 4437.31  15
   1   8  -4 85619.1 4079.92  20
  -1  -8   4 86150.6 4697.49   2
  -1  -8   4 94937.6 4263.69  25
  -1  -8   3 3146.64 606.258  25
  -1  -8   3 3437.06 791.253   2
  -1  -8   2 58017.3 3553.85   2
  -1  -8   1 140507. 6375.59   2
  -1  -8   0 13299.9 1568.25   2
  -1  -8  -1 10845.0 1434.77   2
  -1  -8  -2 16362.4 1822.38   2
  -1  -8  -3 28405.6 1936.82  25
   1   8   3 29528.3 1943.14  19
  -1  -8  -3 26089.5 2422.05   2
  -1  -8  -4 1058.69 347.512  25
   1   8   4 766.136 308.575  19
  -1  -8  -4 951.046 436.974   2
  -1  -8  -5 4315.81 741.876  25
  -1  -8  -5 3271.71 827.543   2
   1   8   5 3599.62 665.032  19
  -1  -8  -6 1211.22 399.576  25
   1   8   6 2246.68 568.471  19
  -1  -8  -7 2259.05 634.921   9
  -1  -8  -7 2262.93 532.933   8
  -1  -8  -7 2003.22 506.426  25
   1   8   7 1559.18 474.904  19
  -1  -8  -8 10095.5 1238.39   9
   1   8   8 11383.0 1250.13  19
  -1  -8  -8 12867.4 1292.01   8
  -1  -8  -8 11536.2 1207.88  25
   1   8   9 51294.0 2914.09  19
  -1  -8  -9 48479.9 2946.87   9
  -1  -8  -9 50820.3 2756.53  25
   1   8  10 20650.0 1658.05  19
  -1  -8 -10 20779.9 1526.83  25
  -1  -8 -10 19973.6 1685.48   9
   1   8  11 85965.6 3804.25  19
  -1  -8 -11 82003.3 3500.55  25
   1   8  12 1927.26 414.675  19
  -1  -8 -12 1700.54 319.029  25
   1   8  13 8419.64 745.538  19
   1   8  14-67.7717 82.4885  19
   1   9 -13 42376.7 1993.25   9
  -1  -9  13 40840.3 1891.75   5
   1   9 -12-62.0951 155.879   9
   1   9 -11 68175.5 3320.57   9
   1   9 -10 4572.28 789.350  20
   1   9 -10 4861.73 782.175   9
   1   9 -10 4409.26 710.918  15
   1   9  -9 1089.85 392.341  15
   1   9  -9 1254.02 440.130  20
   1   9  -8 10050.0 1220.77  20
   1   9  -8 9148.87 1146.87  15
   1   9  -7 6050.79 921.057  20
   1   9  -7 5989.13 919.219  15
   1   9  -6 1125.51 413.504  20
   1   9  -6 836.425 359.592  15
   1   9  -5 176.139 199.937  20
   1   9  -5-56.3267 180.785  15
  -1  -9   5-318.869 258.939   2
  -1  -9   4 551.386 373.120   2
  -1  -9   4 632.663 348.525  25
   1   9  -4 397.829 277.180  20
   1   9  -3 1055.61 378.640  20
  -1  -9   3 1536.32 470.122  25
  -1  -9   3 1390.30 566.808   2
  -1  -9   2 3346.59 676.334  25
  -1  -9   2 3821.28 910.455   2
  -1  -9   1 78499.0 4534.73   2
  -1  -9   1 78492.6 3641.68  10
  -1  -9   1 76401.2 3763.58  25
  -1  -9   0 419.686 270.935  10
   1   9   0 770.701 319.425  19
  -1  -9   0 539.313 389.744   2
   1   9   1 63279.9 3209.37  19
  -1  -9  -1 64926.7 3361.19  25
  -1  -9  -1 69325.4 3321.02  10
  -1  -9  -1 63420.7 4147.12   2
  -1  -9  -2 12729.5 1248.79  10
   1   9   2 13262.4 1259.48  19
  -1  -9  -2 12167.4 1671.04   2
  -1  -9  -2 14060.5 1353.71  25
   1   9   3 13522.1 1297.86  19
  -1  -9  -3 10999.5 1595.23   2
  -1  -9  -3 13532.9 1331.14  25
  -1  -9  -3 13924.7 1331.06  10
  -1  -9  -4 97831.4 5652.99   2
   1   9   4 110769. 4791.50  19
  -1  -9  -4 111000. 4799.99  10
  -1  -9  -4 104700. 4752.19  25
  -1  -9  -5 29943.8 2132.15  25
   1   9   5 32464.1 2208.33  19
  -1  -9  -5 32507.9 2190.08  10
  -1  -9  -6 156055. 6402.59  25
   1   9   6 165192. 6559.12  19
  -1  -9  -6 158277. 6429.47  10
   1   9   7 324.716 232.414  19
  -1  -9  -7 564.475 286.465  25
  -1  -9  -7 454.891 249.358  10
   1   9   8 9464.17 1144.37  19
  -1  -9  -8 9664.32 1068.17  10
  -1  -9  -8 9432.22 1053.77  25
  -1  -9  -9 14557.0 1272.14  25
   1   9   9 15383.5 1394.47  19
   1   9  10 15236.8 1308.36  19
  -1  -9 -10 15102.1 1166.28  25
   1   9  11 85114.4 3530.35  19
  -1  -9 -11 77993.9 3198.30  25
   1   9  12 5589.21 619.118  19
   1   9  13 3318.07 378.068  19
   1  10 -12 1166.57 283.340   9
  -1 -10  12 915.369 255.033   5
   1  10 -11 10878.8 1001.05   9
   1  10 -10 20893.5 1572.62  20
   1  10 -10 23600.5 1664.23   9
   1  10  -9 543.799 274.185  20
   1  10  -9 538.407 293.979   9
   1  10  -9 372.816 256.643  15
   1  10  -8-41.0235 114.695  20
   1  10  -8 77.7042 197.175  15
   1  10  -7 6391.53 926.365  20
   1  10  -7 6369.31 936.077  15
   1  10  -6 166340. 6814.70  20
   1  10  -6 168574. 6835.15  15
   1  10  -5 2529.17 629.532  20
   1  10  -5 2442.68 616.546  15
   1  10  -4 12729.9 1360.67  20
   1  10  -4 13015.7 1392.58  15
   1  10  -3 9876.21 1178.94  20
  -1 -10   3 11803.8 1319.64  25
   1  10  -3 10985.0 1268.62  15
  -1 -10   2 4020.62 745.579  25
  -1 -10   1 213419. 9157.97   2
  -1 -10   1 203979. 7986.58  25
  -1 -10   0 3944.44 934.328   2
  -1 -10   0 4271.96 745.829  25
  -1 -10   0 3583.83 646.628  10
   1  10   1 107662. 4804.38  19
  -1 -10  -1 115797. 6133.88   2
  -1 -10  -1 113508. 4885.55  10
  -1 -10  -1 113557. 5034.23  25
   1  10   2 55869.2 3027.44  19
  -1 -10  -2 53763.6 3101.67  25
  -1 -10  -2 57982.7 3085.24  10
   1  10   3 2883.61 600.818  19
  -1 -10  -3 2114.98 527.878  25
  -1 -10  -3 1698.38 490.235  10
   1  10   4 73573.3 3678.30  19
  -1 -10  -4 72318.1 3686.86  25
  -1 -10  -4 71964.4 3633.76  10
   1  10   5 281.899 242.521  19
  -1 -10  -5 151.948 221.313  25
  -1 -10  -5 590.713 314.017  10
   1  10   6 5047.34 795.254  19
  -1 -10  -6 4876.33 787.518  25
  -1 -10  -6 4222.81 731.097  10
   1  10   7 66338.0 3421.69  19
  -1 -10  -7 66913.6 3297.45  10
  -1 -10  -7 69010.0 3371.22  25
   1  10   8 2102.65 526.496  19
  -1 -10  -8 2220.07 446.199  10
  -1 -10  -8 3196.07 566.475  25
   1  10   9 62685.3 3031.31  19
  -1 -10  -9 60854.9 2843.78  25
   1  10  10 19668.5 1369.64  19
  -1 -10 -10 19817.9 1235.86  25
   1  10  11 188.630 109.557  19
   1  10  12 12953.7 815.897  19
   1  11 -11 37381.0 1835.28   9
  -1 -11  11 37997.4 1840.85   5
   1  11 -10 222.145 218.060   9
   1  11  -9 16417.4 1346.71  20
   1  11  -9 19670.3 1437.93   9
   1  11  -9 18291.7 1413.70  15
   1  11  -8 29661.3 1997.27  20
   1  11  -8 30060.2 2018.87  15
   1  11  -7 4452.26 731.490  20
   1  11  -7 4304.32 768.095  15
   1  11  -6 23502.9 1870.77  20
   1  11  -6 25307.6 1944.83  15
   1  11  -5 39092.9 2544.19  20
   1  11  -5 40919.3 2612.41  15
   1  11  -4 18043.2 1644.58  20
   1  11  -4 19854.6 1716.46  15
   1  11  -3 196929. 7957.92  20
   1  11  -3 220860. 8170.54  15
   1  11  -2 53019.6 3115.25  20
  -1 -11   2 53619.9 3192.03  25
   1  11  -2 61254.4 3285.62  15
  -1 -11   1 1447.94 455.880  25
   1  11  -1 1565.82 471.655  15
  -1 -11   0 4279.09 782.408  25
  -1 -11  -1-35.3612 184.898  25
  -1 -11  -1 298.619 214.261  10
   1  11   2 176942. 6938.13  19
  -1 -11  -2 182998. 7183.86  25
  -1 -11  -2 176992. 6952.54  10
   1  11   3 22445.4 1737.71  19
  -1 -11  -3 21224.4 1763.37  25
  -1 -11  -3 19995.3 1644.69  10
   1  11   4 16811.0 1490.07  19
  -1 -11  -4 16881.8 1528.30  25
  -1 -11  -4 17017.9 1474.04  10
  -1 -11  -5 2982.84 596.046  25
   1  11   5 4136.24 691.818  19
  -1 -11  -5 3357.16 611.323  10
  -1 -11  -6 1576.15 432.968  25
   1  11   6 1996.95 471.480  19
  -1 -11  -6 1265.32 385.159  10
  -1 -11  -7 29132.4 1856.73  25
  -1 -11  -7 31103.5 1826.34  10
   1  11   7 29404.1 1917.45  19
   1  11   8 4336.06 631.276  19
  -1 -11  -8 3879.66 525.295  10
  -1 -11  -8 4261.10 586.910  25
   1  11   9 1627.83 339.563  19
  -1 -11  -9 1796.52 344.919  25
   1  11  10 1896.34 338.996  19
   1  11  11 199.579 109.856  19
   1  12 -10 45774.3 1961.77   9
  -1 -12  10 40665.9 1889.69   5
   1  12  -9 33042.2 1763.86   9
   1  12  -8 64010.7 2996.82  20
   1  12  -8 69349.5 3051.16   9
   1  12  -8 66392.2 3060.47  15
   1  12  -7 7216.50 860.745  20
   1  12  -7 7059.92 870.400  15
   1  12  -6 732.346 289.486  20
   1  12  -6 750.964 343.373  15
   1  12  -5 27951.9 1969.26  20
   1  12  -5 30746.0 2074.58  15
   1  12  -4 5533.89 813.812  20
   1  12  -4 5091.17 811.727  15
   1  12  -3 32351.5 2228.49  20
   1  12  -3 36290.0 2322.92  15
   1  12  -2 1165.18 374.308  20
   1  12  -2 1296.04 464.134  15
   1  12  -1 9037.57 1095.93  20
   1  12  -1 10059.8 1105.59  15
  -1 -12   1 9406.45 1156.85  25
   1  12   0 1956.37 471.519  15
  -1 -12   0 2333.14 577.034  25
   1  12   1 13665.5 1226.33  15
  -1 -12  -1 11941.3 1292.70  25
  -1 -12  -2 360.040 255.857  25
  -1 -12  -3 10578.6 1081.61  10
  -1 -12  -3 10692.2 1157.15  25
  -1 -12  -4 4474.33 679.397  10
  -1 -12  -4 5235.17 766.782  25
   1  12   5 1001.72 324.802  19
  -1 -12  -5 1583.47 377.083  10
  -1 -12  -5 799.478 315.859  25
   1  12   6 9553.98 970.056  19
  -1 -12  -6 10568.9 927.519  10
  -1 -12  -6 11198.1 1027.38  25
   1  12   7 19890.7 1353.73  19
  -1 -12  -7 18741.3 1181.42  10
  -1 -12  -7 21270.8 1361.07  25
   1  12   8 741.512 238.935  19
  -1 -12  -8 1070.05 256.226  25
   1  12   9 42463.0 1883.45  19
   1  13  -8 3398.20 443.026   9
  -1 -13   8 2767.37 373.811   5
   1  13  -7 20657.6 1290.15  20
   1  13  -6 8526.83 847.804  20
   1  13  -6 10089.5 941.985  15
   1  13  -5-56.9045 138.844  20
   1  13  -5 367.371 219.643  15
   1  13  -4 636.718 269.525  20
   1  13  -4 717.282 302.291  15
   1  13  -3 20393.2 1530.42  20
   1  13  -3 19388.4 1487.79  15
   1  13  -2 16641.3 1378.58  20
   1  13  -2 15322.8 1292.28  15
   1  13  -1 442.425 239.173  20
   1  13  -1 588.045 258.166  15
   1  13   0 330.336 214.402  20
   1  13   0 108.635 183.703  15
   1  13   1 11135.1 1110.05  20
  -1 -13  -1 9665.84 1086.70  25
  -1 -13  -2 63863.0 3178.83  25
  -1 -13  -3 274.091 215.333  25
  -1 -13  -4 14914.7 1219.55  25
  -1 -13  -5 1969.41 403.147  25
  -1 -13  -6 459.539 198.849  25
  -1 -13  -7 26482.3 1286.38  25
   1  14  -6 1944.99 302.189   9
   1  14  -5 5446.36 557.927  20
   1  14  -4 607.140 215.690  20
   1  14  -4 390.365 169.831  15
   1  14  -3 17360.7 1176.68  20
   1  14  -3 13532.6 991.472  15
   1  14  -2 2078.36 412.566  20
   1  14  -2 1487.52 295.707  15
   1  14  -1 21777.8 1435.30  20
   1  14   0 37625.6 2024.62  20
   1  14   1 16083.1 1194.32  20
   1  14   2 10769.6 937.653  20
   1  14   3 13752.6 1038.20  20
   1  14   4 987.608 261.268  20
   1  14   5 60487.6 2471.43  20
  -2  14   2 3315.81 495.416  12
  -2  14   1 9737.11 958.704  12
  -2  14   0 68.0020 190.533  12
  -2  14  -1 13807.2 1197.09  12
  -2  14  -2 1765.03 398.891  12
  -2  13   6 8791.08 660.309   7
  -2  13   5 1167.33 278.967   7
  -2  13   4 3318.27 530.124  12
  -2  13   4 4125.85 542.698   7
  -2  13   3 561.355 291.521  12
  -2  13   2 30354.3 2213.78  12
  -2  13   1 2782.98 683.993  12
  -2  13   0 16117.4 1686.76  12
  -2  13  -1 28160.4 2274.75  12
  -2  13  -2 9217.53 1226.02  12
  -2  13  -3 9991.11 1182.01  12
  -2  13  -4 2420.64 530.564  12
  -2  13  -5 12245.4 912.859  16
  -2  13  -5 9139.44 850.490  12
  -2  13  -6 46054.6 2029.69  16
  -2  12   8 8171.32 653.009   7
  -2  12   7 2948.35 441.125   7
   2 -12  -7 1030.61 203.544  10
  -2  12   6 27811.1 1552.37   7
   2 -12  -6 15861.6 1033.65  10
  -2  12   5 36201.9 2086.77   7
  -2  12   5 37814.4 2181.29  12
  -2  12   4 46375.0 2512.99   7
  -2  12   4 47752.1 2863.76  12
  -2  12   3 31642.0 2015.19   7
  -2  12   3 30895.7 2433.59  12
  -2  12   2-15.4394 154.750   7
  -2  12   2-546.250 449.726  12
  -2  12   1 43276.7 3298.95  12
  -2  12   1 41878.5 2472.33   7
  -2  12   0 26803.5 2597.25  12
  -2  12  -1 103113. 5668.68  12
  -2  12  -2 61822.1 4004.82  12
  -2  12  -3 23390.6 2191.83  12
  -2  12  -4 10109.1 1308.89  12
  -2  12  -5-46.1916 264.086  12
  -2  12  -6 47073.5 2299.91  16
  -2  12  -6 40093.8 2243.98  12
  -2  12  -7 386.540 187.192  16
  -2  12  -8 8181.07 713.118  16
  -2  11  10 46770.7 1902.80   7
   2 -11  -9 8329.12 668.644  10
  -2  11   9 17213.5 1044.07   7
  -2  11   8 26.1345 116.327   7
   2 -11  -8-230.485 144.553  10
  -2  11   7 5868.28 771.700   7
   2 -11  -7 5145.18 625.680  10
   2 -11  -6 41657.6 2208.08  10
  -2  11   6 48246.0 2609.69   7
  -2  11   5 28452.8 2109.69  12
   2 -11  -5 24078.8 1605.03  10
  -2  11   5 26586.3 1917.60   7
  -2  11   4 38275.1 2828.64  12
  -2  11   4 35467.8 2340.51   7
  -2  11   3 337.919 241.262   7
  -2  11   3-127.860 351.383  12
  -2  11   2 46431.0 2777.39   7
  -2  11   2 44316.3 3597.97  12
  -2  11   1 4970.07 1209.48  12
  -2  11   1 4470.03 785.217   7
  -2  11   0 14664.6 1452.54   7
  -2  11   0 15408.1 2182.01  12
  -2  11  -1 489.115 525.367  12
  -2  11  -2 40305.5 3429.80  12
  -2  11  -3 35010.1 2997.99  12
  -2  11  -4 8087.99 1278.46  12
  -2  11  -5 30680.8 2396.73  12
  -2  11  -6 24691.9 1912.11  12
  -2  11  -7 15781.9 1403.62  17
  -2  11  -7 17045.0 1345.32  16
  -2  11  -8 788.003 265.871  16
  -2  11  -8 453.984 281.495  17
  -2  11  -9 19326.0 1250.38  16
  -2  11  -9 16250.5 1227.94  17
  -2  11 -10 5780.85 554.541  16
  -2  10  11 2678.60 356.060   7
  -2  10  10 255.754 155.060   7
  -2  10   9 13850.1 1194.98   7
  -2  10   8 4810.97 748.372   7
  -2  10   7 128752. 5538.15   7
  -2  10   6 5533.76 893.635   7
  -2  10   5 344.435 278.546   7
  -2  10   5 14.4644 241.428  12
  -2  10   4 123.107 186.589   7
   2 -10  -4 317.714 235.788  10
  -2  10   4-154.786 309.502  12
  -2  10   3 76500.2 4876.05  12
  -2  10   3 66660.1 3705.96   7
  -2  10   2 47096.6 2922.75   7
  -2  10   1 2759.40 642.542   7
  -2  10   0 1156.40 405.641   7
  -2  10  -1 19633.3 1743.31   7
  -2  10  -2 11126.6 1779.94  12
  -2  10  -3 4138.74 1065.26  12
  -2  10  -4 2200.64 728.222  12
  -2  10  -5 5062.43 981.798  12
  -2  10  -6 11827.3 1452.50  17
  -2  10  -6 9416.10 1253.79  12
  -2  10  -7 1683.96 566.912  17
  -2  10  -8 35243.9 2447.93  17
  -2  10  -8 32595.4 2065.61  16
  -2  10  -9 36594.7 2114.23  16
  -2  10  -9 38427.0 2400.91  17
  -2  10 -10 30834.4 1930.05  17
  -2  10 -10 32079.2 1780.37  16
  -2  10 -11 2244.41 395.694  17
  -2   9  12 21195.8 1165.12   7
   2  -9 -11 6290.59 638.692   8
  -2   9  11 7007.37 737.724   7
   2  -9 -10 3605.75 549.177   8
  -2   9  10 3295.46 585.586   7
   2  -9  -9 6562.04 812.955   8
  -2   9   9 6707.89 949.274   7
   2  -9  -8 1936.04 511.033   8
  -2   9   8 1710.44 528.744   7
   2  -9  -7 364.762 287.836   8
  -2   9   7 521.866 319.094   7
   2  -9  -6 1126.66 383.380   8
  -2   9   6 927.823 402.257   7
   2  -9  -5 779.809 351.818   8
  -2   9   5 792.644 419.739   7
  -2   9   5 229.731 327.522  12
  -2   9   4 2042.65 657.241   7
  -2   9   4 2983.28 853.867  12
  -2   9   3 41195.7 2783.15   7
  -2   9   2 57001.4 3320.32   7
  -2   9   1 9041.21 1170.88   7
  -2   9   0 21020.3 1808.41   7
  -2   9  -1 820.649 327.250   7
  -2   9  -2 76899.1 5123.66  12
  -2   9  -2 70848.9 3769.14   7
  -2   9  -3 80442.8 5097.74  12
  -2   9  -4 112937. 6001.58  12
  -2   9  -5 79261.2 4729.38  17
  -2   9  -5 82854.8 4662.11  12
  -2   9  -6 669.467 504.600  17
  -2   9  -6 450.807 323.876  12
  -2   9  -7 23687.6 2275.38  17
  -2   9  -8 13201.9 1604.90  17
  -2   9  -8 12074.5 1234.01  16
  -2   9  -9 111913. 5180.04  17
  -2   9  -9 103295. 4558.60  16
  -2   9 -10 20514.3 1730.27  17
  -2   9 -10 22797.8 1586.14  16
  -2   9 -11 27030.3 1806.01  17
  -2   9 -11 28555.6 1659.14  16
  -2   9 -12 238.286 151.702  17
  -2   8  13 3535.71 399.171   7
   2  -8 -12 20021.8 1249.23   8
  -2   8  12 23214.6 1425.09   7
   2  -8 -11 8919.71 885.779   8
  -2   8  11 9283.20 1003.46   7
   2  -8 -10 12428.8 1171.95   8
   2  -8  -9 7529.49 966.070   8
   2  -8  -8 63326.4 3353.07   8
   2  -8  -7 106073. 4814.39   8
   2  -8  -6 2551.32 598.219   8
  -2   8   6 2774.75 699.289   7
   2  -8  -5 32.4222 163.005   8
  -2   8   5 572.301 359.987   7
  -2   8   4 6941.89 1270.81   4
  -2   8   4 5711.10 1000.05   7
  -2   8   4 7411.55 1686.29   3
  -2   8   4 7885.81 1376.96  12
  -2   8   3 106543. 5150.20   7
  -2   8   3 123980. 8078.56   3
  -2   8   3 111180. 5797.72   4
  -2   8   2 159463. 7241.24   4
  -2   8   2 155567. 6584.96   7
  -2   8   2 165436. 10162.1   3
  -2   8   1 99854.6 4502.62  18
  -2   8   1 98371.1 4641.80   7
  -2   8   1 88198.0 7408.62   3
  -2   8   1 101635. 5203.61   4
  -2   8   0 7625.50 1017.37   7
  -2   8   0 7731.82 1197.47   4
  -2   8  -1 31238.8 2537.24   4
  -2   8  -1 31674.0 2199.27   7
  -2   8  -1 28918.3 3995.76   3
  -2   8  -2 30856.0 2190.41   7
  -2   8  -2 38132.8 4404.51   3
  -2   8  -3 58783.7 3310.84   7
  -2   8  -3 67177.3 5727.25   3
  -2   8  -3 61264.0 4245.69  12
  -2   8  -4 94110.4 6538.71   3
  -2   8  -4 86102.8 5064.64  12
  -2   8  -5 23433.2 2449.60  17
  -2   8  -5 27363.9 2430.47  12
  -2   8  -6 112084. 5854.58  17
  -2   8  -6 91920.0 4983.74  12
  -2   8  -7 3563.39 966.774  17
  -2   8  -8 47535.2 3270.06  17
  -2   8  -8 32346.7 2287.14  16
  -2   8  -9 9746.45 1359.54  17
  -2   8  -9 8245.99 1029.98  16
  -2   8 -10 26667.2 2278.98  21
  -2   8 -10 32690.9 2384.26  17
  -2   8 -10 32925.4 2084.21  16
  -2   8 -11 25193.2 1882.22  17
  -2   8 -11 26504.0 1710.22  16
  -2   8 -11 23489.8 1872.26  21
  -2   8 -12 12803.5 1126.75  17
  -2   8 -12 11142.4 1047.95  21
  -2   8 -13 17131.8 1111.69  17
   2  -7 -13 9834.26 781.327   8
  -2   7  13 9197.12 819.473   7
   2  -7 -12 14208.4 1118.34   8
   2  -7 -11 20501.5 1540.12   8
   2  -7 -10 4982.36 785.233   8
   2  -7  -9 58962.7 3230.20   8
   2  -7  -8 10860.9 1253.92   8
   2  -7  -7 6997.02 999.343   8
   2  -7  -6 145917. 6079.05   8
  -2   7   5 15234.5 1909.89   4
   2  -7  -5 15267.8 1436.30   8
  -2   7   5 13437.0 2079.60   3
  -2   7   4 222346. 9329.31   4
  -2   7   4 212797. 8619.48   7
  -2   7   4 220633. 11059.9   3
  -2   7   4 229234. 9645.44  12
  -2   7   3 3894.28 846.476   4
  -2   7   3 3501.51 739.251   7
  -2   7   3 3460.42 1245.60   3
  -2   7   2 6428.90 1080.74   4
  -2   7   2 7075.44 990.107   7
  -2   7   2 9773.13 2061.77   3
  -2   7   1 48911.9 3153.95   4
  -2   7   1 49506.6 2829.87   7
  -2   7   0 97179.7 4301.82  18
  -2   7   0 100681. 4353.60   7
  -2   7   0 97127.9 4744.46   4
  -2   7  -1 338615. 12405.6   4
  -2   7  -1 342211. 11884.4  18
  -2   7  -1 353597. 11892.3   7
  -2   7  -1 308644. 15567.5   3
  -2   7  -2 17326.1 1513.25  18
  -2   7  -2 16401.1 1480.71   7
  -2   7  -2 18410.1 2912.42   3
  -2   7  -2 19706.9 2244.19  12
  -2   7  -3 3314.65 695.968  18
  -2   7  -3 3608.51 679.806   7
  -2   7  -3 3665.92 1179.35   3
  -2   7  -3 3364.01 943.899  12
  -2   7  -4 622.195 397.053  17
  -2   7  -4 2185.94 677.104  12
  -2   7  -4 2984.43 993.135   3
  -2   7  -5 44126.0 3518.75  17
  -2   7  -5 54329.8 4285.40   3
  -2   7  -5 50444.4 3390.08  12
  -2   7  -6 32448.1 2892.43  17
  -2   7  -6 27178.3 2338.83  12
  -2   7  -7 896.822 535.449  17
  -2   7  -8 2025.49 673.844  17
  -2   7  -8 2037.59 522.321  16
  -2   7  -9 3218.82 972.758  21
  -2   7  -9 3938.06 885.073  17
  -2   7  -9 4145.00 765.146  16
  -2   7 -10-174.358 271.936  21
  -2   7 -10 231.643 266.770  17
  -2   7 -10-172.036 209.441  16
  -2   7 -11 7727.12 1224.61  21
  -2   7 -11 7021.85 1010.04  17
  -2   7 -11 8777.91 975.728  16
  -2   7 -12 814.095 393.004  21
  -2   7 -12 757.401 343.767  17
  -2   7 -13 8489.07 837.505  17
  -2   7 -13 7716.14 882.120  21
   2  -6 -14 3861.13 429.890   8
   2  -6 -13 3656.47 528.653   8
  -2   6  12 9115.17 991.669  23
  -2   6  11 189444. 7483.34  23
  -2   6  10 601.456 355.906  23
  -2   6   9 40017.7 2916.67  23
  -2   6   8 4296.96 892.134  23
  -2   6   7 6999.74 1389.60   4
  -2   6   7 7826.24 1220.06  23
  -2   6   6 157866. 7554.58   4
  -2   6   6 155113. 6964.05  23
  -2   6   5 20172.0 2146.12   4
  -2   6   5 20844.4 2525.88   3
  -2   6   4 62680.7 3878.60   4
  -2   6   4 65407.3 4986.24   3
  -2   6   3 3277.95 734.310   4
  -2   6   3 3151.19 1063.13   3
  -2   6   2 16.4013 80.6209   4
  -2   6   2 74.4904 423.315   3
  -2   6   1 2039.03 538.008   4
  -2   6   1 1504.53 910.166   3
  -2   6   0 10627.2 1237.38   4
  -2   6   0 7262.30 1806.29   3
  -2   6  -1 27001.1 2063.79   4
  -2   6  -1 26169.1 3293.04   3
  -2   6  -2 14614.4 2307.96   3
  -2   6  -2 10609.9 1248.21   4
  -2   6  -3 2725.34 946.338   3
  -2   6  -4 10870.3 1202.65  18
  -2   6  -4 6638.33 1241.22  17
  -2   6  -4 12070.2 1901.40   3
  -2   6  -4 10903.5 1483.34  12
  -2   6  -5 64243.8 4342.92  17
  -2   6  -5 79458.8 5044.71   3
  -2   6  -5 75196.5 4194.91  12
  -2   6  -6 139700. 6687.99  17
  -2   6  -6 116625. 5723.90  12
  -2   6  -7 14720.3 1874.01  17
  -2   6  -8 99202.1 5198.99  17
  -2   6  -8 79845.8 4065.69  16
  -2   6  -9 3493.13 880.681  17
  -2   6  -9 1956.61 521.527  16
  -2   6 -10 101674. 5126.72  17
  -2   6 -10 100975. 4612.77  16
  -2   6 -11 10269.3 1584.96  21
  -2   6 -11 9539.23 1249.17  17
  -2   6 -11 10716.2 1133.80  16
  -2   6 -12 52141.6 3332.81  21
  -2   6 -12 44167.0 2672.32  17
  -2   6 -13 56250.9 3087.28  21
  -2   6 -13 52218.6 2670.01  17
  -2   6 -14 3474.68 528.585  21
  -2   6 -14 2947.01 426.269  17
  -2   5  14 6054.39 630.010  23
   2  -5 -14 7620.80 692.734   8
  -2   5  13 20243.1 1538.10  23
  -2   5  12 766.883 351.361  23
  -2   5  11 918.774 440.262  23
  -2   5  10 7327.57 1236.40  23
  -2   5   9 349.141 351.932  23
  -2   5   8 56217.4 4106.06   4
  -2   5   8 56329.2 3805.31  23
  -2   5   7 39104.5 3239.50   4
  -2   5   7 40062.4 3050.07  23
  -2   5   6 13694.0 1768.72   4
  -2   5   6 16348.2 1467.40   5
  -2   5   6 15315.5 1752.51  23
  -2   5   5 40609.5 3027.31   4
  -2   5   5 43581.0 3599.99   3
  -2   5   4 155953. 6795.74   4
  -2   5   4 152539. 8032.77   3
  -2   5   3 45462.3 2911.89   4
  -2   5   3 49707.2 4160.76   3
  -2   5   2 3875.00 716.174   4
  -2   5   2 3598.90 1131.39   3
  -2   5   1 15810.0 2369.49   3
  -2   5   1 18000.7 1555.87   4
  -2   5   0 220154. 8071.38   4
  -2   5   0 202437. 10370.0   3
  -2   5  -1 166326. 8718.35   3
  -2   5  -1 159954. 6377.61   4
  -2   5  -2 9304.15 1084.74   4
  -2   5  -2 12014.1 1966.36   3
  -2   5  -3 13199.7 1966.75   3
  -2   5  -4 42814.0 3506.94   3
  -2   5  -5 72190.4 4375.77  17
  -2   5  -5 72777.2 4613.59   3
  -2   5  -6 47972.4 3091.49  12
  -2   5  -6 39974.0 3550.86   1
  -2   5  -7 90244.0 4986.82  17
  -2   5  -7 77800.5 5262.17   1
  -2   5  -8 2095.88 837.838   1
  -2   5  -8 2527.39 717.599  17
  -2   5  -8 1782.12 478.663  16
  -2   5  -9 127594. 6168.62  17
  -2   5  -9 125758. 5451.08  16
  -2   5 -10 373.510 334.056  17
  -2   5 -10 472.422 254.157  16
  -2   5 -11 19051.2 1822.25  17
  -2   5 -11 19785.2 1610.04  16
  -2   5 -12 8059.35 1294.54  21
  -2   5 -12 7086.50 1001.15  17
  -2   5 -13 22789.8 1639.03  17
  -2   5 -13 22638.4 1967.84  21
  -2   5 -14 66002.1 2873.19  17
  -2   5 -14 68419.1 3276.32  21
   2  -4 -15 9613.82 697.474   8
  -2   4  14 253.000 200.661  23
  -2   4  13 19857.1 1695.17  23
  -2   4  12 37425.8 2708.55  23
  -2   4  11 47081.5 3344.10  23
  -2   4  10 14446.8 1796.23  23
  -2   4   9 40034.3 3265.69  23
  -2   4   8-43.5713 105.120   4
  -2   4   8 107.925 315.780  23
  -2   4   7 27179.7 2570.99   4
  -2   4   7 26462.5 1922.15   5
  -2   4   7 27412.2 2512.22  23
  -2   4   6 65080.1 4019.95   4
  -2   4   6 66166.5 4032.65  23
  -2   4   5 37178.3 2726.89   4
  -2   4   4 16130.2 1593.17   4
  -2   4   4 14822.7 1981.64   3
  -2   4   3 85709.4 4126.84   4
  -2   4   3 87838.0 5438.63   3
  -2   4   2 11398.4 1156.58   4
  -2   4   2 10205.6 1693.67   3
  -2   4   1 466906. 15012.4   4
  -2   4   1 426856. 17364.7   3
  -2   4   0 28017.6 1819.79   4
  -2   4   0 29552.6 2986.38   3
  -2   4  -1 26316.0 1757.81   4
  -2   4  -1 29698.6 2871.12   3
  -2   4  -2 283370. 11891.3   3
  -2   4  -3 12206.4 1749.14   3
  -2   4  -4 372958. 14394.3   3
  -2   4  -4 383346. 13759.2   1
  -2   4  -5 12366.1 1647.65   1
  -2   4  -6 507.856 427.233  17
  -2   4  -6-198.150 215.589   1
  -2   4  -7 28091.7 2841.23   1
  -2   4  -7 29447.5 2549.44  17
  -2   4  -8 75808.4 4367.73  17
  -2   4  -8 69128.0 3512.60  16
  -2   4  -8 69559.9 4861.90   1
  -2   4  -9 182717. 7861.19  17
  -2   4  -9 177484. 7007.38  16
  -2   4 -10 7481.38 1186.01  17
  -2   4 -10 6271.34 925.667  16
  -2   4 -11 7922.63 1150.11  17
  -2   4 -11 8000.07 998.624  16
  -2   4 -12 4376.62 982.119  21
  -2   4 -12 4091.47 754.079  17
  -2   4 -13 2499.99 673.762  21
  -2   4 -13 2756.82 556.099  17
  -2   4 -14-260.024 179.318  17
  -2   4 -14-80.7752 205.339  21
  -2   4 -15-273.067 101.458  21
  -2   3  15 9648.00 858.047  23
  -2   3  14-186.475 193.961  23
  -2   3  13 48930.2 3049.02  23
  -2   3  12 15924.0 1797.20  23
  -2   3  11 29520.2 2711.12  23
  -2   3  10 39265.0 3310.94  23
  -2   3   9 24862.0 2523.97   4
  -2   3   9 22991.4 2485.39  23
  -2   3   8 380332. 14342.0   4
  -2   3   8 373401. 12775.4   5
  -2   3   8 365700. 14408.0  23
  -2   3   7 27138.3 2459.95   4
  -2   3   7 25125.0 1879.11   5
  -2   3   7 28181.7 2610.68  23
  -2   3   6 108629. 5409.70   4
  -2   3   5 10746.9 1310.70   4
  -2   3   4 86627.8 4130.56   4
  -2   3   3 587435. 18742.9   4
  -2   3   3 566365. 20521.1   3
  -2   3   2 609.606 218.340   4
  -2   3   2 1358.43 599.816   3
  -2   3   1 177552. 6402.96   4
  -2   3   1 172196. 8230.34   3
  -2   3   0 56.9922 80.7935   4
  -2   3   0 156.639 235.729   3
  -2   3  -1 135.104 130.252   4
  -2   3  -1 315.369 293.273   3
  -2   3  -2 72697.5 4542.68   3
  -2   3  -3 29945.9 2090.50   1
  -2   3  -4 22783.1 2012.60   1
  -2   3  -5 20883.0 2101.71   1
  -2   3  -6 15971.9 1905.24   1
  -2   3  -7 20740.3 2044.47  17
  -2   3  -7 21153.2 1583.47  16
  -2   3  -7 19200.7 2256.55   1
  -2   3  -8 23247.4 2193.11  17
  -2   3  -8 23525.9 1744.54  16
  -2   3  -8 23348.1 2548.06   1
  -2   3  -9 36110.1 2806.78  17
  -2   3  -9 38735.3 2394.14  16
  -2   3  -9 40362.8 3448.63   1
  -2   3 -10 1034.79 472.246  17
  -2   3 -10 888.639 379.408  16
  -2   3 -11 10812.2 1348.88  17
  -2   3 -12 16392.2 1958.86  21
  -2   3 -12 15895.3 1558.06  17
  -2   3 -13 34885.0 2635.69  21
  -2   3 -13 31343.8 2080.86  17
  -2   3 -14 27616.2 2038.06  21
  -2   3 -15 15516.0 1183.92  21
  -2   2  15 62753.4 2921.88  23
  -2   2  14 1843.14 512.065  23
  -2   2  13 83819.8 4462.02  23
  -2   2  12 7893.09 1340.08  23
  -2   2  11 22535.6 2421.48  23
  -2   2  10 93908.5 4449.82  22
  -2   2   9 320.729 264.512   5
  -2   2   9 547.664 301.151  22
  -2   2   8 90026.6 5035.86   4
  -2   2   8 87285.1 4126.55   5
  -2   2   8 86304.9 4328.24  22
  -2   2   7 32907.7 2661.08   4
  -2   2   7 36893.3 3020.83  23
  -2   2   7 33303.7 2185.18  24
  -2   2   6 22750.3 2010.67   4
  -2   2   5 112242. 5038.96   4
  -2   2   4 128523. 5239.41   4
  -2   2   3 3652.51 567.132   4
  -2   2   2 7170.98 736.424   4
  -2   2   1 5268.36 592.777   4
  -2   2   0 380626. 12133.3   4
  -2   2  -1 60986.2 2648.86   1
  -2   2  -2 206.582 160.999   1
  -2   2  -3 95608.3 4384.13   1
  -2   2  -4 355607. 12728.9   1
  -2   2  -5 3482.42 793.742   1
  -2   2  -6 6426.21 1212.45   1
  -2   2  -7 94.8061 276.750   1
  -2   2  -7 339.163 403.740  17
  -2   2  -8 76685.3 4338.65  17
  -2   2  -8 77539.2 4945.65   1
  -2   2  -9 97945.9 5157.62  17
  -2   2  -9 106111. 4571.13  16
  -2   2  -9 105514. 6020.06   1
  -2   2 -10 16751.4 1773.02  17
  -2   2 -11-9.16418 357.556  21
  -2   2 -11 566.175 374.387  17
  -2   2 -12 46936.0 3452.71  21
  -2   2 -12 44015.9 2789.46  17
  -2   2 -13 2648.08 706.408  21
  -2   2 -13 2925.75 589.389  17
  -2   2 -14 10054.2 1135.36  21
  -2   2 -15 19161.6 1349.84  21
  -2   1  15 11723.5 1091.84  23
  -2   1  14 2619.68 599.480  23
  -2   1  13 620.344 398.270  23
  -2   1  12 116527. 5929.07  23
  -2   1  12 103899. 4606.82  22
  -2   1  11 32419.1 2279.55  22
  -2   1  10 39693.2 2454.37   5
  -2   1  10 41951.7 2748.11  22
  -2   1   9 67862.5 3509.56   5
  -2   1   8 46671.8 2802.45   5
  -2   1   8 48008.9 2726.35  24
  -2   1   7 66907.5 3970.95   2
  -2   1   6 19628.2 1767.44   4
  -2   1   6 20421.5 1928.82   2
  -2   1   5 31291.1 2071.07   4
  -2   1   5 28541.8 2240.12   2
  -2   1   4 98145.2 4029.07   4
  -2   1   4 90611.8 4462.98   2
  -2   1   3 28571.1 1602.37   4
  -2   1   3 26100.1 1945.06   2
  -2   1   2 11461.0 1143.85   2
  -2   1   1 62276.8 2981.98   2
  -2   1   0 110432. 4049.03   1
  -2   1  -1 2254.84 408.595   1
  -2   1  -2 87053.5 3800.92   1
  -2   1  -3 1086.63 351.077   1
  -2   1  -4 844.644 367.454   1
  -2   1  -5 248992. 9805.72   1
  -2   1  -6 267.093 247.899   1
  -2   1  -7 286722. 10615.2  17
  -2   1  -7 256715. 10986.3   1
  -2   1  -8 10283.6 1375.70  17
  -2   1  -8 10336.0 1566.58   1
  -2   1  -9 8538.65 1575.64  21
  -2   1  -9 8905.05 1283.39  17
  -2   1  -9 7883.50 1438.13   1
  -2   1 -10 120421. 6670.90  21
  -2   1 -10 113594. 5535.10  17
  -2   1 -11 10115.8 1641.92  21
  -2   1 -11 10351.1 1314.37  17
  -2   1 -12 191646. 8386.08  21
  -2   1 -12 182936. 7383.86  17
  -2   1 -13 1924.69 588.531  21
  -2   1 -14 3275.38 668.982  21
  -2   1 -15 2437.75 444.776  21
  -2   0  16 3682.54 439.564  23
  -2   0  15 441.540 243.760  23
  -2   0  14 3598.54 734.034  23
  -2   0  13 16247.6 1793.31  23
  -2   0  13 14575.7 1266.57  22
  -2   0  12 1253.59 410.852  22
  -2   0  11 672.400 286.482   5
  -2   0  10 6518.16 948.004   5
  -2   0   9 5939.93 862.147  24
  -2   0   9 5702.77 1083.28   2
  -2   0   9 5649.88 877.027   5
  -2   0   8 3948.21 701.340  24
  -2   0   8 3765.97 847.818   2
  -2   0   8 4073.99 728.171   5
  -2   0   7 37500.3 2789.46   2
  -2   0   6 4529.61 845.083   2
  -2   0   5 437178. 15134.0   2
  -2   0   4 47830.0 2870.02   2
  -2   0   3 23966.1 1825.64   2
  -2   0   2 34980.0 2178.90   2
  -2   0   1 32129.4 1953.54   2
  -2   0   0 690306. 21260.2   2
  -2   0   0 672472. 21034.5   1
  -2   0  -1 25655.9 1582.78   1
  -2   0  -2 202644. 7391.07   1
  -2   0  -3 10562.2 1155.94   1
  -2   0  -4 6673.55 982.124   1
  -2   0  -5 293041. 11093.2   1
  -2   0  -6 15144.5 1788.81   1
  -2   0  -7 94168.8 5591.32  21
  -2   0  -7 105406. 5037.71  17
  -2   0  -7 90312.6 5257.43   1
  -2   0  -8 19566.5 2376.40  21
  -2   0  -8 22221.6 2056.82  17
  -2   0  -8 23840.3 2442.12   1
  -2   0  -9 21470.8 2488.39  21
  -2   0  -9 22720.6 2089.09  17
  -2   0  -9 23916.0 2506.39   1
  -2   0 -10 12941.5 1887.99  21
  -2   0 -10 13168.1 1530.50  17
  -2   0 -11 483.792 509.582  21
  -2   0 -11 342.708 295.571  17
  -2   0 -12 632.866 433.334  21
  -2   0 -13 16939.2 1697.90  21
  -2   0 -14 4544.06 734.763  21
  -2   0 -15 9335.33 826.150  21
  -2  -1  15 13460.9 1163.90  23
  -2  -1  14 7202.57 1019.19  23
  -2  -1  14 6823.17 753.193  22
  -2  -1  13 24338.8 2184.85  23
  -2  -1  13 20748.0 1623.44  22
  -2  -1  12 100528. 4328.36   5
  -2  -1  11 15084.8 1413.03   5
  -2  -1  10 180838. 7139.88   5
  -2  -1   9 7094.78 1208.24   2
  -2  -1   9 6593.90 908.352  24
  -2  -1   9 5166.79 856.419   5
  -2  -1   8 8941.22 1318.60   2
  -2  -1   8 8145.32 985.541  24
  -2  -1   8 8217.19 1102.88   5
  -2  -1   7 135754. 6283.11   2
  -2  -1   6 662.638 358.284   2
  -2  -1   5 255192. 9692.86   2
  -2  -1   4 9150.91 1144.40   2
  -2  -1   3 109019. 4856.32   2
  -2  -1   2 129075. 5357.80   2
  -2  -1   1 5126.46 739.192   2
  -2  -1   0 67159.6 2966.87   1
  -2  -1   0 68280.0 3127.58   2
  -2  -1  -1 28447.7 1748.17   1
  -2  -1  -2 29897.1 1935.70   1
  -2  -1  -3 292010. 10412.8   1
  -2  -1  -4 157351. 6609.87   1
  -2  -1  -5 489.052 307.490   1
  -2  -1  -6 5947.59 1060.72   1
  -2  -1  -7 37230.3 3180.43  21
  -2  -1  -7 39242.5 3117.18   1
  -2  -1  -7 41724.4 2852.20  17
  -2  -1  -8 123762. 6658.79  21
  -2  -1  -8 128574. 6588.80   1
  -2  -1  -8 130087. 5995.51  17
  -2  -1  -9 26959.8 2717.09  21
  -2  -1  -9 32227.5 2841.52   1
  -2  -1  -9 27639.2 2303.18  17
  -2  -1  -9 25955.6 2007.71  13
  -2  -1 -10 2454.23 806.583  21
  -2  -1 -10 2554.17 690.390  17
  -2  -1 -11 36148.7 2997.02  21
  -2  -1 -12 31934.9 2591.63  21
  -2  -1 -13 406.699 333.256  21
  -2  -1 -14 222.609 216.268  21
   2   1  15 2323.84 283.110  19
  -2  -2  15 27058.3 1635.07  23
  -2  -2  15 24698.8 1283.52  22
  -2  -2  14 23134.1 1802.96  23
  -2  -2  14 21657.7 1463.58  22
  -2  -2  13 48054.0 3131.62  23
  -2  -2  13 45670.9 2336.83   5
  -2  -2  12 35393.7 2201.44   5
  -2  -2  12 40910.9 3117.94  23
  -2  -2  11 1443.36 446.025   5
  -2  -2  10 16250.3 1551.98   5
  -2  -2   9 123070. 5956.58   2
  -2  -2   9 101590. 4937.48   5
  -2  -2   8 128053. 5204.00  24
  -2  -2   8 124040. 6062.02   2
  -2  -2   8 120866. 5496.67   5
  -2  -2   7 66387.8 3911.51   2
  -2  -2   7 64416.6 3565.86   5
  -2  -2   6 61872.5 3672.20   2
  -2  -2   5 4739.30 866.389   2
  -2  -2   4 255218. 9598.95   2
  -2  -2   3 44849.2 2766.81   2
  -2  -2   2 206617. 7861.28   2
  -2  -2   1 221873. 8193.77   2
  -2  -2   0 36471.4 2230.16   2
  -2  -2   0 40243.7 2139.06   1
  -2  -2  -1 43003.0 2396.07   1
  -2  -2  -1 48267.9 2427.31   2
  -2  -2  -2 25594.5 1811.45   1
  -2  -2  -3 8669.61 1077.72   1
  -2  -2  -4 7500.53 1071.51   1
  -2  -2  -5 14080.7 1618.70   1
  -2  -2  -6 4147.46 913.407   1
  -2  -2  -7 428.107 433.939  21
  -2  -2  -7 344.446 310.912   1
  -2  -2  -7 509.593 388.319  13
  -2  -2  -8 88203.4 5260.16  21
  -2  -2  -8 91433.2 5313.69   1
  -2  -2  -8 95655.9 4444.41  13
  -2  -2  -9 556.055 451.993  21
  -2  -2  -9 714.805 502.261   1
  -2  -2 -10 51006.3 3652.14  21
  -2  -2 -11 2822.68 755.683  21
  -2  -2 -12 307.985 321.589  21
  -2  -2 -13 77418.1 3809.76  21
  -2  -2 -14 2447.02 445.539  21
   2   2  14 4162.07 468.460  19
  -2  -2 -15 63188.8 2419.81  25
  -2  -3  15 10291.3 845.707  23
  -2  -3  15 12005.7 815.201  22
  -2  -3  14 64731.4 3187.77  23
  -2  -3  14 61839.9 2892.62  22
  -2  -3  13 53046.2 2606.37   5
  -2  -3  13 55175.4 3252.14  23
   2   3 -12 4825.79 671.500   9
  -2  -3  12 6107.78 821.099   5
  -2  -3  12 7171.93 1203.99  23
  -2  -3  11 864.444 514.229  23
  -2  -3  11 412.096 343.307   5
  -2  -3  10-206.319 263.181   5
  -2  -3   9 69802.8 4270.63   2
  -2  -3   9 62019.9 3545.88   5
  -2  -3   8 11105.2 1140.60  24
  -2  -3   8 9419.70 1398.15   2
  -2  -3   8 9513.03 1245.79   5
  -2  -3   7 10141.0 1321.65   5
  -2  -3   7 10673.6 1452.16   2
  -2  -3   7 11399.2 1487.55  23
  -2  -3   6 4109.92 873.475   2
  -2  -3   5 232.808 246.229   2
  -2  -3   4 21401.7 1894.53   2
  -2  -3   3 1031.99 390.937   2
  -2  -3   2 154015. 6392.02   2
  -2  -3   1 113302. 5008.78   2
  -2  -3   0 39757.5 2441.54   2
  -2  -3  -1 72480.4 3448.91   2
  -2  -3  -1 67839.1 3338.51   1
  -2  -3  -2 8640.87 1034.59   1
  -2  -3  -3 465024. 15735.6   1
  -2  -3  -4 54563.1 3259.89   1
  -2  -3  -5 24100.4 2146.86   1
  -2  -3  -6 7519.11 1230.02   1
  -2  -3  -7 3673.63 943.309  21
  -2  -3  -7 3511.36 865.408   1
  -2  -3  -7 5127.26 842.695  13
  -2  -3  -8 218734. 9634.03  21
  -2  -3  -8 242017. 9947.09   1
  -2  -3  -9 109.541 240.745  21
  -2  -3 -10 75162.5 4443.15  21
  -2  -3 -11 2142.80 645.536  21
  -2  -3 -12 832.335 373.240  21
   2   3  13 43590.0 2137.83  19
   2   3  14-111.292 111.577  19
  -2  -4  15 1029.04 226.542  22
  -2  -4  14 543.193 204.597  23
  -2  -4  14 550.887 192.612   5
  -2  -4  14 660.669 260.591  22
  -2  -4  13 21392.2 1418.86   5
  -2  -4  13 23485.6 1749.98  23
   2   4 -12 4501.98 647.933   9
  -2  -4  12 5572.10 784.289   5
  -2  -4  12 6563.97 1010.68  23
   2   4 -11 540.335 269.606   9
  -2  -4  11 270.731 382.365  23
  -2  -4  11 286.614 293.769   5
   2   4 -10 24837.4 1776.85   9
  -2  -4  10 26934.6 2074.62   5
  -2  -4  10 27979.8 2475.50  23
  -2  -4   9 98300.5 4805.70   5
  -2  -4   9 98826.2 5304.83  23
  -2  -4   8 55196.8 3425.83   5
  -2  -4   8 57463.2 3787.14   2
  -2  -4   7 50238.7 3253.43   5
  -2  -4   7 46925.6 3347.22   2
  -2  -4   6 36405.4 2241.09  14
  -2  -4   6 33450.1 2255.19  11
  -2  -4   6 31332.2 2594.21   2
  -2  -4   5 10739.6 1403.26   2
  -2  -4   4 147701. 6527.64   2
  -2  -4   3 10601.9 1328.48   2
  -2  -4   2 288663. 10715.1   2
  -2  -4   1 4995.24 877.736   2
  -2  -4   0 37053.4 2511.16   2
  -2  -4  -1 70055.0 3671.31   2
  -2  -4  -1 67220.2 3438.68   1
  -2  -4  -2 37147.2 2408.41   1
  -2  -4  -3 144594. 6181.04   1
  -2  -4  -4 38158.3 2684.08   1
  -2  -4  -5 112698. 5527.20   1
  -2  -4  -6 169852. 7718.79  21
  -2  -4  -6 180745. 7940.07   1
  -2  -4  -6 191478. 7356.28  13
  -2  -4  -7 27325.0 2439.99  21
  -2  -4  -7 29870.0 2631.08   1
  -2  -4  -8-664.044 470.742   1
  -2  -4  -8 30.3724 235.896  21
  -2  -4  -9 5536.16 1032.35  21
  -2  -4 -10 1855.19 583.477  21
   2   4  10 1772.27 419.765  19
  -2  -4 -11 108659. 5090.59  21
   2   4  11 117590. 4717.53  19
   2   4  12 67775.3 3057.19  19
   2   4  13 293.801 171.631  19
  -2  -4 -13 257.356 168.002  25
   2   4  14 3836.82 411.021  19
  -2  -4 -14 5037.20 503.283  25
  -2  -5  14 28102.9 1411.89   5
  -2  -5  14 33607.1 1748.48  22
   2   5 -13 6453.48 650.011   9
  -2  -5  13 9195.80 857.082   5
   2   5 -12 26174.2 1645.65   9
  -2  -5  12 32897.2 1981.52   5
   2   5 -11 940.128 305.320   9
  -2  -5  11 341.550 284.492   5
   2   5 -10 9424.32 1027.97   9
  -2  -5  10 11406.0 1312.61   5
  -2  -5   9 45369.3 2925.76   5
   2   5  -9 38158.7 2335.79   9
  -2  -5   8 715.604 387.227   5
  -2  -5   7 92458.2 4281.09  11
  -2  -5   7 80802.5 4827.23   2
  -2  -5   6 119730. 4864.39  14
  -2  -5   6 103296. 5548.85   2
  -2  -5   6 104267. 4854.55  11
  -2  -5   5 173639. 7807.81   2
  -2  -5   5 186692. 6958.77  14
  -2  -5   5 181376. 7141.05  11
  -2  -5   4 65051.8 3901.34   2
  -2  -5   3 5296.10 976.687   2
  -2  -5   2 15762.8 1694.51   2
  -2  -5   1 245944. 9653.57   2
  -2  -5   0 162880. 7059.71   2
  -2  -5  -1 118445. 5621.42   2
  -2  -5  -2 65221.9 3558.44   1
  -2  -5  -3 9162.31 1193.29   1
  -2  -5  -4 58204.8 3516.93   1
  -2  -5  -5 22029.4 2077.55   1
  -2  -5  -5 23027.0 2073.67  21
  -2  -5  -6 89793.6 4808.51  21
  -2  -5  -6 100756. 5215.16   1
  -2  -5  -7 31305.3 2541.46  21
   2   5   7 34366.5 2137.61  19
  -2  -5  -7 32826.5 2770.26   1
  -2  -5  -8-111.993 383.276  21
   2   5   8 150.235 177.157  19
   2   5   9 181.936 179.675  19
   2   5  10 1049.36 328.655  19
   2   5  11 4962.17 680.635  19
   2   5  12 2646.44 448.792  19
  -2  -5 -12 2525.31 461.355  25
   2   5  13 1588.47 296.583  19
  -2  -5 -13 1334.77 320.429  25
  -2  -5 -14 153.758 92.4972  25
  -2  -6  14 1537.48 306.234  22
   2   6 -13 9635.63 757.361   9
  -2  -6  13 14967.7 1045.39   5
   2   6 -12 32186.8 1821.74   9
  -2  -6  12 42167.8 2213.17   5
   2   6 -11 85633.4 3841.24   9
  -2  -6  11 105426. 4405.84   5
   2   6 -10 72805.3 3551.79   9
  -2  -6  10 93062.3 4267.66   5
   2   6  -9 124.796 135.068   9
  -2  -6   9 729.098 415.648   5
   2   6  -8 6372.70 840.014   9
   2   6  -8 7289.53 923.454  15
   2   6  -7 13183.7 1282.53  15
  -2  -6   6 110168. 5837.28   2
  -2  -6   6 113612. 5038.17  11
  -2  -6   5 150681. 7244.62   2
  -2  -6   5 156710. 6512.48  11
  -2  -6   5 166147. 6285.01  14
  -2  -6   4 64433.7 4027.40   2
  -2  -6   4 63437.4 3199.81  14
  -2  -6   4 64036.8 3455.99  11
  -2  -6   3 9264.17 1389.10   2
  -2  -6   3 11211.8 1299.50  21
  -2  -6   2 7128.89 1184.00   2
  -2  -6   2 7049.44 998.158  21
  -2  -6   1 10324.0 1483.06   2
  -2  -6   0 378.077 354.852   2
  -2  -6  -1 6171.40 1146.63   2
  -2  -6  -2 13312.9 1210.56  25
  -2  -6  -3 24646.1 1995.86  21
  -2  -6  -3 24384.0 1759.32  25
  -2  -6  -4 33395.5 2426.87  21
  -2  -6  -4 39187.2 2797.13   1
  -2  -6  -4 34279.7 2218.73  25
  -2  -6  -5 8569.85 1271.67   1
  -2  -6  -5 8209.55 1031.77  25
   2   6   6 50659.2 2699.71  19
  -2  -6  -6 43584.6 2742.82  25
  -2  -6  -6 49441.2 3402.83   1
   2   6   7 90896.0 4040.06  19
  -2  -6  -7 81718.2 4128.83  25
   2   6   8 5053.77 771.972  19
  -2  -6  -8 4720.62 797.713  25
   2   6   9 16445.1 1392.99  19
  -2  -6  -9 15649.8 1450.85  25
   2   6  10 14475.8 1229.21  19
  -2  -6 -10 13436.7 1265.99  25
   2   6  11 106486. 4276.84  19
  -2  -6 -11 107977. 4397.02  25
   2   6  12 401.770 163.432  19
  -2  -6 -12 468.244 194.032  25
   2   6  13 7787.87 604.720  19
  -2  -6 -13 9670.11 714.070  25
  -2  -7  13 7568.60 680.623   5
  -2  -7  13 8927.77 824.751  22
   2   7 -12 10791.8 866.300   9
  -2  -7  12 15844.5 1175.13   5
   2   7 -11 4614.27 622.075   9
  -2  -7  11 6581.33 854.974   5
   2   7 -10 3958.29 631.347   9
  -2  -7  10 4986.81 824.527   5
   2   7  -9 53194.2 2902.81   9
   2   7  -9 61800.7 3054.95  15
   2   7  -8 2392.55 514.528   9
   2   7  -8 2609.47 553.796  15
   2   7  -7 12159.1 1238.40  15
  -2  -7   6 42258.4 2636.76  11
  -2  -7   5 61622.2 4044.51   2
  -2  -7   5 53996.7 3157.81  11
  -2  -7   4 15061.7 1864.19   2
  -2  -7   4 12490.1 1364.45  11
  -2  -7   3 25089.4 2439.39   2
  -2  -7   3 22473.8 1708.24  14
  -2  -7   2 43307.4 3356.07   2
  -2  -7   2 47404.4 2894.96  21
  -2  -7   2 41404.5 2394.65  25
  -2  -7   1 141511. 7010.06   2
  -2  -7   1 151212. 6130.54  21
  -2  -7   1 136250. 5569.86  25
  -2  -7   0 11237.9 1618.02   2
  -2  -7   0 9686.64 1035.54  25
  -2  -7   0 11321.8 1263.61  21
  -2  -7  -1 87688.2 5153.66   2
  -2  -7  -1 80077.2 3781.17  25
  -2  -7  -1 87672.4 4164.63  21
  -2  -7  -2 25895.9 1974.85  21
  -2  -7  -2 25238.4 1790.87  25
  -2  -7  -3-42.6199 171.425  25
  -2  -7  -4 67687.1 3434.51  25
  -2  -7  -5 1171.34 379.605  25
   2   7   6 65073.8 3202.39  19
  -2  -7  -6 58486.4 3263.38  25
   2   7   7 4068.40 676.202  19
  -2  -7  -7 3911.93 709.853  25
   2   7   8 21820.5 1636.68  19
  -2  -7  -8 21761.2 1727.50  25
   2   7   9 43937.0 2425.09  19
  -2  -7  -9 44394.6 2527.50  25
   2   7  10 31254.7 1852.78  19
  -2  -7 -10 31677.4 1935.57  25
   2   7  11 16203.3 1145.43  19
  -2  -7 -11 18001.1 1250.16  25
   2   7  12 12931.4 838.756  19
  -2  -7 -12 11808.3 872.021  25
  -2  -7 -13 7067.26 506.164  25
  -2  -8  13 1921.07 279.608   5
  -2  -8  13 1717.65 286.704  22
   2   8 -12 823.125 208.839   9
  -2  -8  12 1099.11 301.693  22
  -2  -8  12 792.059 251.075   5
   2   8 -11 5056.76 587.330   9
  -2  -8  11 6731.20 800.880   5
   2   8 -10 19203.0 1385.96   9
   2   8 -10 19654.9 1348.23  15
   2   8  -9 402.301 229.147   9
   2   8  -9 707.715 281.029  15
  -2  -8   9 642.688 374.782   5
   2   8  -8-44.9267 183.451   9
   2   8  -8-24.7829 135.795  15
  -2  -8   8 177.918 281.162   5
   2   8  -7 2483.45 560.383  15
  -2  -8   6 51625.2 2877.02  11
   2   8  -6 45594.3 2759.43  15
  -2  -8   5 4160.05 753.551  11
  -2  -8   4 24376.4 1992.02  11
  -2  -8   3 1035.17 331.060  25
  -2  -8   2 114541. 6130.37   2
  -2  -8   2 102261. 4567.94  25
  -2  -8   1 25604.5 2619.88   2
  -2  -8   1 21393.4 1664.25  25
  -2  -8   0 5188.24 761.966  25
  -2  -8   0 6023.35 931.525  21
  -2  -8   0 6280.27 1295.01   2
  -2  -8  -1 35111.1 2224.77  25
  -2  -8  -2 177582. 6888.74  25
  -2  -8  -3 132355. 5539.51  25
  -2  -8  -4 31710.2 2161.67  25
   2   8   5 25830.8 1778.04  19
  -2  -8  -5 23699.7 1849.58  25
   2   8   6 640.943 284.154  19
  -2  -8  -6 113.062 148.784  25
   2   8   7 3993.47 771.518  19
  -2  -8  -7 99897.5 3396.42  25
   2   8   8 58406.8 2909.57  19
  -2  -8  -8 59029.1 3037.41  25
   2   8   9 13861.1 1201.88  19
  -2  -8  -9 25749.7 1627.89  25
  -2  -8 -10 21993.5 1432.21  25
   2   8  10 21248.7 1347.84  19
   2   8  11 2272.04 346.800  19
  -2  -8 -11 2430.77 387.810  25
  -2  -8 -12 11191.4 719.938  25
  -2  -9  12 3952.79 438.855   5
   2   9 -11 2058.20 314.817   9
  -2  -9  11 1858.15 367.964  22
  -2  -9  11 2323.56 427.732   5
   2   9 -10 7856.75 759.026   9
  -2  -9  10 11666.7 1072.48   5
   2   9  -9 59994.5 2957.43   9
   2   9  -9 70010.1 3141.34  15
   2   9  -8 20336.1 1533.99  15
  -2  -9   8 22627.6 1850.89   5
   2   9  -7 75630.5 3581.65  15
  -2  -9   7 69444.2 3927.28   5
   2   9  -6 1927.53 509.021  15
   2   9  -5 18635.0 1612.39  15
  -2  -9   5 19435.0 1639.82  11
  -2  -9   4 71814.4 3762.83  11
  -2  -9   3 145232. 5896.17  25
  -2  -9   2 74806.6 3668.67  25
  -2  -9   1 6790.18 919.939  25
  -2  -9   0 433.904 240.704  25
  -2  -9  -1 48178.1 2762.71  25
  -2  -9  -2 44415.0 2643.02  25
  -2  -9  -3 12810.6 1286.21  25
   2   9   4 16958.4 1376.71  19
  -2  -9  -4 17065.7 1514.48  25
   2   9   5 584.566 271.352  19
  -2  -9  -5 469.842 267.644  25
   2   9   6 39822.2 2237.93  19
  -2  -9  -6 37047.5 2327.65  25
   2   9   7 1603.92 379.292  19
  -2  -9  -7 1755.45 444.767  25
   2   9   8 365.608 199.550  19
  -2  -9  -8 238.693 214.926  25
   2   9   9-96.0888 127.885  19
  -2  -9  -9 227.158 161.808  25
   2   9  10 5308.09 527.037  19
  -2  -9 -10 5856.53 614.408  25
  -2  -9 -11 14637.9 871.337  25
  -2 -10  11 5183.42 508.971   5
   2  10 -10 1629.46 284.522   9
  -2 -10  10 2192.04 401.536   5
   2  10  -9 27781.2 1555.51   9
   2  10  -9 28306.5 1619.11  15
   2  10  -8 37649.8 2071.29  15
  -2 -10   8 44364.4 2395.81   5
   2  10  -7 979.644 333.061  15
  -2 -10   7 1341.74 433.709   5
   2  10  -6 51209.7 2725.47  15
  -2 -10   6 44662.8 2771.58   5
   2  10  -5 299.315 241.006  15
  -2 -10   5 819.087 340.851  11
  -2 -10   5 478.948 303.032   5
  -2 -10   4 32054.5 2176.62  11
   2  10  -4 32862.7 2189.65  15
  -2 -10   4 29132.4 2064.19   5
  -2 -10   3 827.459 308.276  25
  -2 -10   2 11678.3 1216.56  25
  -2 -10   1 54314.7 2966.22  25
  -2 -10   0-95.4051 212.114  25
  -2 -10  -1 61131.9 3224.88  25
  -2 -10  -2 10578.2 1152.29  25
  -2 -10  -3 28749.2 2003.42  25
   2  10   4 103.200 188.240  19
  -2 -10  -4 465.055 330.499  25
   2  10   5 5739.62 730.467  19
  -2 -10  -5 5376.34 774.215  25
   2  10   6 9955.06 944.026  19
  -2 -10  -6 10559.4 1067.45  25
   2  10   7 14452.7 1100.47  19
  -2 -10  -7 16732.0 1287.68  25
   2  10   8 181.580 148.116  19
  -2 -10  -8 79.5062 140.325  25
  -2 -10  -9 26263.6 1386.90  25
   2  10   9 20817.1 1144.99  19
  -2 -10 -10 234.513 118.498  25
  -2 -11   9 1016.56 245.247   5
   2  11  -8 2887.60 416.973   9
   2  11  -8 3856.54 513.203  15
  -2 -11   8 3382.90 495.904   5
   2  11  -7 24084.7 1453.38   9
  -2 -11   7 25917.2 1614.61   5
   2  11  -7 26695.2 1623.24  15
  -2 -11   6 24194.4 1626.87   5
   2  11  -6 27940.7 1767.82  15
   2  11  -5 600.179 279.574  15
  -2 -11   5-126.556 177.918   5
   2  11  -4 2683.97 548.969  15
  -2 -11   4 3116.31 587.043  11
   2  11  -3 14239.7 1314.25  15
  -2 -11   3 12775.5 1270.37  11
  -2 -11   2 16940.8 1421.49  25
  -2 -11   1 704.532 294.417  25
  -2 -11   0 991.128 365.964  25
  -2 -11  -1 5846.15 823.663  25
  -2 -11  -2 8712.92 990.773  25
  -2 -11  -3 600.483 262.623  25
  -2 -11  -4 7786.57 899.636  25
  -2 -11  -5 25019.4 1654.00  25
  -2 -11  -6 51323.9 2508.41  25
  -2 -11  -7 8511.89 791.168  25
  -2 -11  -8 1796.66 307.054  25
   2  12  -7 1603.11 301.819  15
   2  12  -6 27722.5 1457.09   9
   2  12  -6 29427.9 1635.24  15
   2  12  -5 256.357 175.266  15
   2  12  -4 26104.3 1649.00  15
  -2 -12   3 2292.37 433.360  11
   2  12  -3 2574.55 475.914  15
  -2 -12   2 25460.3 1736.49  11
   2  12  -2 27693.3 1753.34  15
   2  12  -1 70583.7 3247.71  15
   2  12   0 25878.4 1672.67  15
  -2 -12   0 24801.9 1671.40  25
   2  12   1 74212.1 3234.30  15
  -2 -12  -1 70625.3 3293.69  25
   2  12   2 4319.16 565.877  15
  -2 -12  -2 4191.18 626.038  25
   2  12   3 5612.92 604.115  15
  -2 -12  -3 5159.18 674.303  25
  -2 -12  -4 24784.7 1547.24  25
  -2 -12  -5 27636.0 1579.34  25
  -2 -12  -6 22675.2 1304.28  25
  -2 -12  -7 8839.85 655.998  25
   2  13  -5 9239.73 713.940  15
   2  13  -4 4695.72 528.315  15
   2  13  -3 48910.7 2223.06  15
  -2 -13   2 696.165 218.814  11
   2  13  -2 525.057 207.869  15
   2  13  -1 10097.7 833.118  15
  -2 -13   1 10604.0 898.705  11
   2  13   0 5692.81 590.543  15
  -2 -13   0 6395.59 727.644  11
   2  13   1 8.96469 86.2937  15
  -2 -13  -1 101.262 159.326  11
  -2 -13  -2 45598.7 2152.17  25
  -2 -13  -3 99.0626 119.928  25
  -2 -13  -4 19093.5 1112.33  25
  -3  12   2 1638.19 365.640  12
  -3  12   1-211.321 214.269  12
  -3  12   0 881.517 320.716  12
  -3  12  -1 3511.03 649.359  12
  -3  12  -2 3909.96 645.444  12
  -3  12  -3 10474.0 764.512  16
  -3  12  -3 12211.4 1036.26  12
  -3  11   6 7980.97 636.203   7
  -3  11   5-24.0313 61.6344   7
  -3  11   4 191.851 154.076   7
  -3  11   3 22195.9 1659.42  12
  -3  11   2 69239.7 3682.71  12
  -3  11   1 426.517 293.098  12
  -3  11   0 15688.9 1739.03  12
  -3  11  -1-433.731 405.810  12
  -3  11  -2 6406.88 1039.76  12
  -3  11  -3 40731.3 2664.77  12
  -3  11  -4 20757.2 1622.97  12
  -3  11  -5 19788.4 1180.65  16
  -3  10   7 18939.7 1169.49   7
  -3  10   6 3399.76 512.072   7
  -3  10   5 1353.15 351.109   7
  -3  10   4 33311.2 2028.05   7
  -3  10   4 33437.9 2172.64  12
  -3  10   3 6078.92 819.115   7
  -3  10   3 6730.49 1085.77  12
  -3  10   2 16077.3 1377.88   7
  -3  10   2 16959.5 1864.75  12
  -3  10   1 34863.0 3008.74  12
  -3  10   0-328.343 459.251  12
  -3  10  -1 134138. 6917.26  12
  -3  10  -2 26964.0 2557.55  12
  -3  10  -3 27547.7 2432.02  12
  -3  10  -4 7780.51 1144.61  12
  -3  10  -5 13881.1 1079.86  16
  -3  10  -5 14033.7 1374.54  12
  -3  10  -6 87309.3 3281.12  16
  -3  10  -6 71544.0 3186.31   6
  -3  10  -7 771.735 212.589  16
  -3  10  -7 670.990 232.756  13
  -3   9   9 19470.6 1052.43   7
  -3   9   8 5166.36 555.714  18
  -3   9   8 6877.78 686.321   7
  -3   9   7-14.8120 102.742  18
  -3   9   7 26.8731 98.7500   7
  -3   9   6 99438.6 4130.72  18
  -3   9   6 99282.8 4261.84   7
  -3   9   5 3513.88 600.228  18
  -3   9   5 2726.05 572.636   7
  -3   9   4 118222. 5017.71  18
  -3   9   4 122749. 5170.54   7
  -3   9   4 128268. 5714.29  12
  -3   9   3 6403.88 862.245  18
  -3   9   3 6904.62 935.323   7
  -3   9   3 6545.15 1185.48  12
  -3   9   2 476.231 266.705  18
  -3   9   2 356.578 275.128   7
  -3   9   2 1034.39 630.672  12
  -3   9   1 29321.1 1989.38  18
  -3   9   1 28665.5 2001.54   7
  -3   9   0 515.522 318.807  18
  -3   9   0-342.187 476.945  12
  -3   9  -1 54980.6 2921.25  18
  -3   9  -1 43888.3 3890.66  12
  -3   9  -2 4299.48 1112.10  12
  -3   9  -3 8454.49 1456.95  12
  -3   9  -4 9896.34 1437.08  12
  -3   9  -5 5991.98 991.810  12
  -3   9  -6 638.654 234.815  16
  -3   9  -6 806.568 358.806  12
  -3   9  -7 4827.09 597.487  16
  -3   9  -8 1917.42 341.846  16
  -3   9  -9 9219.30 810.480  13
  -3   8  10 1458.07 263.702  18
  -3   8   9 12525.8 1005.52  18
  -3   8   9 11884.2 944.119   7
  -3   8   8 5861.99 769.582  18
  -3   8   8 6284.20 773.029   7
  -3   8   7 31505.8 2068.10  18
  -3   8   7 30399.1 2020.54   7
  -3   8   6 10456.2 1182.97  18
  -3   8   6 11798.2 1231.35   7
  -3   8   5 439.622 271.189  18
  -3   8   5 561.092 293.078   7
  -3   8   4-318.466 240.246  18
  -3   8   4-30.7971 189.663   7
  -3   8   4-409.001 359.315  12
  -3   8   3 53639.8 3197.05  18
  -3   8   3 58928.8 3220.71   7
  -3   8   2 27195.9 2069.21  18
  -3   8   2 26975.4 2016.32   7
  -3   8   2 27775.7 2955.44  12
  -3   8   1 1398.39 454.782  18
  -3   8   1 1338.33 445.053   7
  -3   8   1 1030.86 659.873  12
  -3   8   0 20526.5 1726.17  18
  -3   8   0 22359.9 1728.99   7
  -3   8  -1 35033.8 2353.65  18
  -3   8  -1 31948.4 3367.97  12
  -3   8  -2 24600.5 1937.09  18
  -3   8  -2 24394.1 2748.20  12
  -3   8  -3 1155.16 628.092  12
  -3   8  -4 10920.0 1555.05  12
  -3   8  -5 18298.6 1876.19  12
  -3   8  -6 49233.2 2511.18  16
  -3   8  -6 52889.5 3112.87  12
  -3   8  -7 908.753 384.175  17
  -3   8  -7 765.214 262.473  16
  -3   8  -7 492.655 204.142   6
  -3   8  -8 42414.4 2525.11  17
  -3   8  -8 41912.2 2052.63  16
  -3   8  -9 8538.40 904.099  17
  -3   8  -9 7844.71 653.970  16
  -3   8 -10 2269.94 388.739  13
  -3   7  11 3601.82 435.256  18
  -3   7  10 2522.16 404.701   7
  -3   7   9 533.490 225.666   7
  -3   7   8 34839.7 2244.29   7
  -3   7   8 38617.5 2256.17  23
  -3   7   7 23147.9 1862.93   7
  -3   7   7 25776.7 1926.38  23
  -3   7   6 6727.21 1004.02   7
  -3   7   6 8315.93 1088.80  23
  -3   7   5 1359.35 461.426   7
  -3   7   5 1305.36 545.027  23
  -3   7   4 20958.1 1912.17  18
  -3   7   4 21844.8 1848.29   7
  -3   7   4 24416.9 2318.20  12
  -3   7   4 21795.1 1944.95  23
  -3   7   3 6153.84 998.933  18
  -3   7   3 6309.67 936.210   7
  -3   7   3 6194.03 1273.25  12
  -3   7   3 6916.74 1056.92  23
  -3   7   2 3692.21 753.838  18
  -3   7   2 3787.21 695.215   7
  -3   7   2 4570.92 1243.81  12
  -3   7   1 26019.7 2072.94  18
  -3   7   1 26857.9 1934.23   7
  -3   7   0 5422.51 912.590  18
  -3   7   0 5372.97 818.324   7
  -3   7   0 3198.61 1083.50  12
  -3   7  -1 14634.9 1485.71  18
  -3   7  -1 13145.3 2138.58  12
  -3   7  -2 19633.6 1767.55  18
  -3   7  -2 21636.8 2630.68  12
  -3   7  -3 13039.4 1437.80  18
  -3   7  -3 14902.4 2028.41  12
  -3   7  -4 107498. 5841.66  12
  -3   7  -5 23179.7 2227.27  12
  -3   7  -6 2125.02 705.851  17
  -3   7  -6 3806.02 581.154  16
  -3   7  -6 4176.25 877.925  12
  -3   7  -7 15388.8 1726.97  17
  -3   7  -7 17146.6 1273.68  16
  -3   7  -7 15330.3 1324.66   6
  -3   7  -8 1147.54 480.131  17
  -3   7  -8 655.652 242.724  16
  -3   7  -9 156015. 6038.22  17
  -3   7  -9 134809. 4974.59  16
  -3   6  11 1727.55 316.096  23
  -3   6  10 30.9137 56.3219   7
  -3   6  10 889.266 320.130  23
  -3   6   9 123.621 217.521   7
  -3   6   9 311.328 248.859  23
  -3   6   8 35006.2 2403.35   7
  -3   6   8 42812.5 2752.77  23
  -3   6   7 17704.0 1663.94   7
  -3   6   7 18386.2 1822.84  23
  -3   6   6 11379.6 1336.42   7
  -3   6   6 12072.0 1518.02  23
  -3   6   5 1171.20 436.423   7
  -3   6   5 2235.43 648.841  23
  -3   6   4 4624.50 828.490   7
  -3   6   4 4960.10 1055.96  12
  -3   6   4 4961.01 953.193  23
  -3   6   3 156736. 6371.98   7
  -3   6   3 157859. 7796.48  12
  -3   6   3 152853. 6919.60  23
  -3   6   2 73153.0 4078.71  18
  -3   6   2 82219.3 3871.15   7
  -3   6   2 78875.8 4340.03  23
  -3   6   2 81315.7 5378.94  12
  -3   6   1 198636. 7993.03  18
  -3   6   1 213464. 7639.02   7
  -3   6   0 17149.6 1678.73  18
  -3   6   0 20542.5 1588.50   7
  -3   6   0 15745.1 2334.40  12
  -3   6  -1 4890.05 863.000  18
  -3   6  -1 6418.97 1418.78  12
  -3   6  -2 124030. 5624.26  18
  -3   6  -2 131567. 7166.06  12
  -3   6  -3 1655.29 522.309  18
  -3   6  -3 3402.78 1020.80  12
  -3   6  -4 144516. 7124.66  12
  -3   6  -5 2442.53 787.665  17
  -3   6  -5 3347.95 895.534  12
  -3   6  -6 27401.5 1694.06  16
  -3   6  -6 27065.9 2256.81  12
  -3   6  -7 18910.8 2080.73  17
  -3   6  -7 21499.2 1476.88  16
  -3   6  -7 20179.8 1634.42   6
  -3   6  -8 4221.16 862.414  21
  -3   6  -8 3934.22 905.364  17
  -3   6  -9 16654.5 1631.07  21
  -3   6  -9 18977.8 1777.18  17
  -3   6 -10 16063.5 1420.92  21
  -3   6 -10 17444.1 1508.41  17
  -3   6 -11 2297.98 417.545  21
  -3   5  12 33367.7 1649.37  23
  -3   5  11 3832.66 604.654  23
  -3   5  10 20743.7 1506.35   7
  -3   5  10 24194.3 1875.24  23
  -3   5   9 2491.14 569.961   7
  -3   5   9 3051.71 713.667  23
  -3   5   8 82873.1 4295.84   7
  -3   5   8 102366. 5097.64  23
  -3   5   7 21919.1 1928.57   7
  -3   5   7 23561.5 2286.24  23
  -3   5   6 63144.1 3576.75   7
  -3   5   6 61962.4 4023.81  23
  -3   5   5 12043.0 1608.50  23
  -3   5   4 37946.7 2990.35  12
  -3   5   4 31272.9 2678.08  23
  -3   5   3 67124.9 4429.97  12
  -3   5   3 58736.4 3779.44  23
  -3   5   2 7.32732 216.166  18
  -3   5   2 377.369 379.836  12
  -3   5   2 320.307 276.048  23
  -3   5   1 32608.9 2409.79  18
  -3   5   1 35991.6 2693.86  23
  -3   5   1 32156.7 3245.02  12
  -3   5   0 70980.1 3809.43  18
  -3   5   0 70482.1 5044.92  12
  -3   5  -1 120649. 5506.63  18
  -3   5  -1 133512. 7179.88  12
  -3   5  -2 8906.82 1168.06  18
  -3   5  -2 12861.5 1934.19  12
  -3   5  -3 7958.95 1110.97  18
  -3   5  -3 8778.43 1515.32  12
  -3   5  -4 12276.5 1594.49  17
  -3   5  -4 11077.4 1634.90  12
  -3   5  -5 57500.1 4058.01  17
  -3   5  -5 72887.7 4270.05  12
  -3   5  -6 40192.5 3058.47  21
  -3   5  -6 20566.3 2348.58  17
  -3   5  -7 12642.7 1771.21  21
  -3   5  -7 12774.9 1732.56  17
  -3   5  -7 11534.9 1252.81   6
  -3   5  -8 30434.3 2594.43  17
  -3   5  -8 21708.9 2380.42  21
  -3   5  -9 27921.5 2569.73  21
  -3   5  -9 34204.0 2585.97  17
  -3   5 -10 4043.29 828.758  21
  -3   5 -10 4024.24 749.172  17
  -3   5 -11 2577.48 560.526  21
  -3   5 -11 575.198 209.613  13
  -3   5 -12 4853.38 589.641  21
  -3   5 -12 4755.33 502.003  13
  -3   4  12 3715.45 589.079  23
  -3   4  11 90017.4 4250.56  23
  -3   4  10 16499.6 1742.72  23
  -3   4   9 50483.0 3508.99  23
  -3   4   8 1922.72 510.223   5
  -3   4   8 1022.12 590.562  23
  -3   4   7 53492.7 3087.84   5
  -3   4   7 45965.4 3585.00  23
  -3   4   6 33551.0 2455.08   5
  -3   4   6 32813.2 2907.84  23
  -3   4   5 70587.6 3945.73   5
  -3   4   5 72663.3 4498.94  23
  -3   4   4 157635. 6711.60   5
  -3   4   4 156978. 7193.85  12
  -3   4   4 142245. 6998.52  23
  -3   4   3 4227.11 1081.91  12
  -3   4   3 3932.40 845.862   5
  -3   4   3 4056.82 928.278  23
  -3   4   2 923.660 651.761  12
  -3   4   2 513.440 400.371  24
  -3   4   2 690.175 416.066  23
  -3   4   1 659.166 338.340  18
  -3   4   1 1044.32 624.056  12
  -3   4   1 1401.42 511.534  24
  -3   4   1 729.432 530.953  23
  -3   4   0 71800.5 3799.58  18
  -3   4   0 71519.8 4893.86  12
  -3   4   0 73384.1 4112.36  23
  -3   4  -1 11818.3 1327.75  18
  -3   4  -1 12571.0 1413.38  13
  -3   4  -1 13866.2 2003.92  12
  -3   4  -2 114.499 198.537  18
  -3   4  -2 554.919 400.103  12
  -3   4  -3 182.605 274.167  18
  -3   4  -3-500.825 399.821  12
  -3   4  -4 19072.7 1989.14  21
  -3   4  -4 19073.4 1795.34  18
  -3   4  -4 17703.2 2009.32  17
  -3   4  -4 18862.0 2132.90  12
  -3   4  -5 12064.0 1673.43  21
  -3   4  -5 9157.02 1480.11  17
  -3   4  -5 11916.2 1590.96  12
  -3   4  -6 4785.92 1082.78  21
  -3   4  -6 2810.33 872.904  17
  -3   4  -6 4513.06 782.608   6
  -3   4  -7 11718.3 1813.23  21
  -3   4  -7 11410.7 1682.84  17
  -3   4  -7 11468.4 1256.17   6
  -3   4  -8 4244.97 1103.66  21
  -3   4  -8 6769.88 1227.13  17
  -3   4  -9-146.739 360.722  21
  -3   4  -9 426.548 370.720  17
  -3   4 -10 29194.5 2554.17  21
  -3   4 -10 28894.3 2193.29  17
  -3   4 -10 25834.7 1918.19  13
  -3   4 -11 4306.59 813.811  21
  -3   4 -11 3141.56 547.533  13
  -3   4 -12 83831.6 3504.83  21
  -3   4 -12 67868.7 2857.51  13
  -3   3  13 852.947 251.446  23
  -3   3  12 23061.0 1703.41  23
  -3   3  11 24016.8 2043.27  23
  -3   3  10 20043.0 1455.28   5
  -3   3  10 19117.8 2033.30  23
  -3   3   9 18113.2 1503.73   5
  -3   3   9 13319.9 1878.76  23
  -3   3   8 1121.91 409.460   5
  -3   3   8 1417.62 719.901  23
  -3   3   7 5147.86 907.754   5
  -3   3   7 4673.68 1192.11  23
  -3   3   6 141.179 310.666   5
  -3   3   6 495.930 445.019  23
  -3   3   5 8365.21 1134.94  24
  -3   3   5 6936.56 1094.91   5
  -3   3   4 9552.86 1295.44   5
  -3   3   4 10002.7 1242.86  24
  -3   3   4 9937.35 1492.44  23
  -3   3   3 1184.18 541.865  12
  -3   3   3 1730.15 541.237  24
  -3   3   3 1034.65 442.759   5
  -3   3   3 1461.12 557.880  23
  -3   3   2 1821.62 754.345  12
  -3   3   2 1591.89 505.709  24
  -3   3   2 2031.03 641.117   5
  -3   3   2 1553.87 558.653  23
  -3   3   1 78.6438 201.903  18
  -3   3   1 29.8696 197.197  24
  -3   3   1 118.631 356.330  12
  -3   3   1 99.6601 278.450   5
  -3   3   1 176.558 289.613  23
  -3   3   0 178384. 7264.87  18
  -3   3   0 191474. 7373.78  13
  -3   3   0 185344. 8705.95  12
  -3   3   0 185903. 7732.31  23
  -3   3  -1 76966.7 3942.46  18
  -3   3  -1 86558.0 5173.47  12
  -3   3  -2 19375.6 1709.75  18
  -3   3  -2 18720.3 1881.79  13
  -3   3  -2 21659.2 2335.39  12
  -3   3  -3 9990.01 1414.24  21
  -3   3  -3 10710.9 1262.68  18
  -3   3  -3 12163.5 1704.98  12
  -3   3  -4 4129.10 946.370  21
  -3   3  -4 4001.97 781.842  18
  -3   3  -4 3542.55 881.081  17
  -3   3  -5 135655. 7018.04  17
  -3   3  -5 144294. 6482.38   6
  -3   3  -6 21675.1 2530.75  21
  -3   3  -6 15540.8 2013.53  17
  -3   3  -6 21186.2 1851.92   6
  -3   3  -7 107876. 6665.21  21
  -3   3  -7 123546. 6363.87  17
  -3   3  -7 126131. 5393.37   6
  -3   3  -8 4925.48 1263.45  21
  -3   3  -8 12026.2 1618.79  17
  -3   3  -9 4793.27 1168.43  21
  -3   3  -9 7375.21 1207.82  17
  -3   3  -9 7281.19 1075.53  13
  -3   3 -10 22962.5 2334.80  21
  -3   3 -11 1007.13 440.111  21
  -3   3 -11 965.117 334.673  13
  -3   3 -12 40896.1 2353.31  21
  -3   3 -12 33212.4 1707.08  13
  -3   3 -13 1624.32 335.675  21
  -3   2  13 7917.88 825.745  23
  -3   2  12 27502.8 2035.25  23
  -3   2  11 2279.03 654.993  23
  -3   2  11 2798.14 460.183   5
  -3   2  10 19044.7 1480.70   5
  -3   2  10 17070.3 2050.66  23
  -3   2   9 54989.6 2910.71   5
  -3   2   9 36853.7 3392.44  23
  -3   2   8 18184.4 2359.16  23
  -3   2   8 23082.8 1878.99   5
  -3   2   8 20888.2 1928.91  22
  -3   2   7 23296.7 2131.58  22
  -3   2   7 23737.9 2023.62   5
  -3   2   7 24267.3 1933.85  24
  -3   2   7 25737.2 2727.18  23
  -3   2   6 12565.8 1458.92   5
  -3   2   6 12960.5 1385.78  24
  -3   2   6 13176.0 1861.34  23
  -3   2   6 12175.8 1537.88  22
  -3   2   5 160261. 7022.15   5
  -3   2   5 160393. 6758.83  24
  -3   2   4 82421.8 4319.75   5
  -3   2   4 79295.7 4059.75  24
  -3   2   4 84075.6 4770.72  23
  -3   2   3 13362.0 1551.84   6
  -3   2   3 16008.6 1637.83   5
  -3   2   3 14969.3 1485.24  24
  -3   2   3 13021.8 1607.67  23
  -3   2   2 20952.1 1830.87   5
  -3   2   2 16303.7 1562.26  24
  -3   2   2 17475.3 1806.18  23
  -3   2   1 11699.4 1274.63  18
  -3   2   1 13035.4 1271.13  14
  -3   2   1 12946.9 1356.00  24
  -3   2   1 12989.4 1813.13  12
  -3   2   1 13460.8 1437.96   5
  -3   2   1 10618.6 1388.77  23
  -3   2   0 95866.8 4527.78  18
  -3   2   0 98283.9 4920.62  23
  -3   2   0 104321. 4754.72  13
  -3   2   0 108355. 4787.19   5
  -3   2   0 102447. 5716.06  12
  -3   2   0 95988.7 4551.04  24
  -3   2  -1 10451.1 1264.09  21
  -3   2  -1 9805.53 1152.17  18
  -3   2  -1 9294.55 1229.84  13
  -3   2  -1 10084.6 1575.17  12
  -3   2  -1 9353.66 1251.94  23
  -3   2  -2 138897. 6276.92  21
  -3   2  -2 136616. 5775.72  18
  -3   2  -3 17829.9 1944.31  21
  -3   2  -3 18053.8 1630.52  18
  -3   2  -3 20198.1 1961.03   6
  -3   2  -3 19015.3 1963.08  13
  -3   2  -4 133854. 6633.22  21
  -3   2  -4 133155. 5760.26  18
  -3   2  -4 122320. 5926.79   6
  -3   2  -5 27151.1 2754.78  21
  -3   2  -5 22649.9 2340.48  17
  -3   2  -5 26526.7 2195.99   6
  -3   2  -6-214.255 315.912  17
  -3   2  -6-187.844 259.647   6
  -3   2  -7 6624.58 1494.66  21
  -3   2  -7 9715.92 1491.48  17
  -3   2  -7 10430.9 1220.98   6
  -3   2  -8 75253.6 4318.11  17
  -3   2  -8 70227.9 3903.64  13
  -3   2  -9 72078.0 4930.63  21
  -3   2 -10 17580.1 2002.86  21
  -3   2 -10 14554.0 1377.39  13
  -3   2 -11 21950.4 2013.49  21
  -3   2 -11 17895.1 1360.49  13
  -3   2 -12 9848.17 1093.50  21
  -3   2 -12 7169.20 670.159  13
  -3   2 -13 12897.7 995.866  21
  -3   1  13 6.15741 76.3950  23
  -3   1  12 11364.4 863.659   5
  -3   1  12 12901.5 1384.91  23
  -3   1  11 28129.4 1721.85   5
  -3   1  11 31022.0 2580.79  23
  -3   1  10 31614.1 2025.69   5
  -3   1  10 27053.7 2708.99  23
  -3   1  10 32651.2 2224.61  22
  -3   1   9 2867.98 631.861   5
  -3   1   9 2265.18 602.052  22
  -3   1   8 115213. 4910.50  24
  -3   1   8 109503. 5049.53   5
  -3   1   8 109601. 5381.51  22
  -3   1   7 13036.1 1381.50  24
  -3   1   7 14708.8 1584.29   5
  -3   1   7 12988.6 1949.04  23
  -3   1   7 14257.6 1692.15  22
  -3   1   6 48394.4 3195.51   5
  -3   1   6 50441.8 3427.54  22
  -3   1   6 49435.5 2957.91  24
  -3   1   5 10006.5 1338.41   5
  -3   1   5 10011.6 1188.95  24
  -3   1   5 11522.8 1671.67  23
  -3   1   5 10591.3 1480.00  22
  -3   1   4 65235.0 3751.08   5
  -3   1   4 59503.5 3370.39  24
  -3   1   4 66334.0 4094.59  23
  -3   1   4 68893.2 3939.66  22
  -3   1   3 229136. 9009.36   6
  -3   1   3 243172. 9021.72   5
  -3   1   3 216931. 8495.70  24
  -3   1   3 219576. 9133.69  23
  -3   1   2 60032.1 3138.62  14
  -3   1   2 56674.4 3593.94   6
  -3   1   2 65348.8 3512.83   5
  -3   1   2 58705.5 3240.56  24
  -3   1   2 57393.0 3530.29  23
  -3   1   2 57586.4 3123.52  21
  -3   1   1 181843. 7130.38  18
  -3   1   1 194244. 7139.87  14
  -3   1   1 168802. 7743.37   6
  -3   1   1 192813. 7370.13  13
  -3   1   1 183528. 7249.68  24
  -3   1   1 203320. 7531.94   5
  -3   1   1 171341. 7513.18  23
  -3   1   1 182108. 7239.11  21
  -3   1   0 277.907 217.327  21
  -3   1   0 674.577 307.688  18
  -3   1   0 512.595 271.651  14
  -3   1   0 203.006 391.287   6
  -3   1   0 1136.86 400.140  13
  -3   1   0 1015.56 372.893  24
  -3   1   0 1238.49 406.120   5
  -3   1   0 563.773 375.595  23
  -3   1  -1 21683.1 1954.05  21
  -3   1  -1 22085.6 1735.89  18
  -3   1  -1 22949.6 1706.65  14
  -3   1  -1 22615.6 2134.50   6
  -3   1  -1 22647.7 1965.27  13
  -3   1  -1 22938.8 1777.60   5
  -3   1  -1 21773.5 1945.43  23
  -3   1  -2 20575.3 2010.13  21
  -3   1  -2 20904.0 1701.85  18
  -3   1  -2 23016.6 2121.40   6
  -3   1  -2 19857.4 1917.07  13
  -3   1  -3 140799. 6814.52  21
  -3   1  -3 145815. 6044.26  18
  -3   1  -3 147607. 6607.71   6
  -3   1  -4 128748. 6565.23  21
  -3   1  -4 123903. 5858.46   6
  -3   1  -5 245.136 326.674  21
  -3   1  -5 191.924 274.814   6
  -3   1  -5-253.345 381.830  13
  -3   1  -6 2313.26 854.464  21
  -3   1  -6 2506.83 648.765   6
  -3   1  -6 2704.35 947.835  13
  -3   1  -7 397.731 390.850  21
  -3   1  -7-180.184 270.057   6
  -3   1  -8 8292.34 1608.69  21
  -3   1  -9 4462.38 1139.23  21
  -3   1  -9 5461.79 904.660  13
  -3   1 -10 382.917 465.855  21
  -3   1 -10-98.4354 188.309  13
  -3   1 -11 1404.63 522.865  21
  -3   1 -11 680.838 255.399  13
  -3   1 -12 292.202 245.416  21
  -3   1 -12 727.368 193.722  13
  -3   1 -13 7960.72 758.654  21
  -3   0  13 110638. 4461.04  23
  -3   0  12 1495.10 329.240   5
  -3   0  12 1599.81 480.906  23
  -3   0  11 596.478 254.464   5
  -3   0  11-92.8018 253.423  23
  -3   0  11 733.276 307.673  22
  -3   0  10 9940.96 1096.57   5
  -3   0  10 10639.1 1272.98  22
  -3   0  10 8798.08 1483.31  23
  -3   0   9 60110.7 2961.42  24
  -3   0   9 59148.5 3124.22   5
  -3   0   9 57302.8 3405.02  22
  -3   0   8 137110. 6598.96  22
  -3   0   8 146429. 6316.64   5
  -3   0   8 146400. 5933.47  24
  -3   0   8 132272. 7334.25  23
  -3   0   7 11781.4 1455.36   5
  -3   0   7 10761.0 1222.97  24
  -3   0   7 14675.5 2020.26  23
  -3   0   7 10144.8 1480.22  22
  -3   0   6 41299.8 2614.23  24
  -3   0   6 37711.5 2840.95   5
  -3   0   6 40346.2 3084.29  22
  -3   0   5 13441.2 1584.33   5
  -3   0   5 12137.9 1316.16  24
  -3   0   5 14800.7 1830.58  23
  -3   0   5 14555.4 1714.84  22
  -3   0   4 17473.1 1800.89   5
  -3   0   4 16338.7 1533.01  24
  -3   0   4 16266.1 1831.76  23
  -3   0   4 15243.4 1722.00  22
  -3   0   4 20244.6 1665.12  21
  -3   0   3 27430.2 2253.28   6
  -3   0   3 29251.0 2039.93  14
  -3   0   3 29193.1 2292.21   5
  -3   0   3 27128.0 2029.34  24
  -3   0   3 26968.1 2292.26  23
  -3   0   3 28715.7 2304.48  22
  -3   0   3 28060.4 2031.21  21
  -3   0   2 13173.5 1302.61  18
  -3   0   2 12981.3 1540.17   6
  -3   0   2 12416.4 1259.21  14
  -3   0   2 14233.0 1493.50   5
  -3   0   2 11880.8 1440.78  23
  -3   0   2 14425.8 1407.09  21
  -3   0   1 1223.14 400.525  21
  -3   0   1 1127.60 370.472  18
  -3   0   1 993.170 483.462   6
  -3   0   1 1741.44 518.926  13
  -3   0   1 1527.54 513.999  23
  -3   0   1 1113.22 457.085   5
  -3   0   0 54788.1 3236.32  21
  -3   0   0 54447.7 2911.67  18
  -3   0   0 51818.3 3453.68   6
  -3   0   0 53583.9 2931.28  14
  -3   0   0 56842.4 3242.18  13
  -3   0   0 56679.5 3031.23   5
  -3   0   0 52552.5 3180.10  23
  -3   0  -1 620.471 359.808  21
  -3   0  -1 162.720 208.953  18
  -3   0  -1 542.607 303.197  14
  -3   0  -1 91.1311 345.975   6
  -3   0  -1 302.481 280.630  13
  -3   0  -1 365.499 218.189  23
  -3   0  -2 6969.36 1141.08  21
  -3   0  -2 6478.62 867.858  18
  -3   0  -2 5857.21 860.697  14
  -3   0  -2 6341.22 1103.43   6
  -3   0  -2 6566.44 1076.84  13
  -3   0  -3 51952.3 3585.78  21
  -3   0  -3 54931.7 3022.93  18
  -3   0  -3 55263.4 3470.93   6
  -3   0  -3 49341.4 3309.24  13
  -3   0  -4 54744.6 3879.81  21
  -3   0  -4 59893.7 3572.40   6
  -3   0  -4 52893.6 3502.73  13
  -3   0  -5 5022.23 1150.19  21
  -3   0  -5 4525.30 901.518   6
  -3   0  -5 3885.16 914.453  13
  -3   0  -6 1159.48 620.242  21
  -3   0  -6 1051.30 448.720   6
  -3   0  -6 1774.22 610.397  13
  -3   0  -7 9188.37 1610.03  21
  -3   0  -7 10370.9 1355.40  13
  -3   0  -8 111632. 6624.53  21
  -3   0  -8 136142. 5907.52  13
  -3   0  -9 40693.2 3359.96  21
  -3   0  -9 39469.7 2564.45  13
  -3   0 -10 14571.4 1775.17  21
  -3   0 -10 14718.9 1325.14  13
  -3   0 -11 10642.9 1309.98  21
  -3   0 -11 8343.73 851.586  13
  -3   0 -12 314.080 240.247  21
  -3   0 -13 31204.2 1631.99  21
  -3  -1  13 11726.4 1002.78  23
  -3  -1  12 20757.4 1294.31   5
  -3  -1  12 23556.6 1825.05  23
  -3  -1  12 20385.3 1432.43  22
  -3  -1  11 2495.12 726.586  23
  -3  -1  11 2773.56 535.570   5
  -3  -1  11 2748.23 580.001  22
  -3  -1  10 50007.7 2805.47   5
  -3  -1  10 53804.0 3204.49  22
  -3  -1   9 6111.10 973.499   5
  -3  -1   9 5783.18 831.618  24
  -3  -1   9 3782.00 1017.23  23
  -3  -1   9 6055.18 1111.11  22
  -3  -1   8 4293.18 753.876  24
  -3  -1   8 5475.36 1231.06  23
  -3  -1   8 6244.22 1058.90   5
  -3  -1   8 3994.61 940.965  22
  -3  -1   7 15915.1 1762.92   5
  -3  -1   7 14824.8 1431.45  24
  -3  -1   7 17762.5 2137.73  23
  -3  -1   7 13472.5 1791.29  22
  -3  -1   6 24958.6 2290.98   5
  -3  -1   6 26870.1 1998.20  24
  -3  -1   6 30020.7 2697.12  23
  -3  -1   6 28282.0 2563.85  22
  -3  -1   5 63993.5 4316.68   2
  -3  -1   5 65010.9 3978.41   5
  -3  -1   5 64865.0 3471.31  24
  -3  -1   5 71456.3 4237.38  23
  -3  -1   5 72751.8 4228.80  22
  -3  -1   4 51115.2 2964.55  14
  -3  -1   4 50885.8 3368.78   5
  -3  -1   4 50504.1 3364.07  23
  -3  -1   4 55673.3 3484.12  22
  -3  -1   4 55515.1 3121.67  21
  -3  -1   3 9312.55 1294.06   6
  -3  -1   3 8790.36 1077.08  14
  -3  -1   3 9856.79 1305.01   5
  -3  -1   3 9177.29 1256.79  23
  -3  -1   3 8636.32 1212.41  22
  -3  -1   3 11131.8 1245.58  21
  -3  -1   2 57934.9 3515.00   6
  -3  -1   2 54824.5 3017.44  14
  -3  -1   2 56668.1 3246.96   5
  -3  -1   2 52496.4 3216.70  23
  -3  -1   2 52828.6 3195.94  22
  -3  -1   2 56500.7 3173.53  21
  -3  -1   1 72182.6 4103.42   6
  -3  -1   1 65642.0 3460.98  14
  -3  -1   1 71999.7 3642.60   5
  -3  -1   1 80831.4 4118.56  11
  -3  -1   1 65959.0 3684.39  23
  -3  -1   1 70566.8 3766.72  21
  -3  -1   0 7602.50 1123.89  21
  -3  -1   0 6354.19 898.755  14
  -3  -1   0 6877.73 1169.44   6
  -3  -1   0 7290.03 1047.69  13
  -3  -1   0 7292.27 1094.60  11
  -3  -1   0 5982.27 939.678  23
  -3  -1   0 6654.18 920.336   5
  -3  -1  -1 15962.2 1713.19  21
  -3  -1  -1 17858.6 1863.55   6
  -3  -1  -1 19817.1 1831.06  13
  -3  -1  -1 18538.9 1798.34  11
  -3  -1  -2 7454.12 1182.62  21
  -3  -1  -2 8587.66 982.262  18
  -3  -1  -2 7438.57 1207.51   6
  -3  -1  -2 7097.34 1120.97  13
  -3  -1  -2 8693.23 1196.11  11
  -3  -1  -3 112662. 5769.20  21
  -3  -1  -3 118574. 5648.16   6
  -3  -1  -3 107801. 5427.96  13
  -3  -1  -4 21853.9 2298.40  21
  -3  -1  -4 23860.2 2109.86   6
  -3  -1  -4 18875.2 1958.51  13
  -3  -1  -5 47322.2 3690.52  21
  -3  -1  -5 42268.8 3090.21  13
  -3  -1  -6 6491.41 1363.49  21
  -3  -1  -6 7791.50 1187.82  13
  -3  -1  -7 35529.3 3254.80  21
  -3  -1  -7 40491.0 2814.59  13
  -3  -1  -8 14321.0 1933.87  21
  -3  -1  -8 17677.8 1695.85  13
  -3  -1  -9 256.023 376.362  21
  -3  -1  -9 325.153 259.697  13
  -3  -1 -10 43603.6 3067.99  21
  -3  -1 -10 44306.1 2449.59  13
  -3  -1 -11 21780.0 1834.18  21
  -3  -1 -12 65247.9 3070.53  21
  -3  -1 -13 1120.46 234.547  21
  -3  -1 -13 1244.44 208.608  25
  -3  -2  13 21359.9 1259.58  23
  -3  -2  13 21990.8 1236.85  22
  -3  -2  12 9210.71 813.946   5
  -3  -2  12 8785.39 999.861  23
  -3  -2  12 10212.9 966.407  22
  -3  -2  11-143.062 275.723  23
  -3  -2  11 204.703 199.786   5
  -3  -2  11-1.44452 170.762  22
  -3  -2  10 5476.18 833.044   5
  -3  -2  10 5367.64 1022.79  23
  -3  -2  10 6513.25 1066.03  22
  -3  -2   9 14630.4 1518.19   5
  -3  -2   9 13460.2 1247.86  24
  -3  -2   9 9592.64 1487.63  23
  -3  -2   9 12098.3 1606.11  22
  -3  -2   8 16760.6 1764.95   5
  -3  -2   8 15917.5 1432.61  24
  -3  -2   8 17984.0 2049.95  23
  -3  -2   8 12980.4 1766.18  22
  -3  -2   7 21873.0 2134.55   5
  -3  -2   7 19160.2 1641.31  24
  -3  -2   7 24268.2 2339.29  23
  -3  -2   6 1169.38 451.553  24
  -3  -2   6-14.1560 331.652  23
  -3  -2   6 920.619 527.646   5
  -3  -2   6 1122.36 558.916  22
  -3  -2   5 30861.2 2204.74  14
  -3  -2   5 28705.6 2555.14   5
  -3  -2   5 31664.3 2564.84  23
  -3  -2   5 33416.0 2707.69  22
  -3  -2   4 2987.09 661.111  21
  -3  -2   4 2602.76 608.134  14
  -3  -2   4 4112.29 808.436  23
  -3  -2   4 3348.42 848.970   5
  -3  -2   4 2998.08 779.802  22
  -3  -2   3 23499.7 1846.29  14
  -3  -2   3 25355.0 2184.05   5
  -3  -2   3 25079.4 2110.30  11
  -3  -2   3 23465.7 1999.44  23
  -3  -2   3 24054.5 2045.87  22
  -3  -2   3 25485.0 2008.00  21
  -3  -2   2 50220.6 2907.47  14
  -3  -2   2 54280.7 3151.66   5
  -3  -2   2 55005.7 3321.45  11
  -3  -2   2 48688.2 3023.30  23
  -3  -2   2 48249.7 2985.37  22
  -3  -2   2 53511.4 3130.66  21
  -3  -2   1 25903.4 2168.43  11
  -3  -2   1 23420.4 2199.14   6
  -3  -2   1 21060.5 1738.65  14
  -3  -2   1 22454.5 1807.53   5
  -3  -2   1 23878.5 1908.27  23
  -3  -2   1 23166.0 1953.01  21
  -3  -2   0 158582. 7082.67   6
  -3  -2   0 145827. 6234.07  14
  -3  -2   0 162569. 6932.74  11
  -3  -2   0 158029. 6452.80  23
  -3  -2   0 153699. 6659.88  21
  -3  -2  -1 5221.12 975.855  21
  -3  -2  -1 7892.68 1278.81   6
  -3  -2  -1 6492.38 1030.01  13
  -3  -2  -1 5939.59 1058.85  11
  -3  -2  -2 148457. 6841.31  21
  -3  -2  -2 154875. 6767.91  13
  -3  -2  -2 140473. 6616.33  11
  -3  -2  -3 1765.47 634.992  21
  -3  -2  -3 1472.72 597.281   6
  -3  -2  -3 1402.71 542.817  13
  -3  -2  -4 32982.6 2817.46  21
  -3  -2  -4 34396.9 2645.62  13
  -3  -2  -4 32912.2 2655.60   1
  -3  -2  -5 146590. 7336.55  21
  -3  -2  -5 158675. 6895.64  13
  -3  -2  -6 95658.1 5662.47  21
  -3  -2  -6 111022. 5288.89  13
  -3  -2  -7 90047.6 5445.91  21
  -3  -2  -7 109257. 5064.00  13
  -3  -2  -8 757.847 469.026  21
  -3  -2  -8 282.481 317.532  13
  -3  -2  -9 4.57130 134.784  21
  -3  -2  -9 206.435 226.077  13
  -3  -2 -10 7306.43 1089.18  21
  -3  -2 -11 19689.4 1587.24  21
  -3  -2 -12 16266.0 1187.03  21
  -3  -2 -12 18423.3 1092.17  25
  -3  -3  13 736.969 196.407  22
  -3  -3  12 37243.2 1825.50   5
  -3  -3  12 40726.6 2085.31  22
  -3  -3  11 2176.94 504.428  23
  -3  -3  11 1878.23 445.392   5
  -3  -3  11 1866.02 497.593  22
  -3  -3  10 94194.1 4340.11   5
  -3  -3  10 85736.7 4484.27  23
  -3  -3  10 94101.0 3861.02  24
  -3  -3  10 100586. 4832.73  22
  -3  -3   9 1873.26 464.104  24
  -3  -3   9 1375.80 498.375  23
  -3  -3   9 2073.11 587.453   5
  -3  -3   9 1280.57 541.308  22
  -3  -3   8-69.4023 199.742  24
  -3  -3   8 154.849 250.024  23
  -3  -3   8-151.745 287.635   5
  -3  -3   8-283.123 375.828  22
  -3  -3   7 37828.3 2350.02  24
  -3  -3   7 44465.1 3014.55  23
  -3  -3   7 36686.5 2929.49   5
  -3  -3   6 53619.0 3275.20  23
  -3  -3   6 45229.1 3358.54  22
  -3  -3   5 325785. 11221.4  14
  -3  -3   5 338082. 11714.5  23
  -3  -3   5 328764. 12075.3  22
  -3  -3   4 7297.83 998.322  14
  -3  -3   4 6544.93 1051.54  11
  -3  -3   4 8409.84 1159.41  23
  -3  -3   4 7201.74 1153.28  22
  -3  -3   4 6759.63 1195.18   5
  -3  -3   4 7773.19 1119.21  21
  -3  -3   3 22961.4 1835.80  14
  -3  -3   3 26496.6 2237.59   5
  -3  -3   3 24378.6 2106.05  11
  -3  -3   3 24428.5 2036.38  22
  -3  -3   3 25006.6 2031.21  21
  -3  -3   2 10278.5 1189.04  14
  -3  -3   2 12538.2 1398.52   5
  -3  -3   2 12690.3 1500.95  11
  -3  -3   2 10963.8 1253.10  22
  -3  -3   2 11961.7 1349.65  21
  -3  -3   1 71316.8 3704.54  14
  -3  -3   1 76098.0 4213.31  11
  -3  -3   1 73182.9 3926.83  21
  -3  -3   0 168135. 7337.89  11
  -3  -3   0 162190. 6970.52  21
  -3  -3  -1 34893.6 2610.13  21
  -3  -3  -1 36132.5 2794.28  11
  -3  -3  -2 16187.2 1777.09  21
  -3  -3  -2 17547.3 1912.83  11
  -3  -3  -3 26463.5 2399.08  21
  -3  -3  -3 30042.1 2496.78  11
  -3  -3  -4 2518.90 744.471  21
  -3  -3  -4 2558.05 689.160  13
  -3  -3  -5 31295.4 2744.28  21
  -3  -3  -5 34813.7 2609.49  13
  -3  -3  -6 423.622 349.134  21
  -3  -3  -6-1.95162 321.248  13
  -3  -3  -7 8980.74 1402.70  21
  -3  -3  -8 32516.9 2636.63  21
  -3  -3  -9 1926.00 591.157  21
  -3  -3 -10 12398.3 1304.08  21
  -3  -3 -10 12727.6 1099.60  25
  -3  -3 -11 23563.9 1611.98  21
  -3  -3 -11 28113.9 1539.84  25
  -3  -3 -12 7782.24 657.757  21
  -3  -3 -12 11317.7 756.095  25
  -3  -4  12 48773.3 2229.66   5
  -3  -4  12 55007.7 2497.24  22
  -3  -4  11 18490.0 1382.76   5
  -3  -4  11 21933.7 1665.80  22
  -3  -4  10 43478.2 2612.74   5
  -3  -4  10 47645.7 2960.25  22
  -3  -4   9 20166.1 1440.80  24
  -3  -4   9 21767.1 1906.56   5
  -3  -4   9 17347.2 1871.70  22
  -3  -4   8 3098.45 588.512  24
  -3  -4   8 3244.65 771.415   5
  -3  -4   8 1376.49 613.697  22
  -3  -4   7 41698.1 3100.57   5
  -3  -4   7 43251.1 2462.86  24
  -3  -4   6 673.911 509.651   5
  -3  -4   6 2701.35 766.413  22
  -3  -4   5 17217.8 1558.99  14
  -3  -4   5 14325.4 1789.48   5
  -3  -4   5 18545.5 1880.22  22
  -3  -4   4 99769.7 4644.68  14
  -3  -4   4 108533. 5112.71  11
  -3  -4   4 100479. 5320.13   5
  -3  -4   4 105547. 5076.96  22
  -3  -4   3 2662.34 640.608  21
  -3  -4   3 3100.67 649.939  14
  -3  -4   3 3478.79 798.573  11
  -3  -4   3 2876.52 700.627   5
  -3  -4   3 3132.79 679.730  22
  -3  -4   2 146360. 6135.29  14
  -3  -4   2 155899. 6362.99   5
  -3  -4   2 157030. 6809.22  11
  -3  -4   2 136053. 5961.93  22
  -3  -4   2 154190. 6472.49  21
  -3  -4   1 68101.0 3619.33  14
  -3  -4   1 73229.0 4187.73  11
  -3  -4   1 67503.5 3762.06  21
  -3  -4   0 9929.36 1434.62  11
  -3  -4   0 10700.0 1332.72  21
  -3  -4  -1 2682.20 668.374  21
  -3  -4  -1 1510.20 606.862  11
  -3  -4  -2 33287.4 2569.23  21
  -3  -4  -2 32442.7 2742.89  11
  -3  -4  -3 69872.6 4102.46  21
  -3  -4  -3 68487.8 4217.45  11
  -3  -4  -4 42754.7 3138.56  21
  -3  -4  -4 42931.5 2490.62  25
  -3  -4  -4 49591.6 3281.70  11
  -3  -4  -5 947.694 513.916  21
  -3  -4  -5 580.231 288.294  25
  -3  -4  -6 8580.12 1320.09  21
  -3  -4  -6 8030.65 1004.95  25
  -3  -4  -7 37916.6 2826.93  21
  -3  -4  -7 39286.7 2385.84  25
  -3  -4  -8 5947.13 984.892  21
  -3  -4  -8 6500.96 853.289  25
  -3  -4  -9 6588.23 959.701  21
  -3  -4  -9 7069.94 834.688  25
  -3  -4 -10 2997.87 572.901  21
  -3  -4 -10 2967.11 491.954  25
  -3  -4 -11 25205.7 1345.98  25
  -3  -4 -11 20261.3 1252.26  21
  -3  -4 -12 74.9821 81.3831  25
  -3  -5  12 6937.60 606.592   5
  -3  -5  12 6104.99 634.394  22
  -3  -5  11 145.739 170.058   5
  -3  -5  11 307.145 208.385  22
  -3  -5  10 5073.74 766.345   5
  -3  -5  10 5394.52 835.631  22
  -3  -5   9 104021. 4106.45  24
  -3  -5   9 90680.6 4850.10  22
  -3  -5   8 790.031 302.325  24
  -3  -5   8 1256.35 532.320   5
  -3  -5   8 77.8138 245.259  22
  -3  -5   7 13446.5 1683.24   5
  -3  -5   7 15420.2 1334.21  24
  -3  -5   7 15403.0 1758.05  22
  -3  -5   6 20987.6 1948.84  22
  -3  -5   6 7604.26 1286.21   5
  -3  -5   5 9874.76 1137.23  14
  -3  -5   5 10015.1 1254.50  11
  -3  -5   5 9850.04 1282.06  22
  -3  -5   5 7039.66 1207.18   5
  -3  -5   4 9094.73 1092.21  14
  -3  -5   4 9018.51 1235.45  11
  -3  -5   4 9088.87 1336.77   5
  -3  -5   4 9277.80 1164.84  22
  -3  -5   3 3726.24 768.933  21
  -3  -5   3 2878.89 627.287  14
  -3  -5   3 4909.00 914.980  11
  -3  -5   3 3894.06 789.728   5
  -3  -5   3 3243.61 648.477  22
  -3  -5   2 524.218 306.351  21
  -3  -5   2 644.472 335.346  14
  -3  -5   2 745.391 394.368  11
  -3  -5   1 2281.95 578.004  21
  -3  -5   1 1588.91 480.331  14
  -3  -5   1 1616.95 607.328  11
  -3  -5   0 2263.74 597.214  21
  -3  -5   0 3145.04 828.046  11
  -3  -5  -1 16339.6 1952.01  11
  -3  -5  -1 14509.5 1583.28  21
  -3  -5  -2 3498.12 789.045  21
  -3  -5  -2 2514.09 881.362  11
  -3  -5  -3 66751.7 4368.01  11
  -3  -5  -3 77746.0 4186.80  21
  -3  -5  -4 1286.84 510.777  21
  -3  -5  -4 1500.57 405.132  25
  -3  -5  -4 1473.49 657.583  11
  -3  -5  -5 16713.8 1758.77  21
  -3  -5  -5 17326.7 1460.62  25
  -3  -5  -6 3249.59 740.606  21
  -3  -5  -6 3997.46 672.225  25
  -3  -5  -7 23577.1 1960.33  21
  -3  -5  -7 24227.9 1719.65  25
  -3  -5  -8 69027.2 3564.24  21
  -3  -5  -8 75165.0 3385.05  25
  -3  -5  -9 7202.28 791.776  25
  -3  -5  -9 7746.11 885.888  21
  -3  -5 -10 78031.6 3005.54  25
  -3  -5 -10 64260.8 2823.70  21
  -3  -5 -11 298.028 131.206  25
  -3  -6  11 144.937 163.561   5
  -3  -6  11 52.9858 121.204  22
  -3  -6  10 106.058 163.558   5
  -3  -6  10 283.604 230.456  22
  -3  -6   9 12249.4 1268.32   5
  -3  -6   9 8490.61 1069.49  22
  -3  -6   8 2365.69 460.845  24
  -3  -6   8 2083.23 632.797   5
  -3  -6   8 951.482 447.909  22
  -3  -6   7 32449.7 1936.99  24
  -3  -6   7 32462.6 2364.28  22
  -3  -6   6 1674.96 519.568  22
  -3  -6   6 212.306 254.676   5
  -3  -6   5 21140.1 1649.45  14
  -3  -6   5 20292.1 1777.15  11
  -3  -6   5 20753.1 1756.00  22
  -3  -6   4 23239.9 1778.98  14
  -3  -6   4 24725.8 2062.18  11
  -3  -6   4 23710.2 2086.40   5
  -3  -6   3 2986.24 641.841  14
  -3  -6   3 4015.36 840.105  11
  -3  -6   3 2943.04 652.271   5
  -3  -6   2 196345. 8055.56  11
  -3  -6   2 197624. 7738.84  21
  -3  -6   1 4124.39 831.901  21
  -3  -6   1 2875.03 650.569  14
  -3  -6   1 3375.54 848.969  11
  -3  -6   0 11392.2 1609.37  11
  -3  -6   0 9557.99 1248.10  21
  -3  -6  -1 48489.7 3585.91  11
  -3  -6  -1 45716.2 2940.62  21
  -3  -6  -2 38047.3 3235.82  11
  -3  -6  -2 51685.8 3081.89  21
  -3  -6  -3 136954. 5109.06  25
  -3  -6  -3 131219. 5691.96  21
  -3  -6  -4 8218.87 939.906  25
  -3  -6  -4 8655.80 1362.11  11
  -3  -6  -4 7683.26 1114.18  21
  -3  -6  -5 26222.4 1810.98  25
  -3  -6  -5 24333.6 2018.53  21
  -3  -6  -6 18704.4 1456.83  25
  -3  -6  -6 18533.1 1637.58  21
  -3  -6  -7 2191.70 504.609  21
  -3  -6  -7 2454.09 493.213  25
  -3  -6  -8 34342.5 1920.61  25
  -3  -6  -8 32389.7 1898.92  21
  -3  -6  -9 6540.49 690.611  25
  -3  -6 -10 1927.60 326.175  25
  -3  -6 -11 37886.6 1562.61  25
  -3  -7  11 2328.81 328.935   5
  -3  -7  10 3492.55 521.812   5
  -3  -7  10 3185.10 470.258  22
  -3  -7   9 78897.8 3491.88   5
  -3  -7   9 67940.9 3201.68  22
  -3  -7   8 2854.21 423.167  24
  -3  -7   8 2162.01 559.555   5
  -3  -7   8 2182.28 492.453  22
  -3  -7   7 63483.2 2822.05  24
  -3  -7   7 63522.3 3138.77  22
   3   7  -6 4469.18 617.175  15
  -3  -7   6 4424.49 722.289  22
  -3  -7   6 3621.45 783.248   5
  -3  -7   5 2623.28 596.236  11
  -3  -7   5 2202.88 600.948   5
  -3  -7   4 94693.6 4579.24  11
  -3  -7   4 93537.8 4137.76  14
  -3  -7   4 90839.2 4422.71   5
  -3  -7   3 11832.8 1211.90  14
  -3  -7   3 13033.4 1485.00  11
  -3  -7   2 17235.7 1508.20  14
  -3  -7   2 19449.6 1931.87  11
  -3  -7   1 50384.1 2929.32  14
  -3  -7   1 54389.6 3570.07  11
  -3  -7   1 52060.4 3140.62  21
  -3  -7   0 21358.4 2203.13  11
  -3  -7   0 21136.3 1847.49  21
  -3  -7  -1 107196. 5777.49  11
  -3  -7  -1 105742. 4925.90  21
  -3  -7  -2 3943.25 756.698  21
  -3  -7  -2 3671.50 595.457  25
  -3  -7  -2 2264.68 769.083  11
  -3  -7  -3 361.907 301.741  21
  -3  -7  -3 368.397 216.744  25
  -3  -7  -3-235.395 365.735  11
  -3  -7  -4 23382.6 1652.10  25
  -3  -7  -4 27051.3 2362.99  11
  -3  -7  -4 25117.7 1866.93  21
  -3  -7  -5 361.959 223.797  21
  -3  -7  -5 453.161 246.987  25
  -3  -7  -5 476.357 354.875  11
  -3  -7  -6 81774.0 3636.48  25
  -3  -7  -6 87209.1 3735.82  21
  -3  -7  -7 18688.1 1332.40  25
  -3  -7  -8 205.965 159.933  25
  -3  -7  -9 1092.29 262.562  25
  -3  -7 -10 2891.00 332.345  25
  -3  -8  10 23946.4 1232.35   5
  -3  -8   9 15146.4 1105.76   5
  -3  -8   8 12766.9 1134.83   5
  -3  -8   7 80.2405 125.560  24
  -3  -8   7-201.296 225.707   5
   3   8  -6 104996. 4067.17  15
  -3  -8   6 101410. 4553.50   5
   3   8  -5 22235.7 1537.52  15
  -3  -8   5 27327.4 1886.45  11
  -3  -8   5 26962.9 1863.03   5
  -3  -8   4 24000.0 1603.44  14
  -3  -8   4 23353.0 1859.54  11
  -3  -8   3 2618.37 509.945  14
  -3  -8   3 2255.63 578.295  11
  -3  -8   2 4016.61 661.109  14
  -3  -8   2 4724.29 894.596  11
  -3  -8   1 48532.1 2752.24  14
  -3  -8   1 57316.5 3518.50  11
  -3  -8   0 1381.42 414.221  14
  -3  -8   0 2368.17 696.297  11
  -3  -8  -1 41687.8 3159.63  11
  -3  -8  -2 1201.73 402.844  21
  -3  -8  -2 1331.21 350.585  25
  -3  -8  -2 732.298 423.952  11
  -3  -8  -3 2353.57 519.106  21
  -3  -8  -3 2044.73 451.847  25
  -3  -8  -3 1679.54 621.489  11
  -3  -8  -4 127.238 199.251  21
  -3  -8  -4 38.8557 124.863  25
  -3  -8  -4 493.480 316.715  11
  -3  -8  -5 509.039 234.682  25
  -3  -8  -5 568.849 304.270  11
  -3  -8  -6 3149.56 494.882  25
  -3  -8  -6 2469.18 468.403  11
  -3  -8  -7 229.398 167.849  25
  -3  -8  -8 2451.84 365.321  25
  -3  -8  -9 398.458 129.291  25
  -3  -9   8 5713.58 556.665   5
   3   9  -7 219.580 120.788  15
  -3  -9   7 556.376 225.364   5
   3   9  -6 711.364 221.051  15
  -3  -9   6 1103.27 249.613  24
  -3  -9   6 1028.79 280.525   5
   3   9  -5 4160.37 574.961  15
   3   9  -4 1344.07 359.464  15
  -3  -9   4 1785.78 442.222  11
  -3  -9   3 8522.70 828.108  14
  -3  -9   3 8104.39 1039.59  11
  -3  -9   2 6384.56 741.690  14
  -3  -9   2 7034.68 1013.40  11
  -3  -9   1 15861.7 1270.28  14
  -3  -9   1 15523.3 1603.98  11
  -3  -9   0 739.321 291.184  14
  -3  -9   0 1145.50 475.701  11
  -3  -9  -1 52149.8 2732.48  14
  -3  -9  -1 50307.3 3271.45  11
  -3  -9  -2 8738.25 846.383  25
  -3  -9  -2 6774.82 1081.13  11
  -3  -9  -3 6338.84 700.603  25
  -3  -9  -3 6416.37 976.801  11
  -3  -9  -4 11549.5 972.492  25
  -3  -9  -4 14579.9 1381.43  11
  -3  -9  -5 9987.43 873.230  25
  -3  -9  -5 12861.2 1126.70  11
  -3  -9  -6 69678.6 2065.07  25
  -3  -9  -6 13214.5 1067.18  11
  -3  -9  -7 192.700 115.610  25
   3  10  -6 20928.8 1107.27  15
   3  10  -5 1711.95 326.258  15
   3  10  -4 21803.8 1334.86  15
   3  10  -3 387.562 193.465  15
  -3 -10   3-43.7668 129.999  11
  -3 -10   2 573.667 299.173  11
  -3 -10   1 40442.3 1965.69  14
  -3 -10   1 45128.0 2584.81  11
  -3 -10   0 7.05597 79.3063  14
  -3 -10   0 56.9963 193.773  11
  -3 -10  -1 22724.0 1412.05  14
  -3 -10  -1 21670.9 1770.73  11
  -3 -10  -2 21654.0 1398.37  14
  -3 -10  -2 21265.4 1282.30  25
  -3 -10  -2 21522.6 1712.73  11
  -3 -10  -3 6816.82 726.221  14
  -3 -10  -3 6482.49 644.643  25
  -3 -10  -3 8219.12 949.154  11
  -3 -10  -4 34846.2 1870.02  14
  -3 -10  -4 35312.6 1741.59  25
  -3 -10  -5 614.348 198.621  14
  -3 -10  -5 481.169 183.555  25
  -3 -10  -5 517.615 184.340  11
  -3 -10  -6 1360.16 249.286  14
   3  11  -4 8979.48 671.161  15
   3  11  -3 73384.7 2867.47  15
   3  11  -2 19639.3 1164.70  15
  -3 -11   2 18348.0 1231.48  11
   3  11  -1 12172.3 900.297  15
  -3 -11   1 11609.6 1004.57  11
   3  11   0 937.601 243.210  15
  -3 -11   0 1032.68 303.657  11
  -3 -11  -1 311.878 193.745  11
  -3 -11  -2 64377.9 2864.53  11
  -3 -11  -3 6303.96 641.353  11
  -4   8   4 690.530 213.112  18
  -4   8   2 25983.0 1551.29   6
  -4   8   1 27343.7 1819.68   6
  -4   8   0 499.268 285.804   6
  -4   8  -1 27097.1 1955.63   6
  -4   8  -2 3392.77 631.370   6
  -4   8  -3 11399.4 1082.27   6
  -4   8  -4 3791.68 521.829   6
  -4   7   6 34671.8 1707.66  18
  -4   7   5 2143.12 416.465  18
  -4   7   4 92969.1 3890.92  18
  -4   7   3 1108.55 338.634  18
  -4   7   3-29.2426 127.077   6
  -4   7   2 126.977 175.072  18
  -4   7   2 330.855 250.567   6
  -4   7   1 19011.5 1463.19  18
  -4   7   1 15007.2 1508.92   6
  -4   7   0 12939.9 1456.19   6
  -4   7  -1 60638.1 3512.29   6
  -4   7  -2 376.211 364.206   6
  -4   7  -3 7861.54 1013.80   6
  -4   7  -4 259.976 197.588   6
  -4   7  -5 6612.22 685.787   6
  -4   6   7 2063.18 367.480  18
  -4   6   6 14196.0 1154.92  18
  -4   6   5 2439.87 506.337  18
  -4   6   4 19956.0 1579.86  18
  -4   6   3 2790.28 565.343  18
  -4   6   3 2436.83 501.679   6
  -4   6   2 5600.84 829.933  18
  -4   6   2 5876.80 914.201   6
  -4   6   1 16072.2 1413.18  18
  -4   6   1 11257.9 1418.68   6
  -4   6   0 136.367 213.761  18
  -4   6   0-232.749 301.409   6
  -4   6  -1 2260.35 663.881   6
  -4   6  -2 3561.36 799.890   6
  -4   6  -3 7168.06 1046.95   6
  -4   6  -4 7119.65 944.092   6
  -4   6  -4 3119.92 520.550  13
  -4   6  -5 30060.1 1778.93   6
  -4   6  -5 21662.1 1512.51  13
  -4   6  -6 10142.9 902.876  13
  -4   5   8 27823.9 1499.89  18
  -4   5   7 5644.73 711.443  18
  -4   5   6 47.6889 133.046  18
  -4   5   5 13003.9 1293.23  18
  -4   5   4 31499.7 2178.36  18
  -4   5   3 20201.5 1695.84  18
  -4   5   3 19076.2 1598.54   6
  -4   5   2 508.814 292.864  18
  -4   5   2 598.448 372.136   6
  -4   5   1-58.1894 196.984  18
  -4   5   1 480.552 332.041   6
  -4   5   0 62051.6 3082.38  18
  -4   5   0 35711.3 2999.65   6
  -4   5  -1 36841.1 2868.00   6
  -4   5  -2 5480.71 995.814   6
  -4   5  -3 5982.65 1015.87   6
  -4   5  -3 5456.61 803.130  13
  -4   5  -4 11425.2 1257.54   6
  -4   5  -4 9773.11 1113.90  13
  -4   5  -5 7306.50 887.405   6
  -4   5  -5 4422.32 757.202  13
  -4   5  -6 10393.1 940.387   6
  -4   5  -6 10345.6 1088.17  13
  -4   5  -7 16078.8 1236.30  13
  -4   4   8-48.2856 100.154  18
  -4   4   7-55.7266 146.819  18
  -4   4   7 276.586 212.655  23
  -4   4   6 12354.0 1277.18  18
  -4   4   6 15277.1 1496.79  23
  -4   4   5 3631.37 723.108  18
  -4   4   4 1003.36 387.291  18
  -4   4   3 64166.4 3457.18  18
  -4   4   3 61529.6 3335.59   6
  -4   4   2 222.976 238.167  18
  -4   4   2 87.3425 181.323   6
  -4   4   1 82468.8 3965.00  18
  -4   4   1 71482.6 4294.87   6
  -4   4   0 6891.97 954.991  18
  -4   4   0 5693.78 1140.93   6
  -4   4  -1-23.1381 172.136  18
  -4   4  -1 665.687 480.320   6
  -4   4  -2 62563.5 3923.37   6
  -4   4  -2 68880.9 3411.88  13
  -4   4  -3 9593.51 1298.12   6
  -4   4  -3 9417.46 1152.20  13
  -4   4  -4 179741. 6844.89   6
  -4   4  -4 146410. 6547.28  13
  -4   4  -5 822.731 346.834   6
  -4   4  -5 626.496 343.262  13
  -4   4  -6 2056.53 543.967  13
  -4   4  -7 5521.20 765.980  13
  -4   4  -8 11789.0 977.415  13
  -4   3   9 2429.54 426.462  23
  -4   3   8 85287.6 3641.35  18
  -4   3   8 94195.5 4093.58  23
  -4   3   7 1695.55 421.902  18
  -4   3   7 2744.92 616.025  23
  -4   3   6 32672.4 2242.99  18
  -4   3   6 40176.0 2691.37  23
  -4   3   5 58.7900 219.300  18
  -4   3   5 381.756 320.076  23
  -4   3   4 5091.60 863.214  18
  -4   3   4 5314.09 1003.22  23
  -4   3   3 108810. 4945.88  18
  -4   3   3 109361. 4992.72   6
  -4   3   2 3531.32 706.522  18
  -4   3   2 3422.92 812.765   6
  -4   3   1 87508.4 4132.42  18
  -4   3   1 80199.5 4595.36   6
  -4   3   0 10533.5 1186.73  18
  -4   3   0 8999.09 1367.50   6
  -4   3  -1 1863.63 473.717  18
  -4   3  -1 1176.74 574.746   6
  -4   3  -2 30534.3 2561.93   6
  -4   3  -3 618.193 407.639   6
  -4   3  -3 667.642 361.945  13
  -4   3  -4 4580.48 835.423   6
  -4   3  -4 3868.66 791.033  13
  -4   3  -5 17680.6 1503.04   6
  -4   3  -5 15439.9 1352.50  21
  -4   3  -6 4024.78 688.209  21
  -4   3  -6 4550.16 801.849  13
  -4   3  -7 17612.0 1446.86  13
  -4   3  -7 11566.9 1072.88  21
  -4   3  -8 13391.1 1107.23  13
  -4   2   9 693.314 263.827  23
  -4   2   8 17428.9 1240.77  18
  -4   2   8 18923.2 1584.66  23
  -4   2   7 3122.60 548.741  18
  -4   2   7 3428.82 726.287  23
  -4   2   6 11009.9 1180.58  18
  -4   2   6 11692.4 1429.71  23
  -4   2   5 64557.8 3427.25  18
  -4   2   5 67654.2 3908.31  23
  -4   2   4 27319.1 2022.70  18
  -4   2   4 26789.1 2303.47  23
  -4   2   3 5186.89 830.586  18
  -4   2   3 4213.22 797.021   6
  -4   2   2 295.830 241.985  18
  -4   2   2-92.7361 255.430   6
  -4   2   1 6745.85 929.608  18
  -4   2   1 6130.85 1094.44   6
  -4   2   0 104782. 4553.59  18
  -4   2   0 90174.0 5130.43   6
  -4   2  -1 15892.3 1842.98   6
  -4   2  -2 2238.52 515.601  21
  -4   2  -2 2458.13 801.844   6
  -4   2  -3 25521.3 2209.49   6
  -4   2  -3 22913.0 2035.84  13
  -4   2  -3 24360.2 1882.10  21
  -4   2  -4 32793.2 2354.15   6
  -4   2  -4 26867.7 2264.11  13
  -4   2  -4 28682.5 2127.39  21
  -4   2  -5 4325.81 786.725  21
  -4   2  -5 3821.57 795.104  13
  -4   2  -6 1265.20 446.127  21
  -4   2  -6 861.905 377.947  13
  -4   2  -7 50.4743 148.425  21
  -4   2  -7-243.013 252.037  13
  -4   2  -8 10551.7 997.953  21
  -4   1   9 21523.8 1503.31  23
  -4   1   8 1908.26 503.701  23
  -4   1   7 8000.53 844.352  18
  -4   1   7 4224.28 841.809  23
  -4   1   6 1611.83 415.666  18
  -4   1   6 2547.23 590.827   5
  -4   1   6 2195.48 632.608  23
  -4   1   5 20863.6 1656.14  18
  -4   1   5 22374.7 1905.63   5
  -4   1   5 22182.6 2055.29  23
  -4   1   4 12024.6 1228.07  18
  -4   1   4 10265.4 1175.77  24
  -4   1   4 10540.8 1391.82  23
  -4   1   3 5130.37 773.820  18
  -4   1   3 5135.02 836.226  24
  -4   1   2 1325.81 417.780  18
  -4   1   2 381.448 320.412  24
  -4   1   1 1205.57 366.783  21
  -4   1   1 1699.11 436.344  18
  -4   1   1 1661.62 588.157   6
  -4   1   1 1627.66 494.211  24
  -4   1   0 13599.5 1289.61  18
  -4   1   0 12521.5 1630.36   6
  -4   1   0 15114.4 1392.71  24
  -4   1   0 12012.0 1192.20  21
  -4   1  -1 2491.89 541.380  21
  -4   1  -1 2993.53 803.897   6
  -4   1  -2 22747.8 2157.09   6
  -4   1  -2 19711.3 1694.50  21
  -4   1  -3 62.1328 189.201  21
  -4   1  -3-276.632 369.124   6
  -4   1  -4 162.423 358.063  21
  -4   1  -5 59667.9 3455.24  21
  -4   1  -5 57752.7 3446.27  13
  -4   1  -6 871.659 411.423  21
  -4   1  -7 50083.8 2883.98  21
  -4   1  -8 3386.90 602.220  21
  -4   1  -9 354.367 166.955  21
  -4   0   9 8297.76 837.929  23
  -4   0   8 512.513 257.317   5
  -4   0   8 820.901 335.476  23
  -4   0   7 7297.85 946.659   5
  -4   0   7 4311.85 807.690  23
  -4   0   6 2566.84 528.618  24
  -4   0   6 2247.81 601.362   5
  -4   0   6 2581.57 668.135  23
  -4   0   5 90754.5 4606.15   5
  -4   0   5 98396.0 4346.05  24
  -4   0   5 101452. 4884.32  23
  -4   0   4 30428.1 2298.50   5
  -4   0   4 32069.1 2169.39  24
  -4   0   4 30395.7 2375.64  23
  -4   0   3 13135.1 1414.34   5
  -4   0   3 10672.2 1253.13  24
  -4   0   2 3312.72 595.376  21
  -4   0   2 3269.80 620.764  18
  -4   0   2 3368.30 701.359  24
  -4   0   1 16769.1 1381.88  18
  -4   0   1 13281.4 1435.15  24
  -4   0   1 14444.0 1335.53  21
  -4   0   0 124098. 5454.99  24
  -4   0   0 129541. 5371.88  21
  -4   0  -1 1084.95 402.004  21
  -4   0  -2 99358.7 4714.23  21
  -4   0  -3 362.197 282.885  21
  -4   0  -4 810.879 404.126  21
  -4   0  -5 62285.4 3613.30  21
  -4   0  -6 4627.49 847.898  21
  -4   0  -7 17716.5 1577.71  21
  -4   0  -8 6607.60 823.916  21
  -4   0  -9 4932.68 570.551  21
  -4  -1   9 4320.31 551.386   5
  -4  -1   8 6684.00 771.561   5
  -4  -1   8 3015.70 556.223  23
  -4  -1   7 19166.7 1547.35   5
  -4  -1   7 13646.2 1349.77  23
  -4  -1   6 3344.60 606.303  24
  -4  -1   6 2671.68 615.988   5
  -4  -1   6 3424.64 681.570  23
  -4  -1   5 81533.5 3760.23  24
  -4  -1   5 91094.6 4236.12  23
  -4  -1   4 14455.1 1483.70   5
  -4  -1   4 14096.0 1386.33  24
  -4  -1   3 41676.5 2587.94   5
  -4  -1   3 34167.1 2390.02  24
  -4  -1   2 50346.2 3055.61  24
  -4  -1   2 55499.2 2916.36  21
  -4  -1   1 26436.0 2099.30  24
  -4  -1   1 30190.5 2058.79  21
  -4  -1   0 20911.4 1699.56  14
  -4  -1   0 17612.5 1648.60  24
  -4  -1   0 17597.2 1582.72  21
  -4  -1  -1 11661.4 1249.07  14
  -4  -1  -1 11464.6 1228.46  24
  -4  -1  -1 10679.9 1256.29  21
  -4  -1  -2 1178.41 469.960  21
  -4  -1  -2 707.230 330.451  14
  -4  -1  -3 91110.5 4144.70  14
  -4  -1  -3 93783.3 4612.63  21
  -4  -1  -4 56188.7 3357.87  21
  -4  -1  -5 7569.04 1095.65  21
  -4  -1  -6 1363.91 473.140  21
  -4  -1  -7 10017.3 1114.75  21
  -4  -1  -8 33301.3 1958.41  21
  -4  -1  -9 6079.44 598.011  21
  -4  -2   9 51624.0 2295.60   5
  -4  -2   8 43573.6 2294.65   5
  -4  -2   7 23090.8 1740.54   5
  -4  -2   7 27122.5 1600.68  24
  -4  -2   6 21672.6 1847.39   5
  -4  -2   6 35327.6 1958.54  24
  -4  -2   5 1775.78 473.391  24
  -4  -2   5 1323.07 486.993   5
  -4  -2   4 61909.1 3347.69   5
  -4  -2   4 61193.1 3224.60  24
  -4  -2   3 6205.96 878.263   5
  -4  -2   3 5944.23 906.722  24
  -4  -2   2 63196.3 3175.26   5
  -4  -2   2 64031.5 3501.45  24
  -4  -2   2 66568.6 3362.71  21
  -4  -2   1 26525.4 1938.89  14
  -4  -2   1 22440.9 1928.90  24
  -4  -2   1 25518.8 1905.11  21
  -4  -2   0 119.957 231.456  21
  -4  -2   0-38.5874 178.885  14
  -4  -2   0 322.587 289.380  24
  -4  -2  -1 989.100 399.621  21
  -4  -2  -1 1263.90 423.642  14
  -4  -2  -1 653.007 345.743  24
  -4  -2  -2 311.188 288.803  21
  -4  -2  -2 57.9584 156.451  14
  -4  -2  -3 1955.21 556.310  21
  -4  -2  -3 1681.17 454.020  14
  -4  -2  -4 909.601 355.378  21
  -4  -2  -4 1415.83 411.290  14
  -4  -2  -5 1148.04 448.688  21
  -4  -2  -6 1604.31 503.537  21
  -4  -2  -7-73.5452 179.680  21
  -4  -2  -8 29560.1 1688.63  21
  -4  -3   8 420.001 221.148   5
  -4  -3   7 4505.67 573.740  24
  -4  -3   7 3495.49 616.403   5
  -4  -3   6 766.908 328.364  24
  -4  -3   6 59.1128 192.066   5
  -4  -3   5 12070.5 1256.86   5
  -4  -3   5 17015.8 1356.15  24
  -4  -3   4-31.9416 275.093  24
  -4  -3   4 78.4610 232.223   5
  -4  -3   3-172.177 257.010  24
  -4  -3   3 587.665 299.198   5
  -4  -3   2 17156.1 1600.28  24
  -4  -3   1 23423.6 1811.26  14
  -4  -3   1 21054.5 1840.00  24
  -4  -3   1 25634.9 1894.04  21
  -4  -3   0 294.752 234.869  21
  -4  -3   0 834.538 343.837  14
  -4  -3   0 225.152 265.482  24
  -4  -3  -1 3046.76 662.830  21
  -4  -3  -1 2943.48 627.135  14
  -4  -3  -1 1942.96 541.295  24
  -4  -3  -2 7917.44 1037.43  14
  -4  -3  -2 9243.14 1013.48  24
  -4  -3  -2 8622.07 1112.67  21
  -4  -3  -3 75731.0 3864.38  14
  -4  -3  -3 91860.5 4222.85  21
  -4  -3  -4 6383.31 862.199  14
  -4  -3  -4 8454.09 1072.64  21
  -4  -3  -5 17103.5 1283.43  14
  -4  -3  -5 15566.8 1454.32  21
  -4  -3  -6 20.7562 146.964  21
  -4  -3  -7 3628.41 539.842  21
  -4  -3  -8 29238.6 1494.55  21
  -4  -4   8 3540.45 466.417   5
  -4  -4   7 15009.8 1202.54   5
  -4  -4   7 21996.2 1238.53  24
  -4  -4   6 7013.85 741.634  24
  -4  -4   6 3349.84 573.355   5
  -4  -4   5 5706.25 746.451  24
  -4  -4   5 4639.62 692.866   5
  -4  -4   4 10199.9 982.160   5
  -4  -4   4 11887.7 1152.19  24
  -4  -4   3 322.872 234.317  24
  -4  -4   2 77215.3 3626.18  14
  -4  -4   2 71434.8 3704.17  24
  -4  -4   1 3775.23 667.351  14
  -4  -4   1 3161.82 703.288  24
  -4  -4   0 29620.2 1997.81  14
  -4  -4   0 28252.6 1985.63  21
  -4  -4  -1 41830.8 2505.72  14
  -4  -4  -1 40749.3 2497.10  21
  -4  -4  -2 4135.15 751.607  21
  -4  -4  -2 4147.92 733.304  14
  -4  -4  -2 5012.17 715.393  24
  -4  -4  -3 12778.5 1290.25  14
  -4  -4  -3 17787.1 1508.69  21
  -4  -4  -4 3541.59 639.219  14
  -4  -4  -4 6930.68 893.133  21
  -4  -4  -5 16239.1 1240.96  14
  -4  -4  -5 14925.8 1278.42  21
  -4  -4  -6 40608.5 1909.33  14
  -4  -4  -6 43898.8 2210.01  21
  -4  -4  -7 32198.8 1630.34  21
  -4  -5   7 12599.5 820.658  24
  -4  -5   6 13345.5 1019.25   5
  -4  -5   6 26143.8 1353.13  24
  -4  -5   5 75328.4 3258.36  24
  -4  -5   4 32990.9 1985.24  24
  -4  -5   3 9457.49 1041.05  24
  -4  -5   2 525.269 265.967  14
  -4  -5   2 290.245 259.857  24
  -4  -5   1 75322.1 3390.94  14
  -4  -5   1 59295.9 3303.24  24
  -4  -5   0 70968.8 3441.42  14
  -4  -5  -1 63888.5 3289.64  14
  -4  -5  -1 71338.0 3424.12  21
  -4  -5  -2 19811.4 1604.28  14
  -4  -5  -2 23234.2 1575.81  24
  -4  -5  -2 22578.9 1669.60  21
  -4  -5  -3 131.166 186.552  21
  -4  -5  -3 231.809 191.527  14
  -4  -5  -4 7045.03 835.945  14
  -4  -5  -4 10977.4 1010.50  21
  -4  -5  -5 6156.01 688.686  14
  -4  -5  -5 6374.80 709.495  21
  -4  -5  -6 18271.8 1120.28  21
  -4  -6   6 32210.7 1508.71  24
  -4  -6   5 14279.8 1015.10  24
  -4  -6   4 16736.5 1223.80  24
  -4  -6   3-11.4786 132.540  24
  -4  -6   2 26083.2 1764.45  24
  -4  -6   1 262.106 186.975  14
  -4  -6   1-8.59413 222.309  24
  -4  -6   0 3651.60 592.070  14
  -4  -6  -1 5239.62 707.752  14
  -4  -6  -2 10909.7 1058.75  14
  -4  -6  -2 11917.2 980.874  24
  -4  -6  -3 12310.7 1082.83  14
  -4  -6  -4 1653.20 370.393  14
  -4  -6  -5 2394.36 359.736  14
  -4  -7   4 2485.48 377.824  24
  -4  -7   3 13515.9 1020.22  24
  -4  -7   2 10422.2 935.806  24
  -4  -7   1 9379.13 909.901  24
  -4  -7   0 657.933 233.715  14
  -4  -7   0 652.045 259.946  24
  -4  -7  -1 17911.2 1207.53  14
  -4  -7  -1 15286.2 1116.21  24
  -4  -7  -2 1911.77 379.761  14
  -4  -7  -3 359.784 181.444  14
   0   0   0    0.00    0.00   0
TITL Br4Q in P-1
REM P-1 (#2 in standard setting)
CELL 1.54184   3.790294  12.299703  13.874419  91.1276  91.1100  92.3890
ZERR    3.00   0.000143   0.000769   0.000845   0.0050   0.0040   0.0041
LATT  1
SFAC C H N O
UNIT 33.00 30.00 3.00 3.00
TREF
HKLF 4
END
;
loop_
_space_group_symop_id
_space_group_symop_operation_xyz
1 x,y,z
2 -x,-y,-z
loop_
_atom_site_label
_atom_site_fract_x
_atom_site_fract_y
_atom_site_fract_z
_atom_site_U_iso_or_equiv
_atom_site_adp_type
_atom_site_calc_flag
_atom_site_occupancy
_atom_site_type_symbol
Br1A 0.25420(12) 0.23110(4) 0.09607(3) 0.02830(15) Uani d 1 Br
Br2A 0.21599(12) 0.18602(4) -0.14643(3) 0.02828(15) Uani d 1 Br
O1A 0.5346(12) 0.0359(3) 0.1918(2) 0.0421(9) Uani d 1 O
C1A 0.5182(13) 0.0192(3) 0.1045(3) 0.0282(9) Uani d 1 C
C2A 0.3913(12) 0.1008(3) 0.0378(3) 0.0250(8) Uani d 1 C
C3A 0.3770(12) 0.0829(3) -0.0586(3) 0.0244(8) Uani d 1 C
Br1B 0.77329(10) 0.34774(3) 0.68300(3) 0.02246(14) Uani d 1 Br
Br2B 1.24093(11) 0.59085(3) 0.71716(3) 0.02403(15) Uani d 1 Br
O1B 0.5827(9) 0.3191(2) 0.4750(2) 0.0307(7) Uani d 1 O
C1B 0.7807(11) 0.4007(3) 0.4864(3) 0.0229(8) Uani d 1 C
C2B 0.9066(11) 0.4389(3) 0.5816(3) 0.0216(8) Uani d 1 C
C3B 1.1009(11) 0.5335(3) 0.5954(3) 0.0205(7) Uani d 1 C
N1 0.0771(10) 0.0744(3) 0.4289(3) 0.0231(7) Uani d 0.5 N
C4 0.1436(12) 0.1013(3) 0.5255(3) 0.0254(8) Uani d 1 C
H4 0.239927 0.169778 0.542922 0.03 Uiso calc 1 H
C5 -0.0673(12) -0.0270(3) 0.4049(3) 0.0255(8) Uani d 1 C
H5 -0.113863 -0.045429 0.34043 0.031 Uiso calc 1 H
C6 0.0771(10) 0.0744(3) 0.4289(3) 0.0231(7) Uani d 0.5 C
C7 0.1642(14) 0.1501(3) 0.3574(3) 0.0327(10) Uani d 0.5 C
H7A 0.261366 0.215936 0.387447 0.049 Uiso calc 0.5 H
H7B 0.335132 0.120216 0.315242 0.049 Uiso calc 0.5 H
H7C -0.044575 0.165736 0.320837 0.049 Uiso calc 0.5 H
N2 0.1642(14) 0.1501(3) 0.3574(3) 0.0327(10) Uani d 0.5 N
H2A 0.127088 0.133186 0.297516 0.049 Uiso calc 0.5 H
H2B 0.254457 0.213235 0.373668 0.049 Uiso calc 0.5 H
O2 -0.229(5) 0.4676(8) -0.0573(8) 0.075(4) Uani d 0.5 O
C8 -0.198(5) 0.5129(10) 0.0226(9) 0.077(4) Uani d 0.5 C
C9 -0.489(8) 0.5464(18) 0.0855(17) 0.110(7) Uani d 0.5 C
C10 0.123(8) 0.554(3) 0.080(2) 0.157(12) Uani d 0.5 C
loop_
_atom_site_aniso_label
_atom_site_aniso_U_11
_atom_site_aniso_U_22
_atom_site_aniso_U_33
_atom_site_aniso_U_12
_atom_site_aniso_U_13
_atom_site_aniso_U_23
Br1A 0.0269(3) 0.0294(2) 0.0287(2) 0.00347(18) 0.00143(18) -0.00430(17)
Br2A 0.0254(2) 0.0342(3) 0.0257(2) 0.00390(18) -0.00036(17) 0.00728(17)
O1A 0.074(3) 0.0315(17) 0.0208(15) 0.0036(17) -0.0016(16) -0.0005(12)
C1A 0.039(2) 0.025(2) 0.0210(19) -0.0033(18) 0.0007(17) 0.0029(15)
C2A 0.030(2) 0.0219(18) 0.023(2) -0.0044(16) 0.0012(16) 0.0018(14)
C3A 0.029(2) 0.0225(19) 0.0213(19) -0.0064(16) 0.0021(16) 0.0036(14)
Br1B 0.0207(2) 0.0203(2) 0.0268(2) 0.00150(15) 0.00452(16) 0.00733(15)
Br2B 0.0209(2) 0.0274(2) 0.0236(2) -0.00019(16) 0.00028(16) -0.00385(15)
O1B 0.0389(17) 0.0212(14) 0.0307(16) -0.0145(13) 0.0072(14) -0.0010(11)
C1B 0.0237(19) 0.0200(18) 0.025(2) -0.0010(15) 0.0044(16) -0.0027(14)
C2B 0.0224(19) 0.0185(17) 0.0243(19) 0.0015(15) 0.0026(15) 0.0049(13)
C3B 0.0218(18) 0.0202(18) 0.0192(17) -0.0033(14) -0.0007(14) -0.0005(13)
N1 0.0281(19) 0.0214(17) 0.0205(17) 0.0062(15) 0.0047(14) 0.0024(13)
C4 0.032(2) 0.0207(18) 0.024(2) 0.0031(16) 0.0057(16) -0.0008(14)
C5 0.034(2) 0.0214(19) 0.0210(18) 0.0032(16) -0.0016(16) -0.0008(14)
C6 0.0281(19) 0.0214(17) 0.0205(17) 0.0062(15) 0.0047(14) 0.0024(13)
C7 0.060(3) 0.0168(17) 0.0211(18) -0.0007(17) 0.0109(18) 0.0023(14)
N2 0.060(3) 0.0168(17) 0.0211(18) -0.0007(17) 0.0109(18) 0.0023(14)
O2 0.159(12) 0.033(5) 0.032(5) -0.005(7) 0.015(6) 0.002(3)
C8 0.146(13) 0.045(7) 0.041(6) 0.000(8) 0.010(7) 0.000(5)
C9 0.191(18) 0.071(12) 0.071(12) 0.025(15) 0.042(13) 0.008(9)
C10 0.189(18) 0.19(3) 0.090(18) 0.00(2) -0.043(17) -0.026(19)
loop_
_atom_type_symbol
_atom_type_description
_atom_type_scat_dispersion_real
_atom_type_scat_dispersion_imag
_atom_type_scat_source
C C 0.0181 0.0091 'International Tables Vol C Tables 4.2.6.8 and 6.1.1.4'
H H 0 0 'International Tables Vol C Tables 4.2.6.8 and 6.1.1.4'
Br Br -0.6763 1.2805 'International Tables Vol C Tables 4.2.6.8 and 6.1.1.4'
N N 0.0311 0.018 'International Tables Vol C Tables 4.2.6.8 and 6.1.1.4'
O O 0.0492 0.0322 'International Tables Vol C Tables 4.2.6.8 and 6.1.1.4'
loop_
_geom_angle_atom_site_label_1
_geom_angle_atom_site_label_2
_geom_angle_atom_site_label_3
_geom_angle
_geom_angle_site_symmetry_1
_geom_angle_site_symmetry_3
O1A C1A C2A 121.9(4) . .
O1A C1A C3A 123.0(4) . 2_655
C2A C1A C3A 115.0(4) . 2_655
C3A C2A C1A 122.0(4) . .
C3A C2A Br1A 122.8(3) . .
C1A C2A Br1A 115.2(3) . .
C2A C3A C1A 123.0(4) . 2_655
C2A C3A Br2A 123.1(3) . .
C1A C3A Br2A 113.9(3) 2_655 .
O1B C1B C2B 122.1(4) . .
O1B C1B C3B 121.9(4) . 2_766
C2B C1B C3B 116.0(3) . 2_766
C3B C2B C1B 122.4(4) . .
C3B C2B Br1B 123.1(3) . .
C1B C2B Br1B 114.5(3) . .
C2B C3B C1B 121.5(4) . 2_766
C2B C3B Br2B 123.9(3) . .
C1B C3B Br2B 114.6(3) 2_766 .
C5 N1 C4 119.0(4) . .
C5 N1 N2 121.2(4) . .
C4 N1 N2 119.8(4) . .
C5 C4 N1 120.0(4) 2_556 .
C5 C4 H4 120 2_556 .
N1 C4 H4 120 . .
C4 C5 N1 121.0(4) 2_556 .
C4 C5 H5 119.5 2_556 .
N1 C5 H5 119.5 . .
N1 N2 H2A 120 . .
N1 N2 H2B 120 . .
H2A N2 H2B 120 . .
C10 O2 C9 114(3) 2_565 2_465
C10 O2 C8 129(4) 2_565 .
C9 O2 C8 115.3(19) 2_465 .
C10 O2 C8 62(3) 2_565 2_565
C9 O2 C8 176.4(17) 2_465 2_565
C8 O2 C8 68.1(14) . 2_565
O2 C8 C9 126.7(16) . .
O2 C8 C10 131.7(18) . .
C9 C8 C10 101.6(15) . .
O2 C8 C10 15.8(13) . 2_565
C9 C8 C10 141.9(19) . 2_565
C10 C8 C10 116.5(16) . 2_565
O2 C8 C8 68.9(12) . 2_565
C9 C8 C8 164.4(19) . 2_565
C10 C8 C8 62.9(17) . 2_565
C10 C8 C8 53.5(11) 2_565 2_565
O2 C8 O2 111.9(14) . 2_565
C9 C8 O2 121.4(15) . 2_565
C10 C8 O2 20.2(15) . 2_565
C10 C8 O2 96.4(16) 2_565 2_565
C8 C8 O2 43.0(9) 2_565 2_565
O2 C8 C9 30.9(10) . 2_465
C9 C8 C9 95.8(14) . 2_465
C10 C8 C9 162.2(17) . 2_465
C10 C8 C9 46.5(11) 2_565 2_465
C8 C8 C9 99.8(12) 2_565 2_465
O2 C8 C9 142.8(13) 2_565 2_465
O2 C9 C10 21.1(15) 2_465 1_455
O2 C9 C8 118(2) 2_465 .
C10 C9 C8 139(3) 1_455 .
O2 C9 C8 33.8(12) 2_465 2_465
C10 C9 C8 55(2) 1_455 2_465
C8 C9 C8 84.2(14) . 2_465
O2 C10 C9 44(3) 2_565 1_655
O2 C10 C8 97(4) 2_565 .
C9 C10 C8 142(3) 1_655 .
O2 C10 C8 35(3) 2_565 2_565
C9 C10 C8 79(3) 1_655 2_565
C8 C10 C8 63.5(16) . 2_565
loop_
_geom_bond_atom_site_label_1
_geom_bond_atom_site_label_2
_geom_bond_site_symmetry_2
_geom_bond_distance
Br1A C2A . 1.877(4)
Br2A C3A . 1.887(4)
O1A C1A . 1.223(6)
C1A C2A . 1.469(6)
C1A C3A 2_655 1.469(6)
C2A C3A . 1.350(6)
Br1B C2B . 1.880(4)
Br2B C3B . 1.876(4)
O1B C1B . 1.235(5)
C1B C2B . 1.458(6)
C1B C3B 2_766 1.472(6)
C2B C3B . 1.359(5)
N1 C5 . 1.373(6)
N1 C4 . 1.390(6)
N1 N2 . 1.409(5)
C4 C5 2_556 1.369(6)
C4 H4 . 0.93
C5 H5 . 0.93
N2 H2A . 0.86
N2 H2B . 0.86
O2 C10 2_565 0.59(4)
O2 C9 2_465 1.14(3)
O2 C8 . 1.232(13)
O2 C8 2_565 1.69(3)
C8 C9 . 1.483(16)
C8 C10 . 1.506(18)
C8 C10 2_565 1.67(4)
C8 C8 2_565 1.68(4)
C8 C9 2_465 2.00(4)
C9 C10 1_455 1.48(3)
loop_
_geom_hbond_atom_site_label_D
_geom_hbond_atom_site_label_H
_geom_hbond_atom_site_label_A
_geom_hbond_distance_DH
_geom_hbond_distance_HA
_geom_hbond_distance_DA
_geom_hbond_angle_DHA
_geom_hbond_publ_flag
C4 H4 O1B 0.93 2.42 3.193(5) 140.2 yes
C7 H2B O1B 0.86 2.22 2.999(5) 149.9 yes
C7 H7B O1A 0.96 2.15 3.061(6) 158.1 yes
N2 H2A Br1A 0.86 3.1 3.796(4) 139.3 yes
N2 H7B O1A 0.96 2.15 3.061(6) 158.1 yes
N2 H2B O1B 0.86 2.22 2.999(5) 149.9 yes
loop_
_geom_torsion_atom_site_label_1
_geom_torsion_atom_site_label_2
_geom_torsion_atom_site_label_3
_geom_torsion_atom_site_label_4
_geom_torsion
_geom_torsion_site_symmetry_1
_geom_torsion_site_symmetry_4
O1A C1A C2A C3A 179.2(5) . .
C3A C1A C2A C3A -0.7(7) 2_655 .
O1A C1A C2A Br1A -0.5(6) . .
C3A C1A C2A Br1A 179.6(3) 2_655 .
C1A C2A C3A C1A 0.8(7) . 2_655
Br1A C2A C3A C1A -179.6(3) . 2_655
C1A C2A C3A Br2A -179.9(3) . .
Br1A C2A C3A Br2A -0.3(5) . .
O1B C1B C2B C3B -174.5(4) . .
C3B C1B C2B C3B 4.5(7) 2_766 .
O1B C1B C2B Br1B 4.7(6) . .
C3B C1B C2B Br1B -176.2(3) 2_766 .
C1B C2B C3B C1B -4.7(7) . 2_766
Br1B C2B C3B C1B 176.1(3) . 2_766
C1B C2B C3B Br2B 175.5(3) . .
Br1B C2B C3B Br2B -3.7(5) . .
C5 N1 C4 C5 0.4(7) . 2_556
N2 N1 C4 C5 -178.4(4) . 2_556
C4 N1 C5 C4 -0.4(7) . 2_556
N2 N1 C5 C4 178.4(4) . 2_556
C10 O2 C8 C9 -167(6) 2_565 .
C9 O2 C8 C9 2(3) 2_465 .
C8 O2 C8 C9 -179(2) 2_565 .
C10 O2 C8 C10 17(8) 2_565 .
C9 O2 C8 C10 -174(3) 2_465 .
C8 O2 C8 C10 5(2) 2_565 .
C9 O2 C8 C10 169(6) 2_465 2_565
C8 O2 C8 C10 -12(5) 2_565 2_565
C10 O2 C8 C8 12(5) 2_565 2_565
C9 O2 C8 C8 -178.8(18) 2_465 2_565
C10 O2 C8 O2 12(5) 2_565 2_565
C9 O2 C8 O2 -178.8(18) 2_465 2_565
C8 O2 C8 O2 0.0000(10) 2_565 2_565
C10 O2 C8 C9 -169(6) 2_565 2_465
C8 O2 C8 C9 178.8(18) 2_565 2_465
O2 C8 C9 O2 -2(3) . 2_465
C10 C8 C9 O2 175(2) . 2_465
C10 C8 C9 O2 -8(4) 2_565 2_465
C8 C8 C9 O2 -178(5) 2_565 2_465
O2 C8 C9 O2 178.9(19) 2_565 2_465
C9 C8 C9 O2 -1.2(14) 2_465 2_465
O2 C8 C9 C10 -9(5) . 1_455
C10 C8 C9 C10 169(5) . 1_455
C10 C8 C9 C10 -14(7) 2_565 1_455
C8 C8 C9 C10 175(4) 2_565 1_455
O2 C8 C9 C10 173(3) 2_565 1_455
C9 C8 C9 C10 -7(4) 2_465 1_455
O2 C8 C9 C8 -1.2(15) . 2_465
C10 C8 C9 C8 176.0(17) . 2_465
C10 C8 C9 C8 -7(3) 2_565 2_465
C8 C8 C9 C8 -177(6) 2_565 2_465
O2 C8 C9 C8 -179.9(14) 2_565 2_465
C9 C8 C9 C8 0.000(3) 2_465 2_465
O2 C8 C10 O2 -13(6) . 2_565
C9 C8 C10 O2 170(5) . 2_565
C10 C8 C10 O2 -8(4) 2_565 2_565
C8 C8 C10 O2 -8(4) 2_565 2_565
C9 C8 C10 O2 -23(9) 2_465 2_565
O2 C8 C10 C9 -15(6) . 1_655
C9 C8 C10 C9 168(5) . 1_655
C10 C8 C10 C9 -10(4) 2_565 1_655
C8 C8 C10 C9 -10(4) 2_565 1_655
O2 C8 C10 C9 -2(2) 2_565 1_655
C9 C8 C10 C9 -26(10) 2_465 1_655
O2 C8 C10 C8 -5(2) . 2_565
C9 C8 C10 C8 177.9(18) . 2_565
C10 C8 C10 C8 -0.002(2) 2_565 2_565
O2 C8 C10 C8 8(4) 2_565 2_565
C9 C8 C10 C8 -15(6) 2_465 2_565
