#------------------------------------------------------------------------------
#$Date: 2019-09-16 12:14:13 +0300 (Mon, 16 Sep 2019) $
#$Revision: 218317 $
#$URL: file:///home/coder/svn-repositories/cod/cif/7/23/38/7233871.cif $
#------------------------------------------------------------------------------
#
# This file is available in the Crystallography Open Database (COD),
# http://www.crystallography.net/
#
# All data on this site have been placed in the public domain by the
# contributors.
#
data_7233871
loop_
_publ_author_name
'Alexander N. Chernyshev'
'Dmitry Morozov'
'Jarkko Mutanen'
'Vadim Yu Kukushkin'
'Gerrit Groenhof'
'Matti Haukka'
_publ_section_title
;
 Weak intermolecular interactions promote blue luminescence of protonated
 2,2'-dipyridylamine salts
;
_journal_name_full               'Journal of Materials Chemistry C'
_journal_page_first              8285
_journal_page_last               8294
_journal_paper_doi               10.1039/C4TC01165A
_journal_volume                  2
_journal_year                    2014
_chemical_formula_moiety         'C10 H10 N3, F3 Si0.5, H2 O'
_chemical_formula_sum            'C10 H12 F3 N3 O Si0.5'
_chemical_formula_weight         261.27
_space_group_crystal_system      triclinic
_space_group_IT_number           2
_space_group_name_Hall           '-P 1'
_space_group_name_H-M_alt        'P -1'
_atom_sites_solution_hydrogens   mixed
_cell_angle_alpha                117.118(8)
_cell_angle_beta                 99.869(6)
_cell_angle_gamma                98.207(6)
_cell_formula_units_Z            2
_cell_length_a                   7.1165(5)
_cell_length_b                   9.0759(7)
_cell_length_c                   9.8120(8)
_cell_measurement_reflns_used    2652
_cell_measurement_temperature    170(2)
_cell_measurement_theta_max      30.5330
_cell_measurement_theta_min      2.4140
_cell_volume                     537.81(9)
_computing_cell_refinement
;
CrysAlisPro, Agilent Technologies,
Version 1.171.36.28 (release 01-02-2013 CrysAlis171 .NET)
(compiled Feb  1 2013,16:14:44)
;
_computing_data_collection
;
CrysAlisPro, Agilent Technologies,
Version 1.171.36.28 (release 01-02-2013 CrysAlis171 .NET)
(compiled Feb  1 2013,16:14:44)
;
_computing_data_reduction
;
CrysAlisPro, Agilent Technologies,
Version 1.171.36.28 (release 01-02-2013 CrysAlis171 .NET)
(compiled Feb  1 2013,16:14:44)
;
_computing_molecular_graphics
'CrystaMaker (CrystalMaker Software ltd., 2012)'
_computing_publication_material  'SHELXL-2013 (Sheldrick, 2013)'
_computing_structure_refinement  'SHELXL-2013 (Sheldrick, 2013)'
_computing_structure_solution    'SUPERFLIP (Palatinus & Chapuis, 2007)'
_diffrn_ambient_temperature      170(2)
_diffrn_detector_area_resol_mean 16.0107
_diffrn_measured_fraction_theta_full 0.996
_diffrn_measured_fraction_theta_max 0.997
_diffrn_measurement_device       '\k-geometry diffractometer'
_diffrn_measurement_device_type  'SuperNova, Single source at offset, Eos'
_diffrn_measurement_method       '\f scans and \w scans with \k offset'
_diffrn_radiation_monochromator  mirror
_diffrn_radiation_type           MoK\a
_diffrn_radiation_wavelength     0.71073
_diffrn_reflns_av_R_equivalents  0.0089
_diffrn_reflns_av_unetI/netI     0.0125
_diffrn_reflns_Laue_measured_fraction_full 0.996
_diffrn_reflns_Laue_measured_fraction_max 0.997
_diffrn_reflns_limit_h_max       7
_diffrn_reflns_limit_h_min       -8
_diffrn_reflns_limit_k_max       10
_diffrn_reflns_limit_k_min       -11
_diffrn_reflns_limit_l_max       12
_diffrn_reflns_limit_l_min       -12
_diffrn_reflns_number            4321
_diffrn_reflns_point_group_measured_fraction_full 0.996
_diffrn_reflns_point_group_measured_fraction_max 0.997
_diffrn_reflns_theta_full        25.242
_diffrn_reflns_theta_max         26.492
_diffrn_reflns_theta_min         2.421
_diffrn_source                   micro-source
_exptl_absorpt_coefficient_mu    0.195
_exptl_absorpt_correction_T_max  0.938
_exptl_absorpt_correction_T_min  0.885
_exptl_absorpt_correction_type   gaussian
_exptl_absorpt_process_details
;
CrysAlisPro, Agilent Technologies,
Version 1.171.36.28 (release 01-02-2013 CrysAlis171 .NET)
(compiled Feb  1 2013,16:14:44)
Numerical absorption correction based on gaussian integration over
			a multifaceted crystal model
;
_exptl_crystal_colour            colourless
_exptl_crystal_density_diffrn    1.613
_exptl_crystal_description       block
_exptl_crystal_F_000             270
_exptl_crystal_size_max          0.223
_exptl_crystal_size_mid          0.172
_exptl_crystal_size_min          0.101
_refine_diff_density_max         2.163
_refine_diff_density_min         -0.508
_refine_diff_density_rms         0.091
_refine_ls_extinction_coef       .
_refine_ls_extinction_method     none
_refine_ls_goodness_of_fit_ref   1.073
_refine_ls_hydrogen_treatment    mixed
_refine_ls_matrix_type           full
_refine_ls_number_parameters     160
_refine_ls_number_reflns         2227
_refine_ls_number_restraints     0
_refine_ls_restrained_S_all      1.073
_refine_ls_R_factor_all          0.0693
_refine_ls_R_factor_gt           0.0666
_refine_ls_shift/su_max          0.000
_refine_ls_shift/su_mean         0.000
_refine_ls_structure_factor_coef Fsqd
_refine_ls_weighting_details
'w=1/[\s^2^(Fo^2^)+(0.1078P)^2^+0.9532P] where P=(Fo^2^+2Fc^2^)/3'
_refine_ls_weighting_scheme      calc
_refine_ls_wR_factor_gt          0.1911
_refine_ls_wR_factor_ref         0.1940
_reflns_Friedel_coverage         0.000
_reflns_Friedel_fraction_full    .
_reflns_Friedel_fraction_max     .
_reflns_number_gt                2080
_reflns_number_total             2227
_reflns_threshold_expression     'I > 2\s(I)'
_cod_data_source_file            1000007.cif
_cod_data_source_block           PCOD1000007
_cod_original_cell_volume        537.80(8)
_cod_original_formula_sum        'C10 H12 F3 N3 O Si0.50'
_cod_database_code               7233871
_shelx_space_group_comment
;
The symmetry employed for this shelxl refinement is uniquely defined
by the following loop, which should always be used as a source of
symmetry information in preference to the above space-group names.
They are only intended as comments.
;
_shelx_estimated_absorpt_t_min   0.958
_shelx_estimated_absorpt_t_max   0.981
_shelxl_version_number           2013-4
_shelx_hkl_file
;
   0   0  -1 4804.55 57.2940   6
   0   0  -1 4724.57 49.6700   5
   0   0   1 4609.07 48.7313   5
   0   0   2 1378.93 37.8833   5
   0   0  -2 1200.79 41.5167   6
   0   0  -2 1359.37 38.4010   5
   0   0  -3 7509.92 108.858   5
   0   0  -4 44197.6 309.332   5
   0   0  -5 67988.6 437.879   5
   0   0  -5 68397.9 414.593   4
   0   0  -6 36139.7 353.658   5
   0   0  -6 35446.7 329.982   4
   0   0  -7 13085.5 220.812   4
   0   0  -7 13191.6 236.466   5
   0   0  -8 7082.78 189.812   5
   0   0  -8 7305.02 178.667   4
   0   0  -9 4326.29 160.362   5
   0   0  -9 4225.69 148.059   4
   0   0 -10 3270.06 152.106   5
   0   0 -10 3016.09 134.216   4
   0   0 -11 2059.12 129.814   5
   0   0 -11 1969.58 116.066   4
   0   1 -12 386.781 59.0265   4
   0   1 -12 467.602 68.9048   5
   0   1 -11 343.607 54.8019   4
   0   1 -11 375.918 56.5594   5
   0   1 -10 544.011 59.7980   4
   0   1 -10 495.007 58.5722   5
   0   1  -9 7367.57 195.027   4
   0   1  -9 7295.17 194.077   5
   0   1  -8 47820.8 450.993   5
   0   1  -8 46823.6 450.992   4
   0   1  -7 11374.5 202.447   5
   0   1  -7 11177.7 205.219   4
   0   1  -6 14989.4 205.935   5
   0   1  -5 38574.9 293.080   5
   0  -1   4 30490.8 274.500   6
   0   1  -4 30708.7 224.932   5
   0  -1   4 29585.3 116.094   1
   0  -1   3 6051.80 103.824   6
   0   1  -3 6127.87 102.073   6
   0   1  -3 6051.75 82.4845   5
   0   1  -2 416437. 655.711   6
   0  -1   2 414791. 668.333   6
   0   1  -1 3539.72 40.8362   6
   0  -1   1 3619.29 40.8524   6
   0  -1   1 3536.18 48.5145   3
   0   1  -1 3719.87 48.7846   3
   0  -1   0 114062. 261.489   5
   0   1   0 116988. 263.027   5
   0   1   0 114078. 245.783   2
   0  -1  -1 161709. 270.886   4
   0   1   1 161352. 413.987   5
   0  -1  -1 159730. 416.956   5
   0  -1  -2 1799.61 41.8307   4
   0  -1  -2 1886.82 56.1733   5
   0   1   2 2014.42 56.5895   5
   0  -1  -3 39354.6 135.749   1
   0  -1  -3 40497.5 299.182   5
   0  -1  -3 41244.6 244.501   4
   0  -1  -4 5549.16 126.049   5
   0  -1  -4 5668.60 106.439   4
   0  -1  -5 40778.1 319.951   4
   0  -1  -5 41564.0 379.688   5
   0  -1  -6 192.727 35.3432   5
   0  -1  -6 210.012 30.6296   4
   0  -1  -7 2264.58 107.877   5
   0  -1  -7 2231.12 92.4002   4
   0  -1  -8 116.586 37.7580   5
   0  -1  -8 69.8722 24.3150   4
   0  -1  -9 3208.17 147.812   5
   0  -1  -9 2996.81 124.402   4
   0  -1 -10 393.409 63.3483   5
   0  -1 -10 355.632 50.6597   4
   0  -1 -11 2133.11 140.401   5
   0   2 -12 4350.10 176.127   5
   0   2 -12 4097.76 176.624   4
   0   2 -11 1248.45 91.3989   5
   0   2 -11 1226.07 93.2593   4
   0   2 -10 11225.9 257.487   4
   0   2 -10 11287.2 244.015   5
   0   2  -9 26347.0 338.611   5
   0   2  -9 25609.4 361.425   4
   0   2  -8 579.432 55.3647   4
   0   2  -8 726.102 55.1166   5
   0  -2   7 30747.4 135.190   1
   0   2  -7 33942.0 312.692   5
   0  -2   6 40561.3 389.245   6
   0   2  -6 40658.3 308.607   5
   0  -2   6 41161.3 190.607   1
   0   2  -5 30855.5 231.171   5
   0  -2   5 30920.0 303.784   6
   0  -2   4 176355. 620.703   6
   0   2  -3 15578.7 151.749   6
   0   2  -3 15648.4 162.515   3
   0  -2   3 15513.8 155.563   6
   0   2  -2 51521.8 256.090   3
   0   2  -2 51462.3 217.622   6
   0  -2   2 51026.8 257.945   3
   0  -2   2 51018.5 220.622   6
   0  -2   1 208268. 432.251   2
   0   2  -1 211139. 376.379   6
   0   2  -1 210005. 406.949   5
   0   2  -1 209659. 444.458   2
   0  -2   1 205830. 467.843   3
   0  -2   1 209357. 402.929   5
   0  -2   1 210145. 377.661   6
   0   2   0 10155.8 104.541   2
   0   2   0 10449.6 111.450   5
   0  -2   0 10305.6 111.930   5
   0  -2  -1 17768.2 174.160   5
   0  -2  -1 18267.9 91.3921   4
   0   2   1 18050.1 173.964   5
   0  -2  -2 108924. 317.469   4
   0  -2  -2 109588. 496.127   5
   0  -2  -3 103203. 544.433   5
   0  -2  -3 104431. 379.981   4
   0  -2  -4 17086.7 181.928   4
   0  -2  -4 17141.9 122.275   1
   0  -2  -4 17409.0 246.500   5
   0  -2  -5 1973.60 92.4552   5
   0  -2  -5 1940.86 70.1120   4
   0  -2  -5 1553.17 28.9465   1
   0  -2  -6 340.322 50.5247   5
   0  -2  -6 308.210 34.6115   4
   0  -2  -7 2764.27 101.636   4
   0  -2  -7 2811.76 129.815   5
   0  -2  -8 148.243 30.4247   4
   0  -2  -8 169.735 46.6408   5
   0  -2  -9 5930.23 214.635   5
   0  -2 -10 1985.60 135.050   5
   0   3 -12 444.093 66.0451   4
   0   3 -11 3365.76 152.661   4
   0   3 -11 3287.91 133.121   5
   0   3 -10 935.267 77.6923   4
   0   3 -10 970.132 68.5326   5
   0   3  -9 284.483 45.2266   4
   0   3  -9 389.457 41.8905   5
   0   3  -8 577.754 44.6911   5
   0  -3   7 10994.0 127.747   1
   0  -3   7 11268.5 220.497   6
   0   3  -7 11160.3 165.876   5
   0  -3   6 16478.6 241.677   6
   0   3  -6 16236.9 176.322   5
   0  -3   5 34096.6 302.953   6
   0  -3   4 47243.1 337.960   3
   0  -3   4 47669.8 314.543   6
   0  -3   3 34923.0 226.313   6
   0   3  -3 34957.2 219.829   6
   0  -3   3 34308.1 260.789   3
   0  -3   2 60488.9 259.325   6
   0  -3   2 61302.1 321.813   3
   0   3  -2 61508.5 316.250   3
   0   3  -2 60860.4 251.762   5
   0  -3   2 61245.3 289.631   2
   0   3  -2 60720.5 252.314   6
   0  -3   1 578.954 30.6186   5
   0   3  -1 581.114 30.0862   2
   0   3  -1 634.768 30.5819   5
   0  -3   1 547.081 25.1220   6
   0  -3   1 610.152 29.5374   2
   0   3   0 73630.2 348.899   2
   0  -3   0 73448.5 367.322   5
   0   3   0 74179.5 365.374   5
   0  -3  -1 5410.06 46.6505   4
   0  -3  -1 5577.65 116.963   5
   0  -3  -2 918.365 28.5347   4
   0  -3  -2 878.498 55.0591   5
   0  -3  -3 5893.88 147.583   5
   0  -3  -3 5974.78 89.3589   4
   0  -3  -4 19962.4 289.802   5
   0  -3  -4 19405.4 168.473   1
   0  -3  -4 19650.2 189.412   4
   0  -3  -5 4740.61 106.679   4
   0  -3  -5 5004.53 158.407   5
   0  -3  -6 513.341 62.2927   5
   0  -3  -6 356.242 35.2826   4
   0  -3  -7 10243.0 262.342   5
   0  -3  -8 4461.27 189.802   5
   0  -3  -9 1885.21 133.579   5
   0   4 -12 2819.59 148.834   4
   0   4 -11 150.652 42.4402   4
   0   4 -10 2904.68 132.617   4
   0   4 -10 2797.13 105.297   5
   0   4  -9 1021.39 58.8050   5
   0  -4   9 935.236 78.7370   6
   0   4  -9 1043.11 77.1482   4
   0  -4   8 2229.65 109.950   6
   0   4  -8 1917.71 73.1034   5
   0  -4   7 19335.9 280.731   6
   0  -4   6 4656.46 123.349   6
   0  -4   5 40840.5 326.257   6
   0  -4   5 40146.1 354.903   3
   0  -4   4 19218.8 227.771   3
   0  -4   4 19428.5 198.768   6
   0   4  -3 2911.39 62.7743   5
   0  -4   3 3077.02 86.7851   3
   0  -4   3 2951.26 69.3093   6
   0   4  -3 3039.79 68.0637   6
   0   4  -2 26352.3 226.919   2
   0  -4   2 26511.6 192.265   6
   0  -4   2 26635.4 241.553   3
   0  -4   2 27066.3 209.308   5
   0   4  -2 27321.0 191.433   6
   0   4  -2 27012.0 208.626   5
   0  -4   1 9540.41 117.959   6
   0   4  -1 9597.79 139.646   2
   0  -4   1 9662.97 141.901   5
   0  -4   0 5606.43 118.429   5
   0   4   0 5574.46 112.820   2
   0   4   1 1897.58 70.6785   2
   0  -4  -1 1833.82 77.0227   5
   0  -4  -2 2680.67 100.582   5
   0  -4  -2 2602.70 41.6511   4
   0  -4  -3 6387.04 165.647   5
   0  -4  -3 6186.99 85.0633   4
   0  -4  -4 9684.43 127.128   4
   0  -4  -4 9671.56 220.811   5
   0  -4  -5 8446.79 223.711   5
   0  -4  -6 611.559 69.5930   5
   0  -4  -7 596.939 75.1839   5
   0  -4  -8 1718.64 127.362   5
   0   5 -12 4429.66 186.536   4
   0   5 -11 117.955 43.5389   4
   0   5 -10 552.599 63.4005   4
   0  -5  10 627.300 70.9877   6
   0   5  -9 2472.09 83.0371   5
   0  -5   9 2374.27 117.917   6
   0  -5   8 5089.18 156.067   6
   0   5  -8 4928.32 106.011   5
   0  -5   7 593.673 49.8494   6
   0  -5   6 15721.4 247.945   3
   0  -5   6 15957.5 228.297   6
   0  -5   5 1313.46 59.9182   6
   0  -5   5 1368.40 71.9656   3
   0   5  -5 1258.66 44.2868   5
   0  -5   4 626.003 49.2165   3
   0   5  -4 609.274 32.9632   5
   0  -5   4 598.787 37.0535   6
   0  -5   3 22544.3 255.473   3
   0  -5   3 23202.4 208.378   6
   0   5  -3 22701.5 204.055   5
   0  -5   2 536.188 32.6865   6
   0  -5   2 509.995 36.6352   5
   0   5  -2 579.777 39.9657   2
   0  -5   2 570.344 43.7859   3
   0   5  -1 9921.39 161.366   2
   0  -5   1 9974.01 137.702   6
   0  -5   1 9861.40 164.259   5
   0  -5   0 101.768 26.4967   5
   0   5   0 89.3415 21.2648   2
   0  -5  -1 4052.92 124.395   5
   0   5   1 3995.77 114.989   2
   0  -5  -2 33612.2 385.254   5
   0   5   2 33301.8 352.724   2
   0   5   3 24.0168 25.1827   2
   0  -5  -3 95.5590 37.9563   5
   0  -5  -4 249.540 51.4883   5
   0  -5  -5 1854.86 116.374   5
   0  -5  -6 1234.49 102.813   5
   0  -5  -7 1000.10 101.662   5
   0   6 -12 930.478 90.4510   4
   0   6 -11 1373.43 100.564   4
   0  -6  10 263.646 48.6451   6
   0   6 -10 398.698 55.3045   4
   0  -6   9 4.77325 30.9229   6
   0  -6   8 1674.02 88.2250   6
   0  -6   7 13729.0 231.485   6
   0  -6   7 13527.1 252.474   3
   0  -6   6 3870.91 130.321   3
   0  -6   6 3972.51 114.396   6
   0   6  -6 3528.52 79.8238   5
   0  -6   5 1444.89 77.7304   3
   0  -6   5 1434.09 63.7870   6
   0   6  -5 1386.82 51.9051   5
   0  -6   4 2465.10 95.9448   3
   0  -6   4 2465.40 76.3284   6
   0  -6   3 10975.9 154.099   6
   0  -6   3 10914.8 164.389   5
   0  -6   3 11104.8 197.040   3
   0  -6   2 14642.9 205.437   5
   0  -6   2 15285.9 181.301   6
   0   6  -2 14976.6 216.683   2
   0  -6   2 15264.0 227.578   3
   0  -6   1 4491.38 103.292   6
   0   6  -1 4439.43 121.249   2
   0  -6   1 4488.78 124.236   5
   0   6   0 6713.99 154.658   2
   0  -6   0 7216.20 171.081   5
   0  -6   0 6913.07 137.550   6
   0  -6  -1 2478.54 109.948   5
   0   6   1 2426.33 98.4821   2
   0   6   2 5234.76 154.178   2
   0  -6  -2 4995.44 162.408   5
   0   6   3 5519.27 168.182   2
   0  -6  -3 5240.59 178.349   5
   0   6   4 77.2769 29.6346   2
   0  -6  -4 126.588 41.9609   5
   0   6   5 361.582 52.8019   2
   0  -6  -5 378.046 62.2205   5
   0  -6  -6 713.120 84.8834   5
   0   6   6 739.456 79.2764   2
   0   7 -12 149.481 46.5818   4
   0   7 -11 54.1736 33.4269   4
   0  -7  11 63.2423 34.9033   6
   0   7 -10 6448.84 200.559   4
   0  -7  10 6279.39 200.867   6
   0  -7   9 6504.12 187.436   6
   0  -7   8 8019.26 193.911   6
   0  -7   7 957.549 64.9596   6
   0  -7   7 1131.29 85.0028   3
   0  -7   6 10792.8 227.909   3
   0  -7   6 11137.5 192.694   6
   0  -7   5 27505.3 280.440   6
   0  -7   5 27897.3 352.506   3
   0  -7   4 8350.45 188.213   3
   0  -7   4 8493.40 149.914   6
   0  -7   3 10239.9 204.636   3
   0  -7   3 10067.0 177.735   5
   0  -7   3 10097.2 160.277   6
   0   7  -2 4009.11 60.5198   4
   0   7  -2 4216.01 128.248   2
   0  -7   2 4319.63 134.522   3
   0  -7   2 4068.60 122.394   5
   0  -7   2 4121.15 104.110   6
   0  -7   1 1872.91 74.2848   6
   0   7  -1 1866.87 87.7540   2
   0  -7   1 1892.82 91.0952   5
   0  -7   0 9647.07 177.194   6
   0   7   0 9137.61 198.947   2
   0  -7   0 9749.53 217.874   5
   0  -7  -1 17.1632 32.3569   5
   0   7   1 7.17223 24.1766   2
   0   7   2 20.8209 26.4892   2
   0  -7  -2 49.4062 31.4575   5
   0   7   3 219.137 42.4298   2
   0  -7  -3 261.233 51.1724   5
   0  -7  -4 22.8543 35.8314   5
   0   7   4 57.1026 33.8106   2
   0   7   5 139.270 43.0553   2
   0  -7  -5 79.8648 40.5465   5
   0   8 -12 324.831 59.7066   4
   0  -8  12 230.185 52.0163   6
   0   8 -11 22.0892 29.5074   4
   0  -8  11 57.9042 31.1481   6
   0   8 -10 2584.95 130.084   4
   0  -8  10 2671.06 130.837   6
   0  -8   9 4226.61 150.478   6
   0   8  -9 4076.87 151.863   4
   0  -8   8 12655.9 277.722   3
   0  -8   8 12339.2 240.430   6
   0  -8   7 12329.0 263.988   3
   0  -8   7 12670.4 224.470   6
   0  -8   6 1754.59 100.225   3
   0  -8   6 1732.87 79.5791   6
   0  -8   5 6335.70 141.942   6
   0  -8   5 6334.12 179.117   3
   0  -8   4 6933.00 184.206   3
   0  -8   4 6595.72 140.864   6
   0   8  -4 6725.36 122.943   4
   0  -8   3 7189.64 145.986   6
   0  -8   3 7165.81 166.658   5
   0   8  -3 7425.52 180.412   2
   0  -8   3 7236.47 188.387   3
   0  -8   2 5971.12 162.663   5
   0  -8   2 5896.05 135.197   6
   0   8  -2 6176.52 168.311   2
   0  -8   2 6084.80 174.548   3
   0  -8   1 152.295 28.1062   6
   0  -8   1 143.348 33.7966   5
   0   8  -1 176.865 37.4202   2
   0  -8   0 1121.77 67.0778   6
   0   8   0 1007.31 74.6518   2
   0  -8   0 983.197 79.0221   5
   0  -8  -1 26.6811 29.8576   5
   0   8   1 16.7337 21.1718   2
   0  -8  -1 53.8490 24.1278   6
   0   8   2 156.021 36.4451   2
   0  -8  -2 184.090 48.2883   5
   0   8   3 443.780 60.2251   2
   0  -8  -3 514.139 74.1039   5
   0  -8  -4 185.478 58.0160   5
   0   8   4 166.042 42.9939   2
   0  -9  12 1059.20 95.8617   6
   0   9 -12 1107.27 99.1626   4
   0  -9  11 849.189 80.4564   6
   0   9 -11 843.173 82.0219   4
   0   9 -10 2272.82 123.183   4
   0  -9  10 2368.83 123.209   6
   0  -9   9 2171.93 127.004   3
   0  -9   9 2220.57 111.824   6
   0   9  -9 2122.68 112.126   4
   0   9  -8 3097.57 124.723   4
   0  -9   8 3106.41 123.130   6
   0  -9   8 3263.76 149.912   3
   0  -9   7 2093.87 118.166   3
   0  -9   7 1956.04 91.4639   6
   0   9  -7 2041.05 94.9455   4
   0   9  -6 3095.59 105.469   4
   0  -9   6 3142.11 109.239   6
   0  -9   6 3124.22 139.906   3
   0  -9   5 1722.60 78.4098   6
   0  -9   5 1777.91 106.653   3
   0  -9   4 1874.81 80.7378   6
   0  -9   4 1881.13 105.028   3
   0  -9   3 1860.90 105.709   3
   0  -9   3 1917.36 81.7944   6
   0   9  -3 1877.39 99.0795   2
   0  -9   3 1820.44 94.3101   5
   0  -9   2 1086.17 83.4556   3
   0   9  -2 931.715 73.5265   2
   0  -9   2 895.992 71.6434   5
   0  -9   2 1034.48 62.3603   6
   0  -9   1 234.700 33.9148   6
   0  -9   1 225.473 44.0202   5
   0  -9   1 204.327 43.3918   3
   0   9  -1 224.514 42.5092   2
   0  -9   0 192.982 45.5324   5
   0   9   0 203.303 41.4101   2
   0  -9   0 292.963 40.1615   6
   0   9   1 28.7222 27.1329   2
   0  -9  -1 72.6295 37.1066   5
   0   9   2 1663.06 110.924   2
   0  -9  -2 1683.40 121.083   5
   0  10 -12 97.5121 42.3195   4
   0  10 -11 29.2506 31.3541   4
   0  10 -10 1232.91 92.1799   4
   0 -10   9 599.725 74.3680   3
   0  10  -9 603.624 63.1074   4
   0 -10   8 1297.20 102.248   3
   0  10  -8 1325.68 82.5742   4
   0 -10   7 56.9121 35.6952   3
   0 -10   6 209.251 46.5909   3
   0 -10   5 434.893 60.1074   3
   0 -10   4 524.295 65.1131   3
   0 -10   3 1444.74 90.7359   5
   0 -10   3 1548.02 105.270   3
   0 -10   2 1468.00 103.559   3
   0  10  -2 1311.04 92.5762   2
   0 -10   2 1311.35 92.3783   5
   0 -10   1 497.720 62.3767   5
   0 -10   1 486.124 63.0168   3
   0  10  -1 660.070 70.1775   2
   0  10   0 3217.21 152.119   2
   0 -10   0 3172.00 156.130   5
   0  10   1 821.838 82.7070   2
   0 -10  -1 800.508 86.9757   5
   0  11 -11 134.497 42.2717   4
   0 -11  10 529.034 74.2010   3
   0 -11   9 266.357 58.1492   3
   0 -11   8 800.982 87.9450   3
   0 -11   7 286.434 53.3874   3
   0 -11   6 63.3852 35.6148   3
   0 -11   5 330.311 60.7510   3
   0 -11   4 1624.82 114.590   3
   0 -11   3 318.668 57.4393   3
   0 -11   2 674.096 74.0364   5
   0  11  -2 672.425 74.2792   2
   0 -11   2 636.312 75.6679   3
   0 -11   1 63.6207 33.7685   5
   0  11  -1 145.672 40.0944   2
   0 -11   1 85.2681 44.6697   3
   0 -11   0 576.992 77.3935   5
   0 -12   8 85.0996 45.6046   3
   0 -12   7 84.2289 35.3469   3
   0 -12   6 20.4808 30.9376   3
   0 -12   5 5258.74 213.826   3
   0 -12   4 1227.32 108.150   3
   1 -12   4 648.110 80.1624   3
   1 -12   5 375.786 67.5505   3
   1 -12   6 183.503 53.6897   3
   1 -12   7 1125.34 102.635   3
   1 -11   0 2506.27 143.131   5
   1 -11   1 497.148 65.8225   5
   1 -11   1 447.628 64.8730   3
  -1  11  -1 482.441 66.3638   2
  -1  11  -2-42.1289 36.2982   2
   1 -11   2-11.0643 29.8904   3
   1 -11   3 561.878 72.6273   3
   1 -11   4 699.842 78.9561   3
   1 -11   5 1570.34 113.133   3
   1 -11   6 71.8994 36.0246   3
   1 -11   7 2107.05 134.175   3
   1 -11   8 266.039 57.7768   3
   1 -11   9 1114.61 105.227   3
  -1  11 -10 46.5963 28.3406   4
   1 -11  10 136.938 45.4489   3
  -1  11 -11 1269.71 100.912   4
   1 -10  -2 40.8332 37.8428   5
  -1  10   1 605.925 72.2562   2
   1 -10  -1 530.780 69.2168   5
   1 -10   0 5369.12 195.165   5
  -1  10   0 5979.90 209.247   2
   1 -10   1 72.2014 28.5348   5
  -1  10  -1 120.146 39.0587   2
   1 -10   1 81.2406 38.0457   3
   1 -10   2 1440.62 102.822   3
  -1  10  -2 1302.28 95.6350   2
   1 -10   2 1338.19 86.8028   5
   1 -10   3 951.374 69.3524   5
   1 -10   3 1041.02 88.2793   3
   1 -10   4 2657.63 135.887   3
   1 -10   5 74.1844 37.8475   3
   1 -10   6 897.478 83.0650   3
   1 -10   7 423.549 61.7994   3
   1 -10   8 1764.11 119.302   3
  -1  10  -8 1728.97 95.1022   4
  -1  10  -9 6918.65 202.524   4
   1 -10   9 7204.83 240.944   3
  -1  10 -10 1767.43 111.175   4
  -1  10 -11 2428.36 136.622   4
  -1  10 -12 1024.53 95.8585   4
   1  -9  -3 908.178 95.2190   5
  -1   9   3 880.990 85.9535   2
  -1   9   2 3686.89 166.246   2
   1  -9  -2 3832.77 177.757   5
   1  -9  -1 2435.65 135.603   5
  -1   9   1 2393.04 128.814   2
  -1   9   0 47.2420 28.0505   2
   1  -9   0 5.37208 27.7048   5
   1  -9   1 1733.29 105.495   3
   1  -9   1 1614.79 94.0903   5
  -1   9  -1 1599.93 99.3810   2
  -1   9  -2 1473.91 93.3968   2
   1  -9   2 1540.53 99.0715   3
   1  -9   2 1498.84 84.0029   5
   1  -9   3 1294.71 90.1918   3
   1  -9   3 1203.99 71.4827   5
   1  -9   4 26814.6 393.655   3
  -1   9  -5 4314.60 113.035   4
   1  -9   5 4406.89 163.059   3
   1  -9   6 1760.20 107.451   3
  -1   9  -6 1831.13 82.6598   4
   1  -9   7 204.723 47.5913   3
  -1   9  -7 106.735 26.5948   4
   1  -9   8 757.206 58.9996   6
  -1   9  -8 671.376 61.8666   4
   1  -9   8 862.796 82.4752   3
  -1   9  -9 787.002 71.0797   4
   1  -9   9 821.060 82.5373   3
  -1   9 -10 7383.58 222.032   4
  -1   9 -11 95.4785 37.4046   4
  -1   9 -12 107.293 39.5964   4
  -1   8   4 2503.03 139.949   2
   1  -8  -4 2231.12 140.055   5
  -1   8   3 695.083 73.2029   2
   1  -8  -3 722.304 78.9755   5
  -1   8   2 6342.65 199.338   2
   1  -8  -2 6104.87 202.392   5
   1  -8  -1 332.761 36.8145   6
  -1   8   1 392.628 54.3200   2
   1  -8  -1 353.828 52.5883   5
  -1   8   0 2212.61 109.897   2
   1  -8   0 2306.41 83.0261   6
   1  -8   0 2076.66 106.998   5
  -1   8  -1 255.582 41.7315   2
   1  -8   1 330.715 31.4644   6
   1  -8   1 300.449 43.4172   5
   1  -8   2 35322.2 420.953   3
  -1   8  -2 34709.2 406.307   2
   1  -8   2 34872.5 282.544   6
   1  -8   2 34201.5 360.380   5
   1  -8   3 11790.0 193.822   5
   1  -8   3 11624.0 239.664   3
  -1   8  -3 11508.6 131.138   4
   1  -8   3 11852.8 161.100   6
   1  -8   4 24102.5 346.009   3
  -1   8  -4 23934.0 236.082   4
   1  -8   4 23656.5 228.559   6
   1  -8   5 1187.28 56.1704   6
   1  -8   5 1203.17 83.8513   3
  -1   8  -5 1186.35 61.4813   4
   1  -8   6 1668.26 73.1796   6
  -1   8  -6 1572.07 77.1846   4
   1  -8   6 1703.56 100.763   3
   1  -8   7 35920.6 457.770   3
   1  -8   7 36045.2 360.569   6
  -1   8  -7 35641.0 392.135   4
   1  -8   8 576.955 53.2313   6
   1  -8   8 544.799 67.0580   3
  -1   8  -8 614.559 59.9246   4
   1  -8   9 4108.46 147.355   6
  -1   8  -9 3898.76 150.748   4
  -1   8 -10 501.843 62.1457   4
   1  -8  10 540.716 61.6825   6
  -1   8 -11-6.25148 28.8841   4
  -1   8 -12 295.953 60.3627   4
  -1   7   5 911.835 86.1226   2
   1  -7  -5 1019.06 98.1109   5
  -1   7   4 47.6104 31.3755   2
   1  -7  -4 71.9327 44.3409   5
  -1   7   3 210.601 42.6964   2
   1  -7  -3 247.932 51.6910   5
  -1   7   2 16082.2 291.675   2
   1  -7  -2 15329.0 297.138   5
  -1   7   1 40376.5 439.168   2
   1  -7  -1 40569.6 448.134   5
   1  -7   0 2104.64 73.6644   6
  -1   7   0 1985.90 96.3421   2
   1  -7   1 3703.88 118.796   5
  -1   7  -1 3710.71 126.098   2
   1  -7   1 3687.07 88.5403   6
  -1   7  -2 20296.1 136.900   4
  -1   7  -2 21523.5 294.292   2
   1  -7   2 21752.0 303.279   3
   1  -7   2 21295.2 200.015   6
   1  -7   2 20779.4 250.211   5
   1  -7   3 31626.9 363.080   3
   1  -7   3 30635.1 275.953   5
   1  -7   3 31226.2 237.284   6
  -1   7  -3 30973.0 231.715   4
   1  -7   4 19535.8 196.796   6
   1  -7   4 19050.6 286.843   3
  -1   7  -4 19002.1 213.888   4
   1  -7   5 35546.5 404.916   3
   1  -7   5 35801.1 293.947   6
  -1   7  -5 35325.8 324.934   4
  -1   7  -6 43187.9 394.606   4
   1  -7   6 43921.8 361.142   6
   1  -7   6 44404.5 465.153   3
  -1   7  -7 26493.4 336.252   4
   1  -7   7 27298.7 379.038   3
   1  -7   7 27190.8 315.674   6
   1  -7   8 4824.66 148.142   6
  -1   7  -8 4434.13 149.492   4
   1  -7   9 7107.52 194.228   6
  -1   7  -9 7457.79 206.826   4
  -1   7 -10-1.65900 28.1882   4
  -1   7 -11 190.662 47.5174   4
  -1   7 -12 240.327 56.5851   4
   1  -6  -6 368.834 69.0671   5
  -1   6   6 250.705 48.4716   2
  -1   6   5 493.547 59.3886   2
   1  -6  -5 607.378 74.3306   5
  -1   6   4 5648.74 180.731   2
   1  -6  -4 5637.77 192.266   5
   1  -6  -3 52714.4 545.713   5
  -1   6   3 53599.7 519.387   2
   1  -6  -2 31926.6 394.208   5
  -1   6   2 32217.4 379.593   2
  -1   6   1 21705.5 295.735   2
   1  -6  -1 21620.7 299.853   5
  -1   6   0 394.256 42.1086   2
   1  -6   0 478.419 45.8251   5
  -1   6  -1 28681.8 313.789   2
   1  -6   1 28621.8 218.509   6
   1  -6   1 27973.3 283.638   5
   1  -6   2 19187.1 259.101   3
  -1   6  -2 19289.0 148.605   4
   1  -6   2 19486.5 214.326   5
  -1   6  -2 19227.0 255.125   2
   1  -6   2 19398.4 168.988   6
  -1   6  -3 9115.39 124.651   5
   1  -6   3 9410.03 131.417   5
   1  -6   3 9553.68 121.018   6
  -1   6  -3 9495.78 130.731   4
   1  -6   3 9526.25 185.236   3
  -1   6  -4 9101.72 120.543   6
   1  -6   4 9239.30 185.987   3
  -1   6  -4 9411.32 106.397   5
   1  -6   4 9486.89 133.063   6
  -1   6  -4 9559.16 151.779   4
  -1   6  -5 8159.39 83.3393   5
   1  -6   5 9464.99 150.429   6
  -1   6  -5 8975.59 162.717   4
   1  -6   5 9210.90 193.085   3
   1  -6   6 7033.09 176.585   3
  -1   6  -6 7260.42 160.375   4
   1  -6   6 7180.53 146.227   6
   1  -6   7 4810.20 135.911   6
   1  -6   7 5041.22 157.737   3
  -1   6  -7 4387.47 58.8878   5
  -1   6  -7 4857.65 143.925   4
   1  -6   8 4519.04 144.707   6
  -1   6  -8 4641.28 151.632   4
  -1   6  -9 229.940 44.5354   4
  -1   6 -10 5163.15 181.955   4
  -1   6 -11 95.6170 36.6213   4
  -1   6 -12 2057.49 132.219   4
   1  -5  -7 2611.26 151.074   5
  -1   5   7 2458.33 136.180   2
   1  -5  -6 621.684 73.5569   5
  -1   5   6 662.193 70.2900   2
   1  -5  -5 964.414 84.5475   5
  -1   5   5 878.797 73.9966   2
  -1   5   4 761.890 64.4838   2
   1  -5  -4 931.300 77.0663   5
  -1   5   3 42794.3 424.329   2
   1  -5  -3 42342.0 446.215   5
  -1   5   2 1272.52 72.0191   2
   1  -5  -2 1323.43 75.9632   5
  -1   5   1 9457.97 177.589   2
   1  -5  -1 9101.70 177.312   5
  -1   5   0 3588.92 105.083   2
   1  -5   0 3526.85 100.766   5
  -1   5  -1 2227.18 37.4838   4
   1  -5   1 2283.05 72.8938   5
   1  -5   1 2397.44 55.0252   6
  -1   5  -1 2332.44 83.2427   2
  -1   5  -2 72409.9 448.402   2
  -1   5  -2 72455.4 336.138   5
   1  -5   2 72932.5 286.827   6
   1  -5   2 72885.9 354.650   5
   1  -5   2 72782.7 458.606   3
  -1   5  -2 73234.1 305.667   4
  -1   5  -3 6977.33 90.4882   6
  -1   5  -3 6914.77 86.8372   5
   1  -5   3 7139.23 146.437   3
  -1   5  -3 6902.38 112.021   4
   1  -5   3 6888.03 95.3438   6
  -1   5  -4 1072.32 41.7657   6
   1  -5   4 997.016 60.1676   3
  -1   5  -4 989.968 26.8842   5
  -1   5  -4 1063.21 51.2530   4
   1  -5   4 1065.35 44.9545   6
  -1   5  -5 616.333 19.2356   5
   1  -5   5 725.052 42.8104   6
  -1   5  -5 764.896 49.4563   4
   1  -5   5 710.094 54.7573   3
  -1   5  -6 7941.63 167.685   4
   1  -5   6 8121.21 182.488   3
   1  -5   6 7640.57 156.359   6
  -1   5  -6 7429.75 76.8918   5
  -1   5  -7 8829.17 106.154   5
   1  -5   7 8859.34 187.243   6
  -1   5  -7 8900.73 191.945   4
  -1   5  -8 13220.2 251.611   4
  -1   5  -8 13322.7 155.590   5
  -1   5  -9 347.154 49.8761   4
  -1   5 -10 1751.25 107.502   4
  -1   5 -11 3802.33 166.847   4
  -1   5 -12 3317.35 165.163   4
   1  -4  -8 371.521 64.8430   5
   1  -4  -7 288.000 53.8468   5
   1  -4  -6 4794.39 177.290   5
   1  -4  -5 373.428 53.5539   5
   1  -4  -5 433.494 31.1650   4
   1  -4  -4 5825.21 91.0311   4
   1  -4  -4 5750.15 165.532   5
   1  -4  -3 52.1731 8.22803   4
  -1   4   3 57.3710 23.9201   2
   1  -4  -3 66.2403 28.1799   5
  -1   4   2 19970.7 247.581   2
   1  -4  -2 19929.3 256.555   5
   1  -4  -1 17855.4 218.221   5
  -1   4   1 17958.9 218.613   2
   1  -4   0 16512.6 186.466   5
  -1   4   0 16598.0 198.466   2
  -1   4  -1 38133.0 169.859   4
   1  -4   1 38702.7 175.412   6
  -1   4  -1 38218.1 236.230   5
   1  -4   1 38207.6 244.830   5
  -1   4  -1 38165.8 296.035   2
  -1   4  -2 150.671 12.5932   6
   1  -4   2 121.471 24.5492   3
  -1   4  -2 178.576 15.4969   5
   1  -4   2 162.359 18.6502   5
  -1   4  -2 122.053 16.0383   4
   1  -4   2 150.133 13.7550   6
   1  -4   3 5717.20 121.445   3
  -1   4  -3 5500.49 100.629   4
  -1   4  -3 5184.49 52.0489   5
   1  -4   3 5597.56 84.2536   6
  -1   4  -3 5687.77 79.7972   6
  -1   4  -4 7627.45 134.012   4
   1  -4   4 7591.60 148.985   3
  -1   4  -4 7455.01 111.324   6
   1  -4   4 7465.11 117.504   6
  -1   4  -5 389.651 17.5782   5
   1  -4   5 420.279 35.1739   6
   1  -4   5 375.875 41.8204   3
  -1   4  -5 428.327 39.3198   4
   1  -4   6 30464.0 316.777   6
  -1   4  -6 30558.5 195.018   5
  -1   4  -6 30098.8 322.294   4
  -1   4  -7 7942.28 180.460   4
  -1   4  -7 7792.41 118.780   5
  -1   4  -8 6899.15 131.321   5
  -1   4  -8 7014.40 183.117   4
  -1   4  -9 3408.15 103.491   5
  -1   4  -9 3128.96 132.886   4
  -1   4 -10 1279.43 92.9127   4
  -1   4 -11 1782.02 114.944   4
  -1   4 -12 5563.24 212.042   4
   1  -3  -9 2826.05 156.774   5
   1  -3  -8 6436.10 219.884   5
   1  -3  -7 4221.23 165.665   5
   1  -3  -7 3993.74 114.699   4
   1  -3  -6 685.563 44.4258   4
   1  -3  -6 647.021 64.6191   5
   1  -3  -5 6273.70 172.278   5
   1  -3  -5 6334.33 118.152   4
   1  -3  -4 2806.47 66.0229   1
   1  -3  -4 2841.55 69.2022   4
   1  -3  -4 2786.40 105.999   5
   1  -3  -3 913.761 57.4299   5
  -1   3   2 13778.2 184.861   2
   1  -3  -2 13198.5 186.763   5
  -1   3   1 28177.9 243.038   2
   1  -3  -1 27857.8 238.696   5
  -1   3   0 166.152 20.5602   2
   1  -3   0 157.691 18.5744   1
   1  -3   0 143.115 17.5854   5
  -1   3   0 172.238 17.2466   5
   1  -3   0 137.849 8.02581   4
   1  -3   1 1075.73 32.3855   5
   1  -3   1 949.075 20.5529   6
  -1   3  -1 1076.03 31.2816   5
   1  -3   1 1044.16 42.3063   2
  -1   3  -1 1077.17 44.9431   2
  -1   3  -1 1055.90 30.2045   4
  -1   3  -2 5481.15 45.1449   5
  -1   3  -2 5708.05 86.4420   4
   1  -3   2 5982.95 67.7080   6
  -1   3  -2 5892.50 63.3961   6
   1  -3   2 6024.58 101.357   1
   1  -3   2 5933.89 103.425   3
  -1   3  -2 5820.67 101.396   3
   1  -3   2 5623.62 48.0265   5
  -1   3  -3 5556.52 100.082   4
   1  -3   3 5497.60 97.2289   1
  -1   3  -3 5500.73 83.0266   6
   1  -3   3 5395.42 107.685   3
   1  -3   3 5420.79 86.8553   6
  -1   3  -4 18069.5 109.584   5
   1  -3   4 17298.0 190.325   6
   1  -3   4 18359.3 217.003   3
   1  -3   4 18937.3 179.181   1
  -1   3  -4 18410.9 205.202   4
  -1   3  -5 472.056 39.7719   4
   1  -3   5 416.741 27.4910   1
  -1   3  -5 462.863 25.6223   5
   1  -3   6 11449.9 136.401   1
  -1   3  -6 11169.3 196.650   4
  -1   3  -6 11377.6 143.043   5
   1  -3   7 5553.15 90.0945   1
  -1   3  -7 5612.83 117.721   5
  -1   3  -7 5550.09 150.814   4
  -1   3  -8 2143.75 82.9453   5
  -1   3  -8 2285.68 105.187   4
  -1   3  -9 5001.57 139.819   5
  -1   3  -9 4880.20 164.398   4
  -1   3 -10 283.214 40.3965   5
  -1   3 -10 201.897 44.1616   4
  -1   3 -11 761.440 76.9213   4
  -1   3 -12 2009.06 128.858   4
   1  -2 -10 3217.36 166.228   5
   1  -2  -9 171.848 44.1568   5
   1  -2  -8 29.9536 18.9423   4
   1  -2  -8 22.6434 29.2077   5
   1  -2  -7 91.6519 35.5223   5
   1  -2  -7 45.1630 18.3350   4
   1  -2  -6 1251.26 80.1119   5
   1  -2  -6 1184.48 59.4019   4
   1  -2  -5 2933.50 108.841   5
   1  -2  -4 10884.8 188.054   5
   1  -2  -3 10365.8 164.942   5
   1  -2  -3 10319.1 109.664   1
   1  -2  -2 1501.30 52.7926   6
   1  -2  -2 1409.19 55.0240   5
   1  -2  -2 1519.52 43.4250   1
   1  -2  -1 4607.51 82.3074   5
  -1   2   1 4733.94 84.1810   2
   1  -2  -1 4698.86 72.4071   6
   1  -2  -1 4685.28 74.9379   1
  -1   2   0 49598.8 249.107   2
   1  -2   0 49479.2 213.056   5
   1  -2   0 49503.0 245.598   2
   1  -2   0 49603.6 243.184   1
   1  -2   0 50333.9 162.104   4
   1  -2   0 48291.3 144.173   6
  -1   2   0 49343.1 158.469   4
   1  -2   1 682.021 30.1872   2
   1  -2   1 665.011 29.1102   3
   1  -2   1 700.122 16.7501   5
  -1   2  -1 750.811 27.2122   4
   1  -2   1 744.272 26.3398   4
   1  -2   1 635.457 28.7781   1
  -1   2  -2 9892.63 113.039   4
   1  -2   2 10094.9 109.257   1
  -1   2  -2 10147.0 95.6972   6
   1  -2   2 10244.6 120.990   3
   1  -2   2 9888.68 113.134   4
  -1   2  -2 10122.5 119.277   3
  -1   2  -3 138.746 20.7657   4
  -1   2  -3 134.135 10.8423   5
  -1   2  -3 116.604 18.6588   3
  -1   2  -3 103.795 16.3015   6
   1  -2   3 160.282 15.1821   1
  -1   2  -4 3418.98 64.7208   5
   1  -2   4 3576.38 64.5201   1
  -1   2  -4 3439.89 90.6137   4
  -1   2  -5 3143.73 96.6069   4
   1  -2   5 3263.88 60.3626   1
  -1   2  -5 3236.23 76.7323   5
  -1   2  -6 1288.18 57.1112   5
  -1   2  -6 1277.13 68.6453   4
  -1   2  -7 7637.38 153.828   5
  -1   2  -7 7659.41 176.986   4
  -1   2  -8 1031.35 72.9960   4
  -1   2  -8 1004.54 64.7781   5
  -1   2  -9-2.60853 30.8100   4
  -1   2  -9 84.9654 31.0348   5
  -1   2 -10 300.673 46.4348   5
  -1   2 -10 239.253 45.7296   4
  -1   2 -11 128.277 39.9553   4
  -1   2 -11 152.197 40.3928   5
  -1   2 -12 1311.30 103.969   4
   1  -1 -11 369.041 63.8965   5
   1  -1 -10 794.637 84.7815   5
   1  -1 -10 588.282 60.5850   4
   1  -1  -9 699.927 71.7833   5
   1  -1  -9 723.789 61.1763   4
   1  -1  -8 5206.83 171.240   5
   1  -1  -8 5041.13 146.073   4
   1  -1  -7 373.884 48.0658   5
   1  -1  -6 14777.7 240.915   5
   1  -1  -5 7449.81 155.943   5
   1  -1  -4 11253.7 174.904   5
  -1   1   3 52811.2 204.019   1
   1  -1  -3 51573.5 325.360   5
   1  -1  -2 46576.7 257.572   6
  -1   1   2 46562.8 194.967   1
  -1   1   2 47654.4 266.922   6
  -1   1   1 35678.9 168.009   6
   1  -1  -1 35949.1 164.437   6
  -1   1   1 35720.1 170.416   1
  -1   1   1 35681.7 181.161   2
   1  -1  -1 35482.1 169.050   1
  -1   1   0 21722.9 131.251   1
   1  -1   0 22003.4 133.712   1
   1  -1   0 21629.7 126.988   2
  -1   1   0 21553.4 128.873   2
  -1   1   0 21611.9 114.540   4
   1  -1   0 21601.4 115.570   4
  -1   1  -1 57399.8 208.294   3
   1  -1   1 58898.9 150.878   5
   1  -1   1 57348.0 228.810   4
   1  -1   1 58981.3 212.028   3
  -1   1  -1 57543.1 213.651   1
  -1   1  -1 56988.3 227.060   4
   1  -1   1 58723.4 217.250   1
   1  -1   2 26459.3 146.270   1
  -1   1  -2 26564.8 141.177   5
   1  -1   2 26488.9 186.480   4
   1  -1   2 26357.2 139.004   5
  -1   1  -2 26153.5 179.200   3
  -1   1  -2 26615.5 145.926   1
  -1   1  -2 25955.1 186.494   4
  -1   1  -3 1344.15 32.3101   1
  -1   1  -3 1346.09 42.2250   5
  -1   1  -3 1272.43 50.5525   6
   1  -1   3 1345.51 40.5200   5
  -1   1  -3 1308.59 49.4167   4
  -1   1  -4 697.318 38.7576   5
  -1   1  -4 587.291 40.2186   4
  -1   1  -5 217.066 28.3556   4
  -1   1  -5 268.503 29.0585   5
  -1   1  -6 26.0048 19.5715   4
  -1   1  -6 66.2792 21.8717   5
  -1   1  -7 92.3764 29.8776   4
  -1   1  -7 197.808 34.9903   5
  -1   1  -8 484.615 52.9166   4
  -1   1  -8 517.561 53.1330   5
  -1   1  -9 169.549 36.4205   4
  -1   1  -9 195.173 38.2813   5
  -1   1 -10 596.778 66.3435   5
  -1   1 -10 472.636 55.7909   4
  -1   1 -11 88.2731 40.2007   5
  -1   1 -11-52.6771 36.2065   4
  -1   1 -12 607.406 73.7194   4
   1   0 -12 35.7541 34.7951   5
   1   0 -11 2607.19 131.209   4
   1   0 -11 2859.34 149.596   5
   1   0 -10 2894.69 141.194   5
   1   0 -10 2698.83 125.291   4
   1   0  -9 111.730 32.4427   4
   1   0  -9 170.449 40.7426   5
   1   0  -8 2273.59 107.364   5
   1   0  -7 10299.8 202.825   5
   1   0  -6 18878.7 252.640   5
  -1   0   5 54503.4 432.409   6
   1   0  -5 54561.8 384.382   5
  -1   0   5 52108.6 157.356   1
  -1   0   4 55159.8 382.491   6
   1   0  -3 104565. 432.420   6
  -1   0   3 105297. 447.464   6
   1   0  -2 49507.1 240.949   6
  -1   0   2 48723.9 246.207   6
  -1   0   1 56493.5 199.482   6
  -1   0   1 56510.3 146.584   2
   1   0  -1 55532.1 196.919   6
  -1   0   0 94926.0 258.363   4
   1   0   0 96593.9 261.129   4
  -1   0   0 95654.7 235.881   6
   1   0   1 44584.7 203.061   5
  -1   0  -1 45077.5 204.661   5
   1   0   1 45178.4 207.911   4
  -1   0  -1 45145.4 207.296   4
   1   0   2 24796.0 182.763   5
  -1   0  -2 24328.6 181.819   5
   1   0   2 24658.9 181.316   4
  -1   0  -2 23895.9 179.545   4
  -1   0  -3 8531.02 124.738   4
  -1   0  -3 8732.76 128.542   5
  -1   0  -4 2861.15 85.6566   5
  -1   0  -4 2570.13 36.0586   1
  -1   0  -4 2806.21 81.0006   4
  -1   0  -5 43.4133 22.1267   5
  -1   0  -5 18.1899 16.3830   4
  -1   0  -6 308.001 36.9944   4
  -1   0  -6 380.279 44.4875   5
  -1   0  -7 3621.75 122.272   4
  -1   0  -7 4000.25 133.737   5
  -1   0  -8 3911.29 145.275   5
  -1   0  -8 3739.92 133.999   4
  -1   0  -9 880.853 71.3622   4
  -1   0  -9 1064.79 85.3859   5
  -1   0 -10 1180.95 96.2041   5
  -1   0 -10 1002.67 81.9499   4
  -1   0 -11 1809.29 124.488   5
  -1   0 -11 1562.75 105.718   4
   1   1 -12-44.6309 33.5488   4
   1   1 -12 15.4852 30.8907   5
   1   1 -11 1698.10 106.479   4
   1   1 -11 1791.36 113.669   5
   1   1 -10 1214.31 85.6776   4
   1   1 -10 1283.09 90.8228   5
   1   1  -9 2819.84 120.593   5
   1   1  -8 7017.91 172.891   5
   1   1  -7 4905.69 132.837   5
  -1  -1   7 4882.77 155.172   6
   1   1  -6 34123.4 311.530   5
  -1  -1   6 33679.3 367.148   6
  -1  -1   5 66573.2 456.717   6
  -1  -1   4 61964.7 388.674   6
  -1  -1   3 42599.4 271.530   6
   1   1  -3 42911.4 263.260   6
   1   1  -2 33133.9 195.675   6
  -1  -1   2 34094.1 201.853   6
   1   1  -1 36001.6 135.408   3
  -1  -1   1 36319.8 135.480   3
  -1  -1   1 35864.7 180.053   6
   1   1  -1 36213.2 178.511   6
  -1  -1   0 39005.1 212.959   5
   1   1   0 39116.8 213.733   5
  -1  -1   0 38841.3 175.906   4
   1   1   0 38661.1 176.877   4
   1   1   1 14003.3 148.207   5
   1   1   1 13955.1 119.116   4
  -1  -1  -1 13809.2 146.623   5
  -1  -1  -1 13859.7 119.305   4
  -1  -1  -2 524.661 29.0945   4
   1   1   2 543.884 29.3160   4
  -1  -1  -2 682.591 41.8461   5
  -1  -1  -3 492.031 42.3619   5
  -1  -1  -3 445.788 31.3086   4
  -1  -1  -4 2349.56 74.0960   4
  -1  -1  -4 2464.14 88.4816   5
  -1  -1  -5 15400.7 240.887   5
  -1  -1  -5 15194.2 207.909   4
  -1  -1  -6 426.069 50.5217   5
  -1  -1  -6 352.671 38.0098   4
  -1  -1  -7 289.764 48.2277   5
  -1  -1  -7 283.137 39.5378   4
  -1  -1  -8 81.5866 26.6984   4
  -1  -1  -8 99.5267 35.4225   5
  -1  -1  -9 1468.43 90.8269   4
  -1  -1  -9 1588.89 110.414   5
  -1  -1 -10 1550.67 115.169   5
   1   2 -12 264.563 50.1073   5
   1   2 -12 358.065 59.5604   4
   1   2 -11 1344.18 96.1297   4
   1   2 -11 1390.52 94.5163   5
   1   2 -10 7671.76 199.062   5
   1   2  -9 557.646 53.9600   5
   1   2  -8 2046.78 88.5471   5
  -1  -2   8 2040.19 106.686   6
   1   2  -7 5367.39 128.373   5
  -1  -2   7 5273.17 155.468   6
  -1  -2   6 15574.3 238.005   6
  -1  -2   5 58938.0 415.194   6
  -1  -2   4 1804.29 65.8137   6
   1   2  -3 392.306 26.7384   6
   1   2  -3 400.378 26.3548   3
  -1  -2   3 367.603 26.3341   6
   1   2  -2 6386.34 90.8013   6
  -1  -2   2 6352.16 61.7279   2
  -1  -2   2 6308.03 93.4602   6
  -1  -2   2 6219.77 85.8094   3
   1   2  -2 6259.49 84.7771   3
  -1  -2   1 27004.8 184.034   6
  -1  -2   1 27396.5 198.565   5
   1   2  -1 27488.3 136.814   2
  -1  -2   1 27044.7 161.904   3
   1   2  -1 27405.6 198.890   5
   1   2  -1 27502.4 185.376   6
   1   2   0 61454.5 325.458   5
  -1  -2   0 60813.8 325.982   5
   1   2   0 60472.2 232.991   4
  -1  -2  -1 30388.1 256.614   5
  -1  -2  -1 29934.7 180.125   4
   1   2   1 30383.0 180.840   4
  -1  -2  -2 7384.73 103.268   4
  -1  -2  -2 7681.44 145.032   5
   1   2   2 7465.20 104.130   4
  -1  -2  -3 230.141 35.2184   5
  -1  -2  -3 213.350 22.9641   4
  -1  -2  -4 26384.6 318.690   5
  -1  -2  -4 26724.4 250.090   4
  -1  -2  -5 19720.6 296.903   5
  -1  -2  -5 18627.8 231.075   4
  -1  -2  -6 3950.42 146.651   5
  -1  -2  -6 3783.52 114.518   4
  -1  -2  -7 3925.93 125.906   4
  -1  -2  -7 4051.37 160.244   5
  -1  -2  -8-9.70102 23.3509   4
  -1  -2  -8 5.38545 34.5299   5
  -1  -2  -9 491.958 70.7302   5
  -1  -2 -10 4482.74 201.391   5
   1   3 -12 1029.73 91.3617   4
   1   3 -12 897.129 78.0989   5
   1   3 -11 317.819 46.5534   5
   1   3 -11 331.104 52.3157   4
   1   3 -10 1055.11 72.1442   5
   1   3  -9 24.8683 20.1617   5
  -1  -3   9 32.9160 26.5235   6
  -1  -3   8 613.791 59.6081   6
  -1  -3   7 4631.55 140.561   6
  -1  -3   6 460.644 43.6925   6
  -1  -3   5 3555.01 101.264   6
  -1  -3   4 4592.52 102.497   3
  -1  -3   4 4498.80 101.140   6
  -1  -3   3 30579.3 238.506   3
   1   3  -3 30307.6 233.470   3
  -1  -3   3 30849.6 237.688   6
  -1  -3   3 30539.0 185.447   2
  -1  -3   2 1655.89 52.8372   6
   1   3  -2 1733.15 53.4577   6
  -1  -3   2 1799.03 54.4361   3
   1   3  -2 1676.72 43.1380   2
   1   3  -2 2130.81 62.7243   5
  -1  -3   2 1765.34 42.6532   2
  -1  -3   1 117079. 486.055   5
   1   3  -1 115953. 380.576   2
  -1  -3   1 117644. 440.209   6
  -1  -3   0 27367.1 254.021   5
   1   3   0 27185.8 162.753   4
  -1  -3  -1 147.837 14.9160   4
  -1  -3  -1 123.590 27.7996   5
   1   3   1 116.165 14.1372   4
  -1  -3  -2 12980.7 206.775   5
   1   3   2 13336.8 137.912   4
  -1  -3  -2 13127.2 137.756   4
  -1  -3  -3 8046.29 121.579   4
  -1  -3  -3 8132.87 180.887   5
  -1  -3  -4 23848.0 234.212   4
  -1  -3  -4 24464.7 335.202   5
  -1  -3  -5 42570.2 478.227   5
  -1  -3  -5 43357.9 348.723   4
  -1  -3  -6 874.716 80.3499   5
  -1  -3  -6 713.658 50.9183   4
  -1  -3  -7 484.557 69.5677   5
  -1  -3  -8 2057.80 130.792   5
  -1  -3  -9 5224.69 217.478   5
   1   4 -13 1224.64 104.250   4
   1   4 -12 1249.21 102.101   4
   1   4 -11 352.901 44.9023   5
   1   4 -10 434.091 43.7904   5
  -1  -4  10 531.944 64.0696   6
  -1  -4   9 955.560 79.5227   6
  -1  -4   8 5019.57 158.269   6
  -1  -4   7 2171.11 96.7411   6
  -1  -4   6 1575.52 74.2786   6
  -1  -4   5 4535.43 114.612   6
  -1  -4   5 4405.04 116.059   3
  -1  -4   4 36406.3 306.830   3
  -1  -4   4 37443.3 295.805   6
  -1  -4   4 36682.8 246.156   2
  -1  -4   3 20413.3 171.503   2
  -1  -4   3 20098.1 214.572   3
  -1  -4   3 20637.4 209.365   6
  -1  -4   2 8521.91 135.331   3
  -1  -4   2 8770.24 115.641   2
   1   4  -2 8541.32 119.008   2
  -1  -4   2 8692.85 131.499   6
  -1  -4   1 68162.2 417.366   5
   1   4  -1 67809.6 352.022   2
   1   4  -1 67462.4 274.565   4
  -1  -4   1 67985.2 376.364   6
  -1  -4   0 19056.4 241.325   5
   1   4   0 19175.1 205.425   2
   1   4   0 19638.5 141.235   4
  -1  -4  -1 5614.10 144.137   5
   1   4   1 5511.48 78.4010   4
  -1  -4  -2 6310.61 162.812   5
  -1  -4  -2 6670.67 96.0077   4
  -1  -4  -3 14786.4 160.179   4
  -1  -4  -3 14139.6 256.089   5
  -1  -4  -4 10636.9 239.081   5
  -1  -4  -4 10774.3 152.136   4
  -1  -4  -5 7712.53 217.988   5
  -1  -4  -6 2001.61 121.151   5
  -1  -4  -7 1004.27 93.7058   5
  -1  -4  -8 478.606 72.0463   5
   1   5 -13 381.892 64.3778   4
   1   5 -12 802.256 83.7861   4
  -1  -5  11 1821.54 120.757   6
   1   5 -11 1717.20 88.6481   5
   1   5 -10 4795.42 135.219   5
  -1  -5  10 5150.68 186.198   6
  -1  -5   9 770.523 70.8079   6
  -1  -5   8-40.0128 30.7185   6
  -1  -5   7 8667.00 187.863   6
  -1  -5   6 34.4304 19.4488   6
  -1  -5   6 85.5611 28.6978   3
  -1  -5   5 6515.98 147.812   3
  -1  -5   5 6450.20 136.195   6
  -1  -5   4 25457.2 275.791   3
  -1  -5   4 25620.6 256.012   6
  -1  -5   3 30188.2 288.552   3
  -1  -5   3 29965.7 266.157   6
   1   5  -2 62424.1 368.943   2
  -1  -5   2 62161.1 408.074   3
  -1  -5   2 61887.0 381.515   6
  -1  -5   2 61807.5 422.469   5
   1   5  -1 20207.6 222.774   2
   1   5  -1 20052.0 151.477   4
  -1  -5   1 20147.5 254.441   5
  -1  -5   1 20451.8 228.100   6
  -1  -5   0 846.468 61.5941   5
   1   5   0 859.382 51.9161   2
   1   5   0 751.646 27.9116   4
  -1  -5  -1 34039.0 382.495   5
   1   5   1 32812.6 327.267   2
   1   5   1 31288.0 176.704   4
  -1  -5  -2 75235.1 612.445   5
  -1  -5  -3 4914.28 168.587   5
  -1  -5  -4 5416.51 186.677   5
  -1  -5  -5 1654.41 113.686   5
  -1  -5  -6 206.155 51.9509   5
  -1  -5  -7 23.6463 36.8473   5
   1   6 -13 1329.72 109.286   4
  -1  -6  12 143.089 47.0358   6
  -1  -6  11 1592.25 112.492   6
  -1  -6  10-26.7964 39.4910   6
  -1  -6   9 334.851 46.7976   6
  -1  -6   8 4504.07 150.600   6
  -1  -6   7 1835.37 93.7778   3
  -1  -6   7 1910.28 91.2018   6
  -1  -6   6 41352.5 409.882   3
  -1  -6   6 40904.5 383.935   6
  -1  -6   5 2747.00 103.471   3
  -1  -6   5 2984.92 97.6473   6
  -1  -6   4 1479.63 74.2910   3
  -1  -6   4 1564.56 68.5354   6
  -1  -6   3 4006.11 105.825   6
  -1  -6   3 4110.75 118.384   3
   1   6  -3 3994.84 104.295   2
  -1  -6   2 17862.2 244.072   3
   1   6  -2 17762.4 224.147   2
  -1  -6   2 17954.6 223.824   6
  -1  -6   2 17926.8 253.992   5
   1   6  -1 4334.15 116.953   2
  -1  -6   1 4190.62 129.684   5
   1   6  -1 4206.85 67.4105   4
  -1  -6   1 4375.11 116.012   6
  -1  -6   0 53691.1 489.256   5
   1   6   0 53275.7 428.415   2
  -1  -6   0 53744.6 425.722   6
   1   6   1 24011.6 309.598   2
  -1  -6  -1 23452.3 346.228   5
  -1  -6  -2 339.774 52.8884   5
   1   6   2 352.679 44.6499   2
   1   6   3 2553.01 117.472   2
  -1  -6  -3 2568.35 134.903   5
   1   6   4 381.149 52.7906   2
  -1  -6  -4 395.163 63.2556   5
  -1  -6  -5 1150.79 103.632   5
   1   6   5 1011.27 87.2903   2
  -1  -6  -6 120.927 50.2757   5
   1   6   6 44.4001 32.2099   2
  -1  -7  13 1454.59 122.881   6
  -1  -7  12 1128.17 101.624   6
  -1  -7  11 612.490 71.7774   6
  -1  -7  10 3039.97 140.107   6
  -1  -7   9 473.404 56.1096   6
  -1  -7   8 91975.3 669.824   6
  -1  -7   7 5971.45 160.418   6
  -1  -7   7 5830.16 172.751   3
  -1  -7   6 794.237 64.3308   3
  -1  -7   6 750.922 55.6200   6
  -1  -7   5 3265.32 107.490   6
  -1  -7   5 3297.03 121.483   3
  -1  -7   4 4464.39 136.426   3
  -1  -7   4 4375.81 120.766   6
  -1  -7   3 18800.6 274.851   3
   1   7  -3 18784.5 252.787   2
  -1  -7   3 18783.5 246.140   6
   1   7  -2 796.824 54.8752   2
  -1  -7   2 759.037 60.4143   5
  -1  -7   2 777.950 59.2482   3
  -1  -7   2 794.773 53.9143   6
  -1  -7   1 11859.3 236.840   5
   1   7  -1 12143.1 217.411   2
  -1  -7   1 12339.1 211.092   6
  -1  -7   0 6060.24 181.242   5
  -1  -7   0 6522.40 162.759   6
   1   7   0 6378.30 164.808   2
  -1  -7  -1 10105.7 248.044   5
   1   7   1 10141.5 218.021   2
  -1  -7  -1 10041.5 210.996   6
   1   7   2 696.992 64.5297   2
  -1  -7  -2 579.702 67.7763   5
  -1  -7  -3 942.091 91.9527   5
   1   7   3 914.657 77.2764   2
  -1  -7  -4 9021.98 279.271   5
   1   7   4 9228.11 252.084   2
   1   7   5 2028.66 126.792   2
  -1  -8  13 3363.00 180.587   6
  -1  -8  12 2099.57 134.665   6
  -1  -8  11 1039.70 91.0770   6
  -1  -8  10 3514.03 152.528   6
  -1  -8   9 528.793 60.5421   6
  -1  -8   8 6522.64 181.087   6
  -1  -8   8 6650.11 200.611   3
  -1  -8   7 16729.4 303.551   3
  -1  -8   7 16816.4 273.437   6
  -1  -8   6 388.916 43.7737   6
  -1  -8   6 409.656 50.8173   3
  -1  -8   5 3569.11 133.823   3
  -1  -8   5 3578.65 117.480   6
  -1  -8   4 2974.46 120.625   3
  -1  -8   4 3064.80 108.536   6
  -1  -8   3 13278.1 221.715   6
   1   8  -3 13224.6 233.414   2
  -1  -8   3 13001.2 250.089   3
   1   8  -2 757.482 59.7879   2
  -1  -8   2 697.314 63.8791   5
  -1  -8   2 708.551 63.7383   3
  -1  -8   2 732.657 55.8098   6
   1   8  -1 449.666 48.7113   2
  -1  -8   1 362.708 50.5819   5
  -1  -8   1 482.955 49.6467   6
  -1  -8   0-9.25036 20.4567   6
   1   8   0 37.5650 22.6363   2
  -1  -8   0-14.0059 34.1606   5
  -1  -8  -1 309.285 54.0851   5
  -1  -8  -1 382.398 47.8340   6
   1   8   1 429.416 52.5166   2
  -1  -8  -2 381.778 50.1338   6
  -1  -8  -2 424.300 65.6137   5
   1   8   2 359.314 52.6161   2
   1   8   3 3697.69 161.612   2
  -1  -8  -3 3575.85 178.179   5
  -1  -9  13 1320.47 117.640   6
  -1  -9  12 1763.18 126.004   6
   1   9 -12 1888.85 125.709   4
  -1  -9  11 4760.81 186.838   6
  -1  -9  10 4164.32 166.565   6
  -1  -9   9 2423.86 120.594   6
  -1  -9   9 2512.55 134.464   3
  -1  -9   8 2040.93 118.342   3
  -1  -9   8 1968.24 102.738   6
  -1  -9   7 4.82949 22.3553   6
  -1  -9   7-3.01340 29.3281   3
  -1  -9   6 1654.52 87.3571   6
  -1  -9   6 1637.94 100.683   3
  -1  -9   5 13525.6 276.645   3
  -1  -9   5 13720.9 240.216   6
  -1  -9   4 920.456 64.6172   6
  -1  -9   4 965.473 76.4527   3
  -1  -9   3 919.630 75.7401   3
  -1  -9   3 890.773 63.2308   6
   1   9  -3 850.551 67.9789   2
   1   9  -2 1626.56 93.3796   2
  -1  -9   2 1508.59 97.7311   5
  -1  -9   2 1538.54 96.7479   3
  -1  -9   2 1498.34 83.1220   6
   1   9  -1 150.000 33.7183   2
  -1  -9   1 68.2925 32.6849   5
  -1  -9   1 144.113 38.3692   3
  -1  -9   1 186.437 35.5407   6
  -1  -9   0 157.137 33.3518   6
  -1  -9   0 101.698 37.2422   5
   1   9   0 145.219 37.5413   2
   1   9   1 4920.89 180.692   2
  -1  -9  -1 5064.03 202.446   5
  -1  -9  -1 5392.11 174.917   6
   1   9   2 1635.55 110.592   2
  -1  -9  -2 1772.84 108.072   6
  -1  -9  -2 1736.26 125.688   5
   1  10 -12 9.65926 30.0332   4
  -1 -10  12 16.2104 30.3190   6
  -1 -10  11 938.051 86.3547   6
   1  10 -11 860.321 83.3972   4
  -1 -10  10 7753.89 228.678   6
  -1 -10   9 64.7063 28.1305   6
  -1 -10   9 89.1257 40.6820   3
  -1 -10   8 224.246 40.1835   6
  -1 -10   8 329.329 58.0021   3
  -1 -10   7 1392.93 101.820   3
  -1 -10   7 1478.94 87.8234   6
  -1 -10   6 719.509 62.2779   6
  -1 -10   6 747.631 74.5663   3
  -1 -10   5 644.332 69.6229   3
  -1 -10   5 699.587 59.4423   6
  -1 -10   4 1904.23 112.875   3
  -1 -10   4 1937.98 96.1543   6
  -1 -10   3 901.690 81.0438   3
  -1 -10   3 877.696 66.9776   6
   1  10  -3 822.184 71.6717   2
   1  10  -2 569.213 62.5872   2
  -1 -10   2 458.535 61.8879   5
  -1 -10   2 616.750 70.5821   3
  -1 -10   1 10043.7 267.275   3
   1  10  -1 9718.47 251.452   2
  -1 -10   1 9591.91 270.385   5
  -1 -10   0 2691.81 144.174   3
   1  10   0 2424.61 130.817   2
  -1 -10   0 2411.92 145.283   5
   1  10   1 22.6921 34.4178   2
   1  11 -11 138.854 41.3658   4
  -1 -11  10 102.819 42.8816   3
  -1 -11   9 2735.56 153.745   3
  -1 -11   8 343.719 62.0136   3
  -1 -11   7 1.54243 31.0125   3
  -1 -11   6 37.9433 33.0093   3
  -1 -11   5 4162.62 178.891   3
  -1 -11   4 2739.22 145.478   3
  -1 -11   3 2477.63 138.810   3
  -1 -11   2 9.17996 33.5277   3
   1  11  -2 30.9892 28.4272   2
  -1 -11   1 237.782 52.1697   3
  -1 -11   1 216.979 54.7532   5
   1  11  -1 181.224 42.7160   2
  -1 -12   8 489.170 72.2476   3
  -1 -12   7 2547.59 149.722   3
  -1 -12   6 4030.61 186.746   3
  -1 -12   5 896.763 92.1435   3
   2 -12   5 135.654 44.2379   3
   2 -12   6 49.0832 36.8770   3
   2 -12   7 983.914 100.880   3
   2 -11  -1 533.072 70.5659   5
   2 -11   1 439.243 68.3015   3
  -2  11  -1 407.220 63.1011   2
   2 -11   2 269.711 55.7836   3
   2 -11   3 102.722 41.6967   3
   2 -11   4 367.729 62.0965   3
   2 -11   5 460.698 64.6714   3
   2 -11   6 99.9853 44.4886   3
   2 -11   7 1239.04 104.341   3
   2 -11   8 41.0657 38.3782   3
   2 -11   9 696.485 85.2419   3
  -2  11 -10 577.515 67.4379   4
  -2  11 -11 1373.91 106.384   4
   2 -10  -2 127.024 46.0122   5
   2 -10  -1 1197.40 99.4875   5
  -2  10   1 1167.88 100.664   2
   2 -10   0 0.10538 32.5400   5
  -2  10   0 0.90039 25.2276   2
   2 -10   1-1.41229 31.0180   5
  -2  10  -1-25.2729 31.4841   2
   2 -10   1 4.16364 25.4535   3
   2 -10   2 957.553 87.6011   3
   2 -10   3 138.156 42.9693   3
   2 -10   4 445.267 63.5538   3
   2 -10   5 1021.69 88.8056   3
   2 -10   6 199.366 47.4054   3
  -2  10  -7 379.007 44.8710   4
   2 -10   7 371.803 62.0984   3
  -2  10  -8 108.537 33.0221   4
   2 -10   8 172.576 54.1806   3
  -2  10  -9 1227.23 90.2551   4
   2 -10   9 1294.48 108.886   3
  -2  10 -10 518.377 66.2441   4
  -2  10 -11 654.920 77.0109   4
  -2   9   3 656.076 78.5011   2
   2  -9  -3 618.058 74.4363   5
   2  -9  -2 893.282 83.5083   5
  -2   9   2 885.917 84.7672   2
   2  -9  -1 614.446 68.7308   5
  -2   9   1 588.891 67.0422   2
   2  -9   0 658.486 67.5029   5
  -2   9   0 473.435 58.9546   2
  -2   9  -1 2866.25 134.831   2
   2  -9   1 2771.31 133.435   3
   2  -9   1 2859.09 121.608   5
   2  -9   2 1152.97 70.4303   5
   2  -9   2 1167.56 88.4220   3
   2  -9   3 1339.91 67.9234   5
   2  -9   3 1439.07 96.0968   3
   2  -9   4 1318.50 92.0794   3
  -2   9  -5 1742.70 75.9377   4
   2  -9   5 1732.09 107.504   3
   2  -9   6 930.079 82.3966   3
  -2   9  -6 843.585 59.9416   4
  -2   9  -7 240.821 38.7704   4
   2  -9   7 252.332 51.0897   3
   2  -9   8 196.342 49.9127   3
  -2   9  -8 43.8166 23.8220   4
  -2   9  -9 106.300 33.8853   4
  -2   9 -10 96.8378 38.8452   4
  -2   9 -11 180.203 45.3626   4
   2  -8  -4 1018.09 95.6531   5
  -2   8   4 1100.04 94.7095   2
   2  -8  -3 1414.10 105.958   5
  -2   8   3 1379.98 99.9568   2
  -2   8   2 1006.88 83.7249   2
   2  -8  -2 1034.59 85.4337   5
  -2   8   1 14996.0 296.642   2
   2  -8  -1 14017.9 278.711   5
  -2   8   0 1817.41 102.440   2
   2  -8   0 2027.63 100.745   5
   2  -8   1 2931.36 109.220   5
  -2   8  -1 2918.02 126.902   2
   2  -8   2 3922.85 143.039   3
   2  -8   2 3980.27 116.804   5
   2  -8   3 4232.80 105.099   5
   2  -8   3 4420.83 151.409   3
  -2   8  -3 4170.32 89.0533   4
   2  -8   4 13564.9 263.252   3
  -2   8  -4 12954.7 186.160   4
  -2   8  -5 152.983 28.1232   4
   2  -8   5 124.258 36.1365   3
   2  -8   6 1909.48 108.061   3
   2  -8   6 1821.60 68.6050   6
  -2   8  -6 1837.50 87.0514   4
   2  -8   7 161.995 27.5368   6
   2  -8   7 226.973 49.2729   3
  -2   8  -7 85.3156 25.2564   4
  -2   8  -8 103.167 27.1977   4
   2  -8   8 79.6444 37.3321   3
  -2   8  -9 2257.19 119.193   4
  -2   8 -10-49.7054 40.9285   4
  -2   8 -11 1372.81 106.620   4
  -2   8 -12 252.317 56.0766   4
   2  -7  -6 2219.59 147.306   5
   2  -7  -5 1197.78 103.976   5
  -2   7   5 1055.95 90.0037   2
   2  -7  -4 3054.75 151.216   5
  -2   7   4 3176.51 146.493   2
  -2   7   3 4159.31 157.900   2
   2  -7  -3 4137.53 163.400   5
  -2   7   2 1194.08 83.3867   2
   2  -7  -2 1161.33 83.7218   5
   2  -7  -1 19797.0 304.251   5
  -2   7   1 19869.4 315.388   2
   2  -7   0 11269.5 211.919   5
  -2   7   0 11583.5 233.429   2
   2  -7   0 11744.7 145.167   6
   2  -7   1 3872.18 113.975   5
   2  -7   1 3632.99 67.7310   6
  -2   7  -1 3696.13 131.962   2
  -2   7  -2 4207.38 76.5433   4
   2  -7   2 4021.47 103.171   5
   2  -7   2 3963.03 61.1517   6
   2  -7   2 4436.36 139.824   3
   2  -7   3 1335.22 51.1641   5
  -2   7  -3 1341.04 55.1235   4
   2  -7   3 1382.50 81.0258   3
   2  -7   3 1289.94 35.0385   6
   2  -7   4 5759.28 87.7531   6
  -2   7  -4 5441.30 121.145   4
   2  -7   4 5938.57 165.309   3
   2  -7   5 14303.4 261.151   3
   2  -7   5 14722.5 170.604   6
  -2   7  -5 14515.0 220.368   4
   2  -7   6 575.344 40.8049   6
  -2   7  -6 488.728 46.3423   4
   2  -7   6 548.357 59.4851   3
   2  -7   7 1018.47 78.6401   3
  -2   7  -7 944.221 68.7136   4
  -2   7  -8-11.2990 34.2057   4
  -2   7  -9 3494.21 145.610   4
  -2   7 -10 325.550 52.5588   4
  -2   7 -11 42.4029 31.6491   4
  -2   7 -12 213.209 54.1355   4
  -2   6   7 801.691 84.9418   2
   2  -6  -7 670.244 84.1761   5
   2  -6  -6 1869.18 127.562   5
  -2   6   6 1915.10 119.212   2
   2  -6  -5 135.066 46.1480   5
  -2   6   5 96.3921 34.2781   2
   2  -6  -4 1313.24 94.1062   5
  -2   6   4 1290.42 88.0481   2
   2  -6  -3 28275.2 388.269   5
  -2   6   3 28389.9 381.804   2
   2  -6  -2 4419.32 143.690   5
  -2   6   2 4368.83 142.321   2
  -2   6   1 6059.51 160.933   2
   2  -6  -1 6095.79 154.991   5
   2  -6   0 149.490 27.5361   5
   2  -6   0 141.675 15.6836   6
  -2   6   0 197.582 34.3617   2
   2  -6   0 130.085 16.3515   6
  -2   6  -1 1257.86 71.4020   2
   2  -6   1 1343.11 60.5323   5
   2  -6   1 1265.05 33.1583   6
  -2   6  -1 1267.13 36.2250   4
   2  -6   2 17698.9 102.001   6
   2  -6   2 18716.4 189.070   5
   2  -6   2 19475.5 265.895   3
  -2   6  -2 18879.9 172.778   4
   2  -6   3 25804.9 175.515   5
   2  -6   3 26442.2 313.120   3
  -2   6  -3 25338.1 235.601   4
   2  -6   3 25255.8 143.323   6
   2  -6   4 3584.71 119.941   3
  -2   6  -4 3596.67 99.7643   4
  -2   6  -4 3591.55 64.6922   6
   2  -6   4 3660.30 72.6023   6
   2  -6   5 3807.90 127.683   3
   2  -6   5 3847.61 91.4155   6
  -2   6  -5 3748.73 112.936   4
   2  -6   6 2814.35 115.457   3
  -2   6  -6 2854.28 106.800   4
  -2   6  -7 9650.68 210.096   4
  -2   6  -8 7338.83 196.192   4
  -2   6  -9 1092.62 83.8329   4
  -2   6 -10 548.682 65.7023   4
  -2   6 -11 126.590 41.2166   4
  -2   6 -12 2043.85 135.720   4
  -2   5   8 604.057 73.0941   2
   2  -5  -8 567.360 80.3169   5
   2  -5  -7 1369.89 107.569   5
  -2   5   7 1437.01 102.996   2
   2  -5  -6 3015.37 148.444   5
  -2   5   6 3236.81 142.729   2
  -2   5   5 721.704 66.0406   2
   2  -5  -5 758.935 74.7844   5
   2  -5  -4 2986.30 126.891   5
  -2   5   4 2934.22 121.467   2
   2  -5  -3 5128.93 56.0311   4
   2  -5  -3 5875.78 164.628   5
  -2   5   3 5849.88 158.803   2
   2  -5  -2 8314.00 178.647   5
  -2   5   2 8546.13 180.667   2
  -2   5   1 4062.12 119.829   2
   2  -5  -1 3950.17 113.428   5
   2  -5  -1 3752.61 84.4974   6
   2  -5   0 699.788 23.6407   4
   2  -5   0 740.777 45.6286   5
   2  -5   0 803.059 31.6634   6
  -2   5   0 773.824 53.8110   2
   2  -5   1 14775.3 79.5964   6
   2  -5   1 15002.0 89.5947   6
  -2   5  -1 16314.8 228.929   2
   2  -5   1 15838.3 175.117   5
  -2   5  -1 16211.2 140.013   4
   2  -5   2 34786.2 212.947   5
   2  -5   2 34975.9 322.449   3
  -2   5  -2 34679.8 244.186   4
  -2   5  -3 23667.3 131.138   6
   2  -5   3 24440.9 275.638   3
   2  -5   3 22755.2 110.702   5
  -2   5  -3 23952.3 228.776   4
   2  -5   4 17170.9 242.545   3
  -2   5  -4 17357.4 217.851   4
  -2   5  -4 17337.4 154.355   6
  -2   5  -5 1325.95 69.4835   4
   2  -5   5 1107.23 67.4252   3
  -2   5  -6 7348.24 169.374   4
  -2   5  -7 16888.8 274.457   4
  -2   5  -8 17399.0 299.759   4
  -2   5  -9 9492.88 238.107   4
  -2   5 -10 1085.91 88.5825   4
  -2   5 -11 2810.90 148.606   4
  -2   5 -12 2894.94 158.629   4
   2  -4  -9 1696.77 129.338   5
  -2   4   9 1696.69 120.004   2
   2  -4  -8 2382.99 142.255   5
  -2   4   8 2409.77 134.769   2
   2  -4  -7 1390.24 103.088   5
  -2   4   7 1332.45 94.6625   2
   2  -4  -6 246.407 48.3203   5
  -2   4   6 188.492 39.8523   2
  -2   4   5 195.336 37.0941   2
   2  -4  -5 178.972 40.1760   5
   2  -4  -5 164.427 20.4442   4
   2  -4  -4 334.177 45.1583   5
  -2   4   4 336.128 42.1296   2
   2  -4  -3 4084.80 124.967   5
  -2   4   3 4121.47 122.180   2
  -2   4   2 437.949 39.6499   2
   2  -4  -2 441.303 40.7915   5
   2  -4  -2 470.515 20.9658   4
   2  -4  -1 42856.8 247.532   6
  -2   4   1 43840.8 353.657   2
   2  -4  -1 43740.0 331.083   5
   2  -4  -1 43272.1 189.339   4
   2  -4   0 2774.08 74.5908   5
   2  -4   0 2502.84 42.3984   6
  -2   4   0 2572.43 85.3919   2
   2  -4   0 2727.72 52.7425   4
  -2   4  -1 25535.1 258.643   2
   2  -4   1 25061.7 184.844   5
   2  -4   1 25380.5 184.444   4
  -2   4  -1 24849.7 182.105   4
   2  -4   2 35125.8 160.958   5
   2  -4   2 35276.0 294.139   3
  -2   4  -2 35370.1 252.501   4
  -2   4  -3 56098.8 351.724   4
   2  -4   3 56478.2 389.581   3
  -2   4  -3 56636.8 239.923   6
  -2   4  -4 15398.5 163.980   6
   2  -4   4 15554.4 216.904   3
  -2   4  -4 15995.6 208.553   4
  -2   4  -5 7373.17 156.211   4
  -2   4  -6 44351.4 229.354   5
  -2   4  -6 43288.1 407.157   4
  -2   4  -7 44071.5 276.402   5
  -2   4  -7 44777.6 446.022   4
  -2   4  -8 5762.86 117.433   5
  -2   4  -8 5929.64 175.839   4
  -2   4  -9 5515.24 181.927   4
  -2   4 -10 714.942 73.0603   4
  -2   4 -11 873.690 87.8332   4
  -2   4 -12 7529.42 253.010   4
   2  -3  -9 68.2777 40.7095   5
   2  -3  -8 6417.16 216.638   5
   2  -3  -7 1511.23 71.0886   4
   2  -3  -7 1543.65 100.958   5
   2  -3  -6 7479.35 201.099   5
   2  -3  -5 205.385 38.0216   5
   2  -3  -4 8214.36 176.092   5
  -2   3   4 8603.12 172.974   2
   2  -3  -3 3782.91 110.775   5
  -2   3   3 3841.88 105.609   2
   2  -3  -2 2.00892 10.6098   6
   2  -3  -2 30.7465 19.1185   5
   2  -3  -1 17077.9 134.534   6
  -2   3   1 16922.6 194.085   2
   2  -3  -1 16954.3 131.541   4
  -2   3   1 16331.0 184.552   1
   2  -3  -1 16605.7 180.238   5
  -2   3   0 3419.56 86.6824   2
  -2   3   0 3396.44 84.6641   1
  -2   3   0 3390.22 62.7741   4
   2  -3   0 3398.46 62.6593   4
   2  -3   0 3332.65 68.8831   5
  -2   3  -1 116044. 487.167   1
   2  -3   1 118403. 408.177   4
   2  -3   1 117246. 458.395   3
  -2   3  -1 117255. 406.499   4
  -2   3  -2 93042.9 266.749   6
  -2   3  -2 92872.5 433.227   1
   2  -3   2 93372.6 425.671   3
  -2   3  -2 94068.2 412.087   4
  -2   3  -3 52287.8 277.780   6
  -2   3  -3 52209.7 324.768   1
   2  -3   3 52843.6 347.736   3
  -2   3  -3 52887.2 341.880   4
  -2   3  -4 65094.1 227.058   5
  -2   3  -4 64334.2 420.587   4
  -2   3  -5 6383.29 94.4020   5
  -2   3  -5 6200.81 143.612   4
  -2   3  -6 36663.4 262.786   5
  -2   3  -6 37816.4 379.943   4
  -2   3  -7 3803.54 132.187   4
  -2   3  -7 3946.09 101.993   5
  -2   3  -8 659.917 49.8250   5
  -2   3  -8 628.777 61.3493   4
  -2   3  -9 2541.07 124.814   4
  -2   3  -9 2513.45 101.065   5
  -2   3 -10 3345.49 150.246   4
  -2   3 -11 2359.11 135.611   4
   2  -2 -10 3556.73 174.022   5
   2  -2  -9 565.057 67.3293   5
   2  -2  -9 480.723 50.2277   4
   2  -2  -8 737.388 73.0635   5
   2  -2  -7 1724.50 98.5040   5
   2  -2  -6 299.377 43.8017   5
   2  -2  -5 8372.93 180.544   5
   2  -2  -4 113729. 602.438   5
  -2   2   4 113120. 431.975   1
  -2   2   3 445.071 29.6383   1
  -2   2   3 536.561 37.9206   6
   2  -2  -3 510.234 40.7567   5
  -2   2   3 515.412 39.3217   2
  -2   2   2 10436.9 142.060   2
   2  -2  -2 10615.2 125.405   6
  -2   2   2 10453.8 134.536   1
  -2   2   2 10556.4 132.415   6
   2  -2  -1 68020.4 331.134   1
  -2   2   1 65744.4 330.909   2
  -2   2   1 66613.6 250.972   6
   2  -2  -1 66637.3 239.839   6
   2  -2  -1 66943.7 327.985   2
   2  -2  -1 65847.8 281.490   4
  -2   2   1 66500.6 333.875   1
  -2   2   0 32291.2 232.726   1
   2  -2   0 32114.5 220.985   2
   2  -2   0 33001.1 230.829   1
  -2   2   0 32049.7 199.180   4
  -2   2   0 32246.0 122.162   6
   2  -2   0 33050.9 201.373   4
   2  -2   0 32003.2 117.477   6
  -2   2   0 32328.6 226.705   2
   2  -2   1 121971. 443.134   1
   2  -2   1 120369. 395.478   3
   2  -2   1 123236. 426.697   4
  -2   2  -1 120654. 449.132   1
  -2   2  -1 119629. 420.586   4
   2  -2   2 105184. 280.740   5
   2  -2   2 104880. 406.414   3
  -2   2  -2 105061. 395.323   3
   2  -2   2 105376. 414.294   1
  -2   2  -2 104339. 441.737   4
  -2   2  -2 104413. 415.251   1
  -2   2  -3 30417.4 261.613   4
   2  -2   3 31262.7 176.625   5
  -2   2  -3 31203.6 228.052   1
  -2   2  -3 31350.0 180.831   5
  -2   2  -4 13890.7 149.116   1
  -2   2  -4 14506.1 149.532   5
   2  -2   4 13928.6 137.742   5
  -2   2  -4 13863.6 193.996   4
  -2   2  -5 107.575 26.8297   4
  -2   2  -5 72.8238 17.4433   5
  -2   2  -6 14686.3 198.202   5
  -2   2  -6 14586.6 236.672   4
  -2   2  -7 60468.3 445.548   5
  -2   2  -7 60740.4 518.856   4
  -2   2  -8 30519.1 349.688   5
  -2   2  -8 30356.6 393.584   4
  -2   2  -9 471.852 56.4192   4
  -2   2  -9 530.844 55.2222   5
  -2   2 -10 233.303 47.8057   4
  -2   2 -10 221.637 44.2307   5
  -2   2 -11 6323.12 217.781   4
   2  -1 -11 369.579 60.4013   5
   2  -1 -10 4700.35 188.208   5
   2  -1 -10 4495.29 158.426   4
   2  -1  -9 146.558 43.1579   5
   2  -1  -8 770.850 69.0937   5
   2  -1  -7 281.984 44.3886   5
   2  -1  -6 33179.5 363.994   5
  -2   1   5 14221.3 227.805   6
  -2   1   5 14884.5 141.868   1
   2  -1  -5 14331.0 219.686   5
  -2   1   4 9646.44 118.608   1
  -2   1   4 10048.1 169.524   6
  -2   1   3 6969.76 101.254   1
  -2   1   3 7203.04 122.980   6
  -2   1   2 610.772 30.8456   6
   2  -1  -2 632.243 30.2763   6
  -2   1   2 651.969 30.4953   2
  -2   1   2 657.957 32.2424   1
   2  -1  -1 591433. 795.800   2
  -2   1   1 590989. 808.051   2
   2  -1  -1 592059. 864.961   4
  -2   1   1 586355. 752.878   6
   2  -1  -1 593984. 733.421   6
   2  -1   0 205800. 523.206   4
   2  -1   0 205488. 376.529   3
  -2   1   0 205526. 521.722   4
  -2   1   0 201402. 394.830   6
   2  -1   1 20654.5 136.273   3
  -2   1  -1 20616.2 178.199   4
   2  -1   1 21045.8 152.340   5
   2  -1   1 21205.2 183.425   4
  -2   1  -1 20679.4 132.311   3
  -2   1  -2 59435.5 280.997   5
  -2   1  -2 58473.1 333.040   4
  -2   1  -2 57423.6 282.887   1
   2  -1   2 60266.4 276.888   5
  -2   1  -2 58776.8 279.172   3
  -2   1  -3 20383.5 185.822   5
   2  -1   3 20795.8 184.620   5
  -2   1  -3 20338.6 167.414   1
  -2   1  -3 20444.2 216.510   4
  -2   1  -4 617.159 39.9929   5
  -2   1  -4 536.316 27.9949   1
  -2   1  -4 566.220 42.2020   4
  -2   1  -5 23497.2 251.375   5
  -2   1  -5 23485.7 170.498   1
  -2   1  -5 23077.5 274.200   4
  -2   1  -6 52192.8 445.686   4
  -2   1  -6 52261.7 420.232   5
  -2   1  -7 5190.51 145.368   5
  -2   1  -7 4863.30 148.992   4
  -2   1  -8 707.780 63.9041   4
  -2   1  -8 803.524 67.1960   5
  -2   1  -9 1594.31 98.5270   4
  -2   1  -9 1590.84 96.6506   5
  -2   1 -10 261.088 48.1542   4
  -2   1 -10 257.542 48.1556   5
  -2   1 -11 294.331 55.4040   4
   2   0 -12 52.9191 25.6760   4
   2   0 -12 112.462 41.6350   5
   2   0 -11 1719.94 117.219   5
   2   0 -11 1396.59 95.6591   4
   2   0 -10 11626.9 277.876   5
   2   0  -9 25832.3 383.268   5
   2   0  -8 14491.8 267.977   5
   2   0  -7 5590.30 153.391   5
  -2   0   7 5508.27 166.209   6
  -2   0   7 5625.66 74.6443   1
  -2   0   6 36508.6 390.529   6
  -2   0   6 37488.5 215.333   1
  -2   0   5 120927. 632.807   6
  -2   0   4 14189.7 192.304   6
  -2   0   3 37184.9 270.358   6
  -2   0   2 997802. 862.817   2
   2   0  -2 999999. 1166.80   6
   2   0  -1 410102. 491.515   2
   2   0  -1 410778. 675.866   6
   2   0  -1 407380. 745.633   4
  -2   0   1 406970. 685.065   6
   2   0   0 95570.4 364.992   4
  -2   0   0 94382.6 369.733   4
  -2   0   0 93984.1 333.047   6
   2   0   1 2992.93 68.4585   5
  -2   0  -1 2941.84 67.9173   5
   2   0   1 2955.86 70.4564   4
  -2   0  -1 2831.34 67.9887   4
  -2   0  -2 87892.6 407.666   5
  -2   0  -2 87636.7 411.002   4
  -2   0  -3 79613.2 442.470   5
  -2   0  -3 75798.4 424.570   4
  -2   0  -4 123.059 24.3822   4
  -2   0  -4 172.637 28.0396   5
  -2   0  -5 7375.88 159.634   5
  -2   0  -5 7380.93 157.185   4
  -2   0  -5 7533.05 91.3419   1
  -2   0  -6 6021.25 157.101   5
  -2   0  -6 5196.64 61.4915   1
  -2   0  -6 6065.91 153.719   4
  -2   0  -7 7721.44 192.270   5
  -2   0  -7 7586.91 186.214   4
  -2   0  -8-20.0443 25.1604   5
  -2   0  -8 8.03663 24.4052   4
  -2   0  -9 242.688 44.1981   4
  -2   0  -9 280.036 48.8821   5
  -2   0 -10 8516.02 250.758   5
  -2   0 -10 8466.04 238.046   4
   2   1 -12 379.967 57.2771   4
   2   1 -12 462.256 68.9898   5
   2   1 -11 14021.3 308.678   5
   2   1 -10 12271.8 270.474   5
   2   1  -9 26199.4 366.720   5
   2   1  -8 8953.96 197.835   5
  -2  -1   8 9062.61 227.632   6
  -2  -1   7 13794.3 255.210   6
  -2  -1   6 28837.6 333.272   6
  -2  -1   5 5766.10 137.119   6
  -2  -1   4 10.6197 22.2686   6
  -2  -1   3 23690.3 213.958   6
   2   1  -2 41923.4 185.700   3
  -2  -1   2 41463.8 258.509   6
   2   1  -2 41956.7 253.795   6
   2   1  -1 9607.05 119.168   4
  -2  -1   1 8995.89 115.505   6
   2   1  -1 9599.66 119.213   6
   2   1   0 552.186 32.9850   5
  -2  -1   0 592.991 31.4219   4
   2   1   0 667.420 32.4210   4
  -2  -1  -1 64950.6 331.888   4
  -2  -1  -1 65600.3 372.621   5
  -2  -1  -2 53095.8 365.308   5
  -2  -1  -2 53070.1 326.942   4
  -2  -1  -3 17921.4 237.939   5
  -2  -1  -3 17719.0 205.902   4
  -2  -1  -4 6392.87 135.559   4
  -2  -1  -4 6264.41 151.432   5
  -2  -1  -5 419.478 49.0098   5
  -2  -1  -5 365.570 38.7998   4
  -2  -1  -6 1544.06 88.4942   5
  -2  -1  -6 1599.05 82.2357   4
  -2  -1  -7 71.6064 29.0596   4
  -2  -1  -7 43.4729 29.8994   5
  -2  -1  -8 4217.64 166.235   5
  -2  -1  -8 4335.38 151.482   4
  -2  -1  -9 224.718 40.5414   4
  -2  -1  -9 248.846 53.4650   5
  -2  -1 -10 220.784 51.0708   5
   2   2 -13 145.205 43.9977   5
   2   2 -12 840.631 81.2676   5
   2   2 -11 17697.7 330.275   5
   2   2 -10 3296.77 134.340   5
  -2  -2  10 3234.06 157.348   6
   2   2  -9 3781.61 131.460   5
  -2  -2   9 3634.19 155.013   6
  -2  -2   8 1737.30 98.2542   6
  -2  -2   7 4667.63 146.298   6
  -2  -2   6 158208. 771.372   6
  -2  -2   5 14234.3 209.517   6
  -2  -2   4 2258.71 76.5153   6
   2   2  -3 2596.73 61.4338   3
  -2  -2   3 2517.53 73.3421   6
  -2  -2   2 8628.82 127.005   6
  -2  -2   2 8356.81 93.5424   3
   2   2  -2 8507.78 91.6620   3
   2   2  -1 31576.1 223.541   4
  -2  -2   1 31461.9 241.283   6
  -2  -2   1 30981.3 164.733   3
  -2  -2   0 59099.5 377.094   5
   2   2   0 58645.4 308.232   4
  -2  -2  -1 22774.4 249.938   5
  -2  -2  -1 22640.6 201.801   4
  -2  -2  -2 6858.45 149.748   5
  -2  -2  -2 6830.12 119.744   4
  -2  -2  -3 37127.0 376.975   5
  -2  -2  -3 36047.6 295.599   4
  -2  -2  -4 9319.41 202.295   5
  -2  -2  -4 9183.91 162.899   4
  -2  -2  -5 1429.13 88.3662   5
  -2  -2  -5 1550.08 74.1460   4
  -2  -2  -6 10331.5 244.135   5
  -2  -2  -6 10379.8 201.906   4
  -2  -2  -7 124.335 30.1800   4
  -2  -2  -7 116.013 40.0265   5
  -2  -2  -8 256.522 41.5898   4
  -2  -2  -8 275.283 53.0595   5
  -2  -2  -9 772.952 89.1278   5
   2   3 -13 325.727 60.4648   4
   2   3 -13 253.373 51.3434   5
   2   3 -12 761.043 72.5802   5
  -2  -3  11 1440.79 114.292   6
   2   3 -11 1353.84 89.6995   5
   2   3 -10 192.919 36.3692   5
  -2  -3  10 248.836 51.5119   6
  -2  -3   9 51.6952 28.7380   6
  -2  -3   8 14597.6 274.010   6
  -2  -3   7 4216.07 137.428   6
  -2  -3   6 5262.02 139.219   6
  -2  -3   5 8715.91 164.444   6
  -2  -3   4 4874.42 114.640   6
  -2  -3   3 24639.3 240.606   6
  -2  -3   3 24102.0 204.393   3
  -2  -3   3 24009.5 121.623   2
   2   3  -3 24678.2 199.311   3
   2   3  -2 136417. 337.158   2
  -2  -3   2 134748. 442.149   3
  -2  -3   2 134456. 547.986   6
   2   3  -1 22009.0 164.546   2
  -2  -3   1 21915.1 224.703   6
  -2  -3   0 19589.6 245.724   5
  -2  -3  -1 30695.0 323.753   5
  -2  -3  -1 31407.7 241.094   4
  -2  -3  -2 16552.3 253.460   5
  -2  -3  -2 16677.5 189.535   4
  -2  -3  -3 15469.8 264.537   5
  -2  -3  -3 15274.9 193.087   4
  -2  -3  -4 20950.0 332.158   5
  -2  -3  -4 20989.3 245.521   4
  -2  -3  -5 70.1593 22.7605   4
  -2  -3  -5 72.7666 35.2535   5
  -2  -3  -6 921.494 83.9214   5
  -2  -3  -6 865.107 59.6591   4
  -2  -3  -7 1180.66 101.686   5
  -2  -3  -8 283.375 62.9432   5
   2   4 -12 526.893 59.3092   5
  -2  -4  12 524.665 74.4371   6
   2   4 -11 863.327 69.0331   5
  -2  -4  11 868.358 87.9325   6
  -2  -4  10 59.7342 33.9264   6
  -2  -4   9 1943.76 109.675   6
  -2  -4   8 734.743 63.5725   6
  -2  -4   7 4604.46 141.766   6
  -2  -4   6 5302.01 141.145   6
  -2  -4   5 1782.58 77.2735   6
  -2  -4   4 49746.4 231.717   2
  -2  -4   4 49114.4 345.118   3
  -2  -4   4 49555.5 375.936   6
  -2  -4   3 1050.59 54.7305   6
  -2  -4   3 1042.81 50.3473   3
   2   4  -2 28469.4 201.879   2
  -2  -4   2 28623.7 270.889   6
  -2  -4   2 28243.3 237.729   3
  -2  -4   1 49216.3 401.177   5
   2   4  -1 49116.1 297.940   2
  -2  -4   1 50111.5 368.529   6
  -2  -4   0 45243.2 404.266   5
  -2  -4   0 44969.8 367.394   6
  -2  -4  -1 23651.2 311.953   5
  -2  -4  -2 1601.35 89.6465   5
  -2  -4  -2 1591.45 59.0512   4
  -2  -4  -3 3159.59 131.508   5
  -2  -4  -3 3125.45 88.5071   4
  -2  -4  -4 7266.08 210.782   5
  -2  -4  -4 7073.25 141.945   4
  -2  -4  -5 4563.06 183.296   5
  -2  -4  -6 411.502 68.8182   5
  -2  -4  -7 369.620 65.9035   5
  -2  -5  13 278.181 63.6116   6
  -2  -5  12 1551.91 122.497   6
  -2  -5  11 1569.91 113.610   6
  -2  -5  10 619.966 68.2684   6
  -2  -5   9 409.059 54.1157   6
  -2  -5   8 13500.0 259.889   6
  -2  -5   7 8.26920 25.5571   6
  -2  -5   6 1469.71 76.0549   6
  -2  -5   5 1913.18 55.8956   2
  -2  -5   5 1927.44 80.4237   3
  -2  -5   5 2006.61 84.4084   6
  -2  -5   4 17470.1 223.562   3
  -2  -5   4 17788.1 235.023   6
  -2  -5   4 17144.6 160.072   2
  -2  -5   3 37713.1 314.516   3
  -2  -5   3 37422.0 335.304   6
   2   5  -3 38022.6 262.440   2
  -2  -5   2 9772.42 171.372   6
   2   5  -2 9354.58 139.093   2
  -2  -5   2 9352.99 157.693   3
  -2  -5   1 10136.5 200.706   5
   2   5  -1 10027.6 153.991   2
  -2  -5   1 10318.7 182.892   6
  -2  -5   0 273.944 36.5132   6
  -2  -5   0 226.359 37.2284   5
   2   5   0 333.558 33.9055   2
  -2  -5  -1 20284.2 313.303   5
  -2  -5  -2 2682.65 123.859   5
  -2  -5  -3 96.9970 41.9635   5
  -2  -5  -4 887.337 85.4379   5
  -2  -5  -5 118.090 42.3487   5
  -2  -5  -6 112.811 41.9049   5
  -2  -6  13 215.403 53.7335   6
  -2  -6  12 631.329 79.8696   6
  -2  -6  11 2057.19 127.952   6
  -2  -6  10-1.45745 42.5113   6
  -2  -6   9 248.525 43.6648   6
  -2  -6   8 429.643 52.2473   6
  -2  -6   7 21457.8 310.408   6
  -2  -6   6 5144.33 143.828   3
  -2  -6   6 5254.17 146.393   6
  -2  -6   5 255.236 36.1835   3
  -2  -6   5 220.660 31.5001   6
  -2  -6   4 11.1805 20.3769   6
  -2  -6   4 35.3957 21.5505   3
  -2  -6   3 675.879 50.7319   6
   2   6  -3 579.827 39.0958   2
  -2  -6   3 635.743 48.2436   3
   2   6  -2 1250.18 59.3962   2
  -2  -6   2 1181.59 66.5502   6
  -2  -6   2 1251.72 66.1225   3
  -2  -6   1 15419.9 269.497   5
   2   6  -1 14857.9 213.863   2
  -2  -6   1 15365.6 241.140   6
   2   6   0 1282.33 68.4656   2
  -2  -6   0 1249.60 83.5593   5
  -2  -6   0 1418.37 78.7626   6
  -2  -6  -1 2357.16 118.514   5
   2   6   1 2648.57 105.466   2
  -2  -6  -2 352.409 53.0962   5
   2   6   2 407.089 47.8181   2
  -2  -6  -3 489.939 67.6164   5
   2   6   3 513.787 57.9070   2
  -2  -6  -4 3349.00 165.770   5
   2   6   4 3353.18 147.825   2
  -2  -6  -5 139.088 51.5615   5
  -2  -7  13 825.700 94.6491   6
  -2  -7  12 100.635 43.7314   6
  -2  -7  11 875.996 84.2130   6
  -2  -7  10 437.622 59.4186   6
  -2  -7   9 8883.13 230.529   6
  -2  -7   8 865.690 71.1001   6
  -2  -7   7 768.806 66.8131   3
  -2  -7   7 690.390 60.4171   6
  -2  -7   6 1921.01 93.8013   6
  -2  -7   6 1880.53 93.4262   3
  -2  -7   5 93.0838 26.4005   6
  -2  -7   5 136.489 32.6194   3
  -2  -7   4 134.670 29.3709   6
  -2  -7   4 102.028 28.9305   3
  -2  -7   3 17.9177 20.3379   6
  -2  -7   3 44.7733 25.4127   3
   2   7  -3 2.01521 16.0942   2
   2   7  -2 878.956 56.8974   2
  -2  -7   2 929.279 63.9065   3
  -2  -7   2 929.089 64.8976   6
   2   7  -1 542.673 47.5372   2
  -2  -7   1 490.501 57.0611   5
  -2  -7   1 507.420 50.6837   6
  -2  -7   0 396.511 50.2102   6
  -2  -7   0 279.334 48.6642   5
   2   7   0 372.432 43.9429   2
  -2  -7  -1 84.2663 27.3662   6
  -2  -7  -1 26.7106 30.8227   5
   2   7   1 52.7573 26.2961   2
  -2  -7  -2 613.259 74.6336   5
   2   7   2 730.686 65.9090   2
  -2  -7  -3 988.519 96.6701   5
   2   7   3 988.763 81.4535   2
  -2  -7  -4 582.871 82.5553   5
   2   7   4 456.398 60.9670   2
  -2  -8  13 2576.14 160.642   6
  -2  -8  12 602.122 78.3690   6
  -2  -8  11 368.254 60.0937   6
  -2  -8  10 52.6598 32.5110   6
  -2  -8   9 109.287 36.0624   6
  -2  -8   8 3906.94 149.766   6
  -2  -8   8 3867.66 151.282   3
  -2  -8   7 668.525 65.1742   3
  -2  -8   7 654.985 60.8589   6
  -2  -8   6 472.823 51.7350   6
  -2  -8   6 534.704 56.0519   3
  -2  -8   5 1692.31 92.7647   3
  -2  -8   5 1720.40 90.3330   6
  -2  -8   4 413.014 45.4867   6
  -2  -8   4 509.632 54.0164   3
   2   8  -3 1602.18 80.4924   2
  -2  -8   3 1536.51 87.8784   3
  -2  -8   3 1602.50 87.0874   6
  -2  -8   2 94.7765 30.9601   6
   2   8  -2 21.6359 19.3678   2
  -2  -8   2 83.3475 29.1445   3
  -2  -8   1 62.6372 32.5693   5
  -2  -8   1 64.9656 28.0953   6
   2   8  -1 27.0033 21.9488   2
  -2  -8   1 18.6539 22.6424   3
  -2  -8   0 51.4438 29.9347   6
  -2  -8   0-37.2815 40.6368   5
   2   8   0-27.8705 27.0962   2
  -2  -8  -1 467.650 58.8036   6
  -2  -8  -1 391.160 62.0284   5
   2   8   1 362.290 49.7182   2
  -2  -8  -2 2206.78 140.233   5
   2   8   2 2108.01 117.704   2
  -2  -8  -2 2252.36 123.120   6
   2   8   3 707.978 74.5541   2
  -2  -8  -3 795.782 78.0581   6
  -2  -9  12 208.882 51.7966   6
  -2  -9  11 528.060 69.3860   6
  -2  -9  10 142.190 40.3237   6
  -2  -9   9 1538.71 101.642   6
  -2  -9   8 212.566 40.0648   6
  -2  -9   8 198.448 43.8075   3
  -2  -9   7 48.2780 27.6498   6
  -2  -9   7 96.4176 35.4743   3
  -2  -9   6 73.1245 28.4297   6
  -2  -9   6 101.185 35.9879   3
  -2  -9   5 2.30591 23.5268   6
  -2  -9   5 8.57831 26.3782   3
  -2  -9   4 1315.14 86.9410   3
  -2  -9   4 1310.92 83.0871   6
  -2  -9   3 1958.62 107.332   3
  -2  -9   3 1877.55 98.7005   6
   2   9  -3 1913.82 94.8625   2
  -2  -9   2 389.835 50.8712   6
   2   9  -2 426.183 49.7427   2
  -2  -9   2 383.078 51.0987   3
   2   9  -1 1243.14 84.0891   2
  -2  -9   1 1241.13 100.380   5
  -2  -9   1 1314.60 90.6891   3
  -2  -9   1 1270.15 86.4792   6
  -2  -9   0 25.0975 24.1465   6
   2   9   0-14.9803 28.4406   2
  -2  -9   0 54.0647 37.9761   5
   2   9   1 801.109 75.7978   2
  -2  -9  -1 764.993 86.4540   5
  -2  -9  -1 934.620 81.6774   6
   2   9   2 3456.51 159.377   2
  -2  -9  -2 3707.15 164.959   6
  -2 -10  12 20.0133 32.3411   6
  -2 -10  11 273.348 56.6993   6
  -2 -10  10 168.783 42.0454   6
  -2 -10   9 2088.70 128.309   3
  -2 -10   9 2138.13 121.400   6
  -2 -10   8 342.814 51.4432   6
  -2 -10   8 379.252 58.1060   3
  -2 -10   7 461.277 55.6433   6
  -2 -10   7 392.152 57.9371   3
  -2 -10   6 448.770 58.4256   3
  -2 -10   6 475.306 57.1813   6
  -2 -10   5 1119.05 89.2408   3
  -2 -10   5 1288.67 87.1338   6
  -2 -10   4 1705.70 106.610   3
  -2 -10   4 1727.33 99.9454   6
  -2 -10   3 6525.59 207.512   3
  -2 -10   3 6519.61 193.854   6
  -2 -10   2 69.2657 32.0187   6
  -2 -10   2 86.9680 33.6424   3
  -2 -10   1 965.496 86.2825   3
  -2 -10   1 880.664 77.0231   6
  -2 -10   1 727.462 84.0423   5
  -2 -10   0 1233.58 98.2251   3
  -2 -10   0 1320.29 95.5593   6
  -2 -11   9 2470.21 143.516   3
  -2 -11   8 763.584 81.8690   3
  -2 -11   7 467.529 66.7131   3
  -2 -11   6 1437.16 106.231   3
  -2 -11   5 941.452 88.4207   3
  -2 -11   4 3713.92 167.089   3
  -2 -11   3 813.325 82.7456   3
  -2 -11   2 631.446 74.5627   3
  -2 -12   8 1549.72 117.829   3
  -2 -12   7 677.434 80.0195   3
  -2 -12   6 9980.69 288.215   3
  -2 -12   5 62.4164 37.2079   3
   3 -11   1 186.936 49.8696   3
   3 -11   2 78.3548 44.6643   3
   3 -11   3 125.494 43.7572   3
   3 -11   4 1449.25 110.198   3
   3 -11   5 6883.78 236.318   3
   3 -11   6 507.295 69.4651   3
   3 -11   7 123.920 45.4817   3
   3 -11   8 5622.46 224.384   3
   3 -11   9 39.1407 37.7396   3
  -3  11 -10 627.487 72.5147   4
   3 -10  -2 537.949 69.9436   5
  -3  10   1 705.517 81.2174   2
   3 -10  -1 576.795 68.9582   5
  -3  10   0 3246.71 161.871   2
   3 -10   0 3482.39 165.312   3
   3 -10   0 3192.35 141.646   5
   3 -10   1 488.366 66.6782   3
  -3  10  -1 474.380 67.3047   2
   3 -10   2 701.660 74.4197   3
   3 -10   3 7914.64 237.762   3
   3 -10   4 938.054 85.0753   3
   3 -10   5 524.520 68.5067   3
   3 -10   6 1476.86 108.341   3
   3 -10   7 753.352 80.9166   3
  -3  10  -7 707.987 63.3680   4
  -3  10  -8 390.787 52.2278   4
   3 -10   8 456.289 67.7629   3
   3 -10   9 11618.7 315.692   3
  -3  10  -9 11742.3 276.702   4
  -3  10 -10 245.539 49.9044   4
  -3  10 -11 798.919 85.5466   4
   3  -9  -3 182.348 51.3877   5
  -3   9   3 168.926 43.0563   2
   3  -9  -2 1881.55 117.704   5
  -3   9   2 2162.85 130.675   2
  -3   9   1 1388.45 103.712   2
   3  -9  -1 1511.73 99.4449   5
  -3   9   0 62.7985 30.6278   2
   3  -9   0 73.3484 33.2628   5
   3  -9   1 8058.43 188.880   5
   3  -9   1 8352.56 229.633   3
  -3   9  -1 8249.69 232.601   2
   3  -9   2 4370.21 167.553   3
   3  -9   3 2245.65 120.245   3
   3  -9   4 5.37883 28.3562   3
   3  -9   5 4640.02 174.574   3
  -3   9  -5 4224.72 125.478   4
  -3   9  -6 148.771 33.8923   4
   3  -9   6 160.269 43.3125   3
   3  -9   7 743.583 77.8624   3
  -3   9  -7 821.267 66.9071   4
   3  -9   8 289.000 55.5556   3
  -3   9  -8 290.821 46.1067   4
  -3   9  -9 952.662 82.3419   4
  -3   9 -10 181.456 45.5632   4
  -3   9 -11 2465.81 144.340   4
   3  -8  -5 46.4896 39.1659   5
   3  -8  -4 34.0536 36.7258   5
  -3   8   4 36.2211 31.3070   2
  -3   8   3 12461.9 299.724   2
   3  -8  -3 12186.9 292.518   5
  -3   8   2 5130.46 185.777   2
   3  -8  -2 5411.53 181.679   5
  -3   8   1 1466.90 99.5081   2
   3  -8  -1 1614.33 95.4874   5
   3  -8   0 2301.63 103.862   5
  -3   8   0 2248.17 116.741   2
   3  -8   1 834.601 71.8477   3
  -3   8  -1 539.982 59.8380   2
   3  -8   2 653.227 46.5715   5
   3  -8   2 672.855 64.2403   3
   3  -8   3 13258.4 164.678   5
   3  -8   3 13323.2 266.637   3
  -3   8  -3 13198.0 180.066   4
  -3   8  -4 424.570 40.1261   4
   3  -8   4 427.743 56.4153   3
   3  -8   5 43861.8 493.856   3
  -3   8  -5 44291.6 410.675   4
   3  -8   6 10336.2 247.669   3
  -3   8  -6 10493.4 214.604   4
   3  -8   7 1606.10 104.153   3
  -3   8  -7 1417.15 86.5713   4
   3  -8   8 3305.52 151.138   3
  -3   8  -8 3099.61 134.921   4
  -3   8  -9 82.3959 34.4760   4
  -3   8 -10 55.3516 29.2766   4
  -3   8 -11 1295.16 107.388   4
   3  -7  -6 1747.39 128.181   5
  -3   7   6 1736.40 121.284   2
   3  -7  -5 3527.84 170.369   5
  -3   7   5 3821.79 168.343   2
   3  -7  -4 1075.28 89.6343   5
  -3   7   4 956.205 83.1067   2
  -3   7   3 4304.61 164.189   2
   3  -7  -3 4334.78 165.368   5
  -3   7   2 46952.2 512.290   2
   3  -7  -2 45130.3 484.751   5
  -3   7   1 287.380 47.0267   2
   3  -7  -1 295.430 41.3639   5
  -3   7   0 587.108 60.0109   2
   3  -7   0 613.814 51.3163   5
   3  -7   1 240.172 32.2956   5
   3  -7   1 288.559 42.4806   3
  -3   7  -1 230.806 39.8218   2
   3  -7   2 1348.94 57.3917   5
   3  -7   2 1327.12 80.1810   3
  -3   7  -2 1276.65 52.5476   4
   3  -7   3 6631.83 100.801   5
   3  -7   3 6433.42 171.623   3
  -3   7  -3 6350.29 129.631   4
   3  -7   4 40819.8 436.982   3
  -3   7  -4 41293.4 364.328   4
   3  -7   5 12424.1 246.663   3
  -3   7  -5 12712.8 220.205   4
   3  -7   6 695.589 66.0896   3
  -3   7  -6 742.329 60.4771   4
  -3   7  -7 259.361 42.2645   4
   3  -7   7 320.862 51.4275   3
  -3   7  -8 1137.52 84.7676   4
  -3   7  -9 2116.43 120.670   4
  -3   7 -10 38.3631 33.7224   4
  -3   7 -11 31.7568 32.2705   4
   3  -6  -7-63.0175 50.8094   5
  -3   6   7-1.85866 33.1436   2
   3  -6  -6 333.439 59.4623   5
  -3   6   6 391.856 56.4034   2
   3  -6  -5 2853.11 144.158   5
  -3   6   5 2830.65 135.060   2
   3  -6  -4 69359.9 646.413   5
  -3   6   4 68730.5 628.051   2
   3  -6  -3 54.0024 30.6002   5
  -3   6   3 120.958 37.2496   2
  -3   6   2 791.389 65.8256   2
   3  -6  -2 807.172 63.8408   5
  -3   6   1 504.161 50.5872   2
   3  -6  -1 549.271 49.2186   5
  -3   6   0 1852.01 93.3553   2
   3  -6   0 1864.33 77.1899   5
   3  -6   0 1536.01 27.6168   6
   3  -6   0 1537.40 26.2461   6
   3  -6   0 1720.43 48.7416   4
   3  -6   1 15770.1 195.338   5
  -3   6  -1 16239.6 170.785   4
   3  -6   1 15679.0 245.000   3
  -3   6  -2 9181.97 142.969   4
   3  -6   2 9287.55 126.568   5
   3  -6   2 9008.21 185.648   3
   3  -6   3 394.625 44.9440   3
  -3   6  -3 329.974 33.2575   4
  -3   6  -4 558.890 46.4110   4
   3  -6   4 456.299 48.6828   3
  -3   6  -4 453.399 20.4516   6
  -3   6  -5 3660.75 118.613   4
   3  -6   5 3675.94 128.009   3
   3  -6   6 2215.73 104.651   3
  -3   6  -6 2186.18 100.215   4
  -3   6  -7 5964.16 172.536   4
  -3   6  -8 605.621 64.8482   4
  -3   6  -9 3117.35 143.106   4
  -3   6 -10 32.1172 30.6330   4
  -3   6 -11 158.722 45.4235   4
   3  -5  -8 3007.35 166.409   5
  -3   5   8 2895.01 152.755   2
   3  -5  -7 996.956 94.3511   5
  -3   5   7 1147.24 93.8554   2
   3  -5  -6 1163.64 95.4148   5
  -3   5   6 1182.19 88.9934   2
   3  -5  -5 451.207 62.5197   5
  -3   5   5 665.015 65.3018   2
   3  -5  -4 968.290 75.6849   5
  -3   5   4 965.648 72.6191   2
  -3   5   3 10276.5 213.629   2
   3  -5  -3 10285.9 214.800   5
  -3   5   2 3275.98 116.348   2
   3  -5  -2 3172.50 109.693   5
   3  -5  -2 3078.25 63.7663   4
  -3   5   1 12272.1 214.297   2
   3  -5  -1 12044.8 191.768   5
   3  -5  -1 11922.9 131.861   4
   3  -5  -1 12324.7 121.186   6
  -3   5   0 8912.34 181.428   2
   3  -5   0 8676.89 145.461   5
   3  -5   0 8437.85 117.566   4
   3  -5   1 53716.6 312.875   5
  -3   5  -1 53929.3 323.451   4
   3  -5   1 53651.8 408.471   3
   3  -5   2 13943.2 130.004   5
   3  -5   2 13284.7 205.549   3
  -3   5  -2 13927.5 179.064   4
   3  -5   3 16977.0 236.470   3
  -3   5  -3 17049.6 216.899   4
  -3   5  -3 15989.6 98.6864   6
  -3   5  -4 14832.5 146.730   6
   3  -5   4 14957.9 231.284   3
  -3   5  -4 14976.0 221.026   4
   3  -5   5 13011.7 226.836   3
  -3   5  -5 12911.2 221.106   4
  -3   5  -6 2973.47 116.061   4
  -3   5  -7 9648.37 219.345   4
  -3   5  -8 3730.88 145.962   4
  -3   5  -9 240.123 48.3816   4
  -3   5 -10 209.416 45.9286   4
  -3   5 -11 1012.73 94.5463   4
   3  -4  -9 2030.45 139.440   5
  -3   4   9 1808.60 120.466   2
   3  -4  -8 2772.53 151.372   5
  -3   4   8 2575.25 133.861   2
   3  -4  -7 1020.03 89.2159   5
  -3   4   7 1109.51 84.3663   2
  -3   4   6 29.4261 22.7654   2
   3  -4  -6 95.9897 38.0717   5
  -3   4   5 407.931 48.8475   2
   3  -4  -5 362.394 49.0201   5
   3  -4  -4 9942.97 209.534   5
  -3   4   4 10200.0 203.787   2
  -3   4   3 1134.27 66.6977   2
   3  -4  -3 1212.05 68.8128   5
  -3   4   2 472.081 43.0706   2
   3  -4  -2 476.240 40.9305   5
   3  -4  -2 402.278 27.7583   6
   3  -4  -2 461.193 28.8549   4
  -3   4   1 42341.0 360.740   2
   3  -4  -1 42170.5 324.862   5
  -3   4   1 42300.0 355.034   1
   3  -4  -1 40553.4 259.170   4
   3  -4  -1 42357.6 206.135   6
   3  -4   0 24609.3 219.604   5
  -3   4   0 24440.9 206.394   4
  -3   4   0 23818.5 267.497   1
  -3   4   0 24428.7 272.485   2
  -3   4  -1 25115.6 272.095   1
   3  -4   1 25419.1 251.434   3
  -3   4  -1 24927.0 225.829   4
  -3   4  -2 60048.6 180.778   6
   3  -4   2 62048.2 396.763   3
  -3   4  -2 62868.1 429.567   1
  -3   4  -2 62752.2 385.954   4
  -3   4  -2 60020.8 168.314   6
   3  -4   3 50070.6 374.097   3
  -3   4  -3 50383.5 375.147   4
  -3   4  -3 51467.8 387.609   1
  -3   4  -3 49959.6 253.368   6
   3  -4   4 6289.28 141.575   3
  -3   4  -4 6089.44 142.449   4
  -3   4  -5 20743.2 278.623   4
  -3   4  -6 7818.47 183.675   4
  -3   4  -7 7598.55 119.913   5
  -3   4  -7 7592.30 194.257   4
  -3   4  -8 5430.91 175.733   4
  -3   4  -9 688.515 69.6103   4
  -3   4 -10 335.968 56.2026   4
  -3   4 -11 532.760 70.1766   4
  -3   3  10 356.016 58.6972   2
  -3   3   9 2503.48 134.142   2
   3  -3  -9 2422.07 142.598   5
  -3   3   8 11.1673 25.0584   2
   3  -3  -8-35.1284 30.3849   5
   3  -3  -7 1305.30 92.5917   5
  -3   3   7 1317.29 85.7434   2
   3  -3  -6 2905.33 126.518   5
  -3   3   6 2935.86 116.869   2
   3  -3  -5 461.249 49.3413   5
  -3   3   5 463.127 46.4580   2
  -3   3   4 291.562 35.2408   2
   3  -3  -4 267.668 37.0050   5
  -3   3   4 220.799 27.8955   1
  -3   3   3 13205.9 185.791   1
  -3   3   3 13454.2 201.472   2
   3  -3  -3 13714.7 209.999   5
  -3   3   2 14741.3 195.185   1
  -3   3   2 14927.1 200.681   2
   3  -3  -2 14513.6 151.705   6
  -3   3   2 14511.6 163.517   6
  -3   3   1 16753.9 206.042   2
   3  -3  -1 17077.5 127.706   6
  -3   3   1 16679.3 136.992   6
  -3   3   1 16880.6 210.739   1
  -3   3   0 18294.0 185.991   4
  -3   3   0 18057.7 109.315   6
  -3   3   0 18336.6 216.050   1
   3  -3   1 51013.3 311.679   3
  -3   3  -1 50727.4 325.836   4
  -3   3  -1 51696.6 361.761   1
  -3   3  -1 51065.3 181.739   6
  -3   3  -2 15912.0 196.942   4
   3  -3   2 16021.3 185.902   3
  -3   3  -2 16496.2 205.162   1
  -3   3  -3 58164.7 382.821   1
   3  -3   3 58156.2 243.938   5
   3  -3   3 58736.6 376.933   3
  -3   3  -3 57871.5 406.000   4
  -3   3  -4 10305.2 184.080   4
  -3   3  -4 10291.2 160.236   1
   3  -3   4 10471.9 113.608   5
  -3   3  -5 3624.77 118.175   4
  -3   3  -5 3572.20 79.2417   5
   3  -3   5 3576.01 75.1537   5
  -3   3  -5 3636.27 96.9743   1
  -3   3  -6 6199.59 117.547   5
  -3   3  -6 6419.62 168.087   4
  -3   3  -7 2176.45 79.0978   5
  -3   3  -7 2286.78 109.062   4
  -3   3  -8 6720.30 151.876   5
  -3   3  -8 6746.03 195.710   4
  -3   3  -9 386.937 55.4678   4
  -3   3 -10 39.6216 29.8813   4
  -3   3 -11 822.917 87.5054   4
   3  -2 -10 920.186 91.2633   5
   3  -2  -9 266.622 51.6793   5
   3  -2  -8 175.098 42.1824   5
   3  -2  -7 1536.85 94.5966   5
   3  -2  -6 1274.43 79.7535   5
  -3   2   6 1209.16 53.0321   1
  -3   2   5 8235.87 138.371   1
  -3   2   5 8924.37 172.707   2
   3  -2  -5 8647.80 186.093   5
  -3   2   5 8627.04 182.376   6
  -3   2   4 10693.5 172.250   2
  -3   2   4 10486.3 180.963   6
  -3   2   4 10571.9 158.442   1
  -3   2   3 7383.71 132.722   2
  -3   2   3 7268.95 129.163   1
  -3   2   3 7219.99 129.619   6
  -3   2   2 88.9921 17.1089   6
  -3   2   2 87.9293 20.0451   1
   3  -2  -2 70.4978 13.1816   6
  -3   2   2 135.261 21.4883   2
  -3   2   1 9102.42 134.128   2
  -3   2   1 9087.80 144.235   1
   3  -2  -1 9118.91 100.530   6
  -3   2   1 8973.69 104.378   6
  -3   2   0 2018.95 68.8327   1
  -3   2   0 1977.98 64.1477   4
   3  -2   0 1984.47 52.2908   3
  -3   2   0 1860.26 44.2717   6
  -3   2  -1 17331.3 142.644   6
  -3   2  -1 17571.5 198.779   1
   3  -2   1 17870.3 160.141   3
  -3   2  -1 17402.4 193.937   4
   3  -2   2 18239.5 162.630   5
   3  -2   2 18231.4 176.243   3
  -3   2  -2 17812.0 199.520   1
  -3   2  -2 17849.4 170.429   3
  -3   2  -2 17943.2 212.683   4
   3  -2   3 1567.02 51.6904   5
  -3   2  -3 1448.52 57.4508   1
  -3   2  -3 1548.39 68.9387   4
  -3   2  -4 70.3290 24.7006   4
  -3   2  -4 97.3479 18.0310   5
  -3   2  -4 68.0722 16.5314   1
  -3   2  -5 456.780 35.1529   5
  -3   2  -5 460.888 46.6476   4
  -3   2  -5 430.190 32.6355   1
  -3   2  -6 11042.1 183.396   5
  -3   2  -6 11165.4 154.722   1
  -3   2  -6 11195.2 221.943   4
  -3   2  -7 4920.97 135.477   5
  -3   2  -7 4901.64 157.645   4
  -3   2  -8 1318.31 77.7361   5
  -3   2  -8 1290.34 89.2369   4
  -3   2  -9 853.506 78.4391   4
  -3   2 -10 1.35133 30.4800   4
  -3   2 -11 1820.20 125.339   4
   3  -1 -11 290.760 58.3572   5
   3  -1 -10 51.2458 32.7856   5
   3  -1  -9 7740.32 226.561   5
   3  -1  -8 421.010 53.6817   5
  -3   1   7 897.991 71.5518   6
   3  -1  -7 827.745 66.3278   5
  -3   1   7 804.080 39.9630   1
  -3   1   6 2411.78 71.7402   1
  -3   1   6 2355.77 103.595   6
  -3   1   5 147.566 20.6646   1
  -3   1   5 207.726 31.8233   6
  -3   1   4 8980.93 141.368   1
  -3   1   4 9426.14 142.904   2
  -3   1   4 9597.89 166.986   6
  -3   1   3 2111.55 61.5745   2
  -3   1   3 2135.15 69.9074   6
   3  -1  -2 525.333 30.6620   6
  -3   1   2 608.351 31.8519   2
   3  -1  -2 512.898 29.2604   2
  -3   1   2 537.797 33.3988   6
   3  -1  -1 32683.2 210.644   2
  -3   1   1 32685.5 216.854   6
   3  -1  -1 32384.7 210.195   6
   3  -1   0 3662.35 52.8149   3
  -3   1   0 3670.45 89.0921   4
  -3   1   0 3510.40 70.8189   6
  -3   1  -1 3223.42 54.8360   3
   3  -1   1 3273.92 77.4905   5
  -3   1  -1 3036.53 83.9900   4
  -3   1  -2 20.5849 11.3874   3
  -3   1  -2 17.9515 18.2352   4
  -3   1  -3 6428.92 137.406   4
  -3   1  -3 6797.33 125.276   5
  -3   1  -3 6387.63 114.488   1
  -3   1  -4 3099.76 92.4780   5
  -3   1  -4 3039.98 79.8505   1
  -3   1  -4 3078.69 102.883   4
  -3   1  -5 1737.63 77.1186   5
  -3   1  -5 1810.15 60.5891   1
  -3   1  -5 1819.82 87.0958   4
  -3   1  -6 9904.36 195.501   5
  -3   1  -6 10039.3 213.294   4
  -3   1  -6 10112.1 135.109   1
  -3   1  -7 1892.95 94.8557   5
  -3   1  -7 1901.99 101.472   4
  -3   1  -8 187.304 41.0145   4
  -3   1  -8 176.836 38.2019   5
  -3   1  -9 1981.09 111.322   5
  -3   1  -9 1949.08 114.745   4
  -3   1 -10 937.282 87.0663   4
   3   0 -12 349.022 57.2093   4
   3   0 -12 503.941 73.9974   5
   3   0 -11 2855.82 149.832   5
   3   0 -10 4448.97 175.324   5
   3   0  -9 2043.35 113.480   5
   3   0  -8 1653.31 93.0928   5
  -3   0   8 1449.01 95.5538   6
  -3   0   7 125.106 18.8413   1
  -3   0   7 100.929 28.4350   6
  -3   0   6 2058.25 93.7148   6
  -3   0   5 2502.69 94.0503   6
  -3   0   4 7202.88 141.039   6
  -3   0   4 7112.24 106.973   2
  -3   0   3 6126.01 117.022   6
  -3   0   3 6176.77 85.0096   2
   3   0  -2 78544.0 257.267   2
  -3   0   2 77126.8 381.950   6
  -3   0   1 27093.0 215.142   6
   3   0  -1 27089.9 164.092   2
  -3   0   0 4590.39 102.332   4
  -3   0   0 4736.00 94.3719   6
  -3   0  -1 5834.90 70.0460   3
  -3   0  -1 5781.30 117.540   4
  -3   0  -2 2334.06 79.1647   5
  -3   0  -2 2340.64 79.6892   4
  -3   0  -3 14204.9 204.490   5
  -3   0  -3 14074.9 205.987   4
  -3   0  -4 21.4389 19.7702   4
  -3   0  -4 77.3371 24.4481   5
  -3   0  -5 418.631 29.8006   1
  -3   0  -5 399.788 43.9745   4
  -3   0  -5 356.641 43.4515   5
  -3   0  -6 19787.0 301.064   5
  -3   0  -6 19632.2 297.112   4
  -3   0  -7 3723.01 142.272   5
  -3   0  -7 3533.32 136.156   4
  -3   0  -8-2.66578 24.8373   4
  -3   0  -8 36.4343 28.8133   5
  -3   0  -9 137.610 41.2134   4
  -3   0  -9 151.566 44.3321   5
  -3   0 -10 2485.36 135.451   4
   3   1 -12 1438.41 108.536   5
   3   1 -11 2824.27 142.824   5
  -3  -1  10 1429.64 109.439   6
   3   1 -10 1440.80 96.9678   5
   3   1  -9 7596.29 201.880   5
  -3  -1   9 7442.46 224.203   6
  -3  -1   8-9.69013 36.1524   6
  -3  -1   7-11.3937 28.8660   6
  -3  -1   6 5368.84 149.193   6
  -3  -1   5 4456.02 123.270   6
  -3  -1   4 689.765 46.5321   6
  -3  -1   4 698.108 27.5563   2
  -3  -1   3 19895.5 105.784   2
  -3  -1   3 20555.4 221.303   6
   3   1  -2 19373.7 110.555   3
  -3  -1   2 19498.8 204.758   6
  -3  -1   1 65.7508 19.2259   6
  -3  -1   0 11575.5 162.546   4
  -3  -1   0 11425.2 161.302   6
  -3  -1  -1 642.739 42.0088   4
  -3  -1  -2 135.347 25.1840   4
  -3  -1  -2 133.930 27.3619   5
  -3  -1  -3 2264.34 91.7426   5
  -3  -1  -3 2512.13 88.5338   4
  -3  -1  -4 7719.30 179.968   5
  -3  -1  -4 7600.76 163.251   4
  -3  -1  -5 9707.43 215.427   5
  -3  -1  -5 9824.59 198.681   4
  -3  -1  -6 3830.26 145.678   5
  -3  -1  -6 3903.69 134.422   4
  -3  -1  -7 52.9642 27.6764   4
  -3  -1  -7 131.845 42.6683   5
  -3  -1  -8 36.4422 24.8376   4
  -3  -1  -8 48.9171 31.0345   5
  -3  -1  -9 2904.39 152.559   5
  -3  -1  -9 2720.08 134.518   4
   3   2 -13 212.549 50.1839   5
   3   2 -12 55.7522 32.9667   5
   3   2 -11 9270.98 244.252   5
  -3  -2  11 9909.75 291.038   6
   3   2 -10 2416.28 118.334   5
  -3  -2  10 2540.61 140.941   6
  -3  -2   9 95.4647 31.5154   6
  -3  -2   8 44.1660 28.0068   6
  -3  -2   7 200.308 38.0761   6
  -3  -2   6 24756.4 310.737   6
  -3  -2   5 12250.7 202.837   6
  -3  -2   4 149.147 8.62141   2
  -3  -2   4 210.682 30.6272   6
   3   2  -4 186.453 22.4898   3
   3   2  -3 8350.62 102.585   3
  -3  -2   3 8658.17 151.697   6
  -3  -2   2 2430.83 79.4153   6
  -3  -2   1 25221.5 136.714   3
  -3  -2   1 25583.4 252.511   6
  -3  -2   0 51839.3 374.878   6
  -3  -2  -1 10332.9 189.593   5
  -3  -2  -1 10387.6 165.323   4
  -3  -2  -2 5954.01 151.479   5
  -3  -2  -2 6084.93 131.850   4
  -3  -2  -3 2127.74 96.3910   5
  -3  -2  -3 2161.85 83.6849   4
  -3  -2  -4 16251.9 283.284   5
  -3  -2  -4 16075.4 239.589   4
  -3  -2  -5 195.770 33.8177   4
  -3  -2  -5 168.884 41.7699   5
  -3  -2  -6 2093.08 98.9208   4
  -3  -2  -6 2101.03 118.277   5
  -3  -2  -7 73.4967 25.4393   4
  -3  -2  -7 104.478 41.9171   5
  -3  -2  -8 74.5613 38.7366   5
   3   3 -13 217.403 46.4048   5
   3   3 -12 641.969 71.1884   5
  -3  -3  12 889.298 98.4285   6
   3   3 -11 1595.57 99.2104   5
  -3  -3  11 1448.38 113.482   6
  -3  -3  10 1523.49 108.313   6
  -3  -3   9 750.430 73.3629   6
  -3  -3   8 3993.71 148.479   6
  -3  -3   7 5649.90 161.828   6
  -3  -3   6 24033.9 309.248   6
  -3  -3   5 21940.4 278.508   6
  -3  -3   4 10583.5 183.091   6
  -3  -3   3 4346.78 81.8830   3
   3   3  -3 4077.22 77.3601   3
  -3  -3   3 4204.89 111.922   6
   3   3  -2 74824.8 236.909   2
  -3  -3   2 74533.4 319.008   3
  -3  -3   2 75549.0 460.183   6
  -3  -3   1 91083.2 348.451   3
  -3  -3   1 91010.6 518.234   6
  -3  -3   0 13714.8 226.217   5
  -3  -3   0 13964.4 212.492   6
  -3  -3  -1 1890.08 90.7661   5
  -3  -3  -1 1850.16 70.8296   4
  -3  -3  -2 559.506 54.3408   5
  -3  -3  -2 638.788 45.4656   4
  -3  -3  -3 75.1471 22.1861   4
  -3  -3  -3-46.3871 39.2471   5
  -3  -3  -4 22799.6 359.254   5
  -3  -3  -4 22891.4 288.902   4
  -3  -3  -5 457.643 62.5303   5
  -3  -3  -5 430.110 45.0238   4
  -3  -3  -6 1245.12 104.152   5
  -3  -3  -7 2211.68 138.020   5
   3   4 -13 255.520 48.4438   5
   3   4 -12 1781.97 107.359   5
  -3  -4  12 1933.01 137.910   6
  -3  -4  11 360.275 59.3071   6
  -3  -4  10 1195.98 94.2379   6
  -3  -4   9 151.552 40.7089   6
  -3  -4   8 5811.10 177.766   6
  -3  -4   7 23035.9 327.606   6
  -3  -4   6 36586.4 381.998   6
  -3  -4   5 345.013 40.9667   6
  -3  -4   5 334.066 14.9169   2
  -3  -4   4 55808.6 356.973   3
  -3  -4   4 57470.1 442.263   6
  -3  -4   3 13539.2 164.446   3
  -3  -4   3 13884.6 212.377   6
   3   4  -2 45698.1 243.409   2
  -3  -4   2 45069.2 295.793   3
  -3  -4   2 45810.4 384.257   6
  -3  -4   1 16601.2 182.944   3
   3   4  -1 16116.6 174.093   2
  -3  -4   1 17236.7 242.860   6
  -3  -4   0 724.139 61.2967   5
  -3  -4   0 736.422 55.7329   6
  -3  -4  -1 9168.49 211.521   5
  -3  -4  -2 26.8435 29.4634   5
  -3  -4  -3 2044.74 112.380   5
  -3  -4  -3 2092.65 83.3787   4
  -3  -4  -4 94.1803 25.6638   4
  -3  -4  -4 24.5064 28.2800   5
  -3  -4  -5 1.68800 30.9895   5
  -3  -4  -6-16.0549 33.9221   5
  -3  -5  12 5860.62 232.407   6
  -3  -5  11 108.645 36.6293   6
  -3  -5  10 38.2614 30.7697   6
  -3  -5   9 12.5407 26.9037   6
  -3  -5   8 9989.21 233.568   6
  -3  -5   7 42752.1 450.562   6
  -3  -5   6 10423.6 213.237   6
  -3  -5   5-6.18681 29.4101   6
  -3  -5   5 72.4871 22.7061   3
  -3  -5   4 65.7797 24.6249   6
  -3  -5   4 108.017 21.4861   3
  -3  -5   3 24402.5 248.967   3
  -3  -5   3 24215.5 298.991   6
   3   5  -3 24876.7 194.331   2
   3   5  -2 14688.8 167.686   2
  -3  -5   2 14686.5 191.579   3
  -3  -5   2 14690.2 233.517   6
   3   5  -1 62114.7 386.062   2
  -3  -5   1 62481.6 496.521   6
  -3  -5   0 69485.7 593.740   5
   3   5   0 68066.2 450.328   2
  -3  -5   0 70469.6 547.918   6
  -3  -5  -1 3031.91 133.637   5
  -3  -5  -1 3210.07 124.218   6
  -3  -5  -2 2308.08 123.119   5
  -3  -5  -3 7791.73 231.393   5
  -3  -5  -4 716.590 80.8084   5
  -3  -5  -5 6.20213 31.0021   5
  -3  -6  12 115.613 42.3132   6
  -3  -6  11 1021.20 94.1864   6
  -3  -6  10-21.7617 40.8773   6
  -3  -6   9 21420.4 365.307   6
  -3  -6   8 10917.4 246.705   6
  -3  -6   7 13688.6 258.596   6
  -3  -6   6 1161.70 70.9856   3
  -3  -6   6 1283.62 80.5110   6
  -3  -6   5 593.649 49.1934   3
  -3  -6   5 573.872 52.4640   6
  -3  -6   4 432.842 46.3605   6
  -3  -6   4 478.912 44.2682   3
   3   6  -3 9179.03 142.607   2
  -3  -6   3 8852.24 167.434   3
  -3  -6   3 8923.24 193.029   6
   3   6  -2 19002.5 221.400   2
  -3  -6   2 18635.9 281.772   6
  -3  -6   2 18783.4 245.410   3
  -3  -6   1 13283.7 212.358   3
   3   6  -1 13236.1 201.091   2
  -3  -6   1 13334.5 247.083   6
   3   6   0 4509.86 128.741   2
  -3  -6   0 4415.29 164.340   5
  -3  -6   0 4942.80 159.320   6
   3   6   1 279.475 38.2925   2
  -3  -6  -1 303.088 45.3812   6
  -3  -6  -1 303.599 54.5095   5
  -3  -6  -2 1413.48 103.931   5
   3   6   2 1417.43 86.1743   2
  -3  -6  -3 466.420 69.7022   5
  -3  -6  -4 5719.62 224.396   5
  -3  -7  12 88.0955 37.1227   6
  -3  -7  11 475.705 66.3745   6
  -3  -7  10 12547.1 299.627   6
  -3  -7   9 18632.3 344.745   6
  -3  -7   8 6375.30 192.388   6
  -3  -7   7 3887.76 136.913   3
  -3  -7   7 4067.36 148.091   6
  -3  -7   6 742.081 61.3253   3
  -3  -7   6 758.599 63.5111   6
  -3  -7   5 5757.86 153.919   3
  -3  -7   5 5849.48 167.330   6
  -3  -7   4 6595.35 161.186   3
  -3  -7   4 6798.74 178.038   6
   3   7  -3 1574.25 68.6838   2
  -3  -7   3 1621.03 81.3285   3
  -3  -7   3 1420.81 83.7905   6
   3   7  -2 1894.88 79.6288   2
  -3  -7   2 1947.77 89.8486   3
  -3  -7   2 1998.67 100.942   6
  -3  -7   1 4986.12 144.621   3
   3   7  -1 5029.60 137.768   2
  -3  -7   1 5267.78 165.507   6
   3   7   0 1159.95 72.3566   2
  -3  -7   0 1012.37 88.4607   5
  -3  -7   0 1275.68 87.3247   6
  -3  -7  -1 1450.56 109.468   5
   3   7   1 1476.03 86.9171   2
  -3  -7  -1 1498.72 98.4529   6
  -3  -7  -2 17450.5 381.342   5
   3   7   2 17233.8 313.104   2
  -3  -7  -2 17621.3 343.270   6
  -3  -7  -3 278.593 52.6372   6
   3   7   3 265.470 46.2763   2
  -3  -7  -3 235.370 56.9257   5
   3   7   4 666.366 73.9512   2
  -3  -8  12 837.907 91.4917   6
  -3  -8  11 228.126 51.6546   6
  -3  -8  10-1.44245 28.0195   6
  -3  -8   9 1453.70 102.352   6
  -3  -8   8 501.899 59.1063   6
  -3  -8   7 1269.25 84.1471   3
  -3  -8   7 1387.93 92.4967   6
  -3  -8   6 5605.55 166.999   3
  -3  -8   6 5823.00 178.176   6
  -3  -8   5 5218.62 158.236   3
  -3  -8   5 5314.85 168.373   6
  -3  -8   4 821.959 64.4398   3
  -3  -8   4 720.286 64.6866   6
  -3  -8   3 2844.72 116.767   3
  -3  -8   3 2835.95 124.344   6
  -3  -8   2 62.0628 26.6293   6
   3   8  -2 41.7691 20.5087   2
  -3  -8   2 24.1508 20.8176   3
   3   8  -1 1262.47 77.0145   2
  -3  -8   1 1192.89 78.9105   3
  -3  -8   1 1307.71 90.0384   6
  -3  -8   0 7001.60 235.607   5
   3   8   0 6830.26 186.355   2
  -3  -8   0 6952.44 209.363   6
  -3  -8  -1 117.542 42.5484   5
  -3  -8  -1 105.296 38.4355   6
   3   8   1 56.6543 26.7571   2
  -3  -8  -2 649.506 76.5802   6
   3   8   2 485.292 58.9060   2
   3   8   3 2373.27 132.012   2
  -3  -9  12 183.433 52.2616   6
  -3  -9  11 1164.76 101.310   6
  -3  -9  10 93.6846 33.8870   6
  -3  -9   9 988.543 86.5854   6
  -3  -9   8 1299.27 92.3997   3
  -3  -9   8 1422.36 96.9057   6
  -3  -9   7 2020.04 109.701   3
  -3  -9   7 2134.22 115.971   6
  -3  -9   6 257.807 43.8251   6
  -3  -9   6 269.171 43.9914   3
  -3  -9   5 5455.09 174.140   3
  -3  -9   5 5493.52 179.782   6
  -3  -9   4 42.8482 26.4523   6
  -3  -9   4 39.8869 25.0303   3
  -3  -9   3 1099.57 80.2093   3
  -3  -9   3 1072.58 83.3822   6
  -3  -9   2 7954.38 211.546   3
  -3  -9   2 8139.47 226.143   6
  -3  -9   1-7.81124 28.2113   6
  -3  -9   0 122.180 37.2539   6
  -3 -10  11 727.401 83.4041   6
  -3 -10  10 2468.34 142.110   6
  -3 -10   9 69.2295 33.9339   6
  -3 -10   8 107.410 34.2859   6
  -3 -10   8 140.294 36.7730   3
  -3 -10   7 1265.23 93.9725   3
  -3 -10   7 1376.96 97.7546   6
  -3 -10   6 2464.57 126.757   3
  -3 -10   6 2428.96 126.912   6
  -3 -10   5 769.497 72.9854   3
  -3 -10   5 747.925 72.2320   6
  -3 -10   4 4203.33 161.550   3
  -3 -10   4 4021.29 162.740   6
  -3 -10   3 546.847 64.3043   6
  -3 -10   2 583.627 68.3758   6
  -3 -10   1 2782.84 143.826   6
  -3 -11  10 557.305 70.8341   6
  -3 -11   9 2876.55 151.850   3
  -3 -11   9 2877.40 150.430   6
  -3 -11   8 2693.55 144.097   3
  -3 -11   8 2797.21 144.753   6
  -3 -11   7 59.2980 32.5288   6
  -3 -11   7 33.9147 32.4845   3
  -3 -11   6-48.7090 37.2059   6
  -3 -11   5 1141.94 92.6692   6
  -3 -11   4 2366.48 131.462   6
   4 -11   2 302.054 57.3337   3
   4 -11   3 959.726 93.5231   3
   4 -11   4 2545.09 147.829   3
   4 -11   5 1048.73 99.4012   3
   4 -11   6 2807.12 156.553   3
   4 -11   7 1179.20 104.605   3
   4 -11   8 718.557 86.2477   3
  -4  11 -10 1211.90 101.905   4
   4 -10  -2 111.074 42.2951   5
  -4  10   1 914.544 92.7162   2
   4 -10   0 530.577 69.9118   3
  -4  10   0 444.489 67.4641   2
   4 -10   1 1504.29 110.672   3
   4 -10   2 666.227 76.1030   3
   4 -10   3 359.745 59.6208   3
   4 -10   4 1660.58 113.586   3
   4 -10   5 2146.65 131.254   3
   4 -10   6 2796.70 147.355   3
  -4  10  -7 40.8962 25.4133   4
   4 -10   7 27.3978 30.8798   3
   4 -10   8 675.000 81.7305   3
  -4  10  -8 731.485 72.3223   4
  -4  10  -9 804.399 80.6512   4
  -4  10 -10 3038.39 159.376   4
   4  -9  -4 50.9417 35.5257   5
   4  -9  -3 205.761 49.2326   5
  -4   9   3 157.320 47.9198   2
  -4   9   2 1510.47 112.600   2
   4  -9  -2 1476.99 104.240   5
   4  -9  -1 72.7747 34.7344   5
  -4   9   1-84.7664 49.0630   2
   4  -9   0 1829.21 98.8515   5
   4  -9   0 1789.76 112.495   3
  -4   9   0 1674.70 113.338   2
   4  -9   1 217.042 44.8562   3
   4  -9   2 31.8596 33.2271   3
   4  -9   3 156.764 38.1910   3
   4  -9   4 379.655 57.5792   3
  -4   9  -5 533.639 51.1949   4
   4  -9   5 573.917 67.7069   3
   4  -9   6 1335.01 99.7292   3
  -4   9  -6 1535.50 88.1610   4
  -4   9  -7 52.1981 25.3279   4
   4  -9   7 24.6389 32.4755   3
   4  -9   8 916.845 88.8673   3
  -4   9  -8 1096.54 87.7298   4
  -4   9  -9 827.040 81.5581   4
  -4   9 -10 392.258 62.3661   4
   4  -8  -5 666.115 83.4951   5
   4  -8  -4 494.699 67.0229   5
  -4   8   4 498.744 67.9868   2
  -4   8   3 1222.41 98.1047   2
   4  -8  -3 1186.48 94.6948   5
  -4   8   2 4018.56 167.986   2
   4  -8  -2 3815.01 152.717   5
  -4   8   1 1720.10 108.797   2
   4  -8  -1 1691.86 95.7288   5
   4  -8   0 90.7348 30.3695   5
  -4   8   0-60.2071 43.2903   2
   4  -8   1 1166.72 65.9861   5
   4  -8   1 1192.01 84.9012   3
   4  -8   2 4603.38 160.041   3
   4  -8   3 1552.66 96.0390   3
  -4   8  -3 1572.60 71.7628   4
   4  -8   4 5582.82 177.522   3
  -4   8  -4 5655.52 146.577   4
   4  -8   5 643.363 67.3110   3
  -4   8  -5 697.416 59.9485   4
   4  -8   6 817.204 75.0479   3
  -4   8  -6 869.671 69.4020   4
   4  -8   7 349.441 55.1513   3
  -4   8  -7 369.007 50.7234   4
  -4   8  -8 3499.00 151.938   4
  -4   8  -9 4428.64 179.676   4
  -4   8 -10 1195.88 101.604   4
   4  -7  -6 550.354 76.9037   5
  -4   7   6 428.841 64.7781   2
  -4   7   5 706.586 77.1162   2
   4  -7  -5 680.020 78.3935   5
  -4   7   4 1780.16 113.605   2
   4  -7  -4 1609.13 108.548   5
   4  -7  -3 633.530 66.4466   5
  -4   7   3 530.173 62.6439   2
  -4   7   2 714.725 68.0182   2
   4  -7  -2 828.870 68.6778   5
  -4   7   1 767.592 70.1504   2
   4  -7  -1 777.634 61.6773   5
  -4   7   0 117.354 34.9263   2
   4  -7   0 141.653 28.2469   5
   4  -7   1 211.108 28.7129   5
   4  -7   1 177.140 37.2087   3
   4  -7   2 638.059 39.0724   5
   4  -7   2 716.565 62.7555   3
  -4   7  -2 652.474 44.8557   4
   4  -7   3 1523.78 87.7901   3
  -4   7  -3 1431.81 70.1417   4
  -4   7  -4 1460.71 76.8749   4
   4  -7   4 1462.32 87.5066   3
   4  -7   5 1266.04 84.1007   3
  -4   7  -5 1239.92 76.1115   4
  -4   7  -6 55.2858 26.5074   4
   4  -7   6 28.6417 25.9746   3
  -4   7  -7 345.733 49.2688   4
  -4   7  -8 1197.47 91.0472   4
  -4   7  -9 2749.78 142.473   4
  -4   7 -10 52.2834 41.0087   4
   4  -6  -7 4481.20 201.880   5
  -4   6   7 4554.18 190.038   2
   4  -6  -6 343.578 58.4536   5
  -4   6   6 316.573 52.9239   2
  -4   6   5 3769.73 159.079   2
   4  -6  -5 3874.49 166.622   5
  -4   6   4 2907.32 133.046   2
   4  -6  -4 3051.23 138.547   5
  -4   6   3 3601.89 141.270   2
   4  -6  -3 3513.24 136.675   5
  -4   6   2 9247.27 216.547   2
   4  -6  -2 8997.29 198.938   5
   4  -6  -1 55.3303 23.1803   5
  -4   6   1 52.0123 25.9169   2
   4  -6   0 8148.98 156.840   5
  -4   6   0 8372.06 198.926   2
  -4   6  -1 22.2479 14.6111   4
   4  -6   1 70.4924 18.1562   5
   4  -6   1 55.2823 25.3887   3
   4  -6   2 6571.88 106.745   5
   4  -6   2 6721.31 163.796   3
  -4   6  -2 6470.18 139.473   4
   4  -6   3 19375.9 133.221   5
   4  -6   3 20999.1 292.132   3
  -4   6  -3 20765.5 264.586   4
  -4   6  -4 114.662 28.1795   4
   4  -6   4 150.941 33.4001   3
   4  -6   5 2101.31 99.5926   3
  -4   6  -5 2017.17 96.0334   4
  -4   6  -6 92.9352 28.9596   4
   4  -6   6 81.2995 32.7301   3
  -4   6  -7 4657.03 164.999   4
  -4   6  -8 1929.57 113.436   4
  -4   6  -9 150.260 43.0864   4
  -4   6 -10 53.3640 38.4080   4
   4  -5  -8 334.613 64.3704   5
  -4   5   8 321.038 57.0181   2
   4  -5  -7 1914.34 127.811   5
  -4   5   7 1817.55 114.756   2
   4  -5  -6 3112.41 149.954   5
  -4   5   6 3022.59 139.082   2
   4  -5  -5 223.260 43.3000   5
  -4   5   5 159.842 37.3742   2
  -4   5   4 1185.66 80.0535   2
   4  -5  -4 1322.26 86.0621   5
  -4   5   3 7181.24 183.415   2
   4  -5  -3 7342.40 182.890   5
  -4   5   2 8325.89 189.742   2
   4  -5  -2 8355.04 178.478   5
  -4   5   1 19576.7 284.695   2
   4  -5  -1 19694.9 249.983   5
  -4   5   1 19713.5 281.552   1
   4  -5  -1 19103.4 123.064   6
   4  -5   0 923.448 49.7793   5
  -4   5   0 907.284 62.9550   1
   4  -5   1 8170.50 128.226   5
  -4   5  -1 8216.49 149.604   4
   4  -5   1 8078.84 163.168   3
  -4   5  -1 8306.38 180.721   1
   4  -5   2 25700.1 290.977   3
  -4   5  -2 25848.1 319.126   1
  -4   5  -2 25489.4 277.802   4
   4  -5   3 12454.4 109.985   5
   4  -5   3 12785.6 212.041   3
  -4   5  -3 12513.0 112.499   6
  -4   5  -3 12786.2 209.170   4
  -4   5  -3 13115.3 227.315   1
  -4   5  -3 12802.6 104.427   6
   4  -5   4 113.581 28.9066   3
  -4   5  -4 87.3146 26.9449   4
  -4   5  -4 82.5993 24.0166   1
  -4   5  -5 403.595 45.8560   4
   4  -5   5 573.901 53.2944   3
  -4   5  -6 826.920 66.9267   4
  -4   5  -7 92.4264 34.4095   4
  -4   5  -8 8145.69 228.245   4
  -4   5  -9 1704.98 113.086   4
  -4   5 -10 1628.22 117.523   4
  -4   4   9 5393.53 204.404   2
   4  -4  -8 550.811 74.1734   5
  -4   4   8 488.471 62.2196   2
   4  -4  -7 112.815 39.9144   5
  -4   4   7 99.5616 31.5877   2
   4  -4  -6 119.343 34.1405   5
  -4   4   6 89.1852 30.4979   2
  -4   4   5 1188.72 78.4812   2
   4  -4  -5 1253.55 84.3466   5
  -4   4   4 13822.7 242.824   2
   4  -4  -4 13626.7 249.721   5
  -4   4   4 13545.5 222.980   1
  -4   4   3 50676.2 446.205   2
   4  -4  -3 51222.4 447.000   5
  -4   4   3 51301.6 432.517   1
  -4   4   2 2952.27 105.559   2
  -4   4   2 2948.67 103.712   1
   4  -4  -2 2831.33 67.3974   6
  -4   4   1 1137.42 65.2838   1
  -4   4   1 1134.16 37.5763   6
   4  -4  -1 1168.29 34.0781   6
  -4   4   1 1180.68 66.9525   2
  -4   4   0 32977.9 338.327   1
  -4   4   0 31759.9 150.165   6
  -4   4  -1 27973.1 311.832   1
   4  -4   1 27130.3 267.355   3
  -4   4  -1 27960.3 278.054   4
  -4   4  -1 27114.4 133.448   6
  -4   4  -2 17998.2 247.790   1
   4  -4   2 17270.9 219.466   3
  -4   4  -2 17416.7 231.462   4
  -4   4  -2 17831.8 133.291   6
   4  -4   3 65606.1 290.821   5
  -4   4  -3 65841.4 473.418   1
   4  -4   3 65926.6 443.914   3
  -4   4  -3 65655.0 472.568   4
   4  -4   4 5200.32 132.521   3
   4  -4   4 5026.96 78.0810   5
  -4   4  -4 5378.28 136.641   1
  -4   4  -4 5388.23 145.200   4
  -4   4  -5 23.0080 25.1108   4
  -4   4  -5 19.9466 18.5221   1
  -4   4  -6 2819.20 121.243   4
  -4   4  -7 1665.79 99.3149   4
  -4   4  -8 327.739 51.0549   4
  -4   4  -9 2128.19 124.897   4
  -4   4 -10 3226.60 162.554   4
  -4   3  10 457.172 64.9722   2
   4  -3  -9 4027.23 183.351   5
  -4   3   9 3920.35 163.016   2
   4  -3  -8 2174.02 127.666   5
  -4   3   8 2302.57 118.679   2
  -4   3   7 229.329 40.2215   2
   4  -3  -7 218.450 44.6907   5
  -4   3   6 423.784 48.8638   2
   4  -3  -6 412.119 53.2117   5
  -4   3   6 414.518 39.4802   1
  -4   3   5 38392.9 353.137   1
  -4   3   5 38487.3 393.134   2
   4  -3  -5 37629.3 421.500   5
  -4   3   5 36817.5 391.107   6
  -4   3   4 14546.8 226.883   2
  -4   3   4 14364.7 219.430   6
  -4   3   4 14918.0 224.242   1
  -4   3   3 23610.8 275.890   2
  -4   3   3 24302.4 282.769   1
  -4   3   3 24091.1 248.494   6
  -4   3   2 5755.42 132.871   2
  -4   3   2 5727.80 106.301   6
  -4   3   2 5892.18 139.431   1
  -4   3   1 5021.88 127.096   1
  -4   3   1 5103.92 85.9198   6
   4  -3  -1 5003.03 79.2845   6
  -4   3   0 26657.5 264.640   4
  -4   3   0 27311.1 292.950   1
   4  -3   0 26250.5 232.723   3
  -4   3   0 27113.4 179.336   6
   4  -3   1 164120. 580.955   3
  -4   3  -1 165381. 718.353   1
  -4   3  -1 166064. 687.843   4
  -4   3  -1 166509. 454.987   6
   4  -3   2 3443.96 79.2297   5
   4  -3   2 3379.30 87.8285   3
  -4   3  -2 3505.38 105.281   1
  -4   3  -2 3442.70 105.415   4
  -4   3  -2 3375.53 74.5440   6
  -4   3  -3 936.955 61.2416   4
   4  -3   3 999.528 44.8308   5
  -4   3  -3 1056.70 59.9333   1
  -4   3  -4 133.601 28.8153   4
  -4   3  -4 142.474 26.6175   1
  -4   3  -5 17946.3 236.798   1
  -4   3  -5 18096.6 283.345   4
  -4   3  -6 11972.6 194.354   1
  -4   3  -6 12071.2 246.923   4
  -4   3  -7 4957.07 169.198   4
  -4   3  -8 417.210 58.6268   4
  -4   3  -9 105.482 36.1061   4
  -4   3 -10 3418.78 166.810   4
  -4   2  11 335.306 54.6124   2
  -4   2  10 296.097 50.8226   2
   4  -2 -10 280.167 54.0686   5
   4  -2  -9 3957.98 173.290   5
  -4   2   9 3915.15 154.011   2
  -4   2   8 176.480 35.6945   2
   4  -2  -8 159.702 41.3779   5
  -4   2   7 5858.83 129.654   1
   4  -2  -7 5852.54 182.070   5
  -4   2   7 5721.79 159.960   2
  -4   2   7 5683.24 180.279   6
  -4   2   6 7710.08 172.474   2
  -4   2   6 7716.21 193.360   6
  -4   2   6 7555.14 152.547   1
  -4   2   5 19695.1 254.249   2
  -4   2   5 20360.0 249.387   1
  -4   2   5 20066.0 280.241   6
  -4   2   4 20680.3 244.077   2
  -4   2   4 20757.1 253.245   1
  -4   2   4 21261.6 260.714   6
  -4   2   3 31842.7 284.926   2
  -4   2   3 32514.5 314.456   1
  -4   2   3 32555.6 287.455   6
  -4   2   2 1058.14 52.2537   2
  -4   2   2 1145.73 60.9156   1
  -4   2   2 1043.99 46.8657   6
  -4   2   1 21917.0 253.184   1
  -4   2   1 21353.4 189.081   6
   4  -2  -1 21658.6 188.089   6
  -4   2   0 20220.1 243.280   1
   4  -2   0 20599.7 170.451   3
  -4   2   0 20465.7 236.492   4
  -4   2   0 20233.0 180.283   6
  -4   2  -1 30112.7 295.455   1
   4  -2   1 29873.4 213.321   3
  -4   2  -1 29454.0 293.824   4
  -4   2  -1 29715.7 229.349   6
  -4   2  -2 12657.8 191.707   1
  -4   2  -2 12518.7 143.597   3
  -4   2  -2 12715.9 201.252   4
  -4   2  -3 1651.73 70.5323   1
  -4   2  -3 1602.23 77.6062   4
  -4   2  -4 1130.52 70.1175   4
  -4   2  -4 1268.53 62.3124   1
  -4   2  -5 17068.7 276.537   4
  -4   2  -5 17293.9 226.762   1
  -4   2  -6 85026.9 486.857   1
  -4   2  -6 84090.2 544.702   5
  -4   2  -6 84148.5 648.813   4
  -4   2  -7 347.628 50.8259   4
  -4   2  -7 359.902 43.3013   5
  -4   2  -8 2899.17 137.382   4
  -4   2  -9 602.864 71.5206   4
  -4   2 -10 732.506 82.1256   4
   4  -1 -11 4315.95 191.882   5
  -4   1  11 4333.78 175.337   2
   4  -1 -10 1530.10 111.349   5
  -4   1  10 1510.07 97.7102   2
   4  -1  -9 493.598 62.5373   5
  -4   1   9 473.467 53.7207   2
   4  -1  -8 533.678 59.7062   5
  -4   1   8 523.807 62.3539   6
  -4   1   8 548.734 52.5540   2
  -4   1   7 974.931 54.0686   1
  -4   1   7 1051.76 64.8208   2
  -4   1   7 986.473 75.6318   6
  -4   1   6 10180.9 174.421   1
  -4   1   6 10073.6 179.404   2
  -4   1   6 9988.38 211.207   6
  -4   1   5 6513.94 138.974   1
  -4   1   5 6617.26 132.169   2
  -4   1   5 6689.89 159.513   6
  -4   1   4 186.297 27.4896   6
  -4   1   4 250.626 26.3693   2
  -4   1   3 212326. 735.001   6
  -4   1   3 212903. 645.887   2
  -4   1   2 189284. 642.476   6
   4  -1  -1 2729.37 49.5086   3
  -4   1   1 2654.66 73.7850   6
   4  -1   0 11576.9 94.4542   3
  -4   1   0 11696.5 182.137   4
  -4   1   0 11353.9 151.217   6
  -4   1  -1 938.104 56.2001   4
  -4   1  -1 982.102 48.3630   6
  -4   1  -2 159.389 29.3112   4
  -4   1  -2 130.043 15.5521   3
  -4   1  -3 104.791 26.9167   4
  -4   1  -4 73538.0 451.257   1
  -4   1  -4 74046.6 543.581   4
  -4   1  -5 2943.73 108.025   5
  -4   1  -5 2930.02 90.0880   1
  -4   1  -5 2873.66 119.192   4
  -4   1  -6 73.9832 29.4355   4
  -4   1  -6 18.4270 23.5735   5
  -4   1  -6 15.5958 13.8050   1
  -4   1  -7 3900.96 140.653   5
  -4   1  -7 3886.67 150.497   4
  -4   1  -8 3770.44 146.721   5
  -4   1  -8 3900.75 159.530   4
  -4   1  -9 6892.53 222.353   4
   4   0 -11 2498.42 143.322   5
   4   0 -10 32090.9 471.724   5
  -4   0  10 32356.3 516.744   6
   4   0  -9 318.331 48.0251   5
  -4   0   9 266.165 49.2005   6
  -4   0   8 1525.79 67.3901   1
  -4   0   8 1467.82 96.8750   6
  -4   0   7 4768.02 158.262   6
  -4   0   7 4775.24 122.884   2
  -4   0   6 1535.82 62.7790   2
  -4   0   6 1606.45 85.7671   6
  -4   0   5 2412.68 69.9669   2
  -4   0   5 2449.05 95.6170   6
  -4   0   4 72930.3 474.748   6
  -4   0   4 73087.7 339.173   2
  -4   0   3 110413. 550.121   6
   4   0  -2 41751.7 213.127   2
  -4   0   2 41269.0 317.769   6
  -4   0   1 4139.44 99.7050   6
   4   0  -1 4169.42 76.4239   2
  -4   0   0 8360.29 157.594   4
  -4   0   0 8030.24 140.627   6
  -4   0  -1 31833.6 157.233   3
  -4   0  -1 33098.9 322.045   4
  -4   0  -1 32358.3 296.802   6
  -4   0  -2 3383.20 71.0916   3
  -4   0  -2 3593.29 111.722   4
  -4   0  -3 8378.45 177.024   4
  -4   0  -4 1301.35 76.8385   5
  -4   0  -4 1393.62 78.8806   4
  -4   0  -5 24773.2 340.073   5
  -4   0  -5 24165.0 254.302   1
  -4   0  -5 24354.0 335.705   4
  -4   0  -6 4487.88 154.317   5
  -4   0  -6 4507.42 153.681   4
  -4   0  -7 4919.81 169.945   5
  -4   0  -7 4862.93 170.227   4
  -4   0  -8 536.518 64.4863   5
  -4   0  -8 661.311 69.2667   4
  -4   0  -9 2512.39 135.760   4
   4   1 -12 15468.7 357.184   5
  -4  -1  11 1855.51 132.225   6
   4   1 -11 1825.02 117.438   5
  -4  -1  10 483.701 67.6885   6
  -4  -1   9 261.595 47.1663   6
  -4  -1   8-17.5303 27.1902   6
  -4  -1   7 6471.64 182.886   6
  -4  -1   6 5750.48 104.420   2
  -4  -1   6 5596.74 155.452   6
  -4  -1   5 2162.52 53.8168   2
  -4  -1   5 2272.27 92.6433   6
  -4  -1   4 13697.3 209.096   6
  -4  -1   4 13349.7 107.631   2
   4   1  -3 3793.30 63.7478   3
  -4  -1   3 3843.90 106.649   6
   4   1  -2 1505.48 32.5907   2
  -4  -1   2 1509.88 66.0717   6
  -4  -1   1 15353.9 205.097   6
  -4  -1   0 29215.1 292.416   6
  -4  -1  -1 40777.0 365.452   4
  -4  -1  -2 7472.67 161.874   4
  -4  -1  -3 3835.47 130.446   5
  -4  -1  -3 3617.26 119.346   4
  -4  -1  -4 2906.93 123.065   5
  -4  -1  -4 2623.58 106.947   4
  -4  -1  -5 5087.15 156.299   4
  -4  -1  -5 5278.00 171.103   5
  -4  -1  -6 37.3653 24.3108   4
  -4  -1  -6 108.805 37.7161   5
  -4  -1  -7 2053.55 121.743   5
  -4  -1  -7 2006.90 110.659   4
  -4  -1  -8 629.595 74.7074   5
  -4  -1  -8 738.661 73.3581   4
  -4  -1  -9 18.0298 35.4834   5
   4   2 -12 698.858 78.2020   5
  -4  -2  12 588.449 83.3465   6
  -4  -2  11 6250.42 235.370   6
  -4  -2  10 252.374 50.4776   6
  -4  -2   9 595.241 68.2433   6
  -4  -2   8 17363.8 317.139   6
  -4  -2   7 21173.9 324.086   6
  -4  -2   6 4156.64 71.3099   2
  -4  -2   6 4152.99 134.791   6
  -4  -2   5 390.642 41.9874   6
  -4  -2   5 334.227 13.6574   2
   4   2  -4 9403.85 123.313   3
  -4  -2   4 9529.86 180.970   6
   4   2  -3 2505.29 47.4990   3
  -4  -2   3 2570.96 92.0809   6
  -4  -2   2 297.046 35.0921   6
  -4  -2   1 21951.3 263.908   6
  -4  -2   0 8496.23 172.867   6
  -4  -2  -1 36.9681 22.3640   4
  -4  -2  -2 3348.76 126.618   5
  -4  -2  -2 3354.33 112.696   4
  -4  -2  -3 1865.05 99.4863   5
  -4  -2  -3 1759.94 85.3408   4
  -4  -2  -4 2908.98 132.150   5
  -4  -2  -4 3175.47 119.472   4
  -4  -2  -5 2734.65 134.610   5
  -4  -2  -5 2694.45 115.224   4
  -4  -2  -6 1233.00 98.3434   5
  -4  -2  -6 1390.79 88.6070   4
  -4  -2  -7 73.5009 29.0751   4
  -4  -2  -7 24.5460 32.7555   5
  -4  -2  -8 95.3785 42.3049   5
   4   3 -13 45.2434 32.4839   5
   4   3 -12 3208.96 152.731   5
  -4  -3  12 3305.74 182.873   6
  -4  -3  11 459.092 67.9017   6
  -4  -3  10 91.1232 39.6018   6
  -4  -3   9 8612.15 238.488   6
  -4  -3   8 4124.18 154.140   6
  -4  -3   7 1494.20 90.2442   6
  -4  -3   6 15924.8 86.5965   2
  -4  -3   6 20139.2 294.582   6
  -4  -3   5 13192.9 230.608   6
   4   3  -4 881.487 38.1615   3
  -4  -3   4 927.409 61.6547   6
  -4  -3   3 17188.7 246.565   6
  -4  -3   2 8766.62 95.4056   3
   4   3  -2 8403.32 80.9931   2
  -4  -3   2 9061.41 179.057   6
  -4  -3   1 4091.29 68.8843   3
  -4  -3   1 4172.73 125.105   6
  -4  -3   0 1964.50 90.6552   6
  -4  -3  -1 220.786 37.7029   6
  -4  -3  -2 2064.27 107.623   5
  -4  -3  -2 2115.33 90.5043   4
  -4  -3  -3 1124.95 86.4579   5
  -4  -3  -3 1207.46 73.2206   4
  -4  -3  -4 85.6959 25.4301   4
  -4  -3  -4 109.329 38.0236   5
  -4  -3  -5 89.8064 28.7529   4
  -4  -3  -5 2.75122 33.7410   5
  -4  -3  -6 37.3330 31.0130   5
  -4  -3  -7 1397.70 114.168   5
   4   4 -13 249.428 51.2415   5
  -4  -4  12 498.067 74.4610   6
  -4  -4  11 4238.75 189.399   6
  -4  -4  10 3710.24 168.955   6
  -4  -4   9 3492.36 152.518   6
  -4  -4   8 1244.33 88.0827   6
  -4  -4   7 16631.7 289.907   6
  -4  -4   6 4771.46 149.795   6
  -4  -4   5 39053.3 407.460   6
  -4  -4   4 7514.45 174.578   6
  -4  -4   3 159.118 33.9394   6
  -4  -4   3 151.986 19.2430   3
  -4  -4   2 85.9013 29.4627   6
  -4  -4   2 73.7148 14.2208   3
   4   4  -2 83.4296 12.5657   2
  -4  -4   1 1444.75 52.9318   3
  -4  -4   1 1520.71 81.7655   6
  -4  -4   0 13742.0 251.046   6
  -4  -4  -1 766.706 71.8126   5
  -4  -4  -1 779.695 66.4380   6
  -4  -4  -2 3034.55 140.029   5
  -4  -4  -3 404.845 57.8209   5
  -4  -4  -4 902.098 88.5049   5
  -4  -4  -5 804.129 86.9411   5
  -4  -4  -6 2443.30 151.351   5
  -4  -5  12 2658.23 159.072   6
  -4  -5  11 775.075 84.8960   6
  -4  -5  10 121.017 42.7841   6
  -4  -5   9 8269.80 234.831   6
  -4  -5   8 11454.8 259.373   6
  -4  -5   7 5514.21 172.136   6
  -4  -5   6 4698.81 153.935   6
  -4  -5   5 71.8623 25.8251   6
  -4  -5   4 1368.46 59.6353   3
  -4  -5   4 1277.42 78.8386   6
  -4  -5   3 428.159 49.5865   6
  -4  -5   3 437.323 34.5741   3
   4   5  -3 423.392 23.9420   2
   4   5  -2 13405.7 157.394   2
  -4  -5   2 13497.7 176.670   3
  -4  -5   2 13542.0 247.081   6
   4   5  -1 2725.38 82.2234   2
  -4  -5   1 2712.21 83.7971   3
  -4  -5   1 2781.74 118.321   6
  -4  -5   0 211.247 42.1895   6
  -4  -5  -1 856.563 79.4374   5
  -4  -5  -1 917.128 75.4379   6
  -4  -5  -2 54.0316 31.0603   6
  -4  -5  -2 54.8607 39.0255   5
  -4  -5  -3 2639.72 147.350   5
  -4  -5  -4 1030.31 99.9606   5
  -4  -6  12 2356.68 152.413   6
  -4  -6  11 2130.04 138.807   6
  -4  -6  10 2996.47 152.043   6
  -4  -6   9 3030.63 144.686   6
  -4  -6   8 942.061 78.8628   6
  -4  -6   7 8446.74 219.842   6
  -4  -6   6 2343.68 112.960   6
  -4  -6   5-64.7615 35.5796   6
  -4  -6   5 21.0524 17.6312   3
  -4  -6   4 49.7797 25.5018   6
  -4  -6   4 55.7266 19.7491   3
  -4  -6   3 533.070 43.1172   3
  -4  -6   3 651.871 60.9171   6
   4   6  -2 9576.15 153.726   2
  -4  -6   2 9559.14 171.571   3
  -4  -6   2 9409.61 218.719   6
   4   6  -1 7201.40 148.412   2
  -4  -6   1 7152.26 153.124   3
  -4  -6   1 7529.11 201.560   6
   4   6   0 120.423 26.3260   2
  -4  -6   0 166.508 41.5511   6
  -4  -6  -1 411.112 58.0962   6
  -4  -6  -1 403.136 62.8656   5
   4   6   1 383.053 44.6860   2
  -4  -6  -2 496.883 69.3970   5
   4   6   2 542.087 56.6828   2
  -4  -6  -2 586.225 70.2615   6
  -4  -6  -3 3960.43 190.263   5
  -4  -6  -3 4378.24 181.926   6
  -4  -7  12 287.690 60.5441   6
  -4  -7  11 843.293 89.1214   6
  -4  -7  10 2.64460 32.6175   6
  -4  -7   9 3135.42 150.295   6
  -4  -7   8-22.5326 29.8373   6
  -4  -7   7 380.613 52.8150   6
  -4  -7   6 0.11233 31.8310   6
  -4  -7   6 7.65332 19.1872   3
  -4  -7   5 13.1484 26.4590   6
  -4  -7   5-4.13669 18.3703   3
  -4  -7   4 2107.03 89.6331   3
  -4  -7   4 2078.17 110.241   6
  -4  -7   3 2247.77 92.5157   3
  -4  -7   3 2237.76 113.273   6
  -4  -7   2 6412.36 192.179   6
  -4  -7   1 2070.39 113.431   6
  -4  -7   0 904.391 80.3239   6
  -4  -7  -1 2261.80 128.464   6
  -4  -7  -2 3055.07 170.022   5
  -4  -7  -2 3033.48 157.198   6
  -4  -8  11 8.14687 28.6873   6
  -4  -8  10 473.729 65.5967   6
  -4  -8   9-91.6211 43.0300   6
  -4  -8   8 1580.33 105.910   6
  -4  -8   7 1074.79 74.7959   3
  -4  -8   7 1192.45 92.6613   6
  -4  -8   6 205.586 40.6620   6
  -4  -8   6 188.198 35.9752   3
  -4  -8   5 20.8084 29.4186   6
  -4  -8   4 3669.95 151.479   6
  -4  -8   3 4330.17 165.649   6
  -4  -8   2 4101.48 164.207   6
  -4  -8   1 735.373 72.8574   6
  -4  -8   0 439.707 63.5153   6
  -4  -9  11 209.350 49.6135   6
  -4  -9  10 428.155 63.3104   6
  -4  -9   9 788.228 80.6382   6
  -4  -9   8 1371.31 102.707   6
  -4  -9   7 353.616 55.5612   6
  -4  -9   6 192.267 42.6233   6
  -4  -9   5 1233.02 94.8474   6
  -4  -9   4 4702.49 180.580   6
  -4  -9   3 405.074 60.1314   6
  -4  -9   2 1637.22 111.512   6
  -4  -9   1 181.136 45.5149   6
  -4 -10  10 1530.91 118.546   6
  -4 -10   9 636.440 75.2338   6
  -4 -10   8 798.078 82.8294   6
  -4 -10   7 349.879 58.6047   6
  -4 -10   6 432.162 61.9083   6
  -4 -10   5 262.519 50.7192   6
  -4 -10   4 2701.47 143.693   6
  -4 -10   3 21.4748 33.3638   6
   5 -11   2 912.160 93.9147   3
   5 -11   3 56.3011 40.3707   3
   5 -11   4 2596.80 152.115   3
   5 -11   5 4784.37 205.632   3
   5 -11   6 479.173 69.4722   3
   5 -11   7 1781.26 130.145   3
   5 -10  -1 3816.42 179.091   3
   5 -10   0 3960.02 178.459   3
   5 -10   1 2201.20 135.024   3
   5 -10   2 2497.08 140.337   3
   5 -10   3 2537.39 139.611   3
   5 -10   4 3022.03 155.405   3
   5 -10   5 2148.89 130.219   3
   5 -10   6 606.541 74.7017   3
   5 -10   7 1096.13 100.683   3
  -5  10  -7 1092.58 85.1339   4
   5 -10   8 4975.21 208.000   3
  -5  10  -8 4859.00 185.236   4
  -5  10  -9 786.742 82.2458   4
   5  -9  -3 128.088 39.5615   5
  -5   9   2 1861.58 127.006   2
   5  -9  -2 1630.70 107.876   5
  -5   9   1 1233.20 104.002   2
   5  -9   0 5731.85 199.890   3
   5  -9   1 42.2869 31.3624   3
   5  -9   2 3624.67 156.222   3
   5  -9   3 482.665 62.5155   3
   5  -9   4 393.853 58.6106   3
   5  -9   5 11575.0 279.009   3
  -5   9  -5 11451.5 237.906   4
   5  -9   6 640.826 72.7495   3
  -5   9  -6 583.250 61.2795   4
   5  -9   7 2317.61 132.408   3
  -5   9  -7 2336.95 123.144   4
  -5   9  -8 645.246 71.7098   4
  -5   9  -9 279.301 54.4049   4
   5  -8  -5 2486.41 149.731   5
   5  -8  -4 84.7451 41.6022   5
  -5   8   4 83.6728 40.6097   2
  -5   8   3 5879.99 216.259   2
   5  -8  -3 5574.45 196.419   5
   5  -8  -2 481.469 59.2756   5
  -5   8   2 402.620 57.3017   2
   5  -8  -1 39.8564 25.6724   5
  -5   8   1 19.5107 29.7778   2
   5  -8   0 785.646 59.8012   5
   5  -8   0 640.756 66.7197   3
   5  -8   1 904.402 76.0276   3
   5  -8   2 865.232 75.4857   3
  -5   8  -2 831.426 55.8781   4
   5  -8   3 39157.0 471.261   3
  -5   8  -3 39921.6 395.728   4
   5  -8   4 13172.9 279.180   3
  -5   8  -4 13431.2 246.917   4
   5  -8   5 4969.01 175.109   3
  -5   8  -5 5300.55 163.789   4
  -5   8  -6 166.618 40.8665   4
   5  -8   6 130.712 36.6892   3
   5  -8   7 6129.02 204.200   3
  -5   8  -7 6299.82 200.352   4
  -5   8  -8 3136.22 149.738   4
  -5   8  -9 3711.52 171.644   4
   5  -7  -6 48.9967 36.9834   5
  -5   7   5 13399.8 322.662   2
   5  -7  -5 13510.0 325.392   5
  -5   7   4 16758.9 345.819   2
   5  -7  -4 16318.5 334.956   5
  -5   7   3 1363.38 98.5245   2
   5  -7  -3 1425.39 96.9629   5
   5  -7  -2 121.635 31.4154   5
  -5   7   2 75.0343 31.4142   2
   5  -7  -1 939.323 66.5867   5
  -5   7   1 868.331 76.6239   2
   5  -7   0 39.9258 20.4243   5
   5  -7   0 46.4424 27.3001   3
   5  -7   1 3188.77 97.8087   5
   5  -7   1 3209.77 127.700   3
   5  -7   2 12548.3 248.991   3
  -5   7  -2 12228.9 213.903   4
   5  -7   3 5793.53 169.321   3
  -5   7  -3 5812.27 154.635   4
   5  -7   4 5229.46 164.064   3
  -5   7  -4 5412.82 157.583   4
   5  -7   5 1654.25 97.2868   3
  -5   7  -5 1656.91 93.7758   4
   5  -7   6 924.576 77.4010   3
  -5   7  -6 897.942 74.9015   4
  -5   7  -7 406.497 59.2666   4
  -5   7  -8 5738.98 202.997   4
  -5   7  -9 964.249 91.5983   4
  -5   6   7 2281.20 137.458   2
  -5   6   6 11170.8 288.530   2
   5  -6  -6 11172.7 299.293   5
  -5   6   5 3503.31 155.188   2
   5  -6  -5 3528.53 158.865   5
  -5   6   4 3006.59 138.772   2
   5  -6  -4 2975.26 135.239   5
   5  -6  -3 492.416 54.7717   5
  -5   6   3 491.966 58.8343   2
   5  -6  -2 45.5702 21.3545   5
  -5   6   2-2.20324 27.7236   2
   5  -6  -1 3125.32 112.123   5
   5  -6   0 4322.09 119.159   5
   5  -6   0 4462.45 137.841   3
  -5   6   0 4309.83 148.238   1
  -5   6  -1 72.7007 21.1622   4
  -5   6  -1 66.9829 27.5892   1
   5  -6   1 87.9114 20.6348   5
   5  -6   1 45.2861 25.0770   3
   5  -6   2 4128.39 90.4849   5
   5  -6   2 4049.12 129.786   3
  -5   6  -2 4172.56 126.372   4
  -5   6  -2 4156.13 146.446   1
  -5   6  -3 80.5771 26.3102   4
   5  -6   3 63.8310 26.4628   3
  -5   6  -3 0.29454 24.5352   1
   5  -6   4 955.503 68.3184   3
  -5   6  -4 908.152 68.6153   4
  -5   6  -5 34.4277 23.2960   4
   5  -6   5 62.8810 30.3769   3
  -5   6  -6 3579.42 144.746   4
  -5   6  -7 183.636 40.4400   4
  -5   6  -8 797.452 80.2021   4
  -5   6  -9 1372.97 106.942   4
  -5   5   8 1397.35 107.076   2
  -5   5   7 850.311 80.2055   2
   5  -5  -7 760.581 84.1653   5
  -5   5   6 2403.45 125.203   2
   5  -5  -6 2553.70 135.931   5
   5  -5  -5 140.739 38.4780   5
  -5   5   5 162.652 38.0879   2
   5  -5  -4 433.147 53.0563   5
  -5   5   4 384.774 48.3161   2
  -5   5   3 357.973 45.6566   1
   5  -5  -3 294.923 41.2541   5
  -5   5   3 226.489 39.4479   2
  -5   5   2 27286.3 360.351   2
   5  -5  -2 27721.6 334.942   5
  -5   5   2 28480.4 363.658   1
  -5   5   1 191.227 35.8944   1
  -5   5   0 1464.30 84.2942   1
   5  -5   0 1456.69 72.7343   3
  -5   5  -1 1508.16 84.3195   1
   5  -5   1 1278.37 68.3119   3
  -5   5  -1 1381.44 71.3156   4
  -5   5  -2 23.5535 20.5573   1
  -5   5  -2 42.6136 24.6703   4
   5  -5   2 64.4978 23.2915   3
   5  -5   3 471.908 45.4293   3
  -5   5  -3 538.081 52.4031   1
  -5   5  -3 448.850 47.8722   4
  -5   5  -3 463.866 26.4334   6
   5  -5   4 2890.25 107.612   3
  -5   5  -4 2761.08 113.818   1
  -5   5  -4 2765.66 114.349   4
  -5   5  -5 1033.98 76.6908   4
  -5   5  -5 1054.93 72.7924   1
  -5   5  -6 669.459 65.4671   4
  -5   5  -7 335.576 51.0250   4
  -5   5  -8 222.631 49.5206   4
  -5   5  -9 102.774 38.4851   4
  -5   4   9 22.7597 32.3263   2
   5  -4  -8 970.672 90.9745   5
  -5   4   8 1080.85 88.0993   2
  -5   4   7 4197.09 159.962   2
   5  -4  -7 4043.66 173.653   5
   5  -4  -6 72.1067 34.4672   5
  -5   4   6 77.5863 30.3267   2
  -5   4   5 4731.64 155.102   2
   5  -4  -5 4604.22 161.764   5
  -5   4   5 4880.83 146.723   1
  -5   4   4 13341.3 245.116   2
  -5   4   4 13168.7 237.763   1
  -5   4   4 12982.0 213.404   6
  -5   4   3 3904.04 131.174   1
  -5   4   3 4042.81 132.501   2
  -5   4   3 3859.85 104.379   6
  -5   4   2 7722.94 126.955   6
  -5   4   2 7579.07 182.135   1
  -5   4   2 7340.97 173.643   2
  -5   4   1 9084.32 120.879   6
  -5   4   1 9167.68 197.415   1
  -5   4   0-6.44738 9.15847   6
   5  -4   0 18.1342 14.9213   3
  -5   4   0-16.0038 25.1176   1
  -5   4  -1 21.9268 23.5791   1
  -5   4  -1 78.1767 24.0624   4
  -5   4  -1 41.9896 11.0882   6
   5  -4   1 55.0725 19.7652   3
   5  -4   2 12682.9 190.092   3
  -5   4  -2 12849.8 223.701   4
  -5   4  -2 13079.2 233.286   1
  -5   4  -2 12809.5 143.481   6
  -5   4  -3 87.0058 28.8687   4
  -5   4  -3 82.1383 17.3670   6
  -5   4  -3 104.277 26.2462   1
   5  -4   3 109.940 24.0433   3
  -5   4  -4 156.543 33.7011   4
  -5   4  -4 187.964 33.4782   1
  -5   4  -5 2241.66 108.199   4
  -5   4  -5 2356.18 100.650   1
  -5   4  -6 422.115 54.5743   4
  -5   4  -6 433.924 45.6523   1
  -5   4  -7 667.482 69.4579   4
  -5   4  -8 1014.77 89.1715   4
  -5   4  -9 73.8148 31.7592   4
  -5   3  10 120.821 38.4433   2
   5  -3  -9 3049.99 161.560   5
  -5   3   9 3198.65 146.723   2
   5  -3  -8 1522.61 109.382   5
  -5   3   8 1480.35 95.9939   2
  -5   3   7 2605.13 118.130   2
   5  -3  -7 2577.83 131.471   5
  -5   3   6 9115.43 192.844   1
  -5   3   6 9173.94 206.526   2
   5  -3  -6 9177.51 230.223   5
  -5   3   6 8962.21 213.058   6
  -5   3   5 1700.34 85.8402   2
  -5   3   5 1718.25 86.4283   6
  -5   3   5 1805.45 87.8341   1
  -5   3   4 6883.74 162.246   2
  -5   3   4 7040.77 155.928   6
  -5   3   4 7346.10 175.015   1
  -5   3   3 14039.0 223.647   2
  -5   3   3 14021.6 236.377   1
  -5   3   3 14269.2 201.702   6
  -5   3   2 20988.9 287.520   1
  -5   3   2 21118.2 219.184   6
  -5   3   1 55.9577 14.1444   6
  -5   3   1 52.6396 23.3903   1
  -5   3   0 2923.09 107.825   1
   5  -3   0 3105.38 81.8982   3
  -5   3   0 2999.20 74.9594   6
  -5   3  -1 325.956 38.7096   4
   5  -3   1 383.307 30.4463   3
  -5   3  -1 361.341 40.4824   1
  -5   3  -1 342.173 27.4255   6
   5  -3   2 5252.99 111.704   3
  -5   3  -2 5319.16 143.250   1
  -5   3  -2 5268.80 145.159   4
  -5   3  -2 5322.44 110.000   6
  -5   3  -3 2007.67 89.4258   1
  -5   3  -3 2018.49 94.4323   4
  -5   3  -4 729.865 61.9534   4
  -5   3  -4 743.566 57.9820   1
  -5   3  -5 72.7460 30.8209   4
  -5   3  -5 103.743 29.1344   1
  -5   3  -6 143.968 40.1542   4
  -5   3  -6 154.527 29.9923   1
  -5   3  -7 2572.79 131.300   4
  -5   3  -8 1098.37 90.7613   4
  -5   3  -9 74.4713 36.0147   4
   5  -2 -10 3799.32 182.961   5
  -5   2  10 3681.01 156.940   2
   5  -2  -9 293.660 55.1539   5
  -5   2   9 390.796 53.1535   2
   5  -2  -8 7239.86 223.294   5
  -5   2   8 7610.86 195.752   2
  -5   2   8 7225.48 220.949   6
  -5   2   7 332.221 39.6456   1
  -5   2   7 329.891 42.1363   2
  -5   2   7 320.830 48.6939   6
  -5   2   6 108.348 26.0713   1
  -5   2   6 93.2328 26.2630   2
  -5   2   6 48.0153 26.8256   6
  -5   2   5 5372.94 136.197   2
  -5   2   5 5283.39 145.216   1
  -5   2   5 5396.71 150.460   6
  -5   2   4 21316.3 256.399   2
  -5   2   4 21986.0 291.421   1
  -5   2   4 21723.7 273.689   6
  -5   2   3 6317.14 155.401   1
  -5   2   3 6351.06 136.109   6
  -5   2   3 6207.06 134.208   2
  -5   2   2 646.694 51.2090   1
  -5   2   2 687.923 43.3487   6
  -5   2   1 41.8093 13.7564   6
   5  -2  -1 63.2619 13.3380   3
  -5   2   1 48.5494 20.4101   1
  -5   2   0 1176.49 68.0977   1
   5  -2   0 1174.59 41.7712   3
  -5   2   0 1237.59 68.7125   4
  -5   2   0 1246.67 54.3332   6
  -5   2  -1 17418.7 251.799   1
  -5   2  -1 17654.7 260.300   4
  -5   2  -1 17092.0 203.513   6
  -5   2  -2 10822.2 197.782   1
  -5   2  -2 10563.8 206.917   4
  -5   2  -2 10755.2 172.814   6
  -5   2  -3 4245.62 126.596   1
  -5   2  -3 4159.23 135.677   4
  -5   2  -4 352.435 49.7401   4
  -5   2  -4 459.661 45.6597   1
  -5   2  -5 1914.94 85.5852   1
  -5   2  -5 1870.61 101.580   4
  -5   2  -6 5060.49 172.901   4
  -5   2  -6 5014.07 135.291   1
  -5   2  -7 2620.05 131.268   4
  -5   2  -8 1813.61 116.790   4
  -5   2  -9 87.3730 34.3747   4
   5  -1 -10 1032.63 95.3677   5
  -5   1  10 989.040 77.7935   2
   5  -1  -9 2530.77 136.637   5
  -5   1   9 2687.62 116.883   2
  -5   1   9 2627.36 141.489   6
  -5   1   8 92.4259 34.2518   6
  -5   1   8 160.131 31.6064   2
  -5   1   7 310.939 38.8194   1
  -5   1   7 311.153 36.7734   2
  -5   1   7 185.768 32.6855   6
  -5   1   6 271.272 36.8268   1
  -5   1   6 261.804 32.2098   2
  -5   1   6 279.265 40.9947   6
  -5   1   5 3926.29 103.593   2
  -5   1   5 4084.60 129.244   6
  -5   1   4 3730.32 96.2897   2
  -5   1   4 3916.31 118.789   6
  -5   1   3 5493.09 130.318   6
  -5   1   2-23.1715 19.5361   6
  -5   1   1 35.9964 15.9551   6
   5  -1  -1 45.4749 7.20955   3
  -5   1   0 21173.2 277.074   4
  -5   1   0 21180.1 238.009   6
  -5   1  -1 34409.3 368.225   4
  -5   1  -1 33917.1 313.783   6
  -5   1  -2 11675.4 219.141   4
  -5   1  -2 11494.0 192.924   6
  -5   1  -3 1651.80 88.1176   4
  -5   1  -4 1330.46 71.4656   1
  -5   1  -4 1227.38 81.4545   4
  -5   1  -5 15577.3 235.502   1
  -5   1  -5 15607.4 289.284   4
  -5   1  -6 8142.41 220.695   4
  -5   1  -7 575.896 65.4647   4
  -5   1  -8 260.701 49.1705   4
   5   0 -11 550.315 72.0745   5
  -5   0  11 614.445 83.5155   6
   5   0 -10 1628.65 113.290   5
  -5   0  10 1636.79 120.521   6
  -5   0   9 180.017 31.2409   2
  -5   0   9 152.041 37.1751   6
  -5   0   8 640.248 51.8503   1
  -5   0   8 633.692 50.1603   2
  -5   0   8 693.222 67.1493   6
  -5   0   7 841.133 51.4151   2
  -5   0   7 762.101 68.0356   6
  -5   0   6 513.402 36.4568   2
  -5   0   6 566.722 55.8659   6
  -5   0   5 4505.31 96.0932   2
  -5   0   5 4842.47 142.681   6
  -5   0   4 13549.5 220.796   6
  -5   0   3 65.7052 18.7663   6
  -5   0   2-1.18172 20.1629   6
   5   0  -2 46.8971 10.5186   2
  -5   0   1 5099.66 124.523   6
  -5   0   0 31429.5 314.608   6
  -5   0  -1 41373.4 406.097   4
  -5   0  -1 41798.5 377.928   6
  -5   0  -2 3486.50 123.324   4
  -5   0  -3 6936.12 178.810   4
  -5   0  -4 1091.94 77.7518   4
  -5   0  -5 8289.21 170.413   1
  -5   0  -5 7915.06 207.849   4
  -5   0  -6 5457.38 181.338   5
  -5   0  -6 5098.65 176.031   4
  -5   0  -7 1028.74 85.1262   5
  -5   0  -7 1081.95 88.0164   4
  -5   0  -8 38.3032 32.9139   4
  -5  -1  11 273.127 60.5208   6
  -5  -1  10 1088.85 97.8720   6
  -5  -1   9 5.75558 29.2532   6
  -5  -1   8 3084.53 139.765   6
  -5  -1   7 40.6820 30.2259   6
  -5  -1   7 4.55279 12.4324   2
  -5  -1   6 2963.11 69.7090   2
  -5  -1   6 2839.87 117.971   6
  -5  -1   5 5672.48 152.338   6
   5   1  -4 542.837 29.2401   3
  -5  -1   4 579.294 50.1093   6
  -5  -1   3 20.0479 22.1933   6
   5   1  -3 9.30851 3.58004   3
   5   1  -2 1540.77 40.2011   2
  -5  -1   2 1587.73 75.9943   6
  -5  -1   1 32572.0 333.888   6
  -5  -1   0 16091.6 241.144   6
  -5  -1  -1 5360.44 149.075   4
  -5  -1  -1 5343.36 146.503   6
  -5  -1  -2 521.743 53.4773   4
  -5  -1  -3 1269.44 79.7743   4
  -5  -1  -4 2671.55 119.121   4
  -5  -1  -5 7571.07 218.540   5
  -5  -1  -5 7831.57 210.665   4
  -5  -1  -6 512.680 64.9501   5
  -5  -1  -6 672.130 68.0427   4
  -5  -1  -7 636.751 74.5076   5
  -5  -1  -7 673.700 72.2678   4
  -5  -1  -8 949.957 93.3057   5
  -5  -1  -8 1007.79 88.8268   4
   5   2 -12 308.140 55.4208   5
  -5  -2  12 363.421 70.7058   6
  -5  -2  11 2275.12 145.427   6
  -5  -2  10 277.252 57.1196   6
  -5  -2   9 278.530 48.8247   6
  -5  -2   8 2880.37 134.621   6
  -5  -2   7 1701.08 97.7496   6
  -5  -2   6 9967.01 218.269   6
  -5  -2   5 8144.38 189.133   6
  -5  -2   4 400.034 43.5662   6
   5   2  -4 407.881 22.4090   3
  -5  -2   3 815.618 59.5018   6
  -5  -2   2 2185.24 94.0501   6
   5   2  -2 2021.37 41.8726   2
  -5  -2   1 5886.93 151.454   6
  -5  -2   0 11513.0 219.873   6
  -5  -2  -1 758.088 61.5046   6
  -5  -2  -2 2772.20 113.941   4
  -5  -2  -3 9173.52 213.895   4
  -5  -2  -4 8.86628 22.0956   4
  -5  -2  -5 183.818 38.3324   4
  -5  -2  -5 96.4724 36.8869   5
  -5  -2  -6 55.0306 29.4703   4
  -5  -2  -6-14.3941 29.0871   5
  -5  -2  -7 189.993 49.2152   5
  -5  -3  12 663.444 86.6558   6
  -5  -3  11 3407.85 173.678   6
  -5  -3  10-17.0983 29.6571   6
  -5  -3   9 761.250 77.8843   6
  -5  -3   8 1036.83 83.2195   6
  -5  -3   7 4992.93 166.299   6
  -5  -3   6 3866.03 140.958   6
  -5  -3   5 16171.8 273.637   6
  -5  -3   4 8058.43 189.515   6
  -5  -3   3 284.900 39.8971   6
  -5  -3   2 1941.58 93.2888   6
  -5  -3   1 1666.16 88.5584   6
  -5  -3   0 138.310 36.5335   6
  -5  -3  -1 303.695 47.6671   6
  -5  -3  -2 5107.64 168.490   6
  -5  -3  -3 723.740 63.2813   4
  -5  -3  -4 1890.14 121.792   5
  -5  -3  -4 1935.03 103.394   4
  -5  -3  -5 1778.46 123.351   5
  -5  -3  -5 1865.64 106.183   4
  -5  -3  -6 300.942 62.8955   5
  -5  -4  12 842.762 94.6302   6
  -5  -4  11 3558.73 179.132   6
  -5  -4  10 110.458 41.0603   6
  -5  -4   9 1300.01 97.1263   6
  -5  -4   8 3356.95 147.125   6
  -5  -4   7 11804.8 257.392   6
  -5  -4   6 1563.78 94.2708   6
  -5  -4   5 168.354 35.2177   6
  -5  -4   4 6.63639 25.3776   6
  -5  -4   3 1030.57 73.2198   6
  -5  -4   2 2710.98 116.317   6
  -5  -4   1 22329.9 334.514   6
  -5  -4   0 2717.90 123.334   6
  -5  -4  -1 177.085 41.4410   6
  -5  -4  -2 3530.28 150.310   6
  -5  -4  -3 170.928 44.2967   6
  -5  -4  -4 99.8163 43.5624   5
  -5  -5  12 2968.89 173.202   6
  -5  -5  11 1785.17 129.372   6
  -5  -5  10 683.226 77.4247   6
  -5  -5   9 2899.00 146.063   6
  -5  -5   8 10257.3 258.638   6
  -5  -5   7 3888.16 155.017   6
  -5  -5   6 1263.14 86.9809   6
  -5  -5   5 2532.69 117.774   6
  -5  -5   4-13.6270 38.8058   6
  -5  -5   3 12428.6 256.754   6
  -5  -5   2 59878.7 562.817   6
  -5  -5   1 2120.45 111.420   6
  -5  -5   0 534.543 63.7330   6
  -5  -5  -1 105.870 39.7329   6
  -5  -5  -2 1570.50 109.326   6
  -5  -5  -3 4159.01 179.673   6
  -5  -6  11 3621.52 181.474   6
  -5  -6  10 21117.7 412.829   6
  -5  -6   9 901.054 85.8683   6
  -5  -6   8 1.22381 30.0750   6
  -5  -6   7 329.311 51.1183   6
  -5  -6   6 154.241 36.0318   6
  -5  -6   5 1133.80 85.7709   6
  -5  -6   4 12354.5 269.133   6
  -5  -6   3 219.807 43.1228   6
  -5  -6   2 696.553 71.2447   6
  -5  -6   1 10357.3 255.420   6
  -5  -6   0 2940.81 142.756   6
  -5  -6  -1 9740.22 265.178   6
  -5  -6  -2 1251.89 104.827   6
  -5  -7  11 3529.93 180.559   6
  -5  -7  10 394.180 60.2086   6
  -5  -7   9 7055.01 233.284   6
  -5  -7   8 489.986 65.2805   6
  -5  -7   7 6380.38 210.938   6
  -5  -7   6 2245.81 123.006   6
  -5  -7   5 5557.30 192.449   6
  -5  -7   4 2308.85 123.327   6
  -5  -7   3 8947.18 242.617   6
  -5  -7   2 2732.83 138.908   6
  -5  -7   1 2849.74 143.713   6
  -5  -7   0 377.771 59.6618   6
  -5  -8  10 111.404 42.9909   6
  -5  -8   9 1169.85 100.084   6
  -5  -8   8 589.728 69.9726   6
  -5  -8   7 9707.61 269.464   6
  -5  -8   6 3290.58 156.351   6
  -5  -8   5 20.2492 33.9082   6
  -5  -8   4 5192.91 193.578   6
  -5  -8   3 2254.80 130.261   6
  -5  -8   2 2.92502 25.5649   6
  -5  -8   1 2515.45 143.555   6
  -5  -9   9 2891.92 158.319   6
  -5  -9   8 1458.93 112.415   6
  -5  -9   7 140.463 44.7121   6
  -5  -9   6 2061.03 129.764   6
  -5  -9   5 1476.61 110.521   6
  -5  -9   4 940.047 88.3213   6
   6 -10   0 1338.94 106.968   3
   6 -10   1 1075.08 94.5062   3
   6 -10   2 81.4941 30.7885   3
   6 -10   3 272.846 54.1461   3
   6 -10   4 487.952 69.7776   3
   6 -10   5 3941.54 178.497   3
   6 -10   6 281.962 54.9463   3
  -6  10  -7 114.915 37.0138   4
   6 -10   7 130.603 45.2173   3
  -6  10  -8 104.749 36.1153   4
   6  -9  -1 1458.06 107.179   3
   6  -9   0 1616.78 109.425   3
   6  -9   1 250.655 47.8070   3
   6  -9   2 1228.11 94.5255   3
   6  -9   3 2990.43 144.129   3
   6  -9   4 1408.00 101.051   3
   6  -9   5 2680.43 139.758   3
  -6   9  -5 2901.21 130.950   4
   6  -9   6 920.777 87.4019   3
  -6   9  -6 921.088 80.2130   4
   6  -9   7 1212.57 99.9653   3
  -6   9  -7 1161.14 93.8270   4
  -6   9  -8 1480.81 109.596   4
  -6   8   4 1586.59 119.617   2
   6  -8  -4 1523.41 112.843   5
   6  -8  -3 17.9088 27.7821   5
  -6   8   3-63.9786 48.5188   2
   6  -8  -2 2299.92 119.322   5
   6  -8  -1 2894.50 137.751   3
   6  -8   0 2553.84 126.576   3
   6  -8   1 463.269 57.2535   3
   6  -8   2 331.618 53.0709   3
   6  -8   3 12005.7 267.952   3
  -6   8  -3 12020.9 244.108   4
   6  -8   4 9196.90 236.253   3
  -6   8  -4 9549.86 227.020   4
   6  -8   5 2939.73 137.682   3
  -6   8  -5 3231.16 139.391   4
  -6   8  -6-14.5288 28.1069   4
   6  -8   6 0.75793 28.4163   3
  -6   8  -7 833.314 79.9111   4
  -6   8  -8 2866.09 151.785   4
  -6   7   5 684.582 79.3814   2
   6  -7  -5 690.320 80.2161   5
   6  -7  -4 181.904 44.3547   5
  -6   7   4 173.830 43.7330   2
   6  -7  -3 309.263 48.6677   5
  -6   7   3 334.833 54.4186   2
   6  -7  -2 892.119 71.9698   5
   6  -7  -1 156.517 33.8391   5
   6  -7  -1 128.496 35.0530   3
   6  -7   0 1158.94 68.6857   5
   6  -7   0 1102.71 78.5319   3
   6  -7   1 2766.00 120.308   3
   6  -7   2 2821.75 120.696   3
  -6   7  -2 2807.20 114.400   4
   6  -7   3 1610.57 93.1250   3
  -6   7  -3 1621.30 92.7647   4
   6  -7   4 3993.51 147.183   3
  -6   7  -4 3952.23 149.031   4
   6  -7   5 3676.09 144.264   3
  -6   7  -5 3705.38 148.902   4
  -6   7  -6 1930.81 114.232   4
  -6   7  -7 888.896 83.5195   4
  -6   7  -8 3591.39 169.549   4
  -6   6   7 2720.27 151.223   2
  -6   6   6 1869.92 121.483   2
   6  -6  -6 1877.02 126.010   5
   6  -6  -5 322.106 55.2184   5
  -6   6   5 374.137 57.5470   2
   6  -6  -4 64.8004 29.9807   5
  -6   6   4 10.7899 25.5380   2
   6  -6  -3 4129.03 152.516   5
  -6   6   3 4173.67 163.818   2
   6  -6  -2 7723.53 193.494   5
  -6   6   2 8263.44 223.136   1
   6  -6  -1 886.957 62.6143   5
  -6   6   1 890.938 76.3342   1
   6  -6  -1 875.869 65.9940   3
   6  -6   0 257.294 33.4016   5
  -6   6   0 276.956 46.8529   1
   6  -6   0 283.528 39.8966   3
  -6   6  -1-9.21584 25.9629   1
   6  -6   1-16.4285 22.2227   3
   6  -6   2 8468.63 191.881   3
  -6   6  -2 8597.84 222.420   1
  -6   6  -2 8757.24 204.664   4
   6  -6   3 4973.79 149.751   3
  -6   6  -3 5322.14 176.641   1
  -6   6  -3 5013.31 160.218   4
   6  -6   4 636.848 57.4972   3
  -6   6  -4 690.210 66.7700   1
  -6   6  -4 689.437 65.6921   4
  -6   6  -5 447.636 58.1207   4
  -6   6  -6 1102.69 88.4184   4
  -6   6  -7 5241.10 194.945   4
  -6   6  -8 474.359 68.1806   4
  -6   5   8 81.7493 32.6513   2
  -6   5   7 1254.45 96.7740   2
   6  -5  -7 1302.73 107.544   5
   6  -5  -6 22.9285 26.9389   5
  -6   5   6 7.35988 27.0972   2
   6  -5  -5 58.0003 32.0458   5
  -6   5   5 103.396 30.9882   1
  -6   5   5 115.263 33.2954   2
  -6   5   4 2465.36 120.933   2
   6  -5  -4 2402.03 119.139   5
  -6   5   4 2513.50 120.661   1
  -6   5   3-13.0020 25.2302   1
  -6   5   3 9.54061 23.2149   2
  -6   5   2 4146.80 150.475   1
  -6   5   1 11.8197 25.1579   1
   6  -5  -1 22.5874 20.5406   3
  -6   5   0 1746.55 98.6415   1
   6  -5   0 1595.19 77.1982   3
  -6   5  -1 744.696 65.8061   1
   6  -5   1 730.202 53.3563   3
  -6   5  -1 726.854 60.1926   4
  -6   5  -2 6235.28 180.999   1
   6  -5   2 5860.47 145.261   3
  -6   5  -2 6084.50 171.415   4
  -6   5  -3 1696.23 96.6145   1
   6  -5   3 1726.36 81.5400   3
  -6   5  -3 1704.92 95.4048   4
  -6   5  -4 371.514 47.7400   1
  -6   5  -4 316.969 49.0931   4
  -6   5  -5 621.454 61.1151   1
  -6   5  -5 566.828 63.6315   4
  -6   5  -6 550.294 64.6488   4
  -6   5  -6 414.474 52.0094   1
  -6   5  -7 4397.26 179.719   4
  -6   5  -8 2689.70 147.120   4
  -6   4   9 1484.28 108.276   2
  -6   4   8 974.053 86.1452   2
   6  -4  -8 942.586 95.0173   5
   6  -4  -7 434.685 62.3801   5
  -6   4   7 432.580 55.4423   2
  -6   4   6 885.936 72.7777   2
  -6   4   6 804.308 67.2506   1
   6  -4  -6 845.009 78.4793   5
  -6   4   5 38.6958 23.1531   2
  -6   4   5 57.7005 25.3009   1
  -6   4   4 9296.85 213.027   2
  -6   4   4 9642.92 226.364   1
  -6   4   3 3596.44 136.953   1
  -6   4   2 1717.47 65.7818   6
  -6   4   2 1698.87 95.3628   1
  -6   4   1 53.3599 14.6383   6
  -6   4   1 92.6882 32.4630   1
   6  -4  -1 59.5665 20.0312   3
   6  -4   0 1727.83 72.3723   3
  -6   4   0 1648.90 93.4898   1
  -6   4   0 1931.95 61.5048   6
   6  -4   1 13832.8 198.964   3
  -6   4  -1 13698.1 247.493   4
  -6   4  -1 14548.4 269.657   1
  -6   4  -1 14256.7 169.287   6
   6  -4   2 4915.42 121.387   3
  -6   4  -2 5090.05 157.179   4
  -6   4  -2 5255.88 162.475   1
  -6   4  -2 5063.24 107.682   6
  -6   4  -3 283.793 45.6291   4
  -6   4  -3 236.271 37.5636   1
  -6   4  -3 262.297 29.6269   6
  -6   4  -4 18.7975 28.0731   4
  -6   4  -4 32.8779 18.5730   6
  -6   4  -4 39.5092 24.8933   1
  -6   4  -5 182.558 39.3629   4
  -6   4  -5 174.391 33.9621   1
  -6   4  -6 286.381 52.5253   4
  -6   4  -6 254.937 39.8258   1
  -6   4  -7 119.904 39.2781   4
  -6   4  -8 3216.00 162.240   4
  -6   3   8 3157.68 137.825   2
   6  -3  -8 3359.64 164.094   5
  -6   3   7 3113.49 124.474   1
  -6   3   7 3092.30 129.345   2
   6  -3  -7 3008.66 146.363   5
  -6   3   7 3018.66 136.647   6
  -6   3   6 5869.40 167.851   2
  -6   3   6 6050.44 179.722   6
  -6   3   6 6292.12 177.790   1
  -6   3   5 4084.31 135.491   2
  -6   3   5 4059.95 134.620   6
  -6   3   5 4213.06 147.817   1
  -6   3   4 8125.50 200.829   1
  -6   3   4 8388.97 178.277   6
  -6   3   4 8369.81 185.658   2
  -6   3   3 2741.10 119.046   1
  -6   3   3 2058.09 83.9845   6
  -6   3   2 1749.94 93.4019   1
  -6   3   2 1787.37 71.3311   6
  -6   3   1 4446.72 144.961   1
   6  -3  -1 4257.32 98.5981   3
  -6   3   1 4067.26 102.416   6
  -6   3   0 17184.8 282.892   1
   6  -3   0 16409.3 185.630   3
  -6   3   0 16791.4 206.598   6
   6  -3   1 489.179 33.4032   3
  -6   3  -1 580.638 55.3528   1
  -6   3  -1 690.594 61.2760   4
  -6   3  -1 577.908 41.2484   6
  -6   3  -2 26.6817 27.9651   4
  -6   3  -2 22.6510 16.4670   6
  -6   3  -2 26.7792 21.6847   1
  -6   3  -3 6187.56 170.461   1
  -6   3  -3 6452.55 183.814   4
  -6   3  -3 6215.90 143.201   6
  -6   3  -4 1693.01 102.346   4
  -6   3  -4 1640.06 90.2110   1
  -6   3  -5 28746.8 415.312   4
  -6   3  -5 29281.0 372.314   1
  -6   3  -6 1713.52 90.1164   1
  -6   3  -6 1722.81 110.047   4
  -6   3  -7 1294.07 99.9065   4
  -6   3  -8 1131.47 98.5612   4
   6  -2  -9 145.601 44.6885   5
  -6   2   9 124.986 38.1987   6
  -6   2   8 8336.13 204.264   2
  -6   2   8 8618.53 246.330   6
  -6   2   7 105.354 28.0851   1
  -6   2   7 97.0406 27.6724   2
  -6   2   7 166.041 33.9848   6
  -6   2   6 697.276 54.8006   2
  -6   2   6 726.678 62.2392   1
  -6   2   6 744.868 64.2317   6
  -6   2   5 114.007 29.2378   6
  -6   2   5 67.9877 28.2890   1
  -6   2   5 114.574 26.4745   2
  -6   2   4 230.803 35.3385   6
  -6   2   4 217.269 37.7072   1
  -6   2   3 50171.8 480.413   1
  -6   2   3 49784.3 410.002   6
  -6   2   2 5161.56 155.234   1
   6  -2  -2 5575.92 99.8221   3
  -6   2   2 5282.48 128.408   6
  -6   2   1 1514.71 84.6986   1
   6  -2  -1 1448.08 45.1572   3
  -6   2   1 1444.88 66.2760   6
  -6   2   0 32.5002 18.7682   6
   6  -2   0 24.9814 9.02468   3
  -6   2   0 114.770 29.9561   1
  -6   2  -1 3099.33 119.542   1
  -6   2  -1 3244.28 124.809   4
  -6   2  -1 3027.04 98.4455   6
  -6   2  -2 2535.77 108.743   1
  -6   2  -2 2661.19 117.276   4
  -6   2  -2 2612.78 96.2949   6
  -6   2  -3 38373.7 418.162   1
  -6   2  -3 38250.7 447.346   4
  -6   2  -3 38076.8 381.937   6
  -6   2  -4 22948.1 321.889   1
  -6   2  -4 22749.0 361.350   4
  -6   2  -5 2554.35 108.531   1
  -6   2  -5 2532.69 128.090   4
  -6   2  -6 1031.27 86.4201   4
  -6   2  -7 3587.26 163.856   4
   6  -1 -10 143.503 46.9590   5
  -6   1  10 127.072 44.9905   6
  -6   1   9 12.3873 28.8586   6
  -6   1   8 509.053 51.8149   1
  -6   1   8 513.666 62.9986   6
  -6   1   7 2465.15 109.884   1
  -6   1   7 2575.83 124.936   6
  -6   1   6 2470.05 90.0370   2
  -6   1   6 2469.83 110.028   1
  -6   1   6 2451.15 114.207   6
  -6   1   5 63428.4 533.193   6
  -6   1   5 63307.4 420.536   2
  -6   1   4 53255.1 459.553   6
  -6   1   3 13497.5 221.324   6
   6  -1  -2 10675.4 90.7616   3
  -6   1   2 11666.4 200.968   6
  -6   1   1 21378.2 267.727   6
  -6   1   0 11366.1 197.826   6
  -6   1  -1 3230.19 126.035   4
  -6   1  -1 3009.81 106.444   6
  -6   1  -2 304.265 45.1968   4
  -6   1  -2 291.034 41.6466   6
  -6   1  -3 7397.34 182.861   1
  -6   1  -3 7220.22 198.864   4
  -6   1  -3 7280.13 180.094   6
  -6   1  -4 15761.7 265.095   1
  -6   1  -4 15799.2 303.168   4
  -6   1  -5 91.5680 34.3110   4
  -6   1  -5 97.3807 27.3215   1
  -6   1  -6 79.3858 35.4413   4
  -6   1  -7 727.987 79.4056   4
  -6   0  11 2043.78 144.884   6
  -6   0  10 1499.29 116.443   6
  -6   0   9 1778.54 117.803   6
  -6   0   8-13.0941 29.8592   6
  -6   0   7 428.982 55.3541   6
  -6   0   6 5966.17 179.062   6
  -6   0   5 22387.2 319.967   6
  -6   0   4 32598.1 370.285   6
  -6   0   3 3804.95 124.730   6
  -6   0   2 8041.68 174.336   6
  -6   0   1 194.904 33.3804   6
  -6   0   0 51206.9 446.277   6
  -6   0  -1 3727.80 136.081   4
  -6   0  -1 3972.01 129.863   6
  -6   0  -2 12657.2 258.856   4
  -6   0  -2 12800.9 240.914   6
  -6   0  -3 11.0133 28.8940   4
  -6   0  -3 76.9792 30.3300   6
  -6   0  -4 461.662 55.7267   4
  -6   0  -5 55.3242 27.2525   4
  -6   0  -6 5055.16 189.976   4
  -6   0  -7 90.9313 35.8402   4
  -6  -1  11 234.481 56.5026   6
  -6  -1  10 81.2771 37.6377   6
  -6  -1   9 1433.00 106.289   6
  -6  -1   8 12291.2 285.349   6
  -6  -1   7 293.653 47.9176   6
  -6  -1   6 4993.46 162.351   6
  -6  -1   5 2449.38 110.778   6
  -6  -1   4 5223.07 153.568   6
  -6  -1   3 3957.58 131.856   6
  -6  -1   2 33558.4 374.127   6
  -6  -1   1 268.990 42.5510   6
  -6  -1   0 2651.14 110.081   6
  -6  -1  -1 12098.0 240.396   6
  -6  -1  -2 1302.34 85.4101   4
  -6  -1  -2 1205.16 82.2268   6
  -6  -1  -3 124.923 34.2570   4
  -6  -1  -3 236.389 43.1673   6
  -6  -1  -4 3012.50 137.889   4
  -6  -1  -5 231.710 46.1545   4
  -6  -1  -6 394.648 60.3588   4
  -6  -2  11 247.533 52.8692   6
  -6  -2  10 8909.38 273.301   6
  -6  -2   9 1043.49 93.2493   6
  -6  -2   8 19.7444 31.5596   6
  -6  -2   7 6015.01 189.408   6
  -6  -2   6 39.8098 27.4643   6
  -6  -2   5 3507.92 135.535   6
  -6  -2   4 13369.9 254.310   6
  -6  -2   3-35.9955 29.9720   6
  -6  -2   2 300.150 42.9688   6
  -6  -2   1 3478.52 129.509   6
  -6  -2   0 1490.03 89.1863   6
  -6  -2  -1 329.094 48.8103   6
  -6  -2  -2 5455.65 178.631   6
  -6  -2  -3 827.250 73.4067   4
  -6  -2  -3 884.905 78.3130   6
  -6  -2  -4 25.9167 29.8116   4
  -6  -2  -5 1611.75 107.942   4
  -6  -2  -6 897.604 84.0591   4
  -6  -3  11 76.2282 42.0522   6
  -6  -3  10 394.294 63.0784   6
  -6  -3   9 1270.35 99.7219   6
  -6  -3   8-16.1054 36.0337   6
  -6  -3   7 19.7821 30.0198   6
  -6  -3   6 12332.3 266.648   6
  -6  -3   5 410.587 54.4706   6
  -6  -3   4 1026.42 76.4635   6
  -6  -3   3 1187.91 81.7632   6
  -6  -3   2 389.619 50.5788   6
  -6  -3   1 1215.15 83.3818   6
  -6  -3   0 1245.25 87.4419   6
  -6  -3  -1 348.297 49.5726   6
  -6  -3  -2-6.29065 28.6875   6
  -6  -3  -3 1874.68 117.935   6
  -6  -3  -4 2328.60 135.894   6
  -6  -4  11 643.501 81.8735   6
  -6  -4  10 4055.36 186.286   6
  -6  -4   9 485.859 67.6054   6
  -6  -4   8 39.9369 27.0868   6
  -6  -4   7 973.235 82.2660   6
  -6  -4   6 94.9438 38.7007   6
  -6  -4   5 1644.36 99.6446   6
  -6  -4   4-16.8132 35.3989   6
  -6  -4   3 581.115 61.5628   6
  -6  -4   2 5378.28 177.598   6
  -6  -4   1 7490.98 211.703   6
  -6  -4   0 3361.62 146.065   6
  -6  -4  -1 373.958 55.2756   6
  -6  -4  -2 62.6220 33.1406   6
  -6  -4  -3 892.214 89.0476   6
  -6  -5  11 22.2713 32.9017   6
  -6  -5  10 1688.47 123.950   6
  -6  -5   9 640.316 76.1441   6
  -6  -5   8 215.166 48.6743   6
  -6  -5   7 1666.97 108.559   6
  -6  -5   6-86.7221 45.4723   6
  -6  -5   5-31.5101 34.9431   6
  -6  -5   4 3590.76 150.417   6
  -6  -5   3 8518.91 231.083   6
  -6  -5   2 3226.57 146.215   6
  -6  -5   1 354.177 53.8397   6
  -6  -5   0 1130.81 93.1529   6
  -6  -5  -1 59.1105 37.7264   6
  -6  -6  10 149.962 45.7988   6
  -6  -6   9 1235.85 102.721   6
  -6  -6   8 711.583 77.0823   6
  -6  -6   7 2439.05 135.631   6
  -6  -6   6 1471.85 105.399   6
  -6  -6   5 1515.22 105.390   6
  -6  -6   4 73.4376 32.5364   6
  -6  -6   3 1128.19 93.2823   6
  -6  -6   2 5289.90 195.337   6
  -6  -6   1 2092.23 126.589   6
  -6  -6   0 810.845 83.6334   6
  -6  -7  10 619.756 80.5550   6
  -6  -7   9 1713.27 124.105   6
  -6  -7   8 2691.24 150.085   6
  -6  -7   7 2071.58 130.384   6
  -6  -7   6 452.825 65.5816   6
  -6  -7   5 1349.34 104.167   6
  -6  -7   4 1336.09 102.973   6
  -6  -7   3 3968.50 175.001   6
  -6  -7   2 1479.47 111.663   6
  -6  -8   8 2211.88 142.144   6
  -6  -8   7 2285.69 140.858   6
  -6  -8   6 280.388 54.8197   6
  -6  -8   5 858.986 88.3870   6
   7 -10   1 206.992 49.2451   3
   7 -10   2-13.2305 36.5053   3
   7 -10   3 676.857 79.0520   3
   7 -10   4 693.746 79.4271   3
   7 -10   5 862.991 88.0296   3
   7  -9  -2 166.214 46.2321   3
   7  -9  -1 729.470 77.3915   3
   7  -9   0 95.4868 34.6980   3
   7  -9   1 6064.93 208.710   3
   7  -9   2 3797.44 163.914   3
   7  -9   3 4606.46 182.416   3
   7  -9   4 4438.41 178.118   3
  -7   9  -5 70.5436 31.9675   4
  -7   9  -6 2168.33 128.344   4
   7  -8  -4 2365.71 138.570   5
   7  -8  -2 3014.45 146.557   3
   7  -8  -1 1818.78 112.041   3
   7  -8   0 2760.04 134.058   3
   7  -8   1 4448.79 166.500   3
   7  -8   2 25331.3 391.569   3
  -7   8  -3 498.100 58.9962   4
   7  -8   3 396.053 53.3391   3
  -7   8  -4 2627.25 131.266   4
  -7   8  -5 294.572 50.9221   4
  -7   8  -6 386.217 59.5530   4
  -7   8  -7 417.656 63.0614   4
   7  -7  -5 44.2311 34.8563   5
  -7   7   5 32.9576 33.8056   2
   7  -7  -4 378.912 57.8083   5
   7  -7  -3-38.0325 32.5972   5
   7  -7  -2 1245.68 87.0037   5
   7  -7  -2 1166.37 85.3402   3
   7  -7  -1 2660.81 123.624   3
   7  -7   0 11441.7 248.429   3
  -7   7   0 11555.5 290.103   1
   7  -7   1 1220.11 82.6761   3
  -7   7  -1 1281.95 99.0436   1
   7  -7   2-5.50940 23.5992   3
  -7   7  -2 25.7085 24.7884   1
  -7   7  -3 3664.48 149.649   4
  -7   7  -3 3580.70 161.540   1
  -7   7  -4 3679.13 155.500   4
  -7   7  -5 7458.35 228.062   4
  -7   7  -6 426.316 63.5585   4
  -7   7  -7 1530.89 114.676   4
   7  -6  -6 268.613 57.2984   5
  -7   6   6 309.029 55.3068   2
   7  -6  -5 484.145 65.5509   5
  -7   6   5 550.198 66.1322   2
  -7   6   4 360.349 55.4224   1
   7  -6  -4 359.475 55.3065   5
   7  -6  -3 5486.56 180.251   5
  -7   6   3 5547.65 197.212   1
  -7   6   2 333.719 52.0682   1
   7  -6  -2 334.372 46.1649   5
   7  -6  -2 321.398 44.6361   3
  -7   6   1 5751.26 198.296   1
   7  -6  -1 5479.00 161.490   3
  -7   6   0 122.069 40.6329   1
   7  -6   0 110.087 28.5623   3
  -7   6  -1 819.048 75.8773   1
   7  -6   1 797.948 61.5425   3
  -7   6  -2 1846.58 112.491   1
  -7   6  -2 1947.59 105.708   4
  -7   6  -3 5401.06 189.838   1
  -7   6  -3 5356.68 182.521   4
  -7   6  -4 350.591 52.7124   4
  -7   6  -4 398.660 56.3731   1
  -7   6  -5 2763.39 140.498   4
  -7   6  -5 2710.24 135.594   1
  -7   6  -6 696.056 77.5087   4
  -7   6  -7 166.431 45.9365   4
  -7   5   7 766.545 79.0506   2
  -7   5   6 1139.69 91.3901   2
   7  -5  -6 1234.76 100.377   5
  -7   5   6 1048.12 85.0933   1
  -7   5   5 272.355 48.5175   1
   7  -5  -5 279.581 49.3043   5
  -7   5   5 232.381 44.9225   2
  -7   5   4 2942.26 138.965   1
  -7   5   3 2927.73 137.647   1
  -7   5   2 2371.03 124.808   1
   7  -5  -2 2253.43 98.2317   3
  -7   5   1 26.7880 26.2760   1
   7  -5  -1 49.8376 20.7613   3
  -7   5   0 169.388 38.5080   1
  -7   5  -1 106.801 33.1661   1
  -7   5  -2 67.0509 31.4373   4
  -7   5  -2 1.25706 28.6046   1
  -7   5  -3 4176.95 161.572   1
  -7   5  -3 4283.85 164.706   4
  -7   5  -4 1961.82 111.090   1
  -7   5  -4 1854.14 112.082   4
  -7   5  -5 102.352 35.3982   4
  -7   5  -5 55.6881 27.7136   1
  -7   5  -6 546.155 61.1662   1
  -7   5  -6 721.844 78.8755   4
  -7   5  -7 2892.21 156.143   4
   7  -4  -7 361.510 60.9493   5
  -7   4   6 680.777 65.5779   2
  -7   4   6 739.133 69.7376   1
  -7   4   5-8.64215 24.4854   1
  -7   4   5-24.6636 24.9763   2
  -7   4   4 304.686 48.0125   1
  -7   4   3 196.512 38.3663   1
  -7   4   2 107.969 32.1520   1
  -7   4   1 29.5812 26.2492   1
  -7   4   0 7022.95 204.002   1
  -7   4  -1 602.589 63.7098   1
  -7   4  -2 2585.48 124.264   4
  -7   4  -2 2557.10 125.153   1
  -7   4  -3 2639.55 129.713   4
  -7   4  -3 2593.63 126.257   1
  -7   4  -4 127.897 36.7787   4
  -7   4  -4 98.2192 32.8003   1
  -7   4  -5 16.4541 32.8286   4
  -7   4  -5 13.7139 22.7103   1
  -7   4  -6 997.037 77.8325   1
  -7   4  -6 1099.58 95.2666   4
   7  -3  -8 28.8925 33.7362   5
  -7   3   7 787.210 71.6617   1
  -7   3   6 1.67750 22.2683   1
  -7   3   5-6.82073 21.9528   1
  -7   3   4 353.095 50.4259   1
  -7   3   4 430.804 45.6634   6
  -7   3   3 3864.48 150.260   1
  -7   3   3 3807.23 119.270   6
  -7   3   2 463.409 55.9825   1
  -7   3   2 349.856 36.2190   6
  -7   3   1 670.761 65.7025   1
  -7   3   1 661.796 48.1641   6
  -7   3   0 63.8581 20.1222   6
  -7   3   0 93.1401 33.5106   1
  -7   3  -1 639.321 63.7775   1
  -7   3  -1 693.409 50.2468   6
  -7   3  -2 3570.50 142.441   1
  -7   3  -2 3623.35 147.109   4
  -7   3  -2 3616.22 114.293   6
  -7   3  -3 135.708 41.5121   4
  -7   3  -3 75.2123 24.8080   6
  -7   3  -3 80.4493 31.2262   1
  -7   3  -4 706.783 73.5313   4
  -7   3  -4 753.917 69.2197   1
  -7   3  -4 626.546 56.6923   6
  -7   3  -5 36.1934 32.2536   4
  -7   3  -5-16.7730 21.9225   6
  -7   3  -5 12.7051 21.1033   1
  -7   3  -6 1158.13 98.0820   4
  -7   2   8 1748.20 112.632   6
  -7   2   7 128.353 32.4259   1
  -7   2   7 55.5930 33.2774   6
  -7   2   6 529.674 58.7890   1
  -7   2   6 476.978 54.9585   6
  -7   2   5 929.456 76.5755   1
  -7   2   5 927.232 69.4230   6
  -7   2   4 6352.08 190.874   1
  -7   2   4 6466.01 169.665   6
  -7   2   3 753.232 69.0447   1
  -7   2   3 678.648 53.4562   6
  -7   2   2-9.71813 19.1177   6
  -7   2   2 1.44229 23.4711   1
  -7   2   1 261.025 43.7897   1
  -7   2   1 121.435 26.0169   6
  -7   2   0 1674.64 97.2202   1
  -7   2   0 1743.63 82.4383   6
  -7   2  -1 2622.11 121.658   1
  -7   2  -1 2580.55 102.040   6
  -7   2  -2 3445.35 138.912   1
  -7   2  -2 3606.88 148.358   4
  -7   2  -2 3633.53 124.618   6
  -7   2  -3 65.9939 34.1515   4
  -7   2  -3 27.6028 22.2041   6
  -7   2  -3 39.1230 27.8623   1
  -7   2  -4-10.7458 27.7709   4
  -7   2  -4 14.9964 21.8820   6
  -7   2  -4 13.8564 23.1610   1
  -7   2  -5 408.392 60.8976   4
  -7   2  -5 393.784 53.8004   6
  -7   2  -5 380.742 48.2864   1
  -7   2  -6 175.066 47.4256   4
  -7   1  10 1497.97 121.103   6
  -7   1   9 591.640 71.8351   6
  -7   1   8 873.087 73.7284   1
  -7   1   8 924.095 83.6286   6
  -7   1   7 105.468 33.3758   6
  -7   1   7 116.334 31.2405   1
  -7   1   6 2841.82 128.685   1
  -7   1   6 2643.16 123.686   6
  -7   1   5 5232.60 163.854   6
  -7   1   4 4642.51 145.307   6
  -7   1   3 3543.47 125.496   6
  -7   1   2 1.21491 22.4112   6
  -7   1   1 1423.28 78.8394   6
  -7   1   0 8068.20 185.704   6
  -7   1  -1 3668.71 128.842   6
  -7   1  -2 492.281 59.6323   4
  -7   1  -2 593.904 60.0727   1
  -7   1  -2 532.828 54.3370   6
  -7   1  -3 1917.46 103.533   1
  -7   1  -3 1901.09 114.296   4
  -7   1  -3 1820.37 101.342   6
  -7   1  -4 171.085 41.6536   4
  -7   1  -4 225.578 41.5458   6
  -7   1  -4 208.450 37.3575   1
  -7   1  -5 1472.33 107.084   4
  -7   1  -5 1600.38 103.603   6
  -7   1  -6 292.221 54.8070   4
  -7   0  10 1787.67 129.078   6
  -7   0   9 777.518 83.5723   6
  -7   0   8 1031.48 89.0450   6
  -7   0   7 3330.58 149.375   6
  -7   0   6 1567.88 97.8747   6
  -7   0   5 14076.1 270.064   6
  -7   0   4 7031.87 186.518   6
  -7   0   3 1990.50 98.5121   6
  -7   0   2 1779.99 91.9452   6
  -7   0   1 1246.19 78.9315   6
  -7   0   0 7950.59 194.502   6
  -7   0  -1 235.786 40.1627   6
  -7   0  -2 377.152 50.1831   6
  -7   0  -2 323.307 50.8366   4
  -7   0  -3 94.7610 35.4493   4
  -7   0  -3 65.0917 32.5779   6
  -7   0  -4 219.534 38.9933   1
  -7   0  -4 289.978 52.7458   4
  -7   0  -4 237.968 46.6300   6
  -7   0  -5 257.079 53.6376   4
  -7   0  -5 233.828 50.3418   6
  -7  -1  10 2259.25 144.363   6
  -7  -1   9 30.3565 29.0801   6
  -7  -1   8 580.181 68.4193   6
  -7  -1   7 3166.66 145.504   6
  -7  -1   6 9081.68 232.058   6
  -7  -1   5 4538.99 161.008   6
  -7  -1   4 2659.58 119.473   6
  -7  -1   3-78.8272 36.0910   6
  -7  -1   2 3435.98 133.366   6
  -7  -1   1 5459.45 168.097   6
  -7  -1   0 538.373 58.8024   6
  -7  -1  -1 72.6869 29.1976   6
  -7  -1  -2 652.948 67.8654   6
  -7  -1  -3 288.195 52.9263   6
  -7  -1  -3 199.216 44.5703   4
  -7  -1  -4 1276.72 100.031   4
  -7  -1  -4 1154.99 93.9367   6
  -7  -1  -5 1632.80 113.214   4
  -7  -2  10 2942.13 164.270   6
  -7  -2   9 17.1507 34.2487   6
  -7  -2   8 77.5864 30.5223   6
  -7  -2   7 1720.21 109.940   6
  -7  -2   6 7657.07 219.126   6
  -7  -2   5 19.4267 23.5177   6
  -7  -2   4 438.706 53.1272   6
  -7  -2   3 645.188 63.5665   6
  -7  -2   2 443.631 55.4573   6
  -7  -2   1 3243.77 137.492   6
  -7  -2   0 1991.25 110.388   6
  -7  -2  -1 2380.88 124.042   6
  -7  -2  -2 4686.50 178.944   6
  -7  -2  -3 2411.75 136.564   6
  -7  -3  10 208.764 51.8286   6
  -7  -3   9 22.9069 32.3470   6
  -7  -3   8 591.907 71.3655   6
  -7  -3   7 1046.02 87.1710   6
  -7  -3   6 4724.51 177.273   6
  -7  -3   5-8.03742 35.5087   6
  -7  -3   4 7.58149 30.7598   6
  -7  -3   3 18.9126 27.9056   6
  -7  -3   2 126.922 37.4660   6
  -7  -3   1 3624.78 153.349   6
  -7  -3   0 3022.34 142.472   6
  -7  -3  -1 1571.34 107.972   6
  -7  -3  -2 434.877 64.5685   6
  -7  -4  10 294.237 61.9011   6
  -7  -4   9-26.6027 35.5771   6
  -7  -4   8 1639.64 114.801   6
  -7  -4   7 43.8663 33.6365   6
  -7  -4   6 431.306 61.7165   6
  -7  -4   5-115.152 47.2505   6
  -7  -4   4-40.1319 43.1122   6
  -7  -4   3 30108.0 446.876   6
  -7  -4   2 4173.14 169.060   6
  -7  -4   1 1883.10 116.743   6
  -7  -4   0 323.331 56.5133   6
  -7  -4  -1 4564.46 188.735   6
  -7  -5   9 62.9832 37.3422   6
  -7  -5   8-14.1799 39.1308   6
  -7  -5   7 2088.79 129.200   6
  -7  -5   6 106.414 38.0890   6
  -7  -5   5 9276.31 262.657   6
  -7  -5   4 11499.1 288.629   6
  -7  -5   3 5569.24 202.351   6
  -7  -5   2 6840.43 225.139   6
  -7  -5   1 1198.52 99.1060   6
  -7  -6   8 655.560 79.1504   6
  -7  -6   7 98.7626 41.4476   6
  -7  -6   6 844.185 86.8102   6
  -7  -6   5 3719.11 173.246   6
  -7  -6   4 6254.45 222.846   6
  -7  -6   3 676.521 79.7764   6
  -8   8  -4 1945.72 122.001   4
  -8   8  -5 23.2702 31.8122   4
  -8   7   2 600.595 76.8902   1
  -8   7   1 547.543 73.2581   1
  -8   7   0 895.073 89.3185   1
  -8   7  -1 3238.68 163.372   1
  -8   7  -2 1275.87 104.182   1
  -8   7  -3 395.272 61.1494   1
  -8   7  -3 405.909 57.1404   4
  -8   7  -4 150.469 42.4589   4
  -8   7  -4 96.7143 39.0727   1
  -8   7  -5 940.702 91.5282   4
   8  -6  -5 26.2312 31.1057   5
  -8   6   5 29.9112 26.2811   1
  -8   6   4 77.9138 34.7307   1
   8  -6  -4 98.9026 37.2938   5
   8  -6  -3 6511.88 203.714   5
  -8   6   3 6703.92 230.142   1
  -8   6   2 1345.48 104.472   1
  -8   6   1 608.722 71.1258   1
  -8   6   0 177.794 44.6668   1
  -8   6  -1 1669.45 114.490   1
  -8   6  -2 1652.42 113.623   1
  -8   6  -3 3318.58 159.214   1
  -8   6  -3 3457.76 157.675   4
  -8   6  -4 819.042 81.5556   1
  -8   6  -4 829.375 84.9059   4
  -8   6  -5 34.2295 34.4013   4
  -8   6  -5 35.0173 26.1317   1
  -8   6  -6 3115.95 153.667   1
  -8   5   6 39.3988 32.3315   1
  -8   5   5 2182.93 129.458   1
  -8   5   4 86.8376 34.1166   1
  -8   5   3 298.146 52.4962   1
  -8   5   2 1951.62 122.041   1
  -8   5   1 127.942 37.3424   1
  -8   5   0 111.621 36.4726   1
  -8   5  -1 9674.15 265.832   1
  -8   5  -2 1468.75 105.802   1
  -8   5  -3 546.382 68.7078   4
  -8   5  -3 648.985 71.4120   1
  -8   5  -4 2580.71 136.683   1
  -8   5  -4 2499.40 141.259   4
  -8   5  -5 483.278 70.1399   4
  -8   5  -5 442.501 59.7007   1
  -8   5  -6 526.643 64.7212   1
  -8   4   6 358.036 55.0634   1
  -8   4   5 122.005 38.4710   1
  -8   4   4 976.993 87.7374   1
  -8   4   3-39.8657 35.6614   1
  -8   4   2 80.3896 33.9274   1
  -8   4   1 11735.0 285.938   1
  -8   4   0 616.146 69.8892   1
  -8   4  -1 1195.95 93.6419   1
  -8   4  -2 137.961 35.5209   1
  -8   4  -3 5195.21 195.715   4
  -8   4  -3 4985.34 187.078   1
  -8   4  -4 7595.82 245.010   4
  -8   4  -4 7515.49 228.816   1
  -8   4  -5 243.911 50.9770   4
  -8   4  -5 229.404 44.6800   1
  -8   3   7 9.05056 22.0878   1
  -8   3   6 260.406 48.2689   1
  -8   3   5 1254.34 95.3737   1
  -8   3   4 2029.26 119.939   1
  -8   3   3 190.786 42.9501   1
  -8   3   2 429.043 59.1790   1
  -8   3   1 381.041 53.6088   1
  -8   3   0 2670.69 135.197   1
  -8   3  -1 4650.29 176.670   1
  -8   3  -2 5114.05 185.490   1
  -8   3  -3 11251.2 287.834   4
  -8   3  -3 11564.5 276.787   1
  -8   3  -4 14037.9 332.728   4
  -8   3  -4 14095.6 308.703   1
  -8   3  -5 158.752 36.7383   1
  -8   2   7 921.149 83.2318   1
  -8   2   6 1722.17 111.528   1
  -8   2   5 20050.9 371.172   1
  -8   2   4 14478.6 312.490   1
  -8   2   4 14760.9 272.026   6
  -8   2   3 593.602 66.5519   1
  -8   2   3 469.679 50.4542   6
  -8   2   2 4103.67 165.591   1
  -8   2   2 4151.18 138.333   6
  -8   2   1-31.6192 27.2968   6
  -8   2   1 23.4272 25.8413   1
  -8   2   0-12.5842 20.0440   6
  -8   2   0-9.43483 26.5588   1
  -8   2  -1 4104.25 164.932   1
  -8   2  -1 4128.95 139.391   6
  -8   2  -2 23804.8 394.721   1
  -8   2  -2 23250.4 340.886   6
  -8   2  -3 578.497 65.7186   1
  -8   2  -3 710.129 78.0533   4
  -8   2  -3 564.817 60.0460   6
  -8   2  -4 436.471 65.6952   4
  -8   2  -4 444.230 57.8228   1
  -8   2  -4 477.589 57.8626   6
  -8   1   8 530.306 64.0274   1
  -8   1   8 585.241 70.2964   6
  -8   1   7 3349.25 153.040   1
  -8   1   7 3641.06 160.152   6
  -8   1   6 29492.0 447.003   1
  -8   1   6 30077.7 433.026   6
  -8   1   5 64.3042 31.5308   6
  -8   1   5 12.9006 28.2818   1
  -8   1   4 152.432 36.2464   6
  -8   1   3 459.452 52.4950   6
  -8   1   2 160.988 35.0256   6
  -8   1   1 3501.79 132.955   6
  -8   1   0 39.8666 24.7995   6
  -8   1  -1 345.923 47.9408   6
  -8   1  -1 284.336 45.1051   1
  -8   1  -2 2064.71 118.953   1
  -8   1  -2 2117.91 110.432   6
  -8   1  -3 1612.20 104.257   1
  -8   1  -3 1698.56 116.609   4
  -8   1  -3 1651.07 103.052   6
  -8   1  -4 57.0018 38.9626   4
  -8   1  -4-22.6777 30.4533   6
  -8   1  -4-47.1657 29.1042   1
  -8   1  -5 1118.82 95.1353   6
  -8   0   9 3966.00 186.649   6
  -8   0   8 3239.68 151.466   1
  -8   0   8 3157.10 159.702   6
  -8   0   7 47.9438 28.4470   6
  -8   0   6 737.023 73.0470   6
  -8   0   5 5458.95 180.356   6
  -8   0   4 3394.94 141.213   6
  -8   0   3 8195.27 214.093   6
  -8   0   2 9062.82 223.817   6
  -8   0   1 546.298 60.1339   6
  -8   0   0 103.270 34.1729   6
  -8   0  -1 855.019 74.9319   6
  -8   0  -2 319.619 51.0669   6
  -8   0  -3 89.8091 37.3000   6
  -8   0  -3 85.9377 31.7984   1
  -8   0  -4 1164.45 96.4736   6
  -8  -1   9 3154.92 168.079   6
  -8  -1   8 1165.26 99.1110   6
  -8  -1   7 317.393 54.6264   6
  -8  -1   6 2156.53 121.483   6
  -8  -1   5 2785.05 134.933   6
  -8  -1   4 278.254 46.4031   6
  -8  -1   3 1657.20 101.937   6
  -8  -1   2 341.938 50.9765   6
  -8  -1   1 819.273 74.5444   6
  -8  -1   0 1620.43 104.460   6
  -8  -1  -1 3411.55 151.890   6
  -8  -1  -2 1179.01 94.9226   6
  -8  -1  -3 85.9155 36.5695   6
  -8  -2   9 61.5719 41.6026   6
  -8  -2   8 1033.29 95.6747   6
  -8  -2   7 667.064 74.2237   6
  -8  -2   6 355.216 58.3866   6
  -8  -2   5 3375.84 154.075   6
  -8  -2   4 2067.29 119.841   6
  -8  -2   3-11.6478 30.8329   6
  -8  -2   2 21.9241 24.1696   6
  -8  -2   1 2466.31 131.267   6
  -8  -2   0 90.5531 36.0838   6
  -8  -2  -1 3667.32 164.562   6
  -8  -2  -2 1057.23 94.9275   6
  -8  -3   9 523.001 72.6105   6
  -8  -3   8 2252.27 138.759   6
  -8  -3   7 2155.23 131.923   6
  -8  -3   6 3404.64 161.195   6
  -8  -3   5 1194.66 95.4762   6
  -8  -3   4 99.5120 34.1964   6
  -8  -3   3-40.2239 38.9293   6
  -8  -3   2 4300.29 176.991   6
  -8  -3   1 4802.32 189.631   6
  -8  -3   0 2661.25 144.365   6
  -8  -4   8 204.730 51.9044   6
  -8  -4   7-0.92030 29.7823   6
  -8  -4   6 1424.27 110.783   6
  -8  -4   5 658.085 77.2375   6
  -8  -4   4 7769.27 247.665   6
  -8  -4   3 98.5839 38.8900   6
  -8  -4   2 1135.57 98.4100   6
  -8  -5   6 3513.21 173.718   6
  -8  -5   5 528.550 72.2312   6
  -9   5   3 3475.86 176.097   1
  -9   5   2 1461.99 114.187   1
  -9   5   1 192.055 45.4907   1
  -9   5   0 1970.78 130.183   1
  -9   5  -1 465.761 69.3478   1
  -9   5  -2 1798.68 125.732   1
  -9   4   5 12.0889 30.3001   1
  -9   4   4 2306.48 139.958   1
  -9   4   3 529.165 73.3304   1
  -9   4   2 5171.19 207.551   1
  -9   4   1-12.6430 38.3017   1
  -9   4   0 343.863 58.0990   1
  -9   4  -1 2265.42 137.456   1
  -9   4  -2 4024.29 180.928   1
  -9   4  -3 2289.07 137.668   1
  -9   3   6 417.406 62.9543   1
  -9   3   5-7.99091 34.3688   1
  -9   3   4 1632.87 116.404   1
  -9   3   3 2319.59 136.834   1
  -9   3   2 153.723 41.4643   1
  -9   3   1 603.225 72.8960   1
  -9   3   0 755.967 80.3739   1
  -9   3  -1 4833.06 195.208   1
  -9   3  -2 544.487 68.9088   1
  -9   3  -3 907.168 86.6631   1
  -9   2   7-61.3553 36.3567   1
  -9   2   6 198.692 46.8235   1
  -9   2   5 1478.61 111.871   1
  -9   2   4 1430.31 109.006   1
  -9   2   3 374.750 58.9458   1
  -9   2   2 23.9326 27.8140   1
  -9   2   1 576.832 70.0828   1
  -9   2   0 351.134 56.6181   1
  -9   2  -1 1275.14 101.925   1
  -9   2  -2 224.437 46.9959   1
  -9   2  -3 220.041 47.8342   1
  -9   1   8 47.7399 30.1647   1
  -9   1   7-11.4311 27.5279   1
  -9   1   6 1512.49 111.313   1
  -9   1   5 229.694 48.2654   1
  -9   1   4 623.731 73.9755   1
  -9   1   3 13.2655 27.2092   1
  -9   1   2 270.590 45.6011   6
  -9   1   2 363.979 57.7225   1
  -9   1   1 336.842 50.4108   6
  -9   1   1 311.235 55.3220   1
  -9   1   0 336.034 51.6712   6
  -9   1   0 251.263 50.8879   1
  -9   1  -1 1138.21 96.2329   1
  -9   1  -2 97.8113 32.5729   1
  -9   0   8 517.578 70.9366   6
  -9   0   8 597.762 73.0793   1
  -9   0   7 23.2222 29.0751   6
  -9   0   7 6.58068 29.4390   1
  -9   0   6 380.100 60.0725   6
  -9   0   5 415.919 57.6960   6
  -9   0   4 9.83170 27.7797   6
  -9   0   3 186.292 39.4550   6
  -9   0   2 40.6497 27.6710   6
  -9   0   1 137.940 37.9351   6
  -9   0   0-9.69163 30.3678   6
  -9   0  -1 184.573 44.3485   6
  -9   0  -1 114.136 36.3737   1
  -9   0  -2-4.73036 31.0725   6
  -9  -1   8 59.6991 35.5979   6
  -9  -1   7 749.966 82.0208   6
  -9  -1   6 81.0910 36.6282   6
  -9  -1   5 421.580 60.4064   6
  -9  -1   4 45.8179 24.5961   6
  -9  -1   3-9.94945 27.3330   6
  -9  -1   2 977.300 86.3935   6
  -9  -1   1 215.081 46.6638   6
  -9  -1   0 209.096 48.3441   6
  -9  -1  -1 2240.50 132.951   6
  -9  -2   7 2071.13 134.382   6
  -9  -2   6 40.1429 32.2106   6
  -9  -2   5 77.3442 38.9872   6
  -9  -2   4 342.958 59.5988   6
  -9  -2   3 272.006 51.4206   6
  -9  -2   2 692.209 77.0700   6
  -9  -2   1 3176.52 158.809   6
  -9  -3   6 623.280 77.5830   6
  -9  -3   5 1471.50 112.834   6
  -9  -3   4 4635.04 197.768   6
   0   0   0    0.00    0.00   0
TITL AlCh_108_glass_g in P-1
REM P-1 (#2 in standard setting)
CELL 0.71073   7.116483   9.075871   9.811950 117.1180  99.8694  98.2069
ZERR   15.00   0.000500   0.000712   0.000755   0.0078   0.0062   0.0061
LATT  1
SFAC C H Al
UNIT 15.00 1620.00 15.00
TREF
HKLF 4
END
;
_shelx_hkl_checksum              26053
loop_
_space_group_symop_operation_xyz
'x, y, z'
'-x, -y, -z'
loop_
_atom_site_label
_atom_site_type_symbol
_atom_site_fract_x
_atom_site_fract_y
_atom_site_fract_z
_atom_site_U_iso_or_equiv
_atom_site_adp_type
_atom_site_occupancy
_atom_site_site_symmetry_order
_atom_site_calc_flag
_atom_site_refinement_flags_posn
_atom_site_refinement_flags_adp
_atom_site_refinement_flags_occupancy
_atom_site_disorder_assembly
_atom_site_disorder_group
N1 N 0.3281(4) 0.0083(4) 0.1069(3) 0.0378(7) Uani 1 1 d . . . . .
H1 H 0.3816 -0.0109 0.1831 0.045 Uiso 1 1 calc R U . . .
N3 N 0.1300(4) -0.1134(3) -0.1473(3) 0.0281(5) Uani 1 1 d . . . . .
C1 C 0.3832(4) 0.1713(3) 0.1437(3) 0.0236(6) Uani 1 1 d . . . . .
C2 C 0.5071(4) 0.3019(4) 0.2902(3) 0.0237(6) Uani 1 1 d . . . . .
H2 H 0.5610 0.2771 0.3705 0.028 Uiso 1 1 calc R U . . .
C3 C 0.5495(4) 0.4665(3) 0.3158(3) 0.0236(6) Uani 1 1 d . . . . .
H3 H 0.6336 0.5561 0.4145 0.028 Uiso 1 1 calc R U . . .
C4 C 0.4694(4) 0.5031(4) 0.1971(3) 0.0245(6) Uani 1 1 d . . . . .
H4 H 0.4968 0.6173 0.2158 0.029 Uiso 1 1 calc R U . . .
C5 C 0.3522(4) 0.3733(4) 0.0552(3) 0.0253(6) Uani 1 1 d . . . . .
H5 H 0.2995 0.3969 -0.0263 0.030 Uiso 1 1 calc R U . . .
C6 C 0.2043(4) -0.1384(3) -0.0260(3) 0.0242(6) Uani 1 1 d . . . . .
C7 C 0.1623(4) -0.2961(4) -0.0348(3) 0.0254(6) Uani 1 1 d . . . . .
H7 H 0.2156 -0.3094 0.0534 0.030 Uiso 1 1 calc R U . . .
C8 C 0.0413(4) -0.4347(4) -0.1741(4) 0.0281(6) Uani 1 1 d . . . . .
H8 H 0.0115 -0.5449 -0.1835 0.034 Uiso 1 1 calc R U . . .
C9 C -0.0362(4) -0.4104(4) -0.3004(3) 0.0268(6) Uani 1 1 d . . . . .
H9 H -0.1196 -0.5039 -0.3972 0.032 Uiso 1 1 calc R U . . .
C10 C 0.0093(4) -0.2497(4) -0.2837(3) 0.0271(6) Uani 1 1 d . . . . .
H10 H -0.0450 -0.2332 -0.3696 0.033 Uiso 1 1 calc R U . . .
Si1 Si 0.5000 0.0000 0.5000 0.0220(3) Uani 1 2 d S . P . .
F1 F 0.5108(3) -0.0791(3) 0.3095(2) 0.0378(5) Uani 1 1 d . . . . .
F2 F 0.3268(3) 0.0990(3) 0.4694(2) 0.0423(5) Uani 1 1 d . . . . .
F3 F 0.3223(3) -0.1734(2) 0.4459(3) 0.0438(5) Uani 1 1 d . . . . .
O1 O 0.0836(3) 0.1564(3) -0.2927(3) 0.0407(6) Uani 1 1 d . . . . .
H1S H -0.0300 0.1013 -0.3478 0.061 Uiso 1 1 d R U . . .
H2S H 0.1561 0.1210 -0.3566 0.061 Uiso 1 1 d R U . . .
N2 N 0.3094(3) 0.2097(3) 0.0287(3) 0.0269(5) Uani 1 1 d . . . . .
H2N H 0.1997 0.0562 -0.0952 0.040 Uiso 1 1 d R U . . .
loop_
_atom_site_aniso_label
_atom_site_aniso_U_11
_atom_site_aniso_U_22
_atom_site_aniso_U_33
_atom_site_aniso_U_23
_atom_site_aniso_U_13
_atom_site_aniso_U_12
N1 0.0419(15) 0.0375(15) 0.0349(15) 0.0193(13) 0.0076(12) 0.0109(12)
N3 0.0254(12) 0.0244(12) 0.0304(13) 0.0102(10) 0.0082(10) 0.0055(9)
C1 0.0219(13) 0.0203(12) 0.0289(14) 0.0093(11) 0.0153(11) 0.0060(10)
C2 0.0219(13) 0.0264(13) 0.0227(13) 0.0112(11) 0.0081(10) 0.0066(10)
C3 0.0199(12) 0.0245(13) 0.0208(13) 0.0072(10) 0.0066(10) 0.0023(10)
C4 0.0218(12) 0.0234(13) 0.0272(14) 0.0114(11) 0.0086(10) 0.0045(10)
C5 0.0225(13) 0.0299(14) 0.0247(13) 0.0140(11) 0.0074(10) 0.0073(11)
C6 0.0186(12) 0.0219(13) 0.0250(13) 0.0047(11) 0.0087(10) 0.0054(10)
C7 0.0229(13) 0.0289(14) 0.0291(14) 0.0167(12) 0.0086(11) 0.0097(11)
C8 0.0267(14) 0.0215(13) 0.0368(16) 0.0127(12) 0.0138(12) 0.0079(11)
C9 0.0212(13) 0.0240(13) 0.0251(13) 0.0047(11) 0.0056(10) 0.0034(10)
C10 0.0256(14) 0.0303(14) 0.0224(13) 0.0107(11) 0.0050(11) 0.0077(11)
Si1 0.0207(5) 0.0207(5) 0.0214(5) 0.0089(4) 0.0034(4) 0.0044(4)
F1 0.0481(11) 0.0427(11) 0.0241(9) 0.0160(8) 0.0116(8) 0.0151(9)
F2 0.0427(11) 0.0524(12) 0.0452(12) 0.0301(10) 0.0124(9) 0.0281(10)
F3 0.0413(11) 0.0316(10) 0.0459(12) 0.0148(9) 0.0083(9) -0.0076(8)
O1 0.0278(11) 0.0366(12) 0.0423(13) 0.0086(10) 0.0050(10) 0.0076(9)
N2 0.0214(11) 0.0293(12) 0.0224(12) 0.0067(10) 0.0071(9) 0.0046(9)
loop_
_atom_type_symbol
_atom_type_description
_atom_type_scat_dispersion_real
_atom_type_scat_dispersion_imag
_atom_type_scat_source
C C 0.0033 0.0016 'International Tables Vol C Tables 4.2.6.8 and 6.1.1.4'
H H 0.0000 0.0000 'International Tables Vol C Tables 4.2.6.8 and 6.1.1.4'
F F 0.0171 0.0103 'International Tables Vol C Tables 4.2.6.8 and 6.1.1.4'
N N 0.0061 0.0033 'International Tables Vol C Tables 4.2.6.8 and 6.1.1.4'
O O 0.0106 0.0060 'International Tables Vol C Tables 4.2.6.8 and 6.1.1.4'
Si Si 0.0817 0.0704 'International Tables Vol C Tables 4.2.6.8 and 6.1.1.4'
loop_
_geom_angle_atom_site_label_1
_geom_angle_atom_site_label_2
_geom_angle_atom_site_label_3
_geom_angle
_geom_angle_site_symmetry_1
_geom_angle_site_symmetry_3
C1 N1 C6 133.9(3) . .
C1 N1 H1 113.0 . .
C6 N1 H1 113.0 . .
C6 N3 C10 118.4(3) . .
C6 N3 H2N 106.1 . .
C10 N3 H2N 135.5 . .
N1 C1 N2 116.2(3) . .
N1 C1 C2 124.3(3) . .
N2 C1 C2 119.5(2) . .
C3 C2 C1 119.0(3) . .
C3 C2 H2 120.5 . .
C1 C2 H2 120.5 . .
C2 C3 C4 120.5(2) . .
C2 C3 H3 119.8 . .
C4 C3 H3 119.8 . .
C5 C4 C3 119.2(3) . .
C5 C4 H4 120.4 . .
C3 C4 H4 120.4 . .
C4 C5 N2 120.7(3) . .
C4 C5 H5 119.6 . .
N2 C5 H5 119.6 . .
N3 C6 C7 122.5(3) . .
N3 C6 N1 113.9(3) . .
C7 C6 N1 123.6(3) . .
C6 C7 C8 118.9(3) . .
C6 C7 H7 120.5 . .
C8 C7 H7 120.5 . .
C7 C8 C9 119.1(3) . .
C7 C8 H8 120.5 . .
C9 C8 H8 120.5 . .
C10 C9 C8 119.3(3) . .
C10 C9 H9 120.4 . .
C8 C9 H9 120.4 . .
N3 C10 C9 121.8(3) . .
N3 C10 H10 119.1 . .
C9 C10 H10 119.1 . .
F3 Si1 F3 180.0 . 2_656
F3 Si1 F2 89.72(11) . .
F3 Si1 F2 90.28(11) 2_656 .
F3 Si1 F2 90.28(11) . 2_656
F3 Si1 F2 89.72(11) 2_656 2_656
F2 Si1 F2 180.0 . 2_656
F3 Si1 F1 90.00(10) . .
F3 Si1 F1 90.00(10) 2_656 .
F2 Si1 F1 90.77(10) . .
F2 Si1 F1 89.23(10) 2_656 .
F3 Si1 F1 90.00(10) . 2_656
F3 Si1 F1 90.00(10) 2_656 2_656
F2 Si1 F1 89.23(10) . 2_656
F2 Si1 F1 90.77(10) 2_656 2_656
F1 Si1 F1 180.00(14) . 2_656
H1S O1 H2S 104.6 . .
C5 N2 C1 121.1(2) . .
C5 N2 H2N 135.0 . .
C1 N2 H2N 103.9 . .
loop_
_geom_bond_atom_site_label_1
_geom_bond_atom_site_label_2
_geom_bond_distance
_geom_bond_site_symmetry_2
_geom_bond_publ_flag
N1 C1 1.331(4) . yes
N1 C6 1.392(4) . yes
N1 H1 0.8800 . ?
N3 C6 1.346(4) . ?
N3 C10 1.361(4) . ?
N3 H2N 1.3623 . ?
C1 N2 1.370(4) . ?
C1 C2 1.401(4) . ?
C2 C3 1.374(4) . ?
C2 H2 0.9500 . ?
C3 C4 1.404(4) . ?
C3 H3 0.9500 . ?
C4 C5 1.360(4) . ?
C4 H4 0.9500 . ?
C5 N2 1.363(4) . ?
C5 H5 0.9500 . ?
C6 C7 1.379(4) . ?
C7 C8 1.382(4) . ?
C7 H7 0.9500 . ?
C8 C9 1.392(4) . ?
C8 H8 0.9500 . ?
C9 C10 1.374(4) . ?
C9 H9 0.9500 . ?
C10 H10 0.9500 . ?
Si1 F3 1.6723(18) . ?
Si1 F3 1.6723(18) 2_656 ?
Si1 F2 1.6891(18) . ?
Si1 F2 1.6891(18) 2_656 ?
Si1 F1 1.6904(18) . ?
Si1 F1 1.6904(18) 2_656 ?
O1 H1S 0.8274 . ?
O1 H2S 0.8586 . ?
N2 H2N 1.3593 . ?
loop_
_geom_hbond_atom_site_label_D
_geom_hbond_atom_site_label_H
_geom_hbond_atom_site_label_A
_geom_hbond_distance_DH
_geom_hbond_distance_HA
_geom_hbond_distance_DA
_geom_hbond_angle_DHA
_geom_hbond_site_symmetry_A
_geom_hbond_publ_flag
N1 H1 F1 0.88 1.80 2.668(3) 168.6 . yes
N2 H2N N3 1.36 1.36 2.602(3) 145.9 . yes
