#------------------------------------------------------------------------------
#$Date: 2019-09-10 03:35:06 +0300 (Tue, 10 Sep 2019) $
#$Revision: 218107 $
#$URL: file:///home/coder/svn-repositories/cod/cif/7/23/37/7233726.cif $
#------------------------------------------------------------------------------
#
# This file is available in the Crystallography Open Database (COD),
# http://www.crystallography.net/
#
# All data on this site have been placed in the public domain by the
# contributors.
#
data_7233726
loop_
_publ_author_name
'Molcanov, Kresimir'
'Milasinovic, Valentina'
'Ivic, Nives'
'Stilinovi\'c, Vladimir'
'Kolaric, Dinko'
'Kojic-Prodic, Biserka'
_publ_section_title
;
 Influence of organic cations on stacking of semiquinone radical anions
;
_journal_name_full               CrystEngComm
_journal_paper_doi               10.1039/C9CE00919A
_journal_year                    2019
_chemical_formula_moiety         'C12 H9 Cl4 N2 O2'
_chemical_formula_sum            'C12 H9 Cl4 N2 O2'
_chemical_formula_weight         355.01
_space_group_IT_number           2
_space_group_name_Hall           '-P 1'
_space_group_name_H-M_alt        'P -1'
_symmetry_cell_setting           triclinic
_symmetry_space_group_name_Hall  '-P 1'
_symmetry_space_group_name_H-M   'P -1'
_atom_sites_solution_hydrogens   geom
_atom_sites_solution_primary     direct
_atom_sites_solution_secondary   difmap
_audit_creation_date             2017-01-16T14:12:48-00:00
_audit_creation_method           'WinGX routine CIF_UPDATE'
_audit_update_record
;
2019-06-10 deposited with the CCDC.    2019-09-02 downloaded from the CCDC.
;
_cell_angle_alpha                106.258(7)
_cell_angle_beta                 91.624(6)
_cell_angle_gamma                106.085(6)
_cell_formula_units_Z            2
_cell_length_a                   7.1294(4)
_cell_length_b                   9.5042(8)
_cell_length_c                   11.0035(9)
_cell_measurement_reflns_used    2451
_cell_measurement_temperature    293(2)
_cell_measurement_theta_max      75.8428
_cell_measurement_theta_min      4.2096
_cell_volume                     683.20(10)
_computing_cell_refinement
;
        CrysAlisPro, Agilent Technologies,
        Version 1.171.36.20 (release 27-06-2012 CrysAlis171 .NET)
        (compiled Jul 11 2012,15:38:31)
;
_computing_data_collection
;
        CrysAlisPro, Agilent Technologies,
        Version 1.171.36.20 (release 27-06-2012 CrysAlis171 .NET)
        (compiled Jul 11 2012,15:38:31)
;
_computing_data_reduction
;
        CrysAlisPro, Agilent Technologies,
        Version 1.171.36.20 (release 27-06-2012 CrysAlis171 .NET)
        (compiled Jul 11 2012,15:38:31)
;
_computing_molecular_graphics    'Ortep-3 for Windows (Farrugia, 1997)'
_computing_publication_material  'WinGX publication routines (Farrugia, 1999)'
_computing_structure_refinement  'SHELXL-97 (Sheldrick, 1997)'
_computing_structure_solution    'SHELXS-97 (Sheldrick, 1997)'
_diffrn_ambient_temperature      293(2)
_diffrn_detector_area_resol_mean 10.4323
_diffrn_measured_fraction_theta_full 0.979
_diffrn_measured_fraction_theta_max 0.979
_diffrn_measurement_device_type  'Xcalibur, Ruby, Nova'
_diffrn_measurement_method       '\w scans'
_diffrn_radiation_monochromator  graphite
_diffrn_radiation_type           CuK\a
_diffrn_radiation_wavelength     1.54184
_diffrn_reflns_av_R_equivalents  0.0301
_diffrn_reflns_av_unetI/netI     0.0376
_diffrn_reflns_limit_h_max       6
_diffrn_reflns_limit_h_min       -8
_diffrn_reflns_limit_k_max       11
_diffrn_reflns_limit_k_min       -11
_diffrn_reflns_limit_l_max       13
_diffrn_reflns_limit_l_min       -13
_diffrn_reflns_number            5564
_diffrn_reflns_theta_full        76.03
_diffrn_reflns_theta_max         76.03
_diffrn_reflns_theta_min         4.21
_exptl_absorpt_coefficient_mu    7.904
_exptl_absorpt_correction_T_max  1
_exptl_absorpt_correction_T_min  0.56883
_exptl_absorpt_correction_type   multi-scan
_exptl_absorpt_process_details
;
        CrysAlisPro, Agilent Technologies,
        Version 1.171.36.20 (release 27-06-2012 CrysAlis171 .NET)
        (compiled Jul 11 2012,15:38:31)
        Empirical absorption correction using spherical harmonics,
 implemented in SCALE3 ABSPACK scaling algorithm.
;
_exptl_crystal_colour            'dark green'
_exptl_crystal_density_diffrn    1.726
_exptl_crystal_density_method    'not measured'
_exptl_crystal_description       prism
_exptl_crystal_F_000             358
_exptl_crystal_recrystallization_method
'Re-crystallisation from solvent: acetone'
_exptl_crystal_size_max          0.35
_exptl_crystal_size_mid          0.05
_exptl_crystal_size_min          0.05
_refine_diff_density_max         0.435
_refine_diff_density_min         -0.424
_refine_diff_density_rms         0.087
_refine_ls_extinction_method     none
_refine_ls_goodness_of_fit_ref   1.072
_refine_ls_hydrogen_treatment    constr
_refine_ls_matrix_type           full
_refine_ls_number_parameters     181
_refine_ls_number_reflns         2779
_refine_ls_number_restraints     0
_refine_ls_restrained_S_all      1.072
_refine_ls_R_factor_all          0.056
_refine_ls_R_factor_gt           0.0521
_refine_ls_shift/su_max          0
_refine_ls_shift/su_mean         0
_refine_ls_structure_factor_coef Fsqd
_refine_ls_weighting_details
'calc w=1/[\s^2^(Fo^2^)+(0.0718P)^2^+1.1030P] where P=(Fo^2^+2Fc^2^)/3'
_refine_ls_weighting_scheme      calc
_refine_ls_wR_factor_ref         0.1619
_reflns_number_gt                2491
_reflns_number_total             2779
_reflns_threshold_expression     >2sigma(I)
_iucr_refine_instructions_details
;
TITL cl4q_3ampy in P -1
CELL  1.54184   7.1294   9.5042  11.0035  106.258   91.624  106.085
ZERR     2.00   0.0004   0.0008   0.0009    0.007    0.006    0.006
LATT   1
SFAC  C    H    CL   N    O
UNIT  24   18   8    4    4
MERG   2
OMIT    -4.00 180.00
OMIT    -3 -1 2
OMIT    0 4 0
OMIT    3 -7 6
OMIT    -2 5 2
OMIT    -3 -4 5
OMIT    3 -4 3
OMIT    -3 6 7
OMIT    -6 1 5
OMIT    3 4 3
OMIT    -2 -3 10
FMAP   2
PLAN   20
BOND    $H
HTAB
CONF
ACTA
L.S.  10
WGHT    0.071800    1.103000
FVAR       6.20593
MOLE    1
CL1   3    0.309380    0.922269    0.668676    11.00000    0.06610    0.04579 =
         0.03257    0.00700   -0.00503    0.01983
CL2   3    0.242616    0.649284    0.416383    11.00000    0.07663    0.03708 =
         0.04391    0.00791    0.00424    0.02941
CL3   3    0.123603    1.012870    0.144282    11.00000    0.07485    0.05454 =
         0.03489    0.01830    0.01147    0.02650
CL4   3    0.191911    1.285270    0.397349    11.00000    0.07661    0.03159 =
         0.05389    0.01489    0.00876    0.01696
O1    5    0.229608    1.192257    0.627916    11.00000    0.06568    0.03268 =
         0.03922    0.00081    0.00024    0.01405
O2    5    0.122669    0.722840    0.190711    11.00000    0.06967    0.04116 =
         0.03059    0.00007    0.00466    0.02311
C1    1    0.213812    1.087517    0.526673    11.00000    0.04462    0.02994 =
         0.03258    0.00198    0.00237    0.00923
C2    1    0.235675    0.939151    0.523949    11.00000    0.04195    0.03547 =
         0.03238    0.00599    0.00036    0.01113
C3    1    0.207851    0.821215    0.414333    11.00000    0.04616    0.03232 =
         0.03420    0.00665    0.00514    0.01627
C4    1    0.153949    0.832524    0.290586    11.00000    0.04686    0.03560 =
         0.03061    0.00361    0.00708    0.01501
C5    1    0.153026    0.985426    0.291493    11.00000    0.04812    0.03948 =
         0.03271    0.01261    0.00799    0.01752
C6    1    0.181192    1.102866    0.400605    11.00000    0.04501    0.03134 =
         0.04181    0.01188    0.00796    0.01318
MOLE    2
N1    4   -0.615408    0.621890   -0.168121    11.00000    0.05805    0.03817 =
         0.03776    0.00808    0.00130    0.01219
N2    4   -0.167516    0.580208   -0.041190    11.00000    0.07328    0.06220 =
         0.06315   -0.00342   -0.00887    0.03623
AFIX  93
H2A   2   -0.152397    0.506852   -0.102911    11.00000   -1.20000
H2B   2   -0.083272    0.620050    0.025765    11.00000   -1.20000
AFIX   0
C7    1   -0.461467    0.569174   -0.157589    11.00000    0.06746    0.03669 =
         0.03315    0.00597    0.01057    0.01948
AFIX  43
H7    2   -0.446197    0.488631   -0.223613    11.00000   -1.20000
AFIX   0
C8    1   -0.323761    0.632905   -0.049422    11.00000    0.05580    0.03605 =
         0.04004    0.00971    0.00567    0.01383
C9    1   -0.357583    0.750306    0.048531    11.00000    0.06201    0.04572 =
         0.03617    0.00325    0.00673    0.01139
AFIX  43
H9    2   -0.273289    0.792619    0.124105    11.00000   -1.20000
AFIX   0
C10   1   -0.512779    0.802736    0.033807    11.00000    0.05923    0.04440 =
         0.04510   -0.00561    0.00976    0.01587
AFIX  43
H10   2   -0.532061    0.882411    0.098900    11.00000   -1.20000
AFIX   0
C11   1   -0.642265    0.739838   -0.076025    11.00000    0.05693    0.04512 =
         0.05319    0.00205    0.00444    0.01949
AFIX  43
H11   2   -0.746402    0.778125   -0.086419    11.00000   -1.20000
AFIX   0
C12   1   -0.758682    0.548185   -0.283234    11.00000    0.08584    0.04766 =
         0.05116    0.00582   -0.01905    0.01603
AFIX  33
H12A  2   -0.859740    0.597982   -0.277223    11.00000   -1.50000
H12B  2   -0.816390    0.441748   -0.290419    11.00000   -1.50000
H12C  2   -0.693247    0.556812   -0.357048    11.00000   -1.50000
HKLF    4
 
REM  cl4q_3ampy in P -1
REM R1 =  0.0521 for   2491 Fo > 4sig(Fo)  and  0.0560 for all   2779 data
REM    181 parameters refined using      0 restraints
 
END
 
WGHT      0.0734      1.0904
REM Highest difference peak  0.435,  deepest hole -0.424,  1-sigma level  0.087
Q1    1  -0.5335  0.7393 -0.3974  11.00000  0.05    0.43
Q2    1  -0.0710  0.8434  0.0812  11.00000  0.05    0.41
Q3    1  -0.7169  0.4588 -0.3411  11.00000  0.05    0.40
Q4    1  -0.1629  0.5574 -0.1939  11.00000  0.05    0.39
Q5    1  -0.2017  1.0272  0.1525  11.00000  0.05    0.38
Q6    1  -0.8913  0.3335 -0.4192  11.00000  0.05    0.38
Q7    1   0.3525  1.0837  0.3409  11.00000  0.05    0.37
Q8    1  -0.7256  0.8256  0.0708  11.00000  0.05    0.36
Q9    1   0.1249  0.7406  0.6149  11.00000  0.05    0.34
Q10   1  -1.0450  0.5244 -0.3547  11.00000  0.05    0.33
Q11   1   0.2526  1.0196  0.5196  11.00000  0.05    0.32
Q12   1   0.3236  1.2913  0.5768  11.00000  0.05    0.31
Q13   1   0.4245  1.3132  0.5630  11.00000  0.05    0.31
Q14   1   0.2214  0.8927  0.4615  11.00000  0.05    0.29
Q15   1  -0.2037  0.8003  0.1063  11.00000  0.05    0.28
Q16   1  -0.2829  0.7629 -0.1069  11.00000  0.05    0.28
Q17   1   0.3418  0.7268  0.1580  11.00000  0.05    0.27
Q18   1   0.0046  0.6340 -0.1227  11.00000  0.05    0.26
Q19   1   0.2834  0.8374  0.5859  11.00000  0.05    0.26
Q20   1   0.0831  0.9450  0.7029  11.00000  0.05    0.26
;
_cod_data_source_file            c9ce00919a2.cif
_cod_data_source_block           cl4q_3ampy
_cod_original_cell_volume        683.20(9)
_cod_database_code               7233726
_iucr_refine_reflections_details
;
   0   0  -1 40088.0 899.208   3
   0   0  -2 13010.7 487.997   3
   0   0  -3 17212.1 692.815   3
   0   0  -4 129655. 3147.76   3
   0   0  -5 22063.0 1046.17   3
   0   0  -6 1580.78 294.344   3
   0   0  -7 18006.8 1154.23   3
   0   0  -7 17172.8 582.665   7
   0   0  -8 9825.40 958.228   3
   0   0   8 8141.19 392.568  18
   0   0  -8 10231.8 528.489  12
   0   0   8 9663.89 441.449  26
   0   0  -8 8996.94 440.082   7
   0   0  -9 15882.3 705.982  12
   0   0  -9 16929.9 638.024   7
   0   0   9 15748.6 570.965  26
   0   0   9 16699.6 579.957  18
   0   0  10 49.6534 24.5236  26
   0   0 -10 38.5013 41.7985   8
   0   0  11 14609.8 492.662  19
   0   0  12 1234.51 102.940  19
   0   0  13 32.3804 18.5683  16
   0  -1  13 3909.31 148.048  19
   0  -1  12 3459.25 184.762  19
   0  -1  11 3874.66 239.324  26
   0   1 -11 3692.83 310.888  12
   0   1 -10 3958.66 333.018  12
   0  -1  10 4070.89 252.176  18
   0  -1  10 4098.59 263.829  26
   0  -1   9 9226.12 399.646  18
   0  -1   9 9598.06 422.041  21
   0  -1   9 9459.74 421.913  26
   0   1  -9 8990.84 916.719   3
   0   1  -9 9249.29 511.028  12
   0  -1   9 9818.86 394.689  32
   0   1  -8 939.548 125.474   7
   0   1  -8 734.581 241.031   3
   0   1  -7 53.1205 42.3265   3
   0   1  -7 48.8783 33.9087   7
   0   1  -6 38858.7 1589.24   3
   0   1  -5 113573. 2997.94   3
   0   1  -4 174.725 24.2589   2
   0   1  -4 301.235 102.397   3
   0   1  -3 1441.81 183.363   3
   0  -1   2 1574.60 157.705   4
   0  -1   1 49662.0 1152.02   4
   0  -1   0 44164.4 1071.86   4
   0  -1  -1 47026.6 1148.89   3
   0  -1  -2 14820.9 589.205   3
   0  -1  -3 629.378 128.987   3
   0  -1  -4 38442.3 1379.60   3
   0  -1  -5 8443.88 652.264   3
   0  -1  -6 37111.6 1641.95   3
   0  -1  -7 6186.06 701.362   3
   0  -1  -7 3711.17 317.392   7
   0  -1  -8 4838.76 348.567  12
   0   1   8 4834.41 271.510  26
   0  -1  -8 4696.83 641.203   3
   0   1   8 5158.09 286.674  18
   0  -1  -8 5095.92 317.309   7
   0  -1  -9 1063.24 151.100   8
   0  -1  -9 1088.74 149.876   7
   0   1  10 764.994 101.856  19
   0   1  11 185.795 49.6506  19
   0   1  12 1536.95 108.144  19
   0  -2  13 5362.23 183.067  19
   0   2 -12 76.1300 44.7551   6
   0  -2  12 19.6549 16.6034  26
   0  -2  11 7757.36 339.712  18
   0   2 -11 7503.36 453.275  12
   0  -2  11 6997.96 351.137  26
   0  -2  10 48.3479 30.1424  26
   0  -2  10 1.62431 26.6423  32
   0   2 -10-18.2939 44.3864  12
   0  -2  10 47.7569 37.5486  18
   0  -2   9 5.04409 22.4778  32
   0  -2   9 20.9139 26.5659  21
   0   2  -9 34.8657 45.8746  12
   0  -2   9 3.99547 18.5745  18
   0   2  -9 16.7929 48.7231   3
   0   2  -8 2140.78 415.548   3
   0   2  -7 10168.4 826.305   3
   0   2  -6 69617.2 2371.17   3
   0   2  -5 163866. 4008.74   3
   0  -2   4 507.724 137.125   4
   0  -2   3 30640.0 1052.68   4
   0  -2   2 299006. 6039.58   4
   0  -2   1 640.471 116.624   4
   0  -2   0 1488.07 191.723   4
   0  -2  -1 16039.2 648.392   3
   0  -2  -2 186.998 76.7690   3
   0  -2  -3 15744.8 798.126   3
   0  -2  -4 17244.2 942.291   3
   0  -2  -5 42415.3 1739.04   3
   0  -2  -6 64428.1 2434.88   3
   0  -2  -7 6900.24 765.043   3
   0  -2  -8 10285.3 492.339   7
   0   2   8 10232.3 424.636  19
   0  -2  -8 9818.56 497.373   8
   0  -2  -9 12633.6 571.794   8
   0  -2  -9 13010.3 554.793   7
   0   2   9 12577.2 485.857  19
   0   2  10 30381.9 838.864  19
   0   2  11 801.031 90.5345  19
   0   2  12 44.2797 17.5891  19
   0  -3  13 494.152 58.3816  26
   0  -3  12 1316.89 128.314  26
   0   3 -12 1463.84 173.531  12
   0   3 -12 1411.88 151.930   6
   0   3 -11 20021.0 785.415  12
   0  -3  11 19018.0 657.204  26
   0   3 -11 19642.4 719.848   6
   0  -3  11 20005.5 600.631  32
   0  -3  11 21221.1 616.818  18
   0  -3  10 204.938 54.7410  32
   0  -3  10 212.901 55.7162  21
   0  -3  10 234.346 55.2977  18
   0   3 -10 206.541 73.5608  12
   0  -3   9 374.590 67.8031  32
   0   3  -9 375.589 181.882   3
   0   3  -9 335.504 85.5704  12
   0  -3   9 483.596 87.3401  21
   0  -3   9 471.412 77.6137  18
   0   3  -8 1255.26 313.294   3
   0   3  -7 134426. 3915.23   3
   0   3  -6 2297.95 360.232   3
   0  -3   5 1946.74 300.794   4
   0  -3   4 2324.98 303.594   4
   0  -3   3 86619.1 2325.69   4
   0  -3   2 28807.5 1079.17   4
   0  -3   1 80500.3 2202.06   4
   0  -3   0 86858.9 2403.27   4
   0  -3  -1 100261. 2827.35   4
   0  -3  -2 4652.58 433.331   3
   0  -3  -3 12664.5 807.928   3
   0  -3  -4 49590.0 1917.19   3
   0  -3  -5 34869.3 1698.48   3
   0  -3  -6 1435.69 337.322   3
   0   3   6 1577.12 142.697  19
   0  -3  -7 5901.46 744.389   3
   0  -3  -7 6330.02 392.806   8
   0   3   7 6650.80 327.451  19
   0   3   8 404.871 78.2890  19
   0  -3  -8 536.765 111.664   7
   0  -3  -8 516.815 129.102   8
   0   3   9 4193.89 254.020  19
   0  -3  -9 4045.59 285.703   7
   0   3  10 1026.80 110.495  19
   0   3  11 266.906 45.3684  19
   0  -4  13 5312.34 215.877  26
   0  -4  12 11097.5 419.707  26
   0   4 -12 11534.1 510.938  12
   0   4 -12 10544.0 428.989   6
   0   4 -11 59.1182 46.6778   6
   0   4 -11 17.0763 32.1073  12
   0  -4  11-6.89193 26.2881  26
   0  -4  11 78.5128 28.7997  18
   0  -4  11 23.8104 22.8011  32
   0   4 -10 167.459 51.9638   6
   0  -4  10 156.756 46.8889  21
   0  -4  10 186.221 47.6625  18
   0   4 -10 215.127 78.5107  12
   0  -4  10 152.082 41.9287  32
   0   4  -9 437.922 107.234  12
   0  -4   9 545.902 83.9076  21
   0   4  -9 707.380 268.895   3
   0   4  -9 591.289 109.334   6
   0   4  -8 7068.42 395.966  12
   0   4  -8 6491.77 346.595   6
   0   4  -7 43.5923 50.9128   3
   0   4  -7 129.264 47.5336   6
   0   4  -6 7460.89 308.822   6
   0  -4   5 30107.9 1381.94   4
   0  -4   4 1976.49 311.082   4
   0  -4   3 3775.10 409.258   4
   0  -4   2 115836. 3084.92   4
   0  -4   1 99109.2 2832.73   4
   0  -4   0 19248.3 1136.11   4
   0  -4  -1 302.073 137.348   4
   0  -4  -2 15327.7 1066.40   4
   0  -4  -3 29141.8 1426.66   3
   0  -4  -3 29860.6 1650.04   4
   0  -4  -4 21623.8 1579.04   4
   0  -4  -4 22584.3 1404.68   3
   0  -4  -5 5173.22 770.174   4
   0   4   5 4507.78 248.039  19
   0  -4  -5 4299.53 593.026   3
   0  -4  -6 580.970 227.755   3
   0  -4  -6 458.000 157.914   4
   0   4   6 356.333 74.6832  19
   0  -4  -6 352.798 93.1954   8
   0   4   7 39.2384 37.0541  19
   0   4   8 4508.93 271.074  19
   0  -4  -8 4840.21 336.702   7
   0  -4  -9 3036.69 227.400   7
   0   4   9 3147.79 203.329  19
   0   4  10 926.545 92.8156  19
   0   5 -13 2880.91 186.475  12
   0  -5  13 2729.47 144.283  26
   0  -5  12 6652.64 305.386  26
   0  -5  12 7070.73 266.879  32
   0   5 -12 7174.10 371.261  12
   0   5 -11 1167.93 133.100   6
   0  -5  11 1101.46 117.448  32
   0   5 -11 1136.03 160.733  12
   0   5 -10 1306.66 145.160   6
   0   5 -10 1178.42 167.349  12
   0   5  -9 11505.7 483.493   6
   0   5  -9 11897.7 573.500  12
   0   5  -8 9640.77 929.475   3
   0   5  -8 10123.8 428.667   6
   0  -5   8 10382.5 392.893  24
   0   5  -7 4110.95 239.218   6
   0   5  -7 3717.57 557.733   3
   0  -5   6 15.5258 52.6079   4
   0  -5   5 8430.76 745.493   4
   0  -5   4 2561.85 389.900   4
   0  -5   3 9779.30 758.475   4
   0  -5   2 53222.7 2002.81   4
   0  -5   1 172771. 4554.60   4
   0  -5   0 288.792 135.099   4
   0  -5  -1 994.846 280.259   4
   0  -5  -2 26001.8 1592.36   4
   0  -5  -3 34114.6 1945.27   4
   0  -5  -4 663.810 274.698   4
   0   5   4 971.680 110.051  19
   0   5   5 38.2696 20.9436  19
   0  -5  -5 219.932 180.774   4
   0   5   6 4518.53 272.564  19
   0   5   7 11065.9 447.141  19
   0   5   8 289.170 64.7369  19
   0  -5  -8 276.125 77.1273   7
   0   5   9 225.152 48.6609  19
   0   5  10 4725.26 168.839  19
   0   6 -13 197.646 43.4174  12
   0  -6  13 216.113 36.7625  26
   0  -6  12 393.098 66.7435  26
   0   6 -12 401.585 77.6781  12
   0  -6  12 344.784 50.2905  32
   0  -6  11 4156.14 228.100  32
   0   6 -11 4405.06 298.229  12
   0   6 -10 309.527 96.1301  12
   0  -6   9 1155.53 122.231  24
   0   6  -9 1117.15 161.210  12
   0  -6   8 3181.24 214.172  24
   0   6  -7 105313. 2367.89  11
   0  -6   7 107672. 2304.96  24
   0  -6   6 32821.1 1705.67   4
   0  -6   5 99.5004 91.2027   4
   0  -6   4 597.609 208.441   4
   0  -6   3 41337.6 1855.08   4
   0  -6   2 55752.3 2319.68   4
   0  -6   1 4268.89 578.739   4
   0  -6   0 672.233 250.894   4
   0  -6  -1 1291.45 351.987   4
   0  -6  -2 38675.7 2170.82   4
   0   6   2 41146.0 1016.10  19
   0   6   2 39211.0 1028.40  11
   0  -6  -3 4438.37 721.197   4
   0   6   3 4042.85 243.667  19
   0   6   4 2799.73 209.084  19
   0   6   5 7301.20 355.931  19
   0   6   6 870.029 114.359  19
   0   6   7 45.9253 30.2874  19
   0   6   7 44.5585 24.6751  11
   0   6   8 7881.96 291.309  11
   0   6   8 7525.59 288.031  19
   0  -7  12 4055.21 198.829  26
   0   7 -12 4511.11 227.764  12
   0   7 -11 12.8205 28.3511  12
   0  -7  11 5.65084 19.2866  32
   0   7 -10 91.2518 59.7581  12
   0  -7  10 94.9739 29.3706  24
   0  -7   9 951.640 112.335  24
   0   7  -9 1008.77 148.808  12
   0  -7   8 1698.41 162.175  24
   0  -7   7 12428.4 497.327  24
   0   7  -7 13036.8 529.161  11
   0  -7   6 4373.56 606.135   4
   0   7  -6 4186.81 273.434  11
   0   7  -5 433.004 79.6825  11
   0  -7   5 437.330 190.939   4
   0  -7   4 6550.43 380.048  31
   0   7  -4 6099.75 315.866  11
   0  -7   4 5835.70 699.923   4
   0  -7   4 6545.09 347.317  23
   0  -7   3 18866.5 642.117  23
   0  -7   3 17148.4 667.241  31
   0   7  -3 17290.6 578.049  11
   0  -7   3 15632.3 1186.76   4
   0  -7   2 590.925 248.232   4
   0  -7   2 1025.29 146.788  31
   0  -7   2 925.212 127.581  23
   0   7  -2 869.608 107.364  11
   0  -7   1 1227.82 144.394  23
   0   7  -1 1213.81 130.308  11
   0  -7   1 848.052 276.223   4
   0  -7   1 1137.17 149.840  31
   0  -7   0 53.8221 48.5848  23
   0  -7   0-20.4720 67.2007   4
   0   7   0 27.9891 37.9301  11
   0  -7   0 31.4228 40.2924  31
   0  -7  -1 19025.5 1439.93   4
   0   7   1 17658.4 601.153  11
   0   7   2 17882.1 606.806  11
   0   7   2 17538.4 584.977  19
   0   7   3 113.176 44.2244  11
   0   7   3 151.648 45.4721  19
   0   7   4 25.0943 28.8495  19
   0   7   4 98.9754 47.0406  11
   0   7   5 569.504 97.5606  19
   0   7   5 1329.93 168.217  11
   0   7   6 344.142 62.2430  19
   0   7   6 413.107 65.4638  11
   0   7   7 199.978 37.2404  11
   0  -8  12 2995.16 141.793  26
   0   8 -11 390.479 66.9333  12
   0  -8  11 395.908 55.5465  32
   0   8 -10 263.332 61.8348  12
   0  -8  10 332.630 56.3504  24
   0   8  -9 359.975 75.2111  12
   0  -8   9 318.746 61.5814  24
   0  -8   8 7279.27 348.122  24
   0   8  -7 1410.79 157.511  11
   0  -8   7 1311.44 148.115  24
   0   8  -6 46.6979 23.8470  11
   0   8  -5 1035.14 134.178  11
   0  -8   4 20195.7 773.742  31
   0   8  -4 19788.9 664.186  11
   0  -8   3 6103.51 347.616  23
   0   8  -3 5281.45 302.506  11
   0  -8   3 5212.13 360.938  31
   0  -8   2 372.644 96.6753  31
   0   8  -2 418.240 79.5227  11
   0  -8   2 412.338 86.2350  23
   0  -8   1 10914.8 541.781  31
   0   8  -1 10978.2 451.515  11
   0  -8   1 12075.5 510.347  23
   0  -8   0 221.555 81.6477  31
   0   8   0 409.756 84.6505  11
   0  -8   0 294.251 74.1453  23
   0   8   1 3616.50 237.816  11
   0  -8  -1 3525.61 297.670  31
   0  -8  -2 737.103 127.036  31
   0   8   2 853.134 113.447  11
   0   8   3 29482.9 805.751  11
   0  -8  -3 27683.3 928.485  31
   0  -8  -4 4197.57 289.090  31
   0   8   4 4819.13 242.472  11
   0  -8  -5 127.998 47.2581  31
   0   8   5 208.138 44.9282  11
   0   8   6 1513.59 88.6547  11
   0  -8  -6 1402.39 109.949  31
   0  -9  11 31.8215 10.3870  32
   0  -9  10 6450.00 230.527  24
   0   9 -10 6768.48 271.733  12
   0   9  -9 8322.74 345.271  12
   0  -9   9 7435.82 299.512  24
   0  -9   8 67.7278 30.6399  24
   0  -9   7 4279.17 257.969  24
   0   9  -6 123.929 54.6898  11
   0   9  -5 1888.16 170.215  11
   0   9  -4 29.3302 41.3175  11
   0  -9   3 3251.82 275.771  31
   0   9  -3 3215.52 221.936  11
   0   9  -2 8788.20 381.645  11
   0  -9   2 8706.22 467.473  31
   0  -9   1 144.367 72.8123  31
   0   9  -1 92.3731 61.0073  11
   0   9   0 1066.33 121.875  11
   0  -9   0 998.566 146.291  31
   0   9   1 3446.04 208.566  11
   0  -9  -1 3491.59 268.951  31
   0   9   2 5981.54 265.442  11
   0  -9  -2 5662.70 329.984  31
   0  -9  -3 55.4263 34.8375  31
   0   9   3-2.46515 17.7290  11
   0  -9  -4 16.0090 21.4555  31
   0   9   4 35.4696 16.9373  11
   0 -10   9 57.1550 19.3277  24
   0 -10   8 4116.40 197.960  24
   0  10  -8 3340.41 175.385  12
   0 -10   7 34.9191 31.1033  24
   0 -10   6 8.86899 27.8594  24
   0  10  -5 272.005 52.9047  11
   0 -10   5 301.548 65.5491  24
   0  10  -4 6359.25 282.404  11
   0 -10   4 6182.87 267.025  14
   0  10  -3 122.558 37.3415  11
   0  10  -2 2032.72 147.427  11
   0 -10   1 399.759 83.8848  31
   0  10  -1 464.744 62.4810  11
   0  10   0 298.264 49.2352  11
   0 -10   0 275.362 69.4594  31
   0 -10  -1 49.4267 33.2260  31
   0 -10  -2 2523.98 142.812  31
   0 -11   7 589.635 57.8048  24
   0 -11   6 61.5362 23.3747  24
   0 -11   5 2152.32 127.990  24
   0 -11   4 12577.5 370.325  24
   0 -11   3 4828.94 187.987  24
   0 -11   2 207.157 35.6543  14
   0 -11   1 677.875 62.2614  14
  -1  11   0 9698.02 277.143  11
  -1  11  -1 6684.46 238.129  11
  -1  11  -2 644.955 68.4760  11
  -1  11  -3 561.340 67.8841  11
  -1  11  -4 965.764 92.3192  11
   1 -11   5 82.9564 31.3730  24
  -1  11  -5 87.5421 31.8310  11
   1 -11   6 3270.00 172.907  24
   1 -11   7 5991.46 225.516  24
   1 -11   8 622.235 53.6989  24
  -1  10   3 570.263 56.2515  11
  -1  10   2 177.079 39.9159  11
  -1  10   1 10.0769 20.2963  11
  -1  10   0 4485.13 235.047  11
   1 -10   0 4249.95 249.398  31
   1 -10   1 1603.12 158.734  31
  -1  10  -1 1690.14 148.659  11
  -1  10  -2 1593.33 149.940  11
  -1  10  -3 465.193 81.9993  11
  -1  10  -4 1629.88 153.875  11
  -1  10  -5 1277.84 137.408  11
  -1  10  -6 2331.20 185.324  11
   1 -10   7 4583.91 240.758  24
   1 -10   8 1864.60 132.920  24
  -1  10  -9 29.5750 25.7322  12
   1 -10   9 7.47222 11.6617  24
  -1  10 -10 34.6118 17.4483  12
  -1   9   5 1433.09 93.3885  11
  -1   9   4 523.272 74.1616  11
  -1   9   3 777.125 96.0774  11
   1  -9  -3 704.887 100.761  31
  -1   9   2 283.715 66.5101  11
   1  -9  -2 272.743 71.9090  31
   1  -9  -1 4516.20 268.965  23
  -1   9   1 4365.63 263.439  11
   1  -9  -1 4350.43 294.049  31
   1  -9   0 1923.05 186.084  23
   1  -9   0 1871.51 199.923  31
  -1   9   0 1895.70 175.179  11
  -1   9  -1 9867.96 434.157  11
   1  -9   1 10397.7 470.873  23
   1  -9   1 9764.31 483.239  31
   1  -9   2 4507.68 301.392  23
  -1   9  -2 4365.72 278.524  11
   1  -9   2 4751.48 327.012  31
  -1   9  -3 377.493 80.4724  11
   1  -9   3 243.524 73.4887  23
  -1   9  -4 125.297 48.5860  11
  -1   9  -5 16691.8 614.415  11
  -1   9  -6 16514.1 608.205  11
  -1   9  -7 1486.51 161.414  11
   1  -9   8 63.7214 32.3208  24
  -1   9  -9 2341.68 195.981  12
   1  -9   9 2117.35 141.794  24
  -1   9 -10 9458.54 384.425  12
  -1   9 -11 340.534 56.2804  12
  -1   8   6 277.825 50.9828  11
   1  -8  -5 813.649 105.699  31
  -1   8   5 839.725 99.2869  11
  -1   8   4 6405.26 315.386  11
   1  -8  -4 6283.03 346.859  31
   1  -8  -3 145.121 67.2209  31
  -1   8   3 114.375 48.7388  11
   1  -8  -2 978.591 146.043  31
  -1   8   2 1028.43 130.648  11
   1  -8  -2 916.972 127.556  23
  -1   8   1 110.882 56.5991  11
   1  -8  -1 85.8684 53.5026  31
   1  -8  -1 25.6189 32.8063  23
  -1   8   0 16335.8 591.933  11
   1  -8   0 16634.4 639.399  23
   1  -8   0 15467.3 643.837  31
   1  -8   1 15470.7 606.660  23
  -1   8  -1 13662.7 544.726  11
   1  -8   1 14978.9 618.795  31
   1  -8   2 798.736 154.883  31
   1  -8   2 843.459 133.865  23
  -1   8  -2 706.205 105.560  11
   1  -8   2 434.425 187.743   4
   1  -8   3 3062.45 259.639  31
  -1   8  -3 2792.59 221.988  11
   1  -8   3 3480.23 517.366   4
   1  -8   3 2875.66 238.588  23
   1  -8   4 23744.7 784.810  23
  -1   8  -4 23185.8 764.092  11
  -1   8  -5 6173.70 348.973  11
  -1   8  -6 1557.68 175.333  11
  -1   8  -7 3074.44 248.342  11
   1  -8   8 2043.60 172.356  24
  -1   8  -8 2373.89 181.534  29
  -1   8  -9 109.532 59.3218  12
   1  -8   9 27.8062 16.4744  24
  -1   8 -10 362.316 85.7096  12
  -1   8 -11 9417.72 394.832  12
   1  -8  12 1554.51 94.3134  26
  -1   8 -12 2052.51 135.597  12
  -1   7   8 81.0096 21.8138  11
  -1   7   7 36.7523 28.9067  11
  -1   7   7-1.92709 17.6515  19
  -1   7   6 4350.30 247.854  11
  -1   7   6 4299.93 251.361  19
  -1   7   5 2927.99 219.009  19
  -1   7   5 3040.23 220.656  11
  -1   7   4 1027.54 131.718  19
  -1   7   4 1007.97 130.893  11
  -1   7   3 44.1629 28.2008  19
  -1   7   3 83.7758 42.2790  11
  -1   7   2 18191.4 628.295  11
   1  -7  -2 18923.8 1441.60   4
  -1   7   2 17490.2 608.424  19
  -1   7   1 26049.5 771.131  19
  -1   7   1 26108.5 784.529  11
   1  -7  -1 23955.3 1573.77   4
  -1   7   0 5751.79 301.816  11
   1  -7   0 5188.27 680.227   4
   1  -7   0 5262.75 327.719  31
  -1   7  -1 1368.76 144.995  11
   1  -7   1 1399.84 157.078  23
   1  -7   1 1390.82 327.623   4
   1  -7   2-8.75176 42.2713   4
   1  -7   3 169.367 124.033   4
   1  -7   4 21681.5 703.519  23
   1  -7   4 21315.9 1302.23   4
  -1   7  -4 21834.9 692.119  11
   1  -7   5 11218.4 923.121   4
   1  -7   5 11672.8 467.558  23
  -1   7  -5 10982.8 467.356  11
  -1   7  -6 13870.2 550.312  11
   1  -7   6 12730.1 1002.81   4
  -1   7  -7 1563.71 174.424  11
   1  -7   8 1109.93 124.158  24
  -1   7  -8 1123.65 131.728  29
  -1   7  -9 473.579 109.642  12
  -1   7  -9 358.037 69.9145  29
  -1   7 -10 593.599 117.613  12
  -1   7 -11 3473.10 254.720  12
   1  -7  12 2121.31 131.601  26
  -1   7 -12 2338.91 176.703  12
  -1   6   9 988.584 80.2422  11
  -1   6   9 829.277 74.9103  19
  -1   6   8 149.145 40.7764  11
  -1   6   8 95.9016 36.4624  19
  -1   6   7 211.773 61.3361  19
  -1   6   6 273.641 68.4811  19
  -1   6   5 9474.66 425.438  19
   1  -6  -4 894.089 316.856   4
  -1   6   4 405.997 80.3032  19
  -1   6   3 4569.16 297.228  19
   1  -6  -3 4258.29 760.174   4
   1  -6  -2 53397.9 2455.94   4
   1  -6  -1 103433. 3516.97   4
   1  -6   0 212.860 137.121   4
   1  -6   1 1344.29 290.191   4
   1  -6   2 989.851 243.893   4
   1  -6   3 19731.0 1140.55   4
   1  -6   4 1049.43 259.707   4
   1  -6   5 37112.0 1684.93   4
   1  -6   6 58863.9 2254.58   4
  -1   6  -6 55048.2 1364.57   6
  -1   6  -7 1114.32 136.576   6
  -1   6  -7 1246.85 320.292   3
  -1   6  -7 1005.94 137.585  11
  -1   6  -8 394.958 108.038   6
  -1   6  -8 558.475 120.478  29
  -1   6  -9 3371.95 286.687  12
  -1   6  -9 3090.43 246.818   6
  -1   6  -9 3168.11 225.723  29
  -1   6 -10 26851.1 856.334   6
  -1   6 -10 27470.4 943.616  12
  -1   6 -11 2755.07 243.584  12
   1  -6  11 2812.93 171.521  18
  -1   6 -11 2743.14 214.669   6
  -1   6 -12-24.7612 21.0319   6
  -1   6 -12 40.7282 32.9147  12
   1  -6  12 10.1767 15.2399  26
  -1   6 -13 66.2373 30.4467  12
  -1   5  10 852.827 73.7474  11
  -1   5  10 887.858 75.5961  19
  -1   5   9 55.5494 35.1612  19
  -1   5   8 2497.78 194.584  19
  -1   5   7 49185.4 1256.90  19
  -1   5   6 32060.9 923.358  19
   1  -5  -5 511.126 244.693   4
  -1   5   5 895.016 117.601  19
  -1   5   4 575.950 115.043  19
   1  -5  -4 1539.96 392.917   4
   1  -5  -3 11176.9 1014.42   4
   1  -5  -2 15354.9 1124.05   4
   1  -5  -1 1398.23 318.047   4
   1  -5   0 7765.54 703.921   4
   1  -5   1 7483.64 636.569   4
   1  -5   2 1524.35 271.157   4
   1  -5   3 4147.69 446.083   4
   1  -5   4 82238.2 2533.62   4
   1  -5   5 8506.50 699.518   4
  -1   5  -5 7577.75 325.392   6
  -1   5  -6 6248.56 527.538   2
  -1   5  -6 4277.03 247.015   6
  -1   5  -7 136.131 64.0572   6
  -1   5  -7 276.678 141.142   3
  -1   5  -8 13566.0 548.184   6
  -1   5  -8 13051.2 1037.54   3
  -1   5  -8 13604.9 507.831  29
  -1   5  -9 2884.54 266.090  12
  -1   5  -9 2741.98 241.323   6
  -1   5  -9 2803.70 218.864  29
  -1   5 -10 5933.29 389.123  12
  -1   5 -10 5228.67 334.383   6
  -1   5 -10 5319.00 300.910  29
  -1   5 -11 352.073 84.5887   6
  -1   5 -11 334.390 93.2258  12
   1  -5  11 449.459 70.5643  18
   1  -5  12 268.665 53.0167  26
  -1   5 -12 286.524 62.1602   6
   1  -5  12 355.767 54.2686  18
  -1   5 -12 326.307 82.1739  12
  -1   5 -13 19.1453 20.0563  12
  -1   4  11 46.8232 18.5799  19
  -1   4  10 299.894 54.8184  19
  -1   4   9 884.584 109.453  19
  -1   4   8 148.793 52.4655  19
  -1   4   7 36505.6 1011.56  19
   1  -4  -6 655.573 260.490   3
  -1   4   6 551.973 91.3728  19
   1  -4  -5 6236.15 710.144   3
   1  -4  -4 972.042 266.182   3
   1  -4  -3 85202.8 2809.79   3
  -1   4   3 102655. 2426.91   2
   1  -4  -2 351.632 152.791   4
   1  -4  -2 424.883 143.203   3
   1  -4  -1 9199.44 709.105   4
   1  -4   0 2053.92 308.171   4
   1  -4   1 1694.56 257.132   4
   1  -4   2 34840.6 1255.93   4
   1  -4   3 1724.75 254.451   4
   1  -4   4 18529.9 930.366   4
   1  -4   5 54529.0 1878.98   4
  -1   4  -6 52.6700 66.2667   3
  -1   4  -6 80.4947 38.2929   6
  -1   4  -7 1597.43 160.693   6
  -1   4  -7 1448.77 315.600   3
  -1   4  -8 22659.0 708.971  29
  -1   4  -8 22600.7 1365.78   3
  -1   4  -8 25127.6 829.346  12
  -1   4  -8 22464.0 776.282   6
  -1   4  -9 26976.0 896.726   6
  -1   4  -9 26437.3 816.718  29
  -1   4  -9 27049.1 940.904  12
   1  -4  10 1326.77 145.256  18
  -1   4 -10 1559.64 205.189   6
  -1   4 -10 1642.71 206.574  12
   1  -4  11 652.330 96.6259  26
  -1   4 -11 725.272 131.318  12
   1  -4  11 642.993 92.1987  18
  -1   4 -11 617.503 110.341   6
  -1   4 -12 1107.11 149.910  12
   1  -4  12 1028.57 102.754  26
   1  -4  12 983.472 99.0405  18
  -1   4 -12 876.238 119.648   6
  -1   4 -13 644.506 75.2141   8
  -1   4 -13 1004.03 115.007  12
  -1   3  11 261.239 47.9784  19
  -1   3  10 145.925 55.1804  16
  -1   3  10 296.495 81.0072  19
  -1   3   9 489.552 83.3462  19
  -1   3   8 17883.4 614.986  19
  -1   3   7 115.197 42.9056  19
   1  -3  -7 35.2906 65.9817   3
   1  -3  -6 2439.23 434.037   3
   1  -3  -5 1215.43 292.610   3
   1  -3  -4 157.373 82.9320   3
  -1   3   3 1656.25 180.389   2
   1  -3  -3 1626.92 265.745   3
   1  -3  -2 5276.92 442.665   3
   1  -3  -1 363669. 7574.05   3
   1  -3  -1 373452. 7761.18   4
   1  -3   0 3134.70 309.807   4
   1  -3   1 4165.27 324.994   4
   1  -3   2 75852.2 1915.16   4
   1  -3   3 306889. 6346.72   4
   1  -3   4 18462.9 857.007   4
  -1   3  -5 12794.7 772.869   3
  -1   3  -5 13154.3 578.845   2
  -1   3  -6 413.333 148.016   3
  -1   3  -7 7821.63 714.931   3
  -1   3  -8 8929.50 824.327   3
  -1   3  -8 10350.6 484.082  12
  -1   3  -9 3471.49 248.347  29
  -1   3  -9 3485.01 297.008  12
  -1   3 -10 5652.55 390.285  12
   1  -3  10 5780.21 307.925  18
   1  -3  10 5731.25 309.137  26
  -1   3 -11 632.736 117.829   6
  -1   3 -11 529.792 111.926  12
   1  -3  11 607.117 91.9329  18
   1  -3  11 562.750 88.8126  26
   1  -3  12 104.249 30.7304  18
  -1   3 -12 55.6322 39.2303  12
  -1   3 -12 70.0209 38.2199   6
   1  -3  12 58.8014 27.3482  26
   1  -3  13 781.645 65.4451  19
  -1   2  12 370.767 43.6511  19
  -1   2  12 462.464 45.0121  16
  -1   2  11 305.454 57.9126  19
  -1   2  10 735.029 96.1048  19
  -1   2   9 231.859 57.9865  19
   1  -2  -8 985.932 301.219   3
  -1   2   8 848.677 112.498  19
  -1   2   7 8932.85 366.030  19
   1  -2  -7 8412.19 849.797   3
  -1   2   7 8137.48 366.479  26
   1  -2  -6 14245.7 1033.46   3
   1  -2  -5 448.871 163.729   3
   1  -2  -4 21733.3 1055.27   3
   1  -2  -3 54117.3 1678.50   3
  -1   2   3 53431.8 1255.08   2
  -1   2   2 101554. 2141.42   2
   1  -2  -2 91419.2 2355.51   3
   1  -2  -1 2468.60 217.853   3
   1  -2   0 6473.37 316.252   3
   1  -2   0 6469.59 337.188   4
   1  -2   1 52322.7 1247.02   4
   1  -2   2 4289.11 266.672   4
  -1   2  -3 47594.8 1218.75   2
  -1   2  -4 84833.5 1882.43   2
  -1   2  -4 84297.6 2194.06   3
  -1   2  -5 6079.19 491.211   3
  -1   2  -6 2211.18 327.894   3
  -1   2  -6 2129.61 172.604   7
  -1   2  -7 21557.3 716.501   7
  -1   2  -7 23297.3 1251.57   3
  -1   2  -8 9690.85 866.150   3
  -1   2  -9 18609.1 749.687  12
   1  -2   9 18842.9 630.458  18
   1  -2   9 19198.7 621.768  26
  -1   2 -10 832.893 154.727  12
   1  -2  10 762.575 109.611  18
   1  -2  10 707.555 102.760  26
   1  -2  11 61.4548 28.9971  18
  -1   2 -11 119.543 53.5993  12
   1  -2  11 90.0975 43.2001  26
  -1   2 -12 710.916 111.999   6
  -1   2 -12 492.185 88.4165   8
   1  -2  13 6465.33 218.495  19
  -1   1  12 2807.03 144.598  19
  -1   1  12 3387.38 161.963  16
  -1   1  11 424.699 68.6916  19
  -1   1  11 509.308 65.4274  13
  -1   1  10 11768.8 445.691  19
  -1   1   9 21742.0 664.184  19
  -1   1   9 19368.1 674.985  26
   1  -1  -8 44761.3 1330.14  12
   1  -1  -8 46633.6 2186.62   3
  -1   1   8 47513.2 1171.57  21
  -1   1   8 44696.0 1174.19  26
   1  -1  -7 1.31738 42.0511   3
   1  -1  -6 13035.3 934.476   3
   1  -1  -5 5275.73 520.274   3
   1  -1  -4 46934.0 1589.02   3
  -1   1   4 47191.7 1098.38   1
   1  -1  -3 149492. 3418.38   3
  -1   1   2 139579. 2794.37   2
   1  -1  -2 143645. 3067.26   3
   1  -1  -1 62499.3 1449.52   3
  -1   1   1 64973.3 1380.64   2
   1  -1   0 14418.7 383.147   3
  -1   1   0 14779.4 444.354   2
  -1   1  -1 720.109 80.2902   2
  -1   1  -2 57477.7 1314.33   3
  -1   1  -2 57647.7 1265.98   2
  -1   1  -3 35142.1 1037.19   3
  -1   1  -3 36059.4 853.949   2
  -1   1  -4 5499.57 399.054   3
  -1   1  -5 44075.4 1520.03   3
  -1   1  -6 27853.4 787.363   7
  -1   1  -6 28387.6 1293.21   3
  -1   1  -7 3775.46 259.537   7
  -1   1  -7 3922.90 499.008   3
  -1   1  -8 4637.46 316.202  12
  -1   1  -8 4618.46 258.707   9
   1  -1   8 4616.93 258.920  18
  -1   1  -8 4328.36 563.615   3
  -1   1  -8 4337.86 302.818   7
   1  -1   9 14224.4 502.162  26
   1  -1   9 13573.5 518.363  18
  -1   1  -9 13528.9 606.904   7
  -1   1  -9 13274.3 627.709  12
   1  -1  10 297.591 58.1031  26
   1  -1  10 221.371 62.9910  18
  -1   1 -10 304.502 97.0127  12
  -1   1 -11 220.925 78.8479   8
  -1   1 -12 7027.63 334.829   8
   1  -1  12 7088.76 282.221  19
  -1   1 -12 7356.26 361.391   6
   1  -1  13 15089.1 381.429  19
  -1   0  13 98.4814 24.7154  16
  -1   0  12 3650.66 172.933  19
  -1   0  11 99.3184 41.6746  26
  -1   0  11 110.241 39.0987  19
  -1   0  10 9649.40 387.463  19
  -1   0  10 8852.00 414.332  26
   1   0  -9 18350.7 770.447  12
   1   0  -9 18555.2 1348.16   3
  -1   0   9 19250.3 644.432  21
  -1   0   9 17967.5 640.541  26
   1   0  -8 112988. 3772.43   3
  -1   0   8 116776. 2476.71  32
  -1   0   8 114773. 2520.53  26
   1   0  -8 114918. 2675.69  12
  -1   0   8 124811. 2527.08  21
   1   0  -7 5601.65 645.243   3
   1   0  -6 85.4971 55.0224   3
   1   0  -5 16538.2 921.063   3
  -1   0   4 153123. 3048.97   1
   1   0  -4 154012. 3643.30   3
  -1   0   3 32796.0 825.945   1
   1   0  -3 36033.3 1132.33   3
   1   0  -2 14855.4 566.122   3
  -1   0   2 14139.1 434.679   1
  -1   0   1 247.538 46.6594   1
  -1   0   1 266.305 51.8240   4
  -1   0   0 11787.9 358.046   4
  -1   0   0 10908.2 344.254   1
  -1   0  -1 119642. 2327.82   3
  -1   0  -1 114214. 2299.82   1
  -1   0  -2 3569.75 147.498   1
  -1   0  -2 3159.91 213.863   3
  -1   0  -3 142631. 3149.09   3
  -1   0  -4 70134.5 1954.15   3
  -1   0  -5 2507.71 326.946   3
  -1   0  -6 11158.0 802.048   3
  -1   0  -6 11171.9 444.450   7
  -1   0  -7 63606.7 2335.16   3
  -1   0  -7 58790.3 1499.41   7
  -1   0  -8 46346.0 1308.31   7
  -1   0  -8 46454.7 1332.89  12
  -1   0  -8 46975.1 2111.49   3
   1   0   8 48169.1 1194.60  18
   1   0   9 3884.65 256.017  18
  -1   0  -9 3789.30 303.967   7
   1   0   9 3769.75 231.978  26
  -1   0  -9 3778.01 316.403  12
  -1   0 -10 288.723 78.0639   7
  -1   0 -10 228.576 84.6834   8
  -1   0 -11 747.120 120.568   8
   1   0  11 737.663 93.7605  19
   1   0  12 64.1331 26.1190  19
  -1   0 -12 102.725 40.4613   6
  -1   0 -12 45.5018 30.3518   8
  -1  -1  13 4335.21 175.166  16
  -1  -1  13 3781.13 143.521  13
  -1  -1  12 863.509 102.730  26
  -1  -1  11 323.305 74.4027  26
  -1  -1  11 360.725 61.2291  19
   1   1 -10 1096.27 167.626  12
  -1  -1  10 946.497 128.848  26
  -1  -1  10 1117.98 134.986  21
  -1  -1   9 4992.23 262.255  18
   1   1  -9 4330.14 338.497  12
  -1  -1   9 4400.66 282.656  26
  -1  -1   9 4355.47 261.081  32
  -1  -1   9 4906.84 290.456  21
   1   1  -9 4615.51 664.907   3
   1   1  -8 4283.63 590.946   3
   1   1  -7 1957.72 378.884   3
   1   1  -6 96.3392 85.9164   3
   1   1  -5 11311.2 752.791   3
   1   1  -4 358.798 118.313   3
  -1  -1   3 196514. 4251.62   4
  -1  -1   2 6194.64 372.564   4
  -1  -1   1 4400.71 285.062   4
  -1  -1   0 62996.1 1598.78   4
  -1  -1  -1 14899.2 553.121   3
  -1  -1  -2 152814. 3331.21   3
  -1  -1  -3 32435.5 1128.75   3
  -1  -1  -4 1164.84 209.936   3
  -1  -1  -5 5429.45 519.010   3
  -1  -1  -6 15406.6 1012.55   3
  -1  -1  -7 69293.6 2588.51   3
  -1  -1  -7 67180.9 1694.99   7
   1   1   7 66920.2 1544.10  18
   1   1   8 41981.2 1101.21  18
  -1  -1  -8 42412.8 1244.84   7
  -1  -1  -8 42160.5 2010.60   3
  -1  -1  -8 41083.3 1253.29   8
  -1  -1  -9 2321.03 246.066   8
  -1  -1  -9 2459.09 245.517   7
  -1  -1 -10 60.1825 31.4211   8
   1   1  10 162.321 48.2501  19
  -1  -1 -10 133.435 52.4256   7
   1   1  11 1672.58 135.102  19
  -1  -1 -11 1569.50 157.425   8
   1   1  12 2849.69 142.082  19
  -1  -2  13 3316.58 155.534  16
  -1  -2  12 1781.69 152.951  26
   1   2 -12 1710.16 161.316   6
   1   2 -11 9208.33 495.207  12
  -1  -2  11 8888.66 414.695  26
  -1  -2  10 12877.2 504.000  21
  -1  -2  10 11912.6 472.265  32
   1   2 -10 11921.3 583.945  12
  -1  -2  10 12062.6 507.489  26
   1   2  -9 14169.6 635.164  12
  -1  -2   9 16282.0 571.397  21
  -1  -2   9 14538.8 530.391  32
   1   2  -9 14919.4 1191.62   3
   1   2  -8 4976.52 642.237   3
   1   2  -7 221.832 153.444   3
   1   2  -6 9252.18 759.996   3
   1   2  -5 97260.6 2826.78   3
  -1  -2   4 14408.9 785.881   4
  -1  -2   3 60449.9 1779.04   4
  -1  -2   2 405694. 8177.09   4
  -1  -2   1 60690.3 1723.49   4
  -1  -2   0 5175.44 447.536   4
  -1  -2  -1 108423. 2833.81   4
  -1  -2  -2 148502. 3480.41   3
  -1  -2  -3 16683.5 860.723   3
  -1  -2  -4 3657.98 430.188   3
  -1  -2  -5 16303.5 1028.17   3
  -1  -2  -6 7838.22 766.377   3
  -1  -2  -7 1373.72 333.850   3
  -1  -2  -7 1232.19 175.686   8
  -1  -2  -8 9580.92 527.229   8
  -1  -2  -8 10455.1 536.222   7
  -1  -2  -9 4198.99 327.125   8
   1   2   9 4343.79 258.363  19
  -1  -2  -9 4469.89 325.773   7
  -1  -2 -10 1166.11 148.082   7
   1   2  10 1198.31 120.152  19
  -1  -2 -10 1208.61 154.865   8
   1   2  11 273.472 48.8047  19
  -1  -3  13 1130.03 82.2805  16
  -1  -3  13 992.160 90.7324  26
   1   3 -12-21.3523 20.5148   6
  -1  -3  12 1.29470 23.5483  26
   1   3 -12-11.1670 35.3786  12
  -1  -3  11 3213.01 213.238  32
  -1  -3  11 3161.26 235.798  26
  -1  -3  11 3173.05 217.070  21
   1   3 -11 3139.23 233.221   6
   1   3 -11 3223.80 275.150  12
  -1  -3  10 40.3829 30.0818  32
  -1  -3  10 17.3556 24.4738  21
   1   3  -9 71.8840 42.6051  12
  -1  -3   9 144.366 47.3345  21
  -1  -3   9 79.7118 29.1598  32
   1   3  -8 14793.7 1149.94   3
   1   3  -7 2236.14 416.479   3
   1   3  -6 7949.25 727.365   3
  -1  -3   5 382.012 153.904   4
  -1  -3   4 89523.7 2596.42   4
  -1  -3   3 68646.2 2093.00   4
  -1  -3   2 17819.5 901.345   4
  -1  -3   1 1084.18 282.701   4
  -1  -3   0 77523.1 2407.13   4
  -1  -3  -1 84802.4 2641.69   4
  -1  -3  -2 1736.27 330.416   4
  -1  -3  -3 1343.00 320.835   4
  -1  -3  -4 266.598 166.913   4
  -1  -3  -4 299.983 133.733   3
  -1  -3  -5 159.383 109.322   3
   1   3   6 806.205 101.861  19
  -1  -3  -6 807.092 140.054   8
  -1  -3  -6 642.071 281.139   4
  -1  -3  -6 717.112 258.496   3
   1   3   7 21243.1 676.955  19
  -1  -3  -7 22985.9 864.044   8
   1   3   8 2490.93 191.225  19
  -1  -3  -8 2512.70 258.287   8
  -1  -3  -8 2596.79 253.474   7
   1   3   9 1062.24 117.479  19
  -1  -3  -9 989.255 144.427   7
  -1  -3 -10 26.7213 28.4957   7
   1   3  10 99.8567 33.6530  19
   1   3  11 2504.73 123.617  19
  -1  -4  13 305.876 49.6010  26
  -1  -4  12 547.080 63.4802  16
  -1  -4  12 479.986 71.5528  32
   1   4 -12 538.256 97.3792  12
  -1  -4  12 508.750 83.9628  26
  -1  -4  11 78.5524 33.6008  21
  -1  -4  11 89.7674 35.0252  32
   1   4 -11 62.7714 39.3958  12
  -1  -4  10 10289.0 431.263  21
  -1  -4  10 10010.9 430.453  32
   1   4 -10 10076.8 504.902  12
   1   4  -9 14149.8 608.243  12
  -1  -4   9 15306.5 510.248  24
  -1  -4   9 15295.0 547.744  21
  -1  -4   8-0.34311 17.4395  24
   1   4  -8-9.14813 30.8312  12
   1   4  -7 1917.86 395.397   3
  -1  -4   6 8423.21 765.225   4
  -1  -4   5 73915.7 2526.23   4
  -1  -4   4 63153.0 2209.01   4
  -1  -4   3 10838.0 776.701   4
  -1  -4   2 3422.42 432.672   4
  -1  -4   1 12628.3 877.170   4
  -1  -4   0 29645.5 1495.97   4
  -1  -4  -1 4224.59 555.352   4
  -1  -4  -2 16291.1 1187.42   4
  -1  -4  -3 1327.58 360.452   4
  -1  -4  -4 368.766 190.218   4
  -1  -4  -5 23466.0 1735.29   4
   1   4   5 23188.9 687.297  19
  -1  -4  -5 24272.4 877.761   8
   1   4   6 37397.5 993.630  19
  -1  -4  -6 38048.9 1208.17   8
   1   4   7 45.9086 30.9478  19
   1   4   8 1419.94 137.799  19
  -1  -4  -8 1567.40 159.101  10
  -1  -4  -8 1591.66 189.365   7
  -1  -4  -9 69.3450 47.0800   7
   1   4   9 45.1720 25.7124  19
   1   4  10 49.6214 23.7724  19
   1   4  10 46.8705 17.5681  11
  -1  -5  13 304.487 47.4951  26
   1   5 -12 2976.90 208.902  12
  -1  -5  12 2850.07 188.544  26
  -1  -5  12 2915.33 171.388  32
  -1  -5  11 430.270 77.1390  32
   1   5 -11 418.447 86.7551  12
  -1  -5  11 309.272 60.6262  21
   1   5 -10 10.2940 33.3990  12
  -1  -5  10 49.8417 35.5535  21
  -1  -5  10 70.1422 42.1120  24
  -1  -5   9 21433.0 664.588  24
   1   5  -9 21622.4 771.044  12
   1   5  -8 321.279 77.0819  12
   1   5  -8 303.350 171.258   3
  -1  -5   8 350.008 68.8707  24
  -1  -5   7 1318.58 134.411  24
  -1  -5   6 187.315 122.076   4
  -1  -5   5 44069.9 1960.51   4
  -1  -5   4 30094.5 1540.51   4
  -1  -5   3 2028.32 364.021   4
  -1  -5   2 1139.53 274.366   4
  -1  -5   1 9862.00 864.825   4
  -1  -5   0 3808.64 565.426   4
  -1  -5  -1 1869.69 432.845   4
  -1  -5  -2 27596.8 1755.58   4
  -1  -5  -3 4001.07 276.889  10
  -1  -5  -3 3794.65 649.363   4
   1   5   4 1525.00 139.076  19
  -1  -5  -4 1498.53 172.188  10
  -1  -5  -4 1598.56 459.236   4
   1   5   5 32048.9 872.000  19
  -1  -5  -5 31041.6 975.465  10
   1   5   6 28698.9 811.264  19
  -1  -5  -6 28198.2 896.622  10
  -1  -5  -7 16432.6 590.018  10
   1   5   7 16818.4 544.620  19
   1   5   8-12.7617 15.2131  19
  -1  -5  -8-23.3210 38.3985   7
   1   5   9 273.631 37.6692  11
   1   5   9 242.894 39.6333  19
  -1  -6  13 55.7571 18.2986  26
  -1  -6  12 279.513 47.6317  32
  -1  -6  12 267.486 52.3105  26
   1   6 -12 246.592 50.7441  12
  -1  -6  11 12497.1 450.061  32
   1   6 -11 13832.1 508.200  12
  -1  -6  10 7552.49 326.965  24
   1   6 -10 8152.26 405.448  12
   1   6  -9 103.210 57.1060  12
  -1  -6   9 84.7165 39.4270  24
   1   6  -8 28.4194 54.1777  12
  -1  -6   8 50.0399 41.8588  24
  -1  -6   7 40020.6 1990.74   4
  -1  -6   7 37701.9 1037.17  24
  -1  -6   6 23147.5 1474.91   4
  -1  -6   6 24611.0 757.930  24
  -1  -6   5 733.272 249.158   4
  -1  -6   4 8294.28 836.532   4
  -1  -6   3 1343.81 322.476   4
  -1  -6   2 1132.67 299.953   4
  -1  -6   1-75.7336 93.9787   4
  -1  -6   0 26003.3 1633.96   4
  -1  -6  -1 41033.6 1159.87  10
  -1  -6  -1 41547.5 2235.17   4
   1   6   2-4.50010 29.7574  11
  -1  -6  -2 9.90680 27.2315  10
   1   6   3 397.678 70.7986  11
  -1  -6  -3 467.508 95.5252  10
   1   6   3 507.406 82.8045  19
   1   6   4 9038.16 381.298  11
  -1  -6  -4 9167.78 460.161  10
   1   6   4 9340.64 381.325  19
  -1  -6  -5 283.866 78.6075  10
   1   6   5 352.914 68.2179  19
   1   6   5 308.181 68.0166  11
   1   6   6 2650.75 173.416  11
   1   6   6 2516.56 172.818  19
  -1  -6  -6 2311.61 187.832  10
   1   6   7 48.0134 24.6498  19
   1   6   7 81.5606 32.0041  11
  -1  -6  -7 56.6889 32.4145   7
   1   6   8 45.5507 17.0320  19
  -1  -7  12 4117.74 174.588  32
  -1  -7  12 4548.87 201.038  26
  -1  -7  11 1252.87 94.2226  24
  -1  -7  11 1164.93 109.154  32
  -1  -7  10 211.525 50.6065  24
   1   7 -10 270.751 63.3088  12
  -1  -7   9 900.778 112.316  24
   1   7  -9 879.503 122.186  12
   1   7  -8 1260.53 150.420  12
  -1  -7   8 1232.49 142.682  24
  -1  -7   7 12817.2 516.471  24
  -1  -7   6 2847.84 225.097  24
  -1  -7   5 13096.4 478.404  14
  -1  -7   5 13137.7 1113.08   4
  -1  -7   4 100.808 52.4856  31
  -1  -7   4 306.595 167.458   4
  -1  -7   3 3212.04 549.149   4
  -1  -7   3 3537.54 287.192  31
  -1  -7   2 1327.73 364.390   4
  -1  -7   2 1099.55 159.071  31
  -1  -7   1 7465.46 433.281  31
  -1  -7   1 6903.75 833.870   4
  -1  -7   0 12793.9 598.157  31
   1   7   2 225.655 53.0286  11
  -1  -7  -2 176.962 48.9273  10
   1   7   3 562.340 84.6721  11
  -1  -7  -3 550.889 110.727  10
  -1  -7  -4 394.684 90.4464  10
   1   7   4 394.320 68.4545  11
   1   7   4 317.616 58.3306  19
   1   7   5 8387.03 306.523  11
   1   7   5 7559.44 293.616  19
  -1  -7  -6 433.940 82.4162   7
  -1  -7  -7 458.768 67.3142  31
  -1  -8  11 395.655 43.8392  24
  -1  -8  11 483.095 59.6458  32
  -1  -8  10 46.1746 25.7987  24
  -1  -8   9 3969.89 227.231  24
  -1  -8   8-11.4696 20.3159  24
  -1  -8   7 26.2667 30.2977  24
  -1  -8   6 1308.09 153.379  24
  -1  -8   5 16694.9 562.195  14
  -1  -8   4 4866.96 353.737  31
  -1  -8   3 80.6251 62.7879  31
  -1  -8   2 8005.53 463.873  31
  -1  -8   1 12960.2 606.613  31
  -1  -8   0 3380.09 291.764  31
  -1  -8  -1 15.4078 40.3946  31
  -1  -8  -2 703.331 130.695  31
  -1  -8  -3 4128.14 294.995  31
  -1  -8  -4 1189.32 140.088  31
  -1  -8  -5-13.4407 33.8029  31
  -1  -9  10 2533.95 127.646  24
  -1  -9   9 222.363 47.4071  24
  -1  -9   8 29.7916 29.4953  24
  -1  -9   7 6093.48 303.297  24
  -1  -9   6 12222.3 472.410  24
  -1  -9   5 275.745 64.6371  24
  -1  -9   5 266.809 56.7473  14
  -1  -9   4 761.277 106.016  24
  -1  -9   4 889.210 109.763  14
  -1  -9   3 614.081 123.066  31
  -1  -9   2 3609.73 288.591  31
  -1  -9   1 461.778 106.549  31
  -1  -9   0 876.031 137.467  31
  -1  -9  -1 1575.14 171.673  31
  -1  -9  -2 15.4408 36.4874  31
  -1  -9  -3 295.503 62.2297  31
  -1 -10   9 742.367 59.6553  24
  -1 -10   8 2286.80 130.266  24
  -1 -10   7 131.551 35.6587  24
  -1 -10   6 3449.09 190.950  24
  -1 -10   5 242.977 50.2326  24
  -1 -10   4 66.5477 27.4929  14
  -1 -10   4 50.6068 25.2498  24
  -1 -10   3 23.8513 19.0244  24
  -1 -10   3-6.09122 22.2939  14
  -1 -10   2 4026.04 215.692  14
  -1 -10   1 179.113 51.9723  31
  -1 -10   0 107.020 45.0899  31
  -1 -10  -1 1136.73 99.4008  31
  -1 -10  -1 1283.22 98.1188  14
  -2  11   1 12733.0 351.914  11
  -2  11   0 2520.55 144.059  11
  -2  11  -1 137.333 38.5845  11
  -2  11  -2 1410.77 120.287  11
  -2  11  -3 17552.8 533.859  11
  -2  11  -4 6243.42 282.036  11
  -2  11  -5 171.855 41.6281  11
   2 -11   6 90.6556 29.9454  24
  -2  11  -6 131.830 42.9957  11
  -2  11  -7 3858.54 162.514  29
   2 -11   7 3957.28 174.403  24
  -2  11  -8 2788.71 155.501  12
  -2  10   3 954.329 86.4661  11
  -2  10   2 1217.55 112.320  11
   2 -10  -1 2484.78 171.680  23
  -2  10   1 2555.25 178.104  11
  -2  10   0 11.5597 25.1014  11
   2 -10   0-18.4970 27.3755  23
  -2  10  -1 1929.71 172.047  11
   2 -10   1 2226.77 189.727  23
  -2  10  -2 99.4539 51.7777  11
   2 -10   2 99.6165 46.1828  23
  -2  10  -3 3409.35 238.558  11
   2 -10   3 3248.36 237.716  23
  -2  10  -4 7763.35 380.058  11
  -2  10  -5 55.1193 46.0822  11
  -2  10  -6 58.4307 29.0148  11
   2 -10   7 5947.74 276.198  24
  -2  10  -7 6728.43 294.902  29
  -2  10  -7 7017.54 336.916  11
   2 -10   8 3284.68 169.804  24
  -2  10  -8 3597.05 188.892  29
  -2  10  -9 51.3155 25.0421  29
  -2  10  -9 130.005 43.1371  12
  -2  10 -10 314.427 49.9727  12
  -2   9   5 103.918 32.0214  11
  -2   9   4 209.053 47.1967  11
  -2   9   3 9932.41 399.540  11
  -2   9   2 5697.87 307.423  11
   2  -9  -2 5917.53 312.287  23
   2  -9  -1 1658.64 175.697  23
  -2   9   1 1550.99 161.481  11
  -2   9   0 291.559 76.2938  11
   2  -9   0 238.966 75.3512  23
   2  -9   1 10908.8 504.093  23
  -2   9  -1 10649.7 470.361  11
  -2   9  -2 15183.5 586.364  11
   2  -9   2 15615.9 620.725  23
   2  -9   3 857.147 131.507  23
  -2   9  -3 790.103 121.737  11
  -2   9  -4 4290.35 291.237  11
   2  -9   4 4309.42 292.413  23
  -2   9  -5 218.821 77.9966  11
   2  -9   5 256.465 77.4566  23
  -2   9  -6 6443.82 366.784  11
  -2   9  -7 71.9171 33.9842  11
   2  -9   8 3689.99 204.275  24
  -2   9  -8 3919.76 237.125  29
  -2   9  -9 11910.8 419.015  29
  -2   9  -9 12630.7 512.321  12
  -2   9 -10 208.843 54.4013  12
  -2   9 -10 294.715 47.6756  29
  -2   9 -11 10.4214 19.9305  12
  -2   8   7 2405.66 123.882  11
  -2   8   6 52.7381 27.6653  11
  -2   8   5 466.544 78.3125  11
  -2   8   4 25596.8 771.990  11
  -2   8   3 12661.1 507.659  11
  -2   8   2 1726.03 172.074  11
  -2   8   1 135.347 54.3793  11
  -2   8   0 2462.52 211.257  11
  -2   8  -1 8176.32 403.551  11
  -2   8  -2 97.7838 39.3535  11
   2  -8   2 45.7521 40.3248  23
  -2   8  -2 139.118 37.7167  13
   2  -8   3 15147.1 604.254  23
  -2   8  -3 15955.7 599.933  11
  -2   8  -3 17248.1 1186.07   2
  -2   8  -4 9067.91 436.298  11
   2  -8   4 8902.13 429.083  23
  -2   8  -5 29.8519 37.0629  11
   2  -8   5 98.8857 42.9846  23
  -2   8  -6 2.66276 31.6983  11
  -2   8  -7 5110.71 331.525  11
  -2   8  -8 1678.29 167.714  29
  -2   8  -9 600.235 95.9454  29
  -2   8  -9 498.483 106.590  12
  -2   8 -10 135.531 52.8546  12
  -2   8 -10 95.3835 29.2993  29
   2  -8  11 794.342 71.5123  18
  -2   8 -11 1046.48 125.178  12
  -2   8 -12 1320.81 110.267  12
  -2   7   8 275.239 44.8341  11
  -2   7   7 92.0084 38.8747  19
  -2   7   7 65.2485 33.8517  11
  -2   7   6 644.658 98.4965  11
  -2   7   6 593.253 95.9228  19
  -2   7   5 1765.09 169.752  11
  -2   7   5 1799.86 176.461  19
  -2   7   4 3251.30 242.447  19
  -2   7   4 3412.20 246.710  11
  -2   7   3 1942.10 184.629  19
  -2   7   3 2015.91 188.712  11
  -2   7   2 16323.9 595.629  11
  -2   7   2 16393.1 597.021  19
  -2   7   1 205.985 63.0475  11
  -2   7   1 111.957 128.136   2
  -2   7   0 3767.88 247.831  11
  -2   7   0 4666.91 550.672   2
  -2   7  -1 1888.84 169.034  11
  -2   7  -1 2110.82 374.290   2
  -2   7  -2 8429.05 789.719   2
  -2   7  -3 4662.62 589.920   2
   2  -7   4 81.0391 49.4664  23
  -2   7  -4 40.0147 34.2051  11
   2  -7   5 2308.07 187.692  23
  -2   7  -5 2378.62 396.196   2
  -2   7  -5 2385.28 206.245  11
  -2   7  -6 6640.05 648.766   2
  -2   7  -6 6769.66 374.859  11
  -2   7  -7 161.241 64.6375  11
  -2   7  -8 6745.54 361.798  29
  -2   7  -9 26.4023 24.9523  29
  -2   7  -9-5.81521 27.5830  12
  -2   7 -10 501.629 103.443  12
  -2   7 -10 559.234 86.4993  29
   2  -7  11 8948.45 329.164  18
  -2   7 -11 10183.6 452.065  12
  -2   7 -12 3774.30 225.050  12
   2  -7  12 3152.64 139.633  18
  -2   6   9 10608.4 331.774  11
  -2   6   8 102.203 37.7950  19
  -2   6   8 99.6164 38.8862  11
  -2   6   7 13.2107 22.6204  19
  -2   6   6 1129.00 138.187  19
  -2   6   5 10877.3 470.939  19
  -2   6   4 2109.67 191.343  19
   2  -6  -4 2221.16 467.431   4
   2  -6  -3 25045.8 1592.65   4
  -2   6   3 25330.7 770.113  19
  -2   6   2 13233.8 805.202   2
   2  -6  -2 12905.1 1066.90   4
  -2   6   1 517.748 171.146   2
   2  -6  -1 502.180 192.113   4
   2  -6   0 135.732 95.8952   4
  -2   6   0-5.27403 42.9315   2
   2  -6   1 43440.9 1702.72   4
  -2   6  -1 44325.7 1802.05   2
   2  -6   2 105864. 2679.64   4
  -2   6  -2 59636.7 2394.39   2
  -2   6  -3 6912.18 665.110   2
  -2   6  -4 2328.07 384.677   2
  -2   6  -5 6632.33 623.241   2
  -2   6  -6 167180. 3475.38  11
  -2   6  -6 162239. 3502.70   6
  -2   6  -7 22928.8 782.014  11
  -2   6  -7 23219.9 799.610   6
  -2   6  -8 37.0052 40.0400  29
  -2   6  -8 3.07723 36.5544   6
  -2   6  -9 2183.53 226.753   6
  -2   6  -9 2029.62 195.039  29
  -2   6  -9 2173.79 238.624  12
  -2   6 -10 3345.58 285.016  12
  -2   6 -10 3362.48 239.557  29
  -2   6 -10 3088.64 260.984   6
   2  -6  11 380.946 67.8011  18
  -2   6 -11 435.147 100.347  12
  -2   6 -11 354.374 82.8570   6
   2  -6  12 457.545 59.1759  18
  -2   6 -12 522.276 84.9509   6
  -2   6 -12 507.412 89.7319  12
  -2   6 -13 3435.27 180.154  12
  -2   5  10 489.597 57.1724  11
  -2   5  10 369.346 50.0156  19
  -2   5   9 98.2775 33.3325  19
  -2   5   8 3989.18 245.689  19
  -2   5   7 129.809 55.9897  19
  -2   5   6 7530.91 379.356  19
   2  -5  -5 124.086 106.944   3
  -2   5   5 96.4330 49.1187  19
   2  -5  -5-0.98526 60.7392   4
   2  -5  -4 15995.9 1247.44   4
   2  -5  -4 14735.9 1089.66   3
  -2   5   4 15591.2 545.259  19
   2  -5  -3 20748.8 1327.55   4
   2  -5  -2 7733.20 851.919   4
  -2   5   2 7229.65 636.978   2
  -2   5   1 993.687 212.674   2
   2  -5  -1 965.125 239.016   4
   2  -5   0 48625.3 1771.16   4
  -2   5   0 51106.7 1755.19   2
   2  -5   1 66486.9 1898.30   4
  -2   5  -1 46376.5 1807.72   2
   2  -5   2 13435.2 728.600   4
  -2   5  -2 12168.6 810.396   2
  -2   5  -3 323.626 126.654   2
   2  -5   3 291.212 113.451   4
  -2   5  -4 191.742 90.8240   2
   2  -5   4 279.163 118.638   4
  -2   5  -4 207.258 55.1431   6
  -2   5  -5 1899.61 293.772   2
  -2   5  -5 1660.71 158.154   6
  -2   5  -6 25571.4 790.105   6
  -2   5  -7 752.814 116.914   6
  -2   5  -7 776.109 112.002  29
  -2   5  -8 9701.48 446.654  29
  -2   5  -8 9529.06 477.890   6
  -2   5  -8 9896.62 511.750  12
  -2   5  -9 293.909 83.1503   6
  -2   5  -9 254.770 75.4417  29
  -2   5  -9 234.609 87.7561  12
  -2   5 -10 1732.75 208.617  12
  -2   5 -10 1754.91 177.901  29
  -2   5 -10 1631.85 188.455   6
  -2   5 -11 2774.44 249.633  12
   2  -5  11 2748.77 192.128  18
  -2   5 -11 2824.95 239.701   6
  -2   5 -12 4802.85 281.509   6
  -2   5 -12 4721.91 290.135  12
   2  -5  12 4496.64 215.445  18
  -2   5 -13 825.196 90.7526  12
  -2   4  11 3642.28 150.624  11
  -2   4  10 664.715 77.1511  19
  -2   4   9 2927.75 200.087  19
  -2   4   8 300.111 51.3153  13
  -2   4   8 295.834 72.2762  19
  -2   4   7 4142.76 220.661  13
  -2   4   7 4355.86 270.670  19
  -2   4   6 150.708 40.1297  13
  -2   4   6 227.530 65.2006  19
   2  -4  -6 153.432 117.837   3
   2  -4  -5 13889.5 1051.73   3
   2  -4  -4 9601.62 799.636   3
   2  -4  -3 33379.7 1465.22   3
  -2   4   3 34775.6 1143.69   2
  -2   4   2 1850.49 234.585   2
   2  -4  -2 1706.75 272.788   3
   2  -4  -2 1460.60 279.142   4
  -2   4   1 1735.40 240.921   2
   2  -4  -1 1740.01 282.261   4
   2  -4   0 69276.5 1971.42   4
  -2   4   0 68024.2 1970.69   2
   2  -4   1 227897. 4824.96   4
  -2   4  -1 226492. 5045.15   2
  -2   4  -2 399.896 127.719   2
   2  -4   2 293.358 85.0478   4
   2  -4   3 10484.5 563.356   4
  -2   4  -3 9799.64 618.661   2
  -2   4  -4 15295.3 777.366   2
  -2   4  -5 30183.4 1117.81   2
  -2   4  -5 28852.6 1213.33   3
  -2   4  -5 28370.3 798.423   6
  -2   4  -6 1014.60 127.544   6
  -2   4  -7 5501.46 331.038   6
  -2   4  -8 3461.34 201.344   9
  -2   4  -8 3303.82 245.702  29
  -2   4  -8 3352.64 273.021   6
  -2   4  -8 3449.16 282.545  12
  -2   4  -9 3.57217 40.9153   9
  -2   4  -9 117.529 51.3576  29
  -2   4  -9 72.6540 56.6650  12
  -2   4  -9 34.7247 40.8673   6
  -2   4 -10-26.7403 37.7396   6
  -2   4 -10 85.7267 64.2639  12
  -2   4 -11 5819.90 357.030   6
   2  -4  11 5520.60 288.415  18
  -2   4 -11 5890.31 374.484  12
   2  -4  12 19130.4 553.156  18
  -2   4 -12 19361.4 679.872  12
  -2   4 -12 19720.0 653.505   6
  -2   4 -13 2.61645 15.3649   8
  -2   3  11-18.5068 19.5056  16
  -2   3  11-2.17545 14.9985  19
  -2   3  10 624.732 76.4636  16
  -2   3  10 589.948 81.0655  19
  -2   3  10 550.510 62.8769  13
  -2   3   9 6206.99 312.966  19
  -2   3   9 5853.56 267.244  13
  -2   3   8 2708.02 204.276  19
  -2   3   8 2601.60 177.361  13
  -2   3   7 9.14687 28.4943  19
   2  -3  -7 27.0081 59.9912   3
  -2   3   7 2.83768 31.9977  13
   2  -3  -6 19936.2 1297.91   3
   2  -3  -5 48945.6 2003.84   3
   2  -3  -4 3471.23 433.384   3
  -2   3   3 535.887 113.838   2
   2  -3  -3 592.929 146.848   3
  -2   3   2 15429.0 650.146   2
   2  -3  -2 14697.2 753.795   3
   2  -3  -1 126057. 2896.48   3
  -2   3   1 123890. 2853.44   2
   2  -3  -1 123424. 2937.90   4
   2  -3   0 1218.65 154.907   4
  -2   3   0 1232.15 183.625   2
   2  -3   1 22470.0 669.447   4
  -2   3  -1 22677.8 866.250   2
  -2   3  -2 62655.1 1722.58   2
   2  -3   2 63844.5 1503.11   4
  -2   3  -3 592.340 124.887   2
  -2   3  -4 1522.13 203.726   3
  -2   3  -4 1708.67 211.635   2
  -2   3  -5 11338.8 555.383   2
  -2   3  -5 10238.3 623.348   3
  -2   3  -5 10763.1 410.059   6
  -2   3  -6 60584.8 1468.57   6
  -2   3  -8 191.788 54.6913   9
  -2   3  -8 126.447 62.6435  29
  -2   3  -8 122.491 61.2378   6
  -2   3  -8 76.1153 61.7182  12
  -2   3  -9 98.3851 30.1963   9
  -2   3  -9 270.032 85.2809   6
  -2   3  -9 199.770 65.7424  29
  -2   3  -9 228.441 73.3361  12
   2  -3  10 7084.95 354.901  18
  -2   3 -10 7035.00 429.892  12
  -2   3 -10 7055.47 429.451   6
  -2   3 -11 4076.50 303.710   6
   2  -3  11 3949.87 241.828  18
  -2   3 -11 4233.43 312.743  12
   2  -3  12 307.396 56.1401  18
  -2   3 -12 341.157 78.2957   6
  -2   3 -12 378.532 85.7036  12
   2  -3  13-13.2090 14.9938  19
  -2   3 -13-12.1205 15.0851   8
  -2   2  12 0.04129 10.5536  16
  -2   2  11 11137.9 361.045  19
  -2   2  11 11249.7 346.421  13
  -2   2  10 13025.0 446.653  19
  -2   2  10 12258.7 421.655  13
  -2   2   9 1894.03 162.146  19
  -2   2   8 1345.05 152.422  26
  -2   2   8 1588.44 148.441  19
  -2   2   7 2815.97 191.447  21
  -2   2   7 2890.42 191.371  19
  -2   2   7 2739.58 205.525  26
   2  -2  -7 2755.09 478.146   3
   2  -2  -6 43051.3 1905.45   3
   2  -2  -5 7385.57 669.797   3
   2  -2  -4 43371.8 1596.85   3
  -2   2   4 42687.7 1202.76   1
   2  -2  -3 204.061 100.442   3
  -2   2   3 154.754 58.5715   2
  -2   2   2 533.801 104.175   2
   2  -2  -2 622.050 126.357   3
  -2   2   1 1024.97 144.430   2
   2  -2  -1 999.617 131.188   3
   2  -2   0 12896.5 410.464   3
  -2   2   0 13092.6 527.140   2
  -2   2  -1 50231.5 1338.65   2
  -2   2  -2 937.901 139.738   2
  -2   2  -2 721.418 74.2656   3
  -2   2  -3 425.664 79.5566   3
  -2   2  -3 509.856 103.234   2
  -2   2  -4 57661.7 1506.64   3
  -2   2  -4 58315.8 1454.24   2
  -2   2  -5 116446. 2854.22   3
  -2   2  -5 114888. 2443.78   7
  -2   2  -6 6604.35 349.821   7
  -2   2  -7 7078.70 398.919   7
  -2   2  -8 104.481 68.9626   7
  -2   2  -8 166.800 61.9939  29
  -2   2  -8 101.300 38.6628   9
  -2   2  -8 132.054 52.6896  12
  -2   2  -9 1466.92 191.712  12
   2  -2   9 1320.04 150.362  18
  -2   2  -9 1386.97 144.798   9
  -2   2 -10 16707.1 704.064   6
   2  -2  10 16193.7 577.966  18
  -2   2 -10 15784.2 686.068  12
   2  -2  11 3112.93 208.441  18
  -2   2 -11 3279.41 266.859   6
  -2   2 -11 2864.47 253.701  12
  -2   2 -12 2568.30 206.844   8
  -2   2 -12 2942.70 210.708   6
   2  -2  13 357.964 40.5641  19
  -2   1  12 1420.53 104.316  16
  -2   1  12 1181.97 81.8359  13
  -2   1  11 1395.36 128.076  16
  -2   1  11 1231.53 109.787  13
  -2   1  10 6248.43 286.158  19
  -2   1   9 1011.34 113.735  19
  -2   1   9 924.333 126.674  26
  -2   1   9 851.154 111.538  21
  -2   1   8 5018.00 282.421  21
  -2   1   8 4887.90 291.803  26
   2  -1  -8 4981.40 676.574   3
   2  -1  -7 9624.78 883.985   3
   2  -1  -6 41032.7 1791.71   3
   2  -1  -5 590.202 177.358   3
  -2   1   5 564.062 98.7942   1
   2  -1  -4 6707.68 529.484   3
  -2   1   4 6520.79 359.349   1
   2  -1  -3 3501.34 336.083   3
  -2   1   3 3346.84 249.593   1
   2  -1  -2 33200.2 1018.90   3
  -2   1   2 31883.9 933.905   1
   2  -1  -1 60058.0 1411.10   3
  -2   1   1 61452.1 1485.04   1
   2  -1   0 83.1999 18.9456   3
  -2   1   0 193.487 68.6766   2
  -2   1   0 189.628 61.7565   1
  -2   1  -1 36513.4 834.570   4
  -2   1  -1 43620.7 1046.28   1
  -2   1  -2 4184.47 241.338   1
  -2   1  -2 3278.96 157.070   3
  -2   1  -3 21932.4 633.851   1
  -2   1  -3 22482.2 699.563   3
  -2   1  -4 112470. 2633.46   3
  -2   1  -5 61783.3 1793.91   3
  -2   1  -5 56155.3 1363.45   7
  -2   1  -6 6212.20 342.071   7
  -2   1  -7 142.142 63.3991   7
   2  -1   8 316.039 70.5509  18
  -2   1  -8 305.869 74.0281  12
  -2   1  -8 478.370 86.1351   9
  -2   1  -8 258.474 83.6784   7
  -2   1  -9 6850.19 450.346   7
  -2   1  -9 7200.88 437.260  12
   2  -1   9 7264.80 364.563  18
   2  -1  10 634.461 98.4933  18
  -2   1 -10 703.541 130.531  12
  -2   1 -11-28.1005 32.4185   8
  -2   1 -11 24.1863 48.3892   6
   2  -1  12 4156.18 193.799  19
  -2   1 -12 4006.16 241.808   8
  -2   0  13 388.592 42.9539  16
  -2   0  12 6501.45 265.404  16
  -2   0  12 6063.42 240.175  13
  -2   0  11 2404.55 187.840  26
  -2   0  10 792.469 109.215  21
  -2   0  10 905.504 125.185  26
  -2   0   9 149.133 57.2820  21
  -2   0   9 121.302 48.7910  26
   2   0  -8 19683.2 1359.78   3
  -2   0   8 21922.6 684.702  21
  -2   0   8 21141.9 669.959  32
  -2   0   8 21521.3 695.602  26
   2   0  -8 19984.2 763.999  12
   2   0  -7 398.709 178.412   3
   2   0  -6 9546.78 787.762   3
  -2   0   5 42370.0 1145.56   1
   2   0  -5 42961.2 1656.61   3
  -2   0   4 15808.4 597.799   1
   2   0  -4 17209.5 869.822   3
   2   0  -3 2019.31 253.029   3
  -2   0   3 1906.36 180.790   1
  -2   0   2 11562.2 511.404   4
   2   0  -2 11108.1 527.825   3
  -2   0   2 10610.6 457.649   1
  -2   0   1 999999. 18656.6   4
  -2   0   1 984843. 18677.3   1
  -2   0   0 469489. 8906.73   4
  -2   0   0 459230. 8925.70   1
  -2   0  -1 69.4021 32.5711   1
  -2   0  -1 95.1870 46.4944   4
  -2   0  -2 16634.8 532.807   1
  -2   0  -3 121146. 2750.80   3
  -2   0  -4 24119.3 960.870   3
  -2   0  -5 4476.44 268.204   7
  -2   0  -5 5162.50 465.841   3
  -2   0  -6 7487.57 395.288   7
  -2   0  -7 4417.48 252.087   9
   2   0   7 4450.85 251.990  18
  -2   0  -7 4561.22 329.698   7
  -2   0  -8 4267.64 266.254   9
  -2   0  -8 4218.72 317.509  12
   2   0   8 4127.34 261.068  18
  -2   0  -8 3973.88 330.286   7
   2   0   9 2376.64 196.151  18
  -2   0  -9 2642.87 270.588   7
  -2   0 -10 6268.35 399.752   7
  -2   0 -10 5867.46 394.906   8
   2   0  11 5429.22 253.524  19
  -2   0 -11 5495.48 332.405   8
  -2   0 -11 5394.25 306.506   6
   2   0  12 36.5228 20.1966  19
  -2   0 -12-4.51874 16.7767   8
  -2  -1  13 8335.52 262.592  16
  -2  -1  13 7897.66 241.587  13
  -2  -1  12 5586.03 246.847  16
  -2  -1  12 5062.62 257.417  26
  -2  -1  11 2523.17 193.696  21
  -2  -1  11 2607.17 205.782  26
  -2  -1  10 4026.35 261.266  21
  -2  -1  10 4001.30 272.302  26
   2   1 -10 3696.65 308.023  12
  -2  -1  10 3944.90 256.098  32
  -2  -1   9 298.181 68.1024  21
   2   1  -9 357.350 93.2500  12
  -2  -1   9 243.487 63.6819  32
  -2  -1   9 233.556 60.5997  26
  -2  -1   8 519.700 103.132  32
   2   1  -8 647.043 233.896   3
   2   1  -7 3201.78 491.463   3
   2   1  -6 80640.1 2677.29   3
   2   1  -5 4942.85 510.829   3
   2   1  -4 7855.69 614.574   3
  -2  -1   3 36.6386 57.0138   4
  -2  -1   3 119.242 52.2383   1
  -2  -1   2 3492.87 311.838   4
  -2  -1   2 3732.60 259.962   1
  -2  -1   1 177694. 3615.01   1
  -2  -1   1 166845. 3773.91   4
  -2  -1   0 28784.6 1037.88   4
  -2  -1  -1 152.850 77.6935   4
  -2  -1  -2 2286.76 309.200   4
  -2  -1  -3 1413.99 217.477   3
  -2  -1  -4 33953.0 1337.66   3
  -2  -1  -5 27839.3 1296.44   3
  -2  -1  -6 64.8323 44.2344   7
   2   1   7 6064.69 309.792  18
  -2  -1  -7 6024.15 399.162   7
  -2  -1  -7 6167.69 316.571   9
  -2  -1  -7 5977.40 409.152   8
  -2  -1  -8 7931.33 480.110   7
  -2  -1  -8 7802.35 485.475   8
   2   1   8 7685.83 366.998  18
  -2  -1  -9 1322.06 190.104   8
  -2  -1  -9 1217.81 180.484   7
   2   1  10 319.404 65.9898  19
  -2  -1 -10 292.541 76.7232   7
  -2  -1 -10 335.013 90.6066   8
   2   1  11 2652.47 153.418  19
  -2  -1 -11 2401.63 190.163   8
  -2  -2  13 2657.66 130.313  16
  -2  -2  12 1125.47 103.121  16
  -2  -2  12 944.138 106.971  26
  -2  -2  11 226.741 54.0065  21
  -2  -2  11 318.519 66.7551  32
  -2  -2  11 400.163 80.9808  26
  -2  -2  10 2304.78 195.507  21
  -2  -2  10 2174.93 189.049  32
   2   2 -10 2176.12 223.621  12
  -2  -2  10 2043.02 193.366  26
  -2  -2   9 2002.35 199.587  21
  -2  -2   9 1798.14 176.732  32
   2   2  -9 2094.60 214.351  12
   2   2  -8 2541.78 475.334   3
  -2  -2   8 2755.14 202.565  32
  -2  -2   8 2806.25 190.230  24
   2   2  -7 5163.00 632.989   3
   2   2  -6 65177.1 2382.53   3
  -2  -2   5 4909.49 506.725   4
   2   2  -5 4625.51 516.662   3
  -2  -2   4 435.418 133.432   4
  -2  -2   3 20337.2 975.158   4
  -2  -2   2 18644.9 889.843   4
  -2  -2   1 3745.86 381.383   4
  -2  -2   0 174.710 85.0102   4
  -2  -2  -1 105.706 68.7052   4
  -2  -2  -2 3278.55 433.154   4
  -2  -2  -3 1287.56 291.333   4
  -2  -2  -4 35071.0 1814.96   4
  -2  -2  -5 46993.6 2317.98   4
  -2  -2  -6 3795.08 666.344   4
  -2  -2  -6 4063.67 315.161   8
  -2  -2  -7 3108.00 289.176   7
  -2  -2  -7 2865.53 282.595   8
   2   2   8 592.356 89.9987  19
  -2  -2  -8 620.028 133.874   8
  -2  -2  -8 679.613 133.067   7
   2   2   9 25176.9 729.209  19
  -2  -2  -9 25948.8 920.680   8
  -2  -2  -9 26827.8 916.498   7
   2   2  10 3633.35 196.763  19
  -2  -2 -10 3664.50 259.765   7
  -2  -2 -10 3444.45 253.664   8
   2   2  11 18.7026 12.7520  19
  -2  -3  13 339.492 40.0054  16
  -2  -3  13 292.951 47.8646  26
  -2  -3  12 8093.30 291.017  16
  -2  -3  12 7327.58 302.448  21
  -2  -3  12 7360.94 326.933  26
  -2  -3  11 3385.24 222.936  21
  -2  -3  11 3620.04 205.040  16
  -2  -3  11 3244.59 221.877  32
  -2  -3  11 3594.24 242.945  26
   2   3 -11 3489.69 259.083  12
  -2  -3  10 1754.29 187.192  21
   2   3 -10 2096.93 231.786  12
  -2  -3  10 1654.89 180.414  32
  -2  -3   9 12.3652 24.4986  32
  -2  -3   9-17.3995 18.8988  24
   2   3  -8 43633.0 2168.12   3
  -2  -3   8 46464.8 1155.99  24
   2   3  -7 7951.71 821.020   3
   2   3  -6 8454.04 791.876   3
  -2  -3   5 29523.8 1429.98   4
  -2  -3   4 50141.3 1881.10   4
  -2  -3   3 14259.5 877.182   4
  -2  -3   2 5998.05 545.506   4
  -2  -3   1 10069.3 741.773   4
  -2  -3   0 48473.7 1908.53   4
  -2  -3  -1 9068.56 791.526   4
  -2  -3  -2 19517.8 1268.48   4
  -2  -3  -3 5006.32 668.810   4
  -2  -3  -4 33947.4 1956.87   4
   2   3   5 108.398 62.5694  19
  -2  -3  -5 850.294 313.335   4
  -2  -3  -5 505.574 124.884   8
   2   3   6 1137.09 121.528  19
  -2  -3  -6 1307.32 187.280   8
   2   3   7 924.004 111.494  19
  -2  -3  -7 889.575 160.560   8
  -2  -3  -7 1016.81 167.692   7
  -2  -3  -8 404.143 109.630   8
   2   3   8 319.105 66.7905  19
  -2  -3  -8 400.728 104.228   7
   2   3   9 1119.70 107.557  19
  -2  -3  -9 1243.31 156.791   7
   2   3  10 938.102 79.4260  19
  -2  -3 -10 836.939 84.0073  10
  -2  -4  13 9223.57 296.106  26
  -2  -4  12 296.928 53.0004  21
  -2  -4  12 356.322 62.2683  32
  -2  -4  12 278.810 57.4507  26
  -2  -4  11 572.103 95.3476  32
  -2  -4  11 594.373 99.5732  26
  -2  -4  11 685.759 100.417  21
  -2  -4  10 2.39644 31.8205  32
  -2  -4  10-9.16431 27.3464  24
  -2  -4  10 14.2091 38.4109  21
  -2  -4   9 3600.50 237.163  24
   2   4  -8 693.844 251.903   3
  -2  -4   8 810.077 113.035  24
   2   4  -7 167.438 120.230   3
  -2  -4   7 128.345 45.6757  24
  -2  -4   6 4209.04 570.930   4
  -2  -4   5 22519.1 1315.15   4
  -2  -4   4 10110.7 835.170   4
  -2  -4   3 63.6834 76.4665   4
  -2  -4   2 74113.0 2553.86   4
  -2  -4   1 177.038 133.360   4
  -2  -4   0 1814.48 366.517   4
  -2  -4  -1 2029.06 415.251   4
  -2  -4  -2 11988.8 1097.49   4
  -2  -4  -3 1531.60 412.417   4
  -2  -4  -4 5552.22 824.905   4
  -2  -4  -4 6025.05 406.605   8
   2   4   5 2824.01 188.225  19
  -2  -4  -5 3002.41 287.941   8
   2   4   6 1.64885 17.0532  19
   2   4   7 119.519 42.4775  19
  -2  -4  -7 49.5239 27.4004  10
  -2  -4  -7 162.045 72.1226   7
   2   4   8 6683.24 280.488  19
  -2  -4  -8 6620.07 342.589  10
  -2  -4  -8 6350.50 379.260   7
   2   4   9 13.8734 18.0588  19
  -2  -4  -9 8.24086 16.0164  10
  -2  -5  13 4560.90 174.917  26
  -2  -5  12 490.468 70.6542  32
  -2  -5  12 364.929 63.3190  26
  -2  -5  11 24.0396 22.3980  21
  -2  -5  11 11.3376 21.6941  32
  -2  -5  10 244.414 64.4351  32
  -2  -5  10 206.713 57.6538  21
  -2  -5  10 254.494 57.7441  24
  -2  -5   9 9608.44 417.616  24
  -2  -5   8 172.513 58.6296  24
   2   5  -7 2393.01 464.704   3
  -2  -5   7 2383.66 198.170  24
  -2  -5   6 5428.76 302.044  24
  -2  -5   6 4674.34 637.000   4
  -2  -5   5 144.541 124.639   4
  -2  -5   4 1822.09 388.920   4
  -2  -5   3 28274.5 1560.36   4
  -2  -5   2 70440.7 2672.24   4
  -2  -5   1 12378.0 1047.10   4
  -2  -5   0 211.863 142.079   4
  -2  -5  -1 5870.92 780.288   4
  -2  -5  -1 5680.99 338.892  10
  -2  -5  -2 43773.7 1236.88  10
  -2  -5  -2 45686.2 2403.74   4
  -2  -5  -3 2781.33 248.554  10
  -2  -5  -3 2623.40 558.847   4
  -2  -5  -4 38.8327 35.2824  10
  -2  -5  -5 1019.55 147.941  10
  -2  -5  -6 7460.06 408.043  10
   2   5   6 8062.72 320.331  19
  -2  -5  -7 1142.00 132.071  10
   2   5   7 1252.19 104.723  19
  -2  -5  -7 1444.39 174.314   7
   2   5   8 236.254 36.3930  19
  -2  -5  -8 214.844 46.8785  10
  -2  -6  12 1856.48 119.302  32
  -2  -6  12 1885.11 125.218  26
  -2  -6  11 20.3273 22.5465  21
  -2  -6  11 65.3271 34.6037  32
  -2  -6  10 324.320 59.3154  21
  -2  -6  10 573.700 84.4521  24
  -2  -6   9 215.245 61.6584  24
  -2  -6   8 18390.1 642.158  24
  -2  -6   7 35659.2 1013.88  24
  -2  -6   6 9606.01 392.359  14
  -2  -6   6 9842.69 448.388  24
  -2  -6   5 4498.22 651.068   4
  -2  -6   5 5432.07 299.028  20
  -2  -6   5 4979.73 284.524  14
  -2  -6   5 5285.11 311.006  24
  -2  -6   4 7042.88 340.655  20
  -2  -6   4 6149.65 762.588   4
  -2  -6   4 7069.45 404.327  31
  -2  -6   4 7470.12 368.966  24
  -2  -6   3 19548.1 1384.18   4
  -2  -6   3 19835.6 638.669  20
  -2  -6   3 19712.2 729.703  31
  -2  -6   2-9.90230 47.7324  31
  -2  -6   2-30.4953 66.4409   4
  -2  -6   2 75.6845 47.1013  20
  -2  -6   1 43.7168 28.3649  20
  -2  -6   1 148.696 66.5023  10
  -2  -6   1 128.655 53.2516  31
  -2  -6   1 61.3698 85.6534   4
  -2  -6   0 467.649 86.5416  20
  -2  -6   0 330.729 182.886   4
  -2  -6   0 480.888 112.847  10
  -2  -6  -1 8553.91 408.806  20
  -2  -6  -1 8668.21 462.000  10
  -2  -6  -2 10328.7 521.270  10
  -2  -6  -3 2003.17 216.088  10
  -2  -6  -4 12044.4 547.599  10
  -2  -6  -5 539.640 98.4726  10
  -2  -6  -6 2092.32 171.393  10
  -2  -6  -6 2012.83 199.662   7
  -2  -6  -7 1028.88 93.1850  20
  -2  -7  12 11.7404 11.1338  32
  -2  -7  12 33.3717 14.7315  26
  -2  -7  11 508.168 66.6019  32
  -2  -7  10 39.1117 25.6095  24
  -2  -7   9 399.049 76.8685  24
  -2  -7   8 1293.67 142.636  24
  -2  -7   7 3026.31 234.783  24
  -2  -7   6 1702.62 153.215  14
  -2  -7   6 1828.88 184.654  24
  -2  -7   5 1216.77 136.100  14
  -2  -7   5 1274.45 153.493  24
  -2  -7   4 2002.26 187.424  14
  -2  -7   4 2029.82 217.691  31
  -2  -7   4 1814.93 180.358  24
  -2  -7   3 7213.06 432.203  31
  -2  -7   3 7791.52 383.708  24
  -2  -7   2 247.328 64.3187  20
  -2  -7   2 246.831 80.7709  31
  -2  -7   2 304.862 72.9835  24
  -2  -7   1 109.101 45.9481  20
  -2  -7   1 105.561 55.5532  31
  -2  -7   0 6004.33 322.274  20
  -2  -7   0 6239.07 405.215  31
  -2  -7  -1 18639.4 635.800  20
  -2  -7  -1 18860.8 768.970  31
  -2  -7  -2 443.545 106.921  10
  -2  -7  -2 428.428 80.2631  20
  -2  -7  -3 2972.56 243.706  10
  -2  -7  -3 2879.85 206.072  20
  -2  -7  -4 150.788 41.6226  20
  -2  -7  -5 685.522 109.304   7
  -2  -7  -5 867.851 114.658  31
  -2  -7  -5 701.867 85.4556  20
  -2  -7  -6 58.3337 28.1137  31
  -2  -8  11 48.4209 18.0486  32
  -2  -8  11 49.9149 18.8180  26
  -2  -8  10 45.2324 21.0672  24
  -2  -8   9 5925.40 270.483  24
  -2  -8   8 430.258 78.1896  24
  -2  -8   7 196.494 56.2724  24
  -2  -8   6 8.13983 25.7566  14
  -2  -8   6 53.4284 30.9050  24
  -2  -8   5 9092.42 394.423  14
  -2  -8   5 9597.34 424.440  24
  -2  -8   4 4130.02 267.559  14
  -2  -8   4 4403.43 272.048  24
  -2  -8   3 432.554 105.243  31
  -2  -8   3 425.347 82.3180  24
  -2  -8   2 2728.99 256.482  31
  -2  -8   1 1841.47 207.836  31
  -2  -8   0 616.827 135.718  31
  -2  -8  -1 4786.52 327.811  31
  -2  -8  -2 12998.2 545.352  31
  -2  -8  -3 3972.40 257.352  31
  -2  -8  -4 146.888 45.0672  31
  -2  -9   9 62.1461 22.3353  24
  -2  -9   8 65.1488 27.3156  24
  -2  -9   7 1131.75 109.688  24
  -2  -9   6 414.065 56.6400  14
  -2  -9   6 405.627 67.6958  24
  -2  -9   5 128.723 38.4585  14
  -2  -9   5 133.861 42.6783  24
  -2  -9   4 62.8424 34.3417  14
  -2  -9   4 78.9434 34.2748  24
  -2  -9   3 5210.19 278.615  14
  -2  -9   3 5310.71 243.359  24
  -2  -9   2 67.5242 40.9942  14
  -2  -9   2 110.618 52.9878  31
  -2  -9   1 1570.74 153.364  14
  -2  -9   1 1495.57 167.833  31
  -2  -9   0 2565.30 205.999  31
  -2  -9   0 2880.58 193.057  14
  -2  -9  -1 937.695 111.898  31
  -2  -9  -1 916.794 99.4655  14
  -2  -9  -2 708.278 85.3390  31
  -2  -9  -2 589.035 65.4283  14
  -2 -10   7 31.6801 14.5654  24
  -2 -10   6 20.1997 11.8298  24
  -2 -10   5 1054.03 75.2374  24
  -2 -10   4 7.70521 15.7645  14
  -2 -10   3 1090.96 88.8383  14
  -2 -10   2 187.180 38.0259  14
  -2 -10   1 452.880 52.9052  14
  -3  11   1 13067.8 370.936  11
  -3  11   0 11837.9 378.006  11
   3 -11   0 12418.6 377.795  23
  -3  11  -1 2450.71 161.514  11
   3 -11   1 2592.98 161.937  23
  -3  11  -2 102.700 44.1507  11
   3 -11   2 180.540 49.0627  23
  -3  11  -3 121.206 42.1762  11
  -3  11  -4 515.152 78.5522  11
  -3  11  -5 350.964 63.1061  11
  -3  11  -6 6454.41 260.164  29
  -3  11  -6 5933.99 270.768  11
  -3  11  -7 1955.33 120.435  29
   3 -11   7 1179.03 76.2769  24
  -3  11  -8 163.345 38.7046  12
  -3  10   4-16.7868 11.2418  11
  -3  10   3 137.167 38.2518  11
  -3  10   2 485.978 70.6574  11
   3 -10  -2 447.628 68.0151  23
  -3  10   1 8428.75 352.958  11
   3 -10  -1 8584.16 363.608  23
   3 -10   0 927.969 119.907  23
  -3  10   0 872.215 112.699  11
  -3  10  -1 3813.14 246.191  11
   3 -10   1 4245.85 272.310  23
  -3  10  -2 2963.32 219.733  11
   3 -10   2 2798.31 221.847  23
  -3  10  -3 10191.8 449.961  11
   3 -10   3 10792.9 455.495  23
  -3  10  -4-2.85688 33.2775  11
   3 -10   4 78.0934 48.0953  23
  -3  10  -5 2798.46 219.695  11
  -3  10  -6 2018.11 183.807  11
   3 -10   7 2413.89 148.763  24
  -3  10  -7 2878.17 195.603  29
  -3  10  -8 75.2557 30.8985  29
  -3  10  -9 453.921 60.5628  29
  -3  10  -9 478.090 77.7912  12
  -3  10 -10 3044.77 158.149  12
  -3   9   5 159.975 38.4923  11
  -3   9   4 48.2249 22.1291  11
   3  -9  -4 33.0316 22.4966  23
  -3   9   3 91.0160 41.4416  11
   3  -9  -3 69.1050 38.8128  23
  -3   9   2 3743.61 243.520  11
   3  -9  -2 3644.29 255.328  23
  -3   9   1 3078.29 229.786  11
  -3   9   0 3326.34 246.874  11
  -3   9   0 3360.14 187.059  13
   3  -9   0 3215.75 259.427  23
  -3   9  -1 16135.1 602.308  11
  -3   9  -1 15510.5 492.582  13
   3  -9   1 15414.5 623.996  23
  -3   9  -2 449.377 90.0449  11
  -3   9  -2 461.224 72.2459  13
   3  -9   2 544.534 116.524  23
  -3   9  -3 661.153 116.014  11
   3  -9   3 569.196 105.925  23
  -3   9  -4 5005.53 318.828  11
   3  -9   4 4345.29 290.302  23
  -3   9  -5 36767.4 1067.92  11
   3  -9   5 35633.6 995.132  23
  -3   9  -6 3248.73 254.561  11
  -3   9  -7 29.5882 33.9144  11
  -3   9  -7 35.9159 42.5477  29
  -3   9  -8 2814.02 211.339  29
  -3   9  -9 8713.44 358.678  29
  -3   9  -9 8647.22 403.747  12
  -3   9 -10 810.409 84.3226  29
  -3   9 -10 799.928 103.873  12
  -3   9 -11 372.346 56.3214  12
  -3   8   7 1604.72 95.2160  11
  -3   8   6 320.421 56.3554  11
  -3   8   6 328.555 39.5064  17
  -3   8   5 2694.29 188.191  11
  -3   8   5 2991.55 152.182  17
  -3   8   4 1559.81 155.794  11
  -3   8   4 1707.42 123.806  17
  -3   8   3 145.359 49.4884  11
  -3   8   2 3913.18 268.048  11
  -3   8   2 4035.06 208.879  13
  -3   8   1 13934.5 572.591  11
  -3   8   1 15889.7 505.242  13
  -3   8   0 3293.47 248.955  11
  -3   8   0 3345.81 200.041  13
  -3   8  -1 9211.30 363.118  13
  -3   8  -1 9389.27 441.269  11
  -3   8  -2 3598.43 259.770  11
  -3   8  -2 3245.85 205.236  13
  -3   8  -3 11640.4 504.090  11
  -3   8  -3 11106.7 419.431  13
   3  -8   3 10776.9 487.803  23
  -3   8  -4 7015.28 384.055  11
   3  -8   4 6945.64 367.148  23
   3  -8   5 847.951 120.410  23
  -3   8  -5 898.695 137.211  11
  -3   8  -6 1.71564 43.2152  11
  -3   8  -7 2145.56 211.993  11
  -3   8  -8 11.8579 34.8412  29
  -3   8  -9 7291.19 359.043  29
  -3   8  -9 7379.89 402.899  12
  -3   8 -10 7943.81 342.623  29
  -3   8 -10 7460.78 377.918  12
   3  -8  11 2022.82 122.651  18
  -3   8 -11 2369.57 172.846  12
  -3   7   8 1144.93 70.2535  17
  -3   7   8 1017.68 79.6262  11
  -3   7   7 413.072 66.7917  11
  -3   7   7 385.677 55.8507  17
  -3   7   6 7383.86 340.755  11
  -3   7   5 1276.97 141.316  11
  -3   7   4 997.314 129.085  11
  -3   7   4 1007.67 101.799  13
  -3   7   3 7082.81 301.184  13
  -3   7   3 6907.03 367.139  11
  -3   7   2 30329.2 906.506  11
  -3   7   2 32206.8 825.826  17
  -3   7   2 29856.3 798.929  13
  -3   7   1 1557.84 135.905  13
  -3   7   1 1563.14 293.646   2
  -3   7   1 1694.46 172.614  11
  -3   7   0 12144.6 898.193   2
  -3   7   0 13085.0 507.365  11
  -3   7   0 11789.6 419.192  13
  -3   7  -1 3889.52 253.381  11
  -3   7  -1 3429.15 203.026  13
  -3   7  -2 3937.19 254.725  11
  -3   7  -2 3596.03 207.493  13
  -3   7  -3 16923.2 532.731  13
  -3   7  -3 17979.2 616.337  11
  -3   7  -4 35002.5 990.461  11
  -3   7  -4 32774.8 1619.17   2
   3  -7   4 32589.3 933.651  23
  -3   7  -4 34377.1 890.691  13
  -3   7  -5 3268.70 252.996  11
  -3   7  -5 2737.08 430.736   2
   3  -7   5 3280.83 217.663  23
  -3   7  -6 6360.55 370.351  11
  -3   7  -7 74.0665 39.0506  29
  -3   7  -7 9.36678 30.7900  11
  -3   7  -8 2153.49 207.281  29
  -3   7  -9 36.4375 46.8640  29
  -3   7  -9 83.4843 55.1310  12
  -3   7 -10 288.688 73.2092  29
  -3   7 -10 558.891 116.459  12
   3  -7  11 7676.36 298.783  18
  -3   7 -11 7880.67 370.572  12
   3  -7  12 20.1610 10.6420  18
  -3   7 -12-14.9032 20.5328  12
  -3   6   9 1034.03 78.8450  11
  -3   6   9 1236.76 81.1583  17
  -3   6   8 629.280 80.0016  11
  -3   6   7 2949.86 245.374  11
  -3   6   7 3006.73 159.137  13
  -3   6   6 11312.0 393.813  13
  -3   6   6 11541.4 486.333  11
  -3   6   6 10825.1 463.365  19
  -3   6   5 2382.26 205.205  11
  -3   6   5 2245.50 201.419  19
  -3   6   5 2382.55 166.563  13
  -3   6   4 1919.47 148.140  13
  -3   6   4 1980.36 186.338  11
  -3   6   4 2035.70 191.382  19
  -3   6   3 41416.3 1112.45  11
  -3   6   3 41080.3 1118.94  19
  -3   6   3 41710.2 1017.96  13
  -3   6   2 95822.7 2057.97  13
  -3   6   2 98296.9 2158.24  11
  -3   6   2 99096.1 2179.59  19
  -3   6   1 25748.9 1241.42   2
  -3   6   0 77.8180 90.0582   2
  -3   6  -1 373.175 158.791   2
  -3   6  -2 6860.99 649.638   2
  -3   6  -3 568.241 195.268   2
  -3   6  -4 1567.60 317.446   2
  -3   6  -5 44556.3 1792.15   2
  -3   6  -6 1823.22 187.695  11
  -3   6  -6 1891.21 208.195   6
  -3   6  -7 62.3004 35.2972  29
  -3   6  -7 54.8620 47.8807   6
  -3   6  -8 3627.48 274.886  29
  -3   6  -8 3299.82 295.098   6
  -3   6  -8 3443.05 290.821  12
  -3   6  -9 13082.8 560.919  29
  -3   6  -9 13289.4 605.424  12
  -3   6  -9 13698.7 621.841   6
  -3   6 -10 6889.52 400.536  12
  -3   6 -10 7538.07 382.474  29
  -3   6 -10 7122.22 415.515   6
   3  -6  11 156.547 44.9836  18
  -3   6 -11 144.206 61.8714  12
  -3   6 -11 96.2463 47.5828   6
   3  -6  12 4.03601 11.3051  18
  -3   6 -12 29.3438 26.4308  12
  -3   5  10 20.2018 12.0908  11
  -3   5  10 49.1076 22.2962  17
  -3   5   9 63.9864 27.2045  19
  -3   5   9 151.498 41.6450  11
  -3   5   8 27210.4 759.404  19
  -3   5   8 26593.9 677.722  13
  -3   5   7 16753.7 589.251  19
  -3   5   7 16827.9 518.947  13
  -3   5   6 1871.80 177.972  19
  -3   5   6 1925.25 152.714  13
  -3   5   5 342.477 74.0576  19
   3  -5  -5 533.030 190.875   3
  -3   5   5 312.642 65.0263  13
  -3   5   4 471.964 98.7818  19
  -3   5   4 502.851 87.7146  13
   3  -5  -4 581.859 230.370   3
  -3   5   3 4587.28 430.564   2
  -3   5   2 93.9957 78.5358   2
  -3   5   1 5009.82 476.415   2
  -3   5   0 20159.3 1038.18   2
  -3   5  -1 3703.96 422.868   2
  -3   5  -2 2571.06 362.171   2
  -3   5  -3 48121.2 1775.89   2
  -3   5  -4 15914.3 933.705   2
  -3   5  -4 16574.5 594.966   6
  -3   5  -5 6.97616 45.9560   2
  -3   5  -5 97.8031 58.9147   6
  -3   5  -6 75.9405 45.2417  29
  -3   5  -6 24.7932 44.9801   6
  -3   5  -7 1429.20 159.663  29
  -3   5  -7 1444.16 183.676   6
  -3   5  -8 16279.1 513.352   9
  -3   5  -8 14963.5 612.963  29
  -3   5  -8 15080.7 661.302   6
  -3   5  -8 15647.4 655.983  12
  -3   5  -9 13038.0 451.598   9
  -3   5  -9 12723.3 555.809  29
  -3   5  -9 12475.2 598.334   6
  -3   5  -9 12917.2 595.567  12
  -3   5 -10 976.819 100.295   9
  -3   5 -10 922.903 134.517  29
  -3   5 -10 862.189 139.404  12
  -3   5 -10 912.367 147.773   6
   3  -5  11 527.204 80.6871  18
  -3   5 -11 545.980 99.2238  12
  -3   5 -11 546.080 106.124   6
   3  -5  12 203.301 41.2144  18
  -3   5 -12 148.944 36.4974  12
  -3   4  11 242.916 31.2291  17
  -3   4  10-18.0919 15.3804  13
  -3   4   9 516.271 82.3338  19
  -3   4   9 558.454 74.9306  16
  -3   4   8 18474.0 607.729  19
  -3   4   8 17794.6 570.101  13
  -3   4   7 16728.8 593.924  19
  -3   4   7 15977.2 549.780  13
  -3   4   6 1916.21 172.879  19
   3  -4  -6 2094.21 418.569   3
  -3   4   6 2367.87 173.299  16
  -3   4   6 2006.31 163.168  13
  -3   4   5 1019.47 125.581  19
   3  -4  -5 1250.79 312.690   3
  -3   4   5 1012.26 116.086  13
  -3   4   4 23986.9 1024.64   1
   3  -4  -4 26222.3 1349.07   3
  -3   4   3 38575.6 1328.00   2
   3  -4  -3 37038.9 1539.95   3
  -3   4   2 9515.95 608.072   2
   3  -4  -2 8863.02 625.856   3
  -3   4   1 4258.00 415.250   2
  -3   4   0 3880.49 395.421   2
  -3   4  -1 31271.4 1249.44   2
  -3   4  -2 19227.3 946.302   2
  -3   4  -3 14180.7 486.896   6
  -3   4  -3 13311.6 775.461   2
  -3   4  -4 72941.8 2154.65   2
  -3   4  -4 70323.4 1631.73   6
  -3   4  -5 517.180 144.162   2
  -3   4  -5 457.280 83.8373   6
  -3   4  -6 906.043 128.913   6
  -3   4  -7 6723.41 365.088  29
  -3   4  -7 7088.99 402.856   6
  -3   4  -7 6966.07 390.663  12
  -3   4  -8 33988.8 890.785   9
  -3   4  -8 33099.1 1011.14  29
  -3   4  -8 31677.5 1051.10   6
  -3   4  -8 33634.1 1042.24  12
  -3   4  -9 3360.94 219.219   9
  -3   4  -9 3421.89 272.718  29
  -3   4  -9 3161.03 284.163   6
  -3   4  -9 3398.21 280.943  12
   3  -4  10 35.2089 36.0343  18
  -3   4 -10-11.3225 30.2534   9
  -3   4 -10-10.1024 31.5613   6
  -3   4 -10 62.3700 52.3380  12
   3  -4  11 567.334 87.7582  18
  -3   4 -11 524.794 101.615  12
  -3   4 -11 594.670 107.530   6
   3  -4  12 1313.57 105.907  18
  -3   3  11 53.4027 19.2561  16
  -3   3  11 62.8262 17.2988  13
  -3   3  10 505.311 71.8385  16
  -3   3  10 580.918 79.5759  13
  -3   3   9 4635.55 253.257  16
  -3   3   9 3950.76 225.666  13
  -3   3   8 1361.80 137.597  19
  -3   3   8 1535.87 149.857  16
  -3   3   8 1299.83 133.425  13
  -3   3   7 29.3587 30.3514  19
  -3   3   7 15.2789 26.6707  16
  -3   3   7 10.6417 34.7380  13
  -3   3   6 2693.08 187.506  16
  -3   3   6 2644.43 185.209  13
   3  -3  -6 2575.34 447.068   3
   3  -3  -5 239.389 128.256   3
   3  -3  -4 1283.35 268.484   3
  -3   3   4 1257.69 201.612   1
   3  -3  -3 158.975 77.8404   3
  -3   3   3 84.1133 63.1669   1
  -3   3   2 124565. 3055.14   2
   3  -3  -2 130257. 3097.54   3
   3  -3  -1 21404.5 793.987   3
  -3   3   1 20507.6 890.445   2
  -3   3   0 36622.0 1276.84   2
  -3   3  -1 6014.88 458.614   2
  -3   3  -2 131948. 3207.23   2
  -3   3  -3 54422.0 1687.39   2
  -3   3  -4 2436.13 284.538   2
  -3   3  -4 2320.63 169.265   6
  -3   3  -4 2381.81 248.075   1
  -3   3  -5 156.644 50.1869   6
  -3   3  -6 5114.29 325.628   6
  -3   3  -7 4223.11 282.494  12
  -3   3  -7 4345.60 282.178  29
  -3   3  -7 3922.50 295.819   6
  -3   3  -8 2059.81 171.901   9
  -3   3  -8 2085.35 222.499   6
  -3   3  -8 1958.97 199.115  29
  -3   3  -8 2099.25 210.994  12
  -3   3  -9 3543.72 235.847   9
  -3   3  -9 3309.92 293.682   6
  -3   3  -9 3511.56 287.370  12
  -3   3 -10 2110.30 226.819  12
   3  -3  10 1659.46 162.841  18
  -3   3 -10 2065.95 175.165   9
  -3   3 -10 1857.13 211.101   6
   3  -3  11 204.707 49.3902  18
  -3   3 -11 236.849 66.1313  12
  -3   3 -11 217.428 68.2126   6
  -3   3 -12 484.060 87.6914   8
  -3   2  12 572.641 49.5782  16
  -3   2  11 341.495 55.5438  16
  -3   2  11 313.500 48.6627  13
  -3   2  10 1828.70 154.603  16
  -3   2  10 1660.98 137.261  13
  -3   2   9 2914.37 210.830  16
  -3   2   9 2657.83 194.463  13
  -3   2   8 2634.13 203.351  16
  -3   2   8 2345.88 179.655  21
   3  -2  -7 19682.3 1345.81   3
  -3   2   7 19860.3 623.878  21
  -3   2   7 20865.4 671.016  16
  -3   2   7 22408.2 700.127  26
   3  -2  -6 72.7847 79.0933   3
   3  -2  -5 6807.86 640.965   3
  -3   2   5 6515.84 437.134   1
  -3   2   4 21945.7 885.946   1
   3  -2  -4 23129.2 1112.82   3
  -3   2   3 59100.4 1699.24   1
   3  -2  -3 61369.3 1851.03   3
  -3   2   2 222.464 85.4073   1
   3  -2  -2 268.212 72.9684   3
  -3   2   1 5484.48 407.882   1
   3  -2  -1 6147.55 324.075   3
  -3   2   0 2314.85 258.608   2
  -3   2   0 2061.12 235.880   1
  -3   2  -1 27074.5 965.788   1
  -3   2  -2 43283.6 1292.24   1
  -3   2  -3 151.009 51.3667   1
  -3   2  -4 7939.59 357.535   7
  -3   2  -5 2744.26 242.755   7
  -3   2  -5 3041.35 227.500   6
  -3   2  -6 21918.1 782.781   7
  -3   2  -6 21991.7 740.026   6
  -3   2  -7 2460.60 248.774   7
  -3   2  -7 3072.85 204.134   9
  -3   2  -7 3010.69 232.037  29
  -3   2  -7 2579.96 236.070   6
  -3   2  -8 9954.75 482.664  12
  -3   2  -8 9678.46 414.203   9
  -3   2  -8 9679.48 508.110   6
   3  -2   9 1233.82 142.904  18
  -3   2  -9 1171.94 138.502   9
  -3   2  -9 1167.08 172.034   6
  -3   2  -9 1292.27 168.577  12
  -3   2 -10 978.938 149.471   6
   3  -2  10 1112.07 126.986  18
  -3   2 -10 1097.28 150.832  12
  -3   2 -11 293.067 83.3778   8
   3  -2  11 285.736 55.3142  18
  -3   2 -11 276.543 65.5175   6
   3  -2  12 5283.97 206.889  19
  -3   2 -12 4876.01 266.456   8
  -3   1  12 50.7859 21.0899  16
  -3   1  12 58.0904 20.6734  13
  -3   1  11 1518.26 131.667  16
  -3   1  11 1310.52 112.765  13
  -3   1  10 69.2561 39.2574  16
  -3   1   9 20788.6 701.302  26
  -3   1   9 19992.3 660.195  21
  -3   1   8 3409.08 244.019  21
  -3   1   8 5549.23 307.179  26
   3  -1  -7 3917.96 561.247   3
  -3   1   7 4612.27 258.564  21
  -3   1   7 4226.65 208.753  27
  -3   1   7 4407.98 263.337  26
  -3   1   7 4380.94 260.632  32
   3  -1  -6 2237.82 390.127   3
   3  -1  -5 2761.20 392.069   3
  -3   1   5 2568.23 259.443   1
   3  -1  -4 13298.2 794.132   3
  -3   1   4 13486.4 641.274   1
   3  -1  -3 102088. 2640.94   3
  -3   1   3 104929. 2518.05   1
   3  -1  -2 1908.92 211.704   3
  -3   1   2 1674.21 219.200   1
  -3   1   1 1231.27 186.266   1
   3  -1  -1 1107.49 121.339   3
  -3   1   0 8228.98 471.801   1
  -3   1  -1 19401.3 755.582   1
  -3   1  -2 10420.2 507.160   1
  -3   1  -3 1716.05 182.329   1
  -3   1  -4 37943.6 1006.95   7
  -3   1  -5 615.339 108.718   7
  -3   1  -6-6.38552 28.0608   7
  -3   1  -7 1241.12 179.134   7
   3  -1   7 1256.97 135.532  18
  -3   1  -7 1327.12 135.058   9
   3  -1   8 15855.2 567.169  18
  -3   1  -8 16047.5 581.493   9
  -3   1  -8 15946.7 730.764   7
  -3   1  -8 14792.5 653.578   6
  -3   1  -8 17338.3 660.467  12
   3  -1   9 2900.39 214.495  18
  -3   1  -9 3014.74 220.463   9
  -3   1  -9 3025.79 267.881   6
  -3   1  -9 2996.04 254.889  12
  -3   1 -10 770.280 142.172   8
   3  -1  10 739.544 100.168  18
  -3   1 -10 812.898 124.397   6
  -3   1 -11 2101.98 202.273   8
  -3   1 -11 1960.13 160.325   6
   3  -1  12 15250.1 384.701  19
  -3   1 -12 13956.1 458.872   8
  -3   0  12 466.521 65.0524  16
  -3   0  12 464.630 57.7417  13
  -3   0  11 1564.89 139.003  16
  -3   0  10 8585.32 390.156  21
  -3   0  10 9190.31 414.447  26
  -3   0   9 49836.0 1276.57  21
  -3   0   9 52156.8 1296.44  16
  -3   0   9 50365.7 1308.30  26
  -3   0   8 20319.9 676.723  21
   3   0  -8 18863.0 1340.74   3
  -3   0   8 20495.2 678.991  32
  -3   0   8 20885.5 684.352  26
  -3   0   8 20328.4 562.075  27
  -3   0   7 1520.79 144.495  32
   3   0  -7 1464.13 344.404   3
   3   0  -6 935.203 247.371   3
   3   0  -5 67739.7 2278.58   3
  -3   0   5 66673.7 1788.92   1
   3   0  -4 21297.5 1032.00   3
  -3   0   4 19685.7 793.464   1
   3   0  -3 1398.08 224.341   3
  -3   0   3 1429.88 193.949   1
  -3   0   2 10817.8 533.532   4
   3   0  -2 10300.3 543.999   3
  -3   0   2 10295.9 536.345   1
  -3   0   1 52394.2 1381.19   4
   3   0  -1 52076.4 1352.70   3
  -3   0   1 51889.1 1471.70   1
  -3   0   0 82168.9 2064.20   1
  -3   0   0 84626.5 1959.54   4
  -3   0  -1 324.531 93.9872   4
  -3   0  -1 326.077 82.3783   1
  -3   0  -2 15593.2 623.925   1
  -3   0  -2 16184.8 787.055   4
  -3   0  -3 55162.7 1860.02   4
  -3   0  -4 1372.16 144.985   7
  -3   0  -4 1238.34 264.327   4
  -3   0  -5 1.34358 34.4342   7
  -3   0  -6 20400.0 626.389   9
  -3   0  -6 21178.4 793.112   7
  -3   0  -7 45216.2 1352.38   7
   3   0   7 44090.2 1116.74  18
  -3   0  -7 43411.9 1130.09   9
   3   0   8 80.1553 29.0580  18
  -3   0  -8 34.0913 55.0333   8
  -3   0  -8 56.7066 36.9917   9
  -3   0  -8 65.6344 51.3766   6
  -3   0  -8 99.8935 62.1739   7
  -3   0  -9 15.5502 62.5011   8
   3   0   9 49.8714 38.3616  18
  -3   0  -9 26.2808 52.8380   7
  -3   0  -9 94.5727 60.2738   6
  -3   0 -10 246.873 82.3419   8
   3   0  11 189.978 40.4647  19
  -3   0 -11 346.983 78.4107   8
  -3  -1  13 19.8428 11.8041  16
  -3  -1  13 15.6332 14.6121  13
  -3  -1  12 17.7574 20.9306  16
  -3  -1  11 270.351 62.4168  21
  -3  -1  11 286.248 64.7652  26
  -3  -1  11 342.583 65.0641  16
  -3  -1  10 2136.50 189.154  21
  -3  -1  10 2193.31 186.502  16
  -3  -1  10 2436.90 206.146  26
  -3  -1  10 2118.54 190.699  32
  -3  -1   9 2303.67 202.083  21
  -3  -1   9 2256.53 190.958  16
  -3  -1   9 2296.75 200.440  26
  -3  -1   9 2246.68 195.175  32
   3   1  -8 682.734 240.266   3
  -3  -1   8 812.237 112.292  16
  -3  -1   8 771.444 110.737  32
  -3  -1   8 813.104 113.016  26
  -3  -1   7 193.581 55.9409  32
   3   1  -7 126.328 106.345   3
  -3  -1   7 128.867 46.6872  24
   3   1  -6 392.553 166.765   3
   3   1  -5 181.336 86.7541   3
   3   1  -4 130.250 93.4185   3
  -3  -1   3 23853.3 1032.83   4
  -3  -1   2 29295.7 1119.51   4
  -3  -1   2 30272.5 1026.47   1
  -3  -1   1 44028.9 1427.49   4
  -3  -1   1 46514.3 1351.18   1
  -3  -1   0 642.045 142.628   4
  -3  -1  -1 30747.6 1253.58   4
  -3  -1  -2 14648.4 932.012   4
  -3  -1  -3 840.628 225.417   4
  -3  -1  -4 971.927 267.411   4
  -3  -1  -5 4695.76 331.812   7
  -3  -1  -5 5026.37 680.727   4
   3   1   6 12318.2 444.809  18
  -3  -1  -6 13304.7 622.624   7
  -3  -1  -6 12299.1 463.595   9
  -3  -1  -6 13292.0 616.742   8
  -3  -1  -7 43971.2 1341.06   7
   3   1   7 41311.1 1060.33  18
  -3  -1  -7 40121.9 1079.55   9
  -3  -1  -7 42796.4 1324.30   8
  -3  -1  -8 913.955 163.164   7
  -3  -1  -8 775.111 144.232   8
   3   1   9 275.468 65.3471  19
  -3  -1  -9 366.238 144.255   8
  -3  -1  -9 224.075 89.6041   7
   3   1  10 704.719 78.7638  19
  -3  -1 -10 674.102 121.600   8
   3   1  11 2754.94 119.201  19
  -3  -1 -11 2532.07 154.307  10
  -3  -2  13 157.010 24.8988  13
  -3  -2  12 1236.46 100.340  16
  -3  -2  12 1194.24 108.178  26
  -3  -2  11 550.749 92.8840  21
  -3  -2  11 438.069 86.5198  16
  -3  -2  11 605.888 97.7681  26
  -3  -2  10 13993.1 534.728  21
  -3  -2  10 14774.8 516.394  16
  -3  -2  10 14542.5 542.995  32
  -3  -2  10 14566.4 553.174  26
  -3  -2   9 1354.22 141.891  16
  -3  -2   9 1258.34 147.198  32
  -3  -2   9 1340.23 152.383  26
  -3  -2   8 1496.83 145.967  16
  -3  -2   8 1660.34 161.954  32
   3   2  -8 1833.99 386.627   3
  -3  -2   8 1503.92 153.973  24
  -3  -2   7 1289.27 136.666  24
  -3  -2   7 1266.76 122.461  16
   3   2  -7 1275.12 319.656   3
   3   2  -6 34604.9 1702.85   3
  -3  -2   5 11687.3 363.111   5
   3   2  -5 11191.2 863.507   3
  -3  -2   4 83.7315 72.8213   4
  -3  -2   3 52273.1 1842.21   4
  -3  -2   2 9500.84 669.830   4
  -3  -2   1 1043.62 218.277   4
  -3  -2   0 2031.02 313.655   4
  -3  -2  -1 149591. 4052.45   4
  -3  -2  -2 18744.4 1188.14   4
  -3  -2  -2 18047.5 512.711   5
  -3  -2  -3 502.626 183.268   4
  -3  -2  -4 9119.09 933.324   4
  -3  -2  -5 16646.4 534.288   9
  -3  -2  -5 18839.4 1443.79   4
  -3  -2  -5 18086.9 754.022   8
  -3  -2  -6 98.8291 45.5947   7
  -3  -2  -6 174.350 73.4610   8
   3   2   7 819.412 101.489  19
  -3  -2  -7 830.325 149.218   8
  -3  -2  -7 956.552 164.110   7
   3   2   8 511.787 79.7431  19
  -3  -2  -8 569.626 128.428   8
  -3  -2  -8 478.678 116.871   7
   3   2   9 53.5996 38.1915  19
  -3  -2  -9 143.772 87.3709   7
   3   2  10 194.395 32.2480  19
  -3  -2 -10 179.941 43.5044  10
  -3  -3  13 400.223 40.4057  13
  -3  -3  12 1902.07 132.170  21
  -3  -3  12 2088.91 114.443  16
  -3  -3  12 2095.14 142.094  26
  -3  -3  11 464.251 80.2381  21
  -3  -3  11 516.396 70.6096  16
  -3  -3  11 507.027 84.8665  32
  -3  -3  11 495.250 82.6783  26
  -3  -3  10 186.291 55.6452  21
  -3  -3  10 239.828 56.6149  16
  -3  -3  10 159.532 45.5875  32
  -3  -3  10 205.071 59.5770  26
  -3  -3   9 2826.19 214.756  24
  -3  -3   9 3195.40 208.820  16
  -3  -3   9 2755.41 219.187  32
  -3  -3   9 2888.31 173.995  28
  -3  -3   8 8447.88 399.464  24
   3   3  -7-141.837 115.420   3
  -3  -3   7 149.367 50.8496  24
   3   3  -6 5006.93 634.452   3
  -3  -3   5 12444.9 944.500   4
  -3  -3   4 34356.3 1609.22   4
  -3  -3   3 189.439 108.994   4
  -3  -3   2 2421.18 384.919   4
  -3  -3   1 7602.48 690.290   4
  -3  -3   0 16923.2 1105.46   4
  -3  -3  -1 3294.45 502.933   4
  -3  -3  -2 2630.37 478.116   4
  -3  -3  -3 3975.83 633.298   4
  -3  -3  -3 4773.14 322.466   8
  -3  -3  -4 3192.01 297.215   8
  -3  -3  -4 2678.56 535.993   4
  -3  -3  -5 1571.06 207.398   8
  -3  -3  -6 576.410 131.364   7
  -3  -3  -6 700.484 142.303   8
   3   3   7 6182.61 272.552  19
  -3  -3  -7 6437.83 419.281   7
  -3  -3  -7 6433.68 437.793   8
   3   3   8 1529.97 114.286  19
  -3  -3  -8 1428.47 179.429   7
   3   3   9 515.814 52.3052  19
  -3  -3  -9 498.451 78.4770  10
  -3  -4  12 32.4236 22.7811  21
  -3  -4  12 34.5909 21.7290  26
  -3  -4  11 561.767 83.1525  21
  -3  -4  11 594.269 88.9410  32
  -3  -4  11 597.587 87.0152  26
  -3  -4  10 5108.85 288.181  32
  -3  -4  10 5054.54 286.876  26
  -3  -4   9 1035.46 130.649  24
  -3  -4   9 1030.49 133.697  32
  -3  -4   8 613.653 106.048  24
   3   4  -7 2773.90 506.992   3
  -3  -4   7 3356.65 242.948  24
  -3  -4   6 17383.8 1231.63   4
   3   4  -6 16162.0 1215.56   3
  -3  -4   6 17744.0 590.078  14
  -3  -4   6 19185.1 640.126  24
  -3  -4   5 13058.1 510.720  20
  -3  -4   5 11955.4 1002.39   4
  -3  -4   5 13338.0 489.020  14
  -3  -4   5 12997.8 503.616  24
  -3  -4   4 3225.19 498.271   4
  -3  -4   3 1319.94 321.385   4
  -3  -4   2 12340.8 976.838   4
  -3  -4   1 9116.26 858.416   4
  -3  -4   0 12070.9 1020.28   4
  -3  -4  -1 1834.48 185.071  10
  -3  -4  -1 1654.21 388.431   4
  -3  -4  -2 191.572 61.0806  10
  -3  -4  -2 282.421 174.244   4
  -3  -4  -3 3120.76 268.637  10
  -3  -4  -3 2757.66 594.477   4
  -3  -4  -4 5222.42 358.821  10
  -3  -4  -5 1289.01 176.398  10
  -3  -4  -6 759.660 127.923  10
  -3  -4  -6 834.224 150.208   7
  -3  -4  -7 3411.29 259.785  10
  -3  -4  -7 3846.76 289.607   7
  -3  -4  -8-7.34357 21.4079  10
  -3  -4  -8 36.3723 31.8024   7
  -3  -5  12 76.6298 22.7183  21
  -3  -5  12 144.362 31.1842  32
  -3  -5  12 91.8135 24.9793  26
  -3  -5  11-3.15450 16.3555  21
  -3  -5  11 55.6939 30.7893  32
  -3  -5  11 11.1051 17.7581  26
  -3  -5  10 10705.6 422.555  32
  -3  -5  10 10055.0 333.612  28
  -3  -5  10 10784.9 410.886  24
  -3  -5   9 327.982 74.1219  24
  -3  -5   8 747.822 116.698  24
  -3  -5   7 2844.90 229.480  24
  -3  -5   6 28512.4 839.365  14
  -3  -5   6 29721.2 891.962  24
  -3  -5   5 8766.74 414.499  20
  -3  -5   5 8606.33 883.266   4
  -3  -5   5 8900.92 407.137  14
  -3  -5   5 8861.52 415.820  24
  -3  -5   4 26.6669 25.9032  20
  -3  -5   4-3.10584 36.1161  14
  -3  -5   4 1.39322 30.9447  31
  -3  -5   4-41.7834 72.2913   4
  -3  -5   4-0.58574 26.7934  24
  -3  -5   3 1673.28 163.453  20
  -3  -5   3 2030.96 187.376  14
  -3  -5   3 1651.98 393.569   4
  -3  -5   3 1671.43 178.609  31
  -3  -5   3 1333.07 143.649  24
  -3  -5   2 4365.67 283.626  20
  -3  -5   2 4132.46 607.161   4
  -3  -5   2 4764.51 312.549  31
  -3  -5   1 9123.97 424.974  20
  -3  -5   1 9696.16 465.483  10
  -3  -5   1 8432.72 882.372   4
  -3  -5   1 9048.89 456.305  31
  -3  -5   0 930.573 129.646  20
  -3  -5   0 796.387 131.227  10
  -3  -5   0 1097.09 321.681   4
  -3  -5  -1 7819.29 409.079  20
  -3  -5  -1 7684.44 434.764  10
  -3  -5  -1 7434.05 872.226   4
  -3  -5  -2 8161.37 462.700  10
  -3  -5  -3 669.172 130.236  10
  -3  -5  -4 1619.29 198.489  10
  -3  -5  -5 20880.8 763.947  10
  -3  -5  -5 22099.1 812.789   7
  -3  -5  -6 8960.66 422.249  10
  -3  -5  -6 9544.29 457.470   7
  -3  -5  -7 474.710 75.7998  10
  -3  -6  11 5820.18 225.655  32
  -3  -6  11 4879.90 197.327  26
  -3  -6  10 97.8033 34.3740  21
  -3  -6  10 78.2178 30.2340  32
  -3  -6  10 104.605 35.5380  24
  -3  -6   9-6.96767 27.8474  24
  -3  -6   8 9377.13 421.846  24
  -3  -6   7 8675.12 369.323  14
  -3  -6   7 8718.77 414.768  24
  -3  -6   6 2758.44 211.435  14
  -3  -6   6 2887.14 230.137  24
  -3  -6   5 29.3000 30.9554  14
  -3  -6   5 40.5142 46.2952  20
  -3  -6   5 43.8420 34.3081  24
  -3  -6   4 6299.54 353.209  14
  -3  -6   4 6119.87 339.716  20
  -3  -6   4 6210.16 381.164  31
  -3  -6   4 5734.89 327.846  24
  -3  -6   3 559.024 131.381  20
  -3  -6   3 871.669 158.644  31
  -3  -6   3 979.865 154.330  14
  -3  -6   3 553.848 108.023  24
  -3  -6   2 46.6151 35.7158  20
  -3  -6   2 36.3301 43.6905  31
  -3  -6   1 4375.43 290.747  20
  -3  -6   1 4474.01 333.076  31
  -3  -6   0 10915.1 531.298  10
  -3  -6   0 10289.8 474.377  20
  -3  -6   0 10600.7 535.143  31
  -3  -6  -1 12.9289 38.6127  20
  -3  -6  -1 51.4534 61.4786  10
  -3  -6  -1 33.0197 56.6130  31
  -3  -6  -2 132.695 47.7777  20
  -3  -6  -2 102.846 64.8925  10
  -3  -6  -3 3086.92 240.194  20
  -3  -6  -3 3355.62 272.881  10
  -3  -6  -4 140.295 54.9704  20
  -3  -6  -4 111.093 50.4710  10
  -3  -6  -5 693.533 97.0897  20
  -3  -6  -5 655.830 100.903  10
  -3  -6  -5 561.911 95.8665   7
  -3  -6  -6 1003.39 94.7564  20
  -3  -6  -6 973.940 105.548  31
  -3  -7  11 1073.03 76.1346  32
  -3  -7  10 446.060 62.2402  32
  -3  -7  10 381.673 44.9843  28
  -3  -7  10 353.394 47.7914  26
  -3  -7  10 402.497 56.4214  24
  -3  -7   9-2.49356 19.5179  24
  -3  -7   8 8306.33 367.175  24
  -3  -7   7 5516.86 304.481  24
  -3  -7   7 5446.07 249.804   5
  -3  -7   6 564.331 90.7385  14
  -3  -7   6 615.034 100.724  24
  -3  -7   5-12.7135 36.2659  14
  -3  -7   5 21.3770 23.3961  24
  -3  -7   4 1928.55 183.761  14
  -3  -7   4 1751.22 175.005  20
  -3  -7   4 1598.01 165.488  24
  -3  -7   3 360.479 85.2093  20
  -3  -7   3 447.113 100.488  31
  -3  -7   3 470.541 93.4196  14
  -3  -7   3 447.733 79.6241  24
  -3  -7   2 947.676 127.624  20
  -3  -7   2 949.875 148.493  31
  -3  -7   2 982.363 143.035  14
  -3  -7   1 1524.01 160.685  20
  -3  -7   1 1711.35 185.696  14
  -3  -7   1 1368.00 182.563  31
  -3  -7   0 14349.8 542.520  20
  -3  -7   0 14915.2 632.571  31
  -3  -7  -1 90.1392 37.2166   5
  -3  -7  -1 108.956 51.7493  20
  -3  -7  -1 41.0905 45.5166  31
  -3  -7  -2 413.037 77.5499  20
  -3  -7  -2 396.438 81.4090  14
  -3  -7  -2 410.155 88.4892  31
  -3  -7  -3 32.9395 30.9767  20
  -3  -7  -3-3.02810 25.0732  31
  -3  -7  -3 15.1855 25.7709  14
  -3  -7  -4 2682.23 157.649  20
  -3  -7  -4 2900.43 201.271  31
  -3  -7  -5 484.797 61.7226  31
  -3  -8   9 1953.86 118.263  32
  -3  -8   9 2253.61 132.681  24
  -3  -8   8 459.919 67.2982  24
  -3  -8   7 303.508 50.1086   5
  -3  -8   7 399.260 67.9568  24
  -3  -8   6 5331.44 251.097  14
  -3  -8   6 5705.79 275.946  24
  -3  -8   5 3597.78 219.116  14
  -3  -8   5 3577.48 214.099  24
  -3  -8   4 8.94299 32.0362  14
  -3  -8   4 16.3282 22.5475  24
  -3  -8   3 675.256 88.6174  20
  -3  -8   3 735.415 107.180  14
  -3  -8   2 5182.43 296.466  14
  -3  -8   2 5204.82 253.257  20
  -3  -8   2 5527.51 332.997  31
  -3  -8   1 2361.63 162.312  20
  -3  -8   1 2505.28 199.509  14
  -3  -8   1 2420.75 211.740  31
  -3  -8   0 2207.96 149.788  20
  -3  -8   0 2447.66 185.805  14
  -3  -8   0 2513.42 209.623  31
  -3  -8   0 2197.11 142.993   5
  -3  -8  -1 910.215 85.8626  20
  -3  -8  -1 1090.99 130.036  31
  -3  -8  -1 838.311 99.6018  14
  -3  -8  -2 185.298 49.5561  31
  -3  -8  -2 104.746 31.2129  14
  -3  -8  -3 2468.69 147.229  31
  -3  -9   8 938.451 65.9079  24
  -3  -9   7 2276.22 119.260  24
  -3  -9   6 78.8447 23.5023  24
  -3  -9   5 1.29279 15.7216  14
  -3  -9   5 8.19143 10.0503  24
  -3  -9   4-39.4242 24.2800  14
  -3  -9   3 533.235 71.5463  14
  -3  -9   2 38.5843 26.9359  14
  -3  -9   1-28.1893 18.8309  14
  -3  -9   0 361.925 48.7020  14
  -4  11   0 86.6664 26.3530  11
   4 -11   0 24.0148 24.1702  23
  -4  11  -1 165.329 41.5809  11
   4 -11   1 192.496 42.9890  23
  -4  11  -2 7948.90 307.512  11
   4 -11   2 8580.33 319.193  23
  -4  11  -3 5490.93 251.496  11
   4 -11   3 5932.08 254.379  23
  -4  11  -4-20.2235 27.7664  11
  -4  11  -5-32.2073 27.3227  11
  -4  11  -5-14.1176 22.2357  29
  -4  11  -6 1054.40 94.8644  29
  -4  11  -7 2599.04 137.976  29
  -4  11  -7 2493.23 145.638  12
  -4  10   3 1423.48 96.0370  11
   4 -10  -3 1118.74 85.5489  23
  -4  10   2 649.315 79.0587  11
   4 -10  -2 493.726 71.6938  23
  -4  10   1 154.766 45.3873  11
   4 -10  -1 237.551 56.0357  23
  -4  10   0 278.678 62.3525  11
   4 -10   0 253.692 66.4784  23
  -4  10  -1 100.711 44.3476  11
   4 -10   1 169.119 55.3555  23
  -4  10  -2 3655.71 238.272  11
   4 -10   2 3661.37 242.905  23
  -4  10  -3 10220.3 426.731  11
   4 -10   3 9602.85 411.860  23
  -4  10  -4 22.4430 27.7208  11
   4 -10   4 14.1584 25.8351  23
  -4  10  -5 32.5630 31.2404  11
  -4  10  -6 4397.73 252.302  29
  -4  10  -6 4047.08 246.444  11
  -4  10  -7 11739.4 428.643  29
  -4  10  -8 428.855 64.2588  29
  -4  10  -8 466.209 71.8115  12
  -4  10  -9 18.7148 17.4736  29
  -4  10  -9 9.09970 15.1472  12
  -4   9   5 20.7871 15.9914  11
  -4   9   4 3536.41 183.195  11
   4  -9  -4 2960.91 178.412  23
  -4   9   3 8692.71 348.723  11
  -4   9   3 8555.17 275.353  13
  -4   9   2 2377.97 182.616  11
  -4   9   2 2279.05 142.850  13
  -4   9   1 271.282 66.3003  11
  -4   9   1 231.887 50.1828  13
  -4   9   0 14956.1 555.236  11
  -4   9   0 14477.2 475.388  13
  -4   9  -1 10506.7 455.924  11
  -4   9  -1 9963.84 385.263  13
  -4   9  -2 1163.91 145.496  11
  -4   9  -2 1286.15 129.007  13
   4  -9   2 1326.21 157.435  23
  -4   9  -3 60.8833 51.4528  11
   4  -9   3 83.9073 40.1907  23
  -4   9  -4 1717.72 180.646  11
   4  -9   4 1410.01 150.006  23
  -4   9  -5 3803.71 269.811  11
   4  -9   5 3556.64 224.356  23
  -4   9  -6 142.547 59.6880  11
  -4   9  -7 760.814 113.639  29
  -4   9  -8 9906.51 408.988  29
  -4   9  -8 9016.80 415.947  12
  -4   9  -9 638.633 86.2763  29
  -4   9  -9 545.576 86.2891  12
  -4   9 -10 193.956 38.9431  29
  -4   9 -10 189.443 42.3948  12
  -4   8   6 53.3618 23.7287  11
  -4   8   6 14.1556 12.7573  17
  -4   8   5 8570.53 332.448  11
  -4   8   5 8911.61 298.829  17
  -4   8   5 8255.29 265.703  13
  -4   8   4 11115.6 371.301  17
  -4   8   4 10741.0 415.282  11
  -4   8   4 10068.9 345.190  13
  -4   8   3 216.875 60.3590  11
  -4   8   3 190.989 46.9810  13
  -4   8   3 237.578 47.0587  17
  -4   8   2 716.530 116.299  11
  -4   8   2 566.709 86.1130  17
  -4   8   2 576.538 82.6293  13
  -4   8   1 2068.85 192.838  11
  -4   8   1 2108.00 157.264  17
  -4   8   1 1997.82 158.419  13
  -4   8   0 13054.0 529.163  11
  -4   8   0 13045.4 435.566  17
  -4   8   0 12569.5 457.067  13
  -4   8  -1 3150.72 240.821  11
  -4   8  -1 3174.00 207.241  13
  -4   8  -2 10659.2 475.021  11
  -4   8  -2 10457.6 415.939  13
  -4   8  -3 5584.18 335.408  11
  -4   8  -3 5642.37 290.765  13
   4  -8   3 5136.20 316.910  23
  -4   8  -4 490.844 99.4013  11
   4  -8   4 336.231 77.6061  23
  -4   8  -5 423.571 94.7063  11
  -4   8  -6 372.912 84.5774  11
  -4   8  -7 5681.37 344.819  29
  -4   8  -8 610.718 105.740  29
  -4   8  -8 547.843 105.475  12
  -4   8  -9 763.217 108.728  29
  -4   8  -9 656.146 106.933  12
  -4   8 -10 150.243 44.6560  29
  -4   8 -10 94.4673 42.1711  12
   4  -8  11 1931.25 106.489  18
  -4   7   8 315.339 35.3212  17
  -4   7   7 107.982 35.4358  11
  -4   7   7 16.6665 30.3532  17
  -4   7   6 108.450 35.6236  11
  -4   7   6 155.854 47.4965  17
  -4   7   6 82.4302 34.1943  13
  -4   7   5 6340.98 313.807  11
  -4   7   5 6107.55 269.442  13
  -4   7   5 6645.11 305.158  17
  -4   7   4 1107.17 130.033  11
  -4   7   4 1232.33 128.421  17
  -4   7   4 1049.26 111.651  13
  -4   7   3 1455.29 156.109  11
  -4   7   3 1437.32 146.597  17
  -4   7   3 1408.75 133.667  13
  -4   7   2 1477.66 156.914  11
  -4   7   2 1659.53 149.183  17
  -4   7   2 1635.23 148.676  13
  -4   7   1 87.7863 40.3247  11
  -4   7   1 82.4628 47.1302  17
  -4   7   1 29.7340 26.0827  13
  -4   7   0 10015.0 839.646   2
  -4   7   0 9425.40 373.632  17
  -4   7   0 9587.02 423.881  11
  -4   7   0 9307.36 379.817  13
  -4   7  -1 30.1611 29.7469  11
  -4   7  -1 82.8276 47.2624  13
  -4   7  -1 90.2497 42.8388  17
  -4   7  -2 307.806 77.8087  11
  -4   7  -2 302.772 67.4473  17
  -4   7  -2 110.317 101.584   2
  -4   7  -2 243.455 62.1065  13
  -4   7  -3 3528.78 256.948  11
  -4   7  -3 3862.97 200.252  17
  -4   7  -3 3778.58 230.013  13
  -4   7  -4 649.180 110.246  11
  -4   7  -4 581.541 76.8668  17
  -4   7  -4 622.274 93.4049  13
  -4   7  -5 1856.96 188.428  11
  -4   7  -6 46.5288 39.2286  29
  -4   7  -6 109.105 62.0192  11
  -4   7  -7 3811.12 286.652  29
  -4   7  -8 1618.52 182.258  29
  -4   7  -8 1790.67 195.027  12
  -4   7  -9 3.99136 33.3934  29
  -4   7  -9-4.67172 28.9946  12
  -4   7 -10 4793.30 273.563  29
  -4   7 -10 4267.97 261.392  12
   4  -7  11 6172.90 238.015  18
  -4   7 -11 5490.17 248.513  12
  -4   6   9 1097.82 69.7219  17
  -4   6   8 5.02110 13.5472  11
  -4   6   8 35.4332 26.9554  17
  -4   6   8 14.1526 16.9358  13
  -4   6   7 226.664 50.1392  11
  -4   6   7 259.088 57.8231  17
  -4   6   7 241.666 50.4033  13
  -4   6   6 2627.62 176.773  13
  -4   6   6 2662.28 194.132  11
  -4   6   5 4968.12 264.718  13
  -4   6   5 4950.50 285.983  11
  -4   6   4 2654.40 214.333  11
  -4   6   4 2515.89 193.709  13
  -4   6   3 19644.4 653.731  11
  -4   6   3 21109.7 661.043  17
  -4   6   3 19304.1 616.018  13
  -4   6   2 9673.17 407.746  11
  -4   6   2 9915.06 407.503  17
  -4   6   2 9300.34 731.202   2
  -4   6   2 8968.71 378.015  13
  -4   6   1 6781.43 651.089   2
  -4   6   1 7531.55 331.251  17
  -4   6   1 6785.65 311.396  13
  -4   6   0 15671.9 514.700  13
  -4   6   0 17528.4 535.367  17
  -4   6  -1 43192.5 1931.04   2
  -4   6  -1 53284.4 1214.86  13
  -4   6  -2 16829.9 1123.92   2
  -4   6  -2 19684.7 584.441  13
  -4   6  -3 552.454 216.906   2
  -4   6  -3 564.694 89.9517  13
  -4   6  -4 1984.36 182.001  11
  -4   6  -4 1834.40 353.129   2
  -4   6  -4 2132.41 145.790  17
  -4   6  -4 2254.24 168.858  13
  -4   6  -5 74636.2 1788.64  11
  -4   6  -5 79083.7 1636.09  17
  -4   6  -6 48489.5 1319.65  29
  -4   6  -7 2429.49 231.829  29
  -4   6  -8 8146.97 335.445   9
  -4   6  -8 8120.69 437.768  29
  -4   6  -8 7912.26 431.531  12
  -4   6  -9 2102.55 204.694  29
  -4   6  -9 1727.11 137.338   9
  -4   6  -9 1572.60 179.049  12
  -4   6 -10 85.3227 25.9002   9
  -4   6 -10 138.445 50.7799  12
   4  -6  11 764.006 83.0933  18
  -4   6 -11 668.285 84.2843  12
   4  -6  12 898.971 65.4327  18
  -4   5  10 379.899 36.2407  17
  -4   5   9 882.825 72.6867  13
  -4   5   9 1119.66 93.2895  17
  -4   5   8 755.945 86.1341  11
  -4   5   8 814.909 87.9281  13
  -4   5   7 8646.70 365.329  11
  -4   5   7 8432.32 346.158  13
  -4   5   6 173.953 51.4990  19
  -4   5   6 220.722 54.9424  11
  -4   5   6 248.002 65.2980  13
  -4   5   5 3100.96 218.028  11
  -4   5   5 2961.50 213.048  13
  -4   5   4 17429.2 562.946  13
  -4   5   4 15440.6 569.138  19
  -4   5   3 50.5084 74.1609   1
  -4   5   3 32.8258 35.0754  13
  -4   5   2 97.7767 43.8868   2
  -4   5   1 219.992 116.608   2
  -4   5   0 36910.5 1582.57   2
  -4   5  -1 289.591 143.128   2
  -4   5  -2 1552.53 314.554   2
  -4   5  -3-45.0663 68.2276   2
  -4   5  -4 769.523 207.663   2
  -4   5  -5 25694.3 685.828  17
  -4   5  -5 26341.9 810.965  29
  -4   5  -6 8623.06 430.659  29
  -4   5  -6 8887.14 481.449   6
  -4   5  -7 1677.56 191.361  29
  -4   5  -7 1601.16 207.401   6
  -4   5  -7 1493.89 178.996  12
  -4   5  -8 4644.19 260.674   9
  -4   5  -8 4560.71 322.102  29
  -4   5  -8 4035.04 334.910   6
  -4   5  -8 4330.65 310.435  12
  -4   5  -9 388.255 74.7171   9
  -4   5  -9 420.684 101.929  29
  -4   5  -9 434.081 91.3773  12
  -4   5  -9 507.638 116.215   6
   4  -5  10 307.591 65.5104  18
  -4   5 -10 317.553 57.4519   9
  -4   5 -10 308.685 74.9643  12
  -4   5 -10 264.733 79.6325   6
   4  -5  11 4540.84 217.252  18
  -4   5 -11 3785.29 216.653  12
  -4   5 -12 31.6536 24.2607   8
   4  -5  12 23.1199 14.7401  18
  -4   4  10 351.683 48.6886  17
  -4   4  10 293.546 37.3561  13
  -4   4   9 874.589 87.9270  13
  -4   4   8 2207.18 164.109  16
  -4   4   8 2023.17 161.175  13
  -4   4   7 4863.99 274.098  13
  -4   4   7 5070.24 276.349  16
  -4   4   6 3881.28 255.108  13
  -4   4   6 4324.07 254.021  16
  -4   4   5 3159.00 188.952  28
  -4   4   5 3317.83 220.697  16
  -4   4   5 3111.36 216.734  13
  -4   4   4 8670.00 354.075  16
  -4   4   4 8078.96 314.633  28
  -4   4   4 7816.55 345.343  13
  -4   4   3 1309.33 247.465   1
  -4   4   2 210.290 127.126   1
  -4   4   1 16749.3 944.310   2
  -4   4   0 80878.9 2477.28   2
  -4   4  -1 13439.4 859.050   2
  -4   4  -2 408.284 154.133   2
  -4   4  -3 141.372 88.3325   2
  -4   4  -3-21.2827 44.2921   1
  -4   4  -4 20143.0 685.773   6
  -4   4  -4 17724.4 898.178   1
  -4   4  -5 311.976 95.8465   6
  -4   4  -6 8729.16 355.781  30
  -4   4  -6 8885.34 430.127  29
  -4   4  -6 9192.65 477.130   6
  -4   4  -7 1758.84 193.064  29
  -4   4  -7 1734.43 208.643   6
  -4   4  -8 96.7218 60.8963   9
  -4   4  -8 64.3550 46.5455  29
  -4   4  -8 100.794 59.2686   6
  -4   4  -9 41.6665 29.2433   9
  -4   4  -9 19.3376 45.5004   6
   4  -4  10 2790.23 193.836  18
  -4   4 -10 2860.73 189.299   9
  -4   4 -10 2715.03 245.887   6
   4  -4  11 12022.3 399.070  18
  -4   4 -11 12557.5 478.803   6
  -4   4 -12 1296.36 117.897   8
  -4   3  11 2.81788 12.2978  17
  -4   3  11 1.42625 11.8447  13
  -4   3  10 8590.39 306.921  16
  -4   3  10 8034.53 294.929  13
  -4   3   9 390.409 70.0058  16
  -4   3   9 454.549 76.3219  13
  -4   3   8 911.999 119.838  16
  -4   3   8 900.667 116.237  13
  -4   3   7 2729.17 166.934  28
  -4   3   7 2717.65 210.438  16
  -4   3   7 2920.39 217.715  13
  -4   3   6 26178.8 795.415  16
  -4   3   6 26191.8 777.043  13
  -4   3   6 25990.6 691.786  28
  -4   3   5 9027.19 387.510  16
  -4   3   5 8675.85 373.877  13
  -4   3   5 8305.60 318.332  28
  -4   3   4 399.784 134.064   1
  -4   3   3 257.145 108.246   1
  -4   3   2 37687.0 1435.54   1
  -4   3   1 15710.5 854.142   1
  -4   3   0 27419.6 1170.51   1
  -4   3  -1 26065.9 1123.14   1
  -4   3  -2 530.580 148.105   1
  -4   3  -3 264.442 112.331   1
  -4   3  -3 276.537 61.9113   6
  -4   3  -4 9835.77 423.207   6
  -4   3  -5 4402.83 289.541   6
  -4   3  -6 44482.9 1173.41  29
  -4   3  -6 40177.2 1193.32   6
  -4   3  -7 1021.83 145.653  29
  -4   3  -7 911.746 146.714   6
  -4   3  -8 1013.11 129.978   9
  -4   3  -8 686.106 132.661   6
   4  -3   9 702.514 102.749  18
  -4   3  -9 706.861 102.127   9
  -4   3  -9 619.328 121.683   6
   4  -3  10 4362.19 241.503  18
  -4   3 -10 4136.81 235.427   9
  -4   3 -10 4123.90 286.551   6
   4  -3  11 1142.08 100.147  18
  -4   3 -11 1022.64 139.218   8
  -4   3 -12 111.439 35.5047   8
  -4   2  11 6474.55 234.810  13
  -4   2  11 6480.95 202.697  17
  -4   2  11 6660.64 247.437  16
  -4   2  10 255.424 53.5906  16
  -4   2  10 216.458 46.4629  13
  -4   2   9 23.5111 32.1992  16
  -4   2   9 17.4716 35.2111  13
  -4   2   8 332.844 64.4560  21
  -4   2   8 451.256 93.1163  16
  -4   2   8 407.681 86.7625  13
  -4   2   7 9774.20 388.191  21
  -4   2   7 9227.53 433.489  16
  -4   2   7 10382.4 434.385  13
  -4   2   7 9688.08 348.906  28
  -4   2   6 90.1161 49.4790  16
   4  -2  -6 238.648 131.013   3
  -4   2   6 63.4237 22.6506  28
  -4   2   6 105.941 44.8558  27
  -4   2   6 82.7178 56.5231  13
  -4   2   5-43.5357 46.3105   1
  -4   2   4 5491.36 466.332   1
  -4   2   3 82.2572 51.5603   1
  -4   2   2 591.442 151.662   1
  -4   2   1 38.4243 69.7486   1
  -4   2   0 12001.2 699.892   1
  -4   2  -1 7658.66 542.496   1
  -4   2  -2-5.33542 48.0862   1
  -4   2  -3 6884.20 473.799   1
  -4   2  -4 30063.8 838.234   6
  -4   2  -5 244.489 60.5476   6
  -4   2  -6 6174.42 344.255  29
  -4   2  -6 5216.77 324.120   6
  -4   2  -7 1554.93 153.926   9
  -4   2  -7 1128.26 158.726   6
   4  -2   8 1492.39 154.215  18
  -4   2  -8 1470.05 157.721   9
   4  -2   9 4631.00 261.163  18
  -4   2  -9 4774.05 274.727   9
  -4   2  -9 4363.88 305.899   6
  -4   2 -10 6978.70 414.470   8
   4  -2  10 7315.67 307.675  18
  -4   2 -10 6904.42 347.203   6
  -4   2 -11 109.192 35.8769   8
  -4   1  12 496.429 46.8705  13
  -4   1  11 1368.50 115.153  16
  -4   1  11 1366.04 107.596  13
  -4   1  10 127.823 42.2305  21
  -4   1  10 172.885 57.7198  16
  -4   1  10 129.675 44.4423  13
  -4   1   9 2389.64 183.608  21
  -4   1   9 2848.27 218.146  16
  -4   1   9 2692.39 201.463  13
  -4   1   8 14.0274 21.6759  21
  -4   1   8 73.4053 55.7298  16
  -4   1   8 73.5802 32.9256  28
  -4   1   8 50.7587 36.9126  26
   4  -1  -7 19855.3 1263.80   3
  -4   1   7 20718.9 549.276  27
  -4   1   7 21112.9 534.729  28
  -4   1   7 22195.2 625.363  26
  -4   1   6 937.976 123.862  16
   4  -1  -6 1510.16 319.969   3
  -4   1   6 1684.06 136.521  28
  -4   1   6 1239.50 116.058  27
   4  -1  -5 339.167 139.794   3
  -4   1   5 203.008 90.1245   1
  -4   1   4 2405.86 300.451   1
  -4   1   3 22194.8 977.400   1
  -4   1   2 12482.7 391.554   5
  -4   1   2 12679.2 707.873   1
  -4   1   1 1650.49 119.272   5
  -4   1   1 1406.65 225.191   1
  -4   1   0 25651.0 657.373   5
  -4   1   0 26316.0 1048.12   1
  -4   1  -1 14362.7 434.734   5
  -4   1  -1 15000.7 743.279   1
  -4   1  -2 3410.59 329.597   1
  -4   1  -3 33897.9 1109.54   1
  -4   1  -3 32483.7 904.050   7
  -4   1  -4 72078.2 1739.48   7
  -4   1  -5 7275.11 422.201   7
   4  -1   6 281.710 62.1659  18
  -4   1  -6 356.306 75.4032   9
  -4   1  -6 367.639 101.576   7
   4  -1   7 53.8932 35.5685  18
  -4   1  -7 37.7746 46.0159   9
  -4   1  -7 74.3129 61.5054   7
   4  -1   8 5682.39 293.928  18
  -4   1  -8 5376.55 305.113   9
  -4   1  -8 5437.17 405.791   8
   4  -1   9 93.2442 38.3622  18
  -4   1  -9 133.540 59.6630   8
  -4   1 -10 152.178 54.2690   8
   4  -1  11 751.071 61.5240  19
  -4   1 -11 738.650 98.4772   8
  -4   0  12 1995.80 107.408  13
  -4   0  11 56.0169 28.8606  16
  -4   0  11 78.4682 35.1589  13
  -4   0  10 34.1713 25.1209  21
  -4   0  10 24.6547 33.3402  16
  -4   0   9 8088.62 374.919  21
  -4   0   9 8494.96 401.221  16
  -4   0   9 8478.99 382.407  26
  -4   0   8 1459.26 163.775  16
  -4   0   8 2065.04 187.903  32
  -4   0   8 1939.87 147.857  27
  -4   0   8 1963.69 142.494  28
  -4   0   8 2171.76 184.749  26
  -4   0   7 118.415 65.3130  28
  -4   0   7 1.17186 27.3712  16
   4   0  -7 283.229 146.560   3
  -4   0   7 338.587 84.3306  32
  -4   0   7 84.6299 38.8021  27
  -4   0   7 58.7932 44.3604  26
   4   0  -6 11268.1 901.543   3
  -4   0   6 10193.5 451.528  16
  -4   0   6 13426.1 476.372  32
  -4   0   6 12777.7 429.194  28
  -4   0   6 13103.9 431.466  27
   4   0  -5 8836.72 731.926   3
  -4   0   4 312.375 54.3262   5
   4   0  -4 409.583 138.547   3
  -4   0   4 306.983 107.298   1
  -4   0   3 440.597 181.536   1
  -4   0   3 1420.49 127.221   5
  -4   0   2 69728.8 1511.82   5
  -4   0   2 72585.6 2014.35   1
  -4   0   1 156788. 3146.60   5
  -4   0   1 164302. 3716.73   1
  -4   0   0 222.398 46.5254   5
  -4   0   0 216.677 89.9154   1
  -4   0  -1 3025.30 180.365   5
  -4   0  -1 3297.31 326.855   1
  -4   0  -2 1336.74 113.700   5
  -4   0  -3 20249.6 570.632   5
  -4   0  -3 22200.4 696.192   7
  -4   0  -4 2571.70 227.073   7
  -4   0  -5 387.942 95.3997   8
  -4   0  -5 409.184 75.7532   9
  -4   0  -5 483.184 109.098   7
  -4   0  -6 1233.07 132.880   9
  -4   0  -6 1486.39 200.966   8
  -4   0  -6 1480.98 203.391   7
   4   0   7 95.0568 42.0608  18
  -4   0  -7 37.1908 36.9898   9
  -4   0  -7 139.922 72.9419   8
  -4   0  -7 92.5428 76.4103   7
  -4   0  -8 2316.37 185.655   9
  -4   0  -8 2276.70 250.858   8
  -4   0  -8 2308.52 256.341   7
   4   0   9 738.331 84.5396  19
  -4   0  -9 784.930 133.487   8
   4   0  10 5640.71 210.423  19
  -4   0 -10 5607.94 320.841   8
  -4  -1  12 179.503 35.7995  13
  -4  -1  11 3966.94 210.969  21
  -4  -1  11 4212.72 216.940  16
  -4  -1  11 4599.04 220.258  13
  -4  -1  10 216.252 59.4040  21
  -4  -1  10 223.767 65.5211  16
  -4  -1  10 220.982 54.4789  26
  -4  -1   9 1917.51 177.361  21
  -4  -1   9 1876.83 175.380  16
  -4  -1   9 2047.44 185.215  32
  -4  -1   9 1913.31 132.972  28
  -4  -1   9 1876.25 134.155  27
  -4  -1   9 2042.97 176.084  26
  -4  -1   8-10.7060 39.8272  16
  -4  -1   8 59.4767 47.4967  32
  -4  -1   8 9.96689 23.6831  27
  -4  -1   8 45.9437 35.3193  28
  -4  -1   8 36.6781 33.8663  26
  -4  -1   7 14911.3 544.692  16
  -4  -1   7 15148.2 543.854  32
  -4  -1   7 14747.4 488.831  28
  -4  -1   7 14309.1 477.343  27
  -4  -1   6 50.8004 54.8415  16
  -4  -1   6 17.8672 20.5606  32
  -4  -1   6 28.6344 24.4171  27
  -4  -1   6 83.3080 35.4204  25
  -4  -1   6 30.9059 34.9827  24
  -4  -1   5 4202.73 206.578   5
   4   1  -5 3800.34 482.395   3
  -4  -1   4 3880.29 206.977   5
   4   1  -4 3910.79 452.881   3
  -4  -1   3 724.758 88.4556   5
  -4  -1   2 31615.1 813.882   5
  -4  -1   1 31205.8 808.072   5
  -4  -1   0 1319.80 134.059   5
  -4  -1  -1 74.7222 38.7352   5
  -4  -1  -2 2321.25 161.350   5
  -4  -1  -3 14492.7 457.013   5
  -4  -1  -3 14130.4 562.518   7
  -4  -1  -4 1143.66 157.053   7
  -4  -1  -4 1221.67 160.915   8
  -4  -1  -4 1309.11 119.293  30
  -4  -1  -5 24.4222 32.9675   9
  -4  -1  -5-0.21945 49.5109   8
  -4  -1  -5 50.8272 49.3695   7
  -4  -1  -6 1408.27 141.988   9
  -4  -1  -6 1573.09 208.798   8
  -4  -1  -6 1700.32 221.631   7
  -4  -1  -7 12236.5 618.696   7
  -4  -1  -7 11351.8 593.491   8
  -4  -1  -8 585.648 121.849   8
  -4  -1  -8 373.886 102.237   7
  -4  -1  -9 129.788 53.6083   8
  -4  -1 -10 2562.78 170.882  10
  -4  -2  12 27.7099 19.5166  13
  -4  -2  11 1741.13 137.455  21
  -4  -2  11 1710.34 122.211  16
  -4  -2  11 1696.70 126.904  26
  -4  -2  10 23.1050 26.9402  21
  -4  -2  10-37.7544 32.8625  32
  -4  -2  10 17.4602 22.8803  16
  -4  -2  10 0.44112 17.4954  26
  -4  -2   9 221.461 65.9478  16
  -4  -2   9 117.896 48.7714  32
  -4  -2   9 218.054 50.1640  28
  -4  -2   9 166.303 40.6715  27
  -4  -2   9 216.922 58.6385  26
  -4  -2   8 68.3227 48.5905  16
  -4  -2   8 23.3642 22.9983  32
  -4  -2   8 77.6967 46.7135  28
  -4  -2   8 47.1588 31.5539  27
  -4  -2   8 75.4614 44.4692  26
  -4  -2   7 29138.8 798.593  16
  -4  -2   7 28160.5 824.882  32
  -4  -2   7 26177.9 743.368  27
  -4  -2   7 27853.5 857.519  24
  -4  -2   6 1550.44 141.891  16
  -4  -2   6 1546.47 148.223  32
   4   2  -6 1107.78 287.251   3
  -4  -2   6 1583.70 129.264  25
  -4  -2   6 1509.94 158.959  24
  -4  -2   5 964.891 102.501   5
  -4  -2   5 1041.19 132.917  20
   4   2  -5 640.758 220.918   3
  -4  -2   5 935.702 97.1816  25
  -4  -2   5 1004.47 125.498  24
  -4  -2   4 39.8563 20.6319   5
   4   2  -4 58.0271 74.2864   3
  -4  -2   3 18073.0 570.103   5
  -4  -2   2 2889.62 197.095   5
  -4  -2   1 1530.59 155.181   5
  -4  -2   0 63.4257 43.4197   5
  -4  -2  -1 1682.86 146.471   5
  -4  -2  -2 884.809 102.847  30
  -4  -2  -2 797.441 100.389   5
  -4  -2  -3 2005.92 207.581   8
  -4  -2  -3 1653.17 143.875  30
  -4  -2  -3 1757.07 192.155   7
  -4  -2  -4 14355.9 639.994   8
  -4  -2  -4 14809.0 646.499   7
  -4  -2  -5 13401.1 631.689   8
  -4  -2  -5 12900.5 625.701   7
  -4  -2  -6 1678.53 212.207   8
  -4  -2  -6 1713.99 215.848   7
  -4  -2  -7 1543.75 195.156   8
  -4  -2  -7 1449.69 191.947   7
  -4  -2  -8 8314.09 434.918   7
  -4  -2  -9 3695.02 220.481  10
  -4  -3  12 1625.78 101.086  21
  -4  -3  12 1831.86 89.5981  13
  -4  -3  11 107.774 36.9002  21
  -4  -3  11 95.7512 29.0720  26
  -4  -3  10 251.096 63.6371  21
  -4  -3  10 228.548 60.4665  32
  -4  -3  10 161.515 35.9220  28
  -4  -3  10 241.447 55.6632  26
  -4  -3   9 6533.29 335.116  32
  -4  -3   9 6516.56 282.703  28
  -4  -3   9 6247.79 255.462  27
  -4  -3   9 6853.26 322.074  26
  -4  -3   8 5844.29 321.050  32
  -4  -3   8 5791.72 268.846  27
  -4  -3   8 6188.74 348.035  24
  -4  -3   7 118.192 45.0211  32
  -4  -3   7 82.0578 30.0846  27
  -4  -3   7 132.752 47.7779  24
  -4  -3   6 1126.51 111.457   5
   4   3  -6 1031.97 282.776   3
  -4  -3   6 1180.98 109.237  25
  -4  -3   6 1203.02 145.332  24
  -4  -3   5 60.6139 42.8617  20
  -4  -3   5 6.55324 25.3350   5
  -4  -3   5-12.5273 24.9629  14
  -4  -3   5-33.2287 34.0075  25
  -4  -3   5-0.28945 36.0687  24
  -4  -3   4 11122.4 469.830  20
  -4  -3   4 10174.1 858.340   4
  -4  -3   4 11424.8 466.875  14
  -4  -3   4 10140.4 434.961  24
  -4  -3   4 10934.8 429.231   5
  -4  -3   3 1289.71 144.289  20
  -4  -3   3 1330.63 305.331   4
  -4  -3   3 1427.97 152.655  14
  -4  -3   3 1323.36 139.093   5
  -4  -3   1 13567.2 529.821  20
  -4  -3   0 756.611 97.1555  22
  -4  -3   0 659.100 99.4839   5
  -4  -3   0 712.910 117.413  20
  -4  -3   0 761.391 118.284  10
  -4  -3   0 616.241 99.8441  14
  -4  -3  -1 2378.12 186.518   5
  -4  -3  -1 2118.17 165.775  22
  -4  -3  -1 2332.57 213.577  20
  -4  -3  -1 2170.05 205.541  10
  -4  -3  -1 1953.04 180.801  14
  -4  -3  -2 81.3355 40.8405   5
  -4  -3  -2 74.7805 46.5846  10
  -4  -3  -3 6077.80 387.854  10
  -4  -3  -3 6745.31 402.987   7
  -4  -3  -4 344.790 92.1708   7
  -4  -3  -5 1459.69 186.004  10
  -4  -3  -5 1654.32 203.921   7
  -4  -3  -6 1374.47 179.511  10
  -4  -3  -6 1205.35 168.661   7
  -4  -3  -7 433.381 89.9697  10
  -4  -3  -7 502.234 99.2572   7
  -4  -3  -8 735.392 96.2053  10
  -4  -4  12 842.246 62.4615  21
  -4  -4  11 85.9599 29.6288  21
  -4  -4  11 175.798 41.5495  32
  -4  -4  11 132.150 30.7417  26
  -4  -4  10 2509.32 174.317  32
  -4  -4  10 2291.90 132.666  28
  -4  -4  10 2277.89 150.304  26
  -4  -4   9 421.644 80.5050  32
  -4  -4   9 327.047 60.5408  28
  -4  -4   8 2286.61 188.510  32
  -4  -4   8 2078.69 148.861  27
  -4  -4   8 2174.95 195.922  24
  -4  -4   7 502.557 98.9579  24
  -4  -4   6 504.106 83.3478   5
  -4  -4   6 473.463 88.7649  24
  -4  -4   5 261.256 71.9166  14
  -4  -4   5 211.304 49.9863   5
  -4  -4   5 180.147 62.8282  20
  -4  -4   5 126.844 32.4440  25
  -4  -4   5 231.437 75.0757  24
  -4  -4   4 122.868 44.4795  20
  -4  -4   4 203.200 66.0822  14
  -4  -4   4 38.7650 31.6104  24
  -4  -4   3 5716.53 339.353  20
  -4  -4   3 6513.89 360.848  14
  -4  -4   2 1947.71 194.312  20
  -4  -4   2 2056.89 200.139  14
  -4  -4   2 1822.98 144.458  22
  -4  -4   1 6070.07 282.324  22
  -4  -4   1 6733.61 375.073  20
  -4  -4   1 6574.42 370.887  10
  -4  -4   1 6723.51 374.601  14
  -4  -4   0 10.7220 20.1676  22
  -4  -4   0-6.80740 35.9361  20
  -4  -4   0 24.5648 47.7593  10
  -4  -4   0-22.4484 31.2269  14
  -4  -4   0-4.93083 32.3173   5
  -4  -4  -1 3374.75 228.723   5
  -4  -4  -1 3362.72 267.013  20
  -4  -4  -1 2952.88 261.204  10
  -4  -4  -2 24.5780 38.1444   5
  -4  -4  -2 12.2594 35.1132  20
  -4  -4  -2 2.78285 50.2634  10
  -4  -4  -2 34.0843 40.3201  14
  -4  -4  -3 7099.83 423.370  10
  -4  -4  -3 6446.05 398.549   7
  -4  -4  -4 203.532 74.4748  10
  -4  -4  -4 165.763 62.9735   7
  -4  -4  -5 337.721 93.2848  10
  -4  -4  -5 367.431 85.0208   7
  -4  -4  -6 94.2096 58.6164  10
  -4  -4  -6 82.4578 40.1509   7
  -4  -4  -7 1155.22 116.335  20
  -4  -4  -7 1033.85 111.801  10
  -4  -5  11 22.8048 16.5844  21
  -4  -5  11-14.4786 12.1177  32
  -4  -5  10 969.320 101.728  21
  -4  -5  10 1302.21 111.442  32
  -4  -5  10 1336.13 92.9336  28
  -4  -5   9 818.625 98.8522  32
  -4  -5   9 791.515 104.025  24
  -4  -5   8 14.5430 19.8642  32
  -4  -5   8 48.0049 31.2586  27
  -4  -5   8 10.7081 24.3913  24
  -4  -5   7 4188.04 274.557  24
  -4  -5   6 1288.36 131.719   5
  -4  -5   6 1318.88 150.439  14
  -4  -5   6 1453.04 161.471  24
  -4  -5   5 1380.38 165.751  20
  -4  -5   5 1392.65 158.731  14
  -4  -5   5 1245.83 150.162  24
  -4  -5   5 1368.37 145.997   5
  -4  -5   4 3745.02 271.852  20
  -4  -5   4 4158.19 282.118  14
  -4  -5   3 19590.2 724.814  20
  -4  -5   3 21880.1 742.776  31
  -4  -5   3 21454.8 748.933  14
  -4  -5   2 6646.05 379.999  20
  -4  -5   2 7141.78 393.848  31
  -4  -5   2 6707.70 386.910  14
  -4  -5   1 2059.01 207.103  20
  -4  -5   1 2318.17 221.529  31
  -4  -5   1 2236.94 220.209  14
  -4  -5   0 1837.07 195.296  20
  -4  -5   0 1767.85 204.397  10
  -4  -5   0 1972.98 204.435  31
  -4  -5   0 1622.87 185.869  14
  -4  -5   0 1786.24 172.351   5
  -4  -5  -1 9241.05 398.411   5
  -4  -5  -1 8346.69 444.808  20
  -4  -5  -1 8812.35 467.900  10
  -4  -5  -1 8576.58 454.085  31
  -4  -5  -1 7290.07 404.515  14
  -4  -5  -2 8518.99 437.877  20
  -4  -5  -2 8741.69 463.064  10
  -4  -5  -2 8535.84 448.986  31
  -4  -5  -3 7.67807 31.8851  20
  -4  -5  -3-8.18887 30.0876  10
  -4  -5  -3-38.2384 42.7885  31
  -4  -5  -4 89.7027 60.3987  20
  -4  -5  -4 182.060 60.7652  10
  -4  -5  -4 103.281 50.9445   7
  -4  -5  -5 2488.85 191.744  20
  -4  -5  -5 2293.07 194.498  10
  -4  -5  -5 2691.21 197.817  31
  -4  -5  -6 1565.65 126.305  20
  -4  -5  -6 1731.53 140.734  10
  -4  -5  -6 1525.30 119.119  31
  -4  -6  10 9.81984 17.6871  21
  -4  -6  10 27.1810 16.2929  32
  -4  -6  10 29.8582 16.7576  28
  -4  -6   9 2391.30 150.262  32
  -4  -6   9 2646.44 172.694  24
  -4  -6   8 5330.73 252.251  32
  -4  -6   8 4868.85 204.248  27
  -4  -6   8 5379.73 277.766  24
  -4  -6   7 1056.67 99.3376   5
  -4  -6   7 1083.73 130.189  24
  -4  -6   6 42.9325 26.0088   5
  -4  -6   6 18.6281 32.5091  14
  -4  -6   6-3.75213 24.5742  24
  -4  -6   5 141.337 62.7562  20
  -4  -6   5 210.209 62.1582   5
  -4  -6   5 120.475 57.1654  14
  -4  -6   5 218.947 63.2633  24
  -4  -6   4 6356.51 348.474  20
  -4  -6   4 6601.19 356.413  14
  -4  -6   4 5392.64 293.909  24
  -4  -6   4 5638.88 315.883   5
  -4  -6   3 301.883 78.8124  20
  -4  -6   3 494.638 103.327  14
  -4  -6   2 179.846 66.2807  20
  -4  -6   2 244.284 75.9315  31
  -4  -6   2 201.226 81.4725  14
  -4  -6   2 287.008 75.9299   5
  -4  -6   1 85.0092 46.0945   5
  -4  -6   1-20.3293 46.5820  20
  -4  -6   1 20.7857 33.3737  31
  -4  -6   1 39.2357 34.2076  14
  -4  -6   0 3057.75 213.420   5
  -4  -6   0 3007.63 238.074  20
  -4  -6   0 3099.90 254.878  31
  -4  -6   0 2861.47 235.256  14
  -4  -6  -1 758.784 93.7325   5
  -4  -6  -1 697.404 115.250  20
  -4  -6  -1 698.615 111.011  14
  -4  -6  -1 669.015 117.168  31
  -4  -6  -2 187.812 56.8631  20
  -4  -6  -2 239.194 70.3338  31
  -4  -6  -2 245.094 62.9867  14
  -4  -6  -3 651.392 97.1661  20
  -4  -6  -3 643.164 96.0506  31
  -4  -6  -4 1699.41 137.019  20
  -4  -6  -4 1574.13 135.105  31
  -4  -6  -5 612.119 66.0616  20
  -4  -7   9 9.13373 10.8013  32
  -4  -7   9 14.7160 15.9778  28
  -4  -7   8 1608.14 105.180  32
  -4  -7   8 1989.11 136.701  24
  -4  -7   7 26.5463 25.3801  24
  -4  -7   6 609.167 76.9257   5
  -4  -7   6 714.209 92.1136  24
  -4  -7   5 75.9902 39.3148   5
  -4  -7   5 41.0901 35.0678  14
  -4  -7   5 29.5067 22.6650  24
  -4  -7   4 2504.78 183.704   5
  -4  -7   4 2590.03 192.626  20
  -4  -7   4 2380.89 192.645  14
  -4  -7   3 2457.93 183.831   5
  -4  -7   3 2329.97 185.865  20
  -4  -7   3 2597.66 202.436  14
  -4  -7   2 281.483 64.5360   5
  -4  -7   2 145.878 47.6568  20
  -4  -7   2 144.848 55.9055  31
  -4  -7   2 152.992 53.9352  14
  -4  -7   1 795.229 97.5301   5
  -4  -7   1 742.857 103.093  20
  -4  -7   1 806.603 114.731  31
  -4  -7   1 922.145 118.008  14
  -4  -7   0 6856.08 282.494   5
  -4  -7   0 6458.07 310.725  20
  -4  -7   0 7020.33 342.928  31
  -4  -7   0 6978.41 326.318  14
  -4  -7  -1 2022.32 151.628  20
  -4  -7  -1 2016.95 165.777  31
  -4  -7  -1 1839.79 144.673  14
  -4  -7  -2 147.009 33.9758  20
  -4  -7  -2 115.668 28.3198  14
  -4  -7  -2 205.298 49.5805  31
  -4  -7  -3 1105.14 83.0170  20
  -4  -8   8 309.238 35.2811  28
  -4  -8   6 815.912 65.6798  24
  -4  -8   4 127.655 35.2329   5
  -4  -8   4 86.3352 29.5228  14
  -4  -8   3 881.672 87.7424   5
  -4  -8   3 669.484 84.3786  14
  -4  -8   2 310.345 54.6053  14
  -4  -8   1 275.809 42.5855  20
  -4  -8   1 238.535 46.7687  14
  -4  -8   0 1494.13 100.936  14
   5 -11   0 413.483 47.7168  23
   5 -11   1 727.052 70.6693  23
   5 -11   2 119.983 32.6363  23
  -5  11  -3 62.6714 22.9071  29
  -5  11  -4 49.0782 20.6283  29
  -5  11  -5 734.196 70.6940  29
  -5  11  -6 2236.75 102.408  30
  -5  11  -6 2116.52 113.259  29
   5 -10  -2 5027.05 224.273  23
  -5  10   1 5227.69 209.364  11
   5 -10  -1 5374.03 256.688  23
  -5  10   0 242.036 47.9845  11
   5 -10   0 244.619 57.4058  23
  -5  10  -1 96.6015 31.7626  11
   5 -10   1 37.6735 29.5191  23
  -5  10  -2 1224.94 116.582  11
   5 -10   2 1216.19 124.653  23
  -5  10  -3 4639.81 240.256  11
   5 -10   3 4655.50 238.999  23
  -5  10  -4 113.860 32.3104  11
   5 -10   4 123.736 42.6047  23
  -5  10  -5 1798.45 148.301  29
  -5  10  -6 1175.32 116.746  29
  -5  10  -7 29.5121 24.8398  29
  -5  10  -7 21.7749 15.5046  12
  -5  10  -8 91.8213 29.1049  29
  -5   9   4 444.716 39.1604  17
  -5   9   4 380.437 38.9803  13
  -5   9   3 3956.78 158.309  17
  -5   9   3 3699.08 167.702  13
  -5   9   2 384.434 62.2605  11
  -5   9   2 414.010 51.7345  17
  -5   9   2 391.033 59.1735  13
  -5   9   1 1066.87 111.000  11
  -5   9   1 1042.51 88.1293  17
  -5   9   1 1140.19 107.491  13
  -5   9   0 7458.43 335.164  11
  -5   9   0 7380.75 269.644  17
  -5   9   0 7893.53 319.192  13
  -5   9  -1 2062.50 175.230  11
  -5   9  -1 2317.15 167.356  13
  -5   9  -2 244.445 59.1851  11
  -5   9  -2 156.147 46.1655  13
   5  -9   2 185.569 60.8501  23
  -5   9  -3 505.674 92.7250  11
   5  -9   3 466.489 86.2373  23
  -5   9  -4 17688.5 591.085  11
   5  -9   4 16388.2 536.851  23
  -5   9  -5 9671.74 426.605  29
  -5   9  -5 8880.00 387.704  11
  -5   9  -6 119.277 47.8576  29
  -5   9  -7 306.293 70.8867  29
  -5   9  -7 209.507 53.9111  12
  -5   9  -8 4912.79 185.355  30
  -5   9  -8 5120.56 254.890  29
  -5   9  -9 1245.82 104.765  29
  -5   8   6 574.059 48.4728  17
  -5   8   5 2402.11 131.611  17
  -5   8   5 2049.09 116.999  13
  -5   8   4 593.697 74.0199  17
  -5   8   4 548.935 71.5795  13
  -5   8   3 895.136 100.062  17
  -5   8   3 949.613 100.560  13
  -5   8   2 52.7696 37.3809  17
  -5   8   2 56.0594 32.6136  13
  -5   8   1 5379.09 289.277  11
  -5   8   1 5685.91 274.546  17
  -5   8   1 5573.27 283.163  13
  -5   8   0 1312.37 124.576  17
  -5   8   0 1292.86 137.273  13
  -5   8  -1 182.472 47.9014  17
  -5   8  -1 187.030 60.4598  13
  -5   8  -2 3114.48 186.467  17
  -5   8  -2 3165.47 213.904  13
  -5   8  -3 3040.12 222.895  11
  -5   8  -3 2937.02 174.115  17
  -5   8  -3 3087.41 216.420  13
   5  -8   3 2872.43 215.430  23
  -5   8  -4 181.506 70.5595  11
  -5   8  -4 143.618 49.4773  17
  -5   8  -5 1277.84 160.192  29
  -5   8  -5 1344.10 151.198  11
  -5   8  -6 138.846 47.0667  29
  -5   8  -7 1301.05 149.643  29
  -5   8  -7 1001.04 123.792  12
  -5   8  -8 4382.51 200.606  30
  -5   8  -8 4478.17 271.386  29
  -5   8  -9-4.67564 26.3307  29
   5  -8  10 2306.87 123.410  18
  -5   7   7 1744.91 100.206  17
  -5   7   7 1462.76 81.3510  13
  -5   7   6 111.365 36.9362  17
  -5   7   6 106.820 38.1497  13
  -5   7   5 2593.33 173.453  17
  -5   7   5 2246.39 153.686  13
  -5   7   4 109.943 46.0336  17
  -5   7   4 110.854 41.7624  13
  -5   7   3 20719.5 652.576  17
  -5   7   3 20395.9 633.790  13
  -5   7   2 1293.09 139.457  17
  -5   7   2 1306.09 135.993  13
  -5   7   1 4884.72 274.832  17
  -5   7   1 4678.53 270.013  13
  -5   7   0 81.4082 43.1981  17
  -5   7   0 91.6298 47.4548  13
  -5   7  -1 163.859 51.6291  17
  -5   7  -1 121.882 48.0096  13
  -5   7  -2 2584.59 182.867  17
  -5   7  -2 2532.72 198.496  13
  -5   7  -3 31389.9 826.756  17
  -5   7  -3 32065.7 879.411  13
  -5   7  -4 156.844 49.7025  17
  -5   7  -5 148.610 41.5316  17
  -5   7  -5 213.330 66.0388  29
  -5   7  -6 785.259 130.601  29
  -5   7  -7 1110.83 119.020  30
  -5   7  -7 1165.80 154.072  29
  -5   7  -8 10.5813 20.8314  30
  -5   7  -8 47.6786 31.9242   9
  -5   7  -8 30.2012 41.4348  29
  -5   7  -9 196.861 36.0866   9
  -5   7  -9 301.458 69.8874  29
   5  -7  10 2367.44 141.221  18
  -5   6   8 51.8589 25.9860  17
  -5   6   8 74.8923 22.1537  13
  -5   6   7 6837.01 276.194  17
  -5   6   7 6331.78 254.792  13
  -5   6   6 4506.04 246.933  17
  -5   6   6 4315.25 228.702  13
  -5   6   5 487.024 90.7833  17
  -5   6   5 450.404 77.6618  13
  -5   6   4 10630.2 453.078  17
  -5   6   4 11572.7 447.521  13
  -5   6   3 39495.6 1069.36  17
  -5   6   3 39750.2 1046.73  13
  -5   6   2 44784.9 1150.66  17
  -5   6   2 42905.7 1119.55  13
  -5   6   1 951.224 120.239  17
  -5   6   1 974.085 123.374  13
  -5   6   0 1539.84 156.920  17
  -5   6   0 1223.59 136.544  13
  -5   6  -1 8628.94 368.519  17
  -5   6  -1 8579.48 362.399  13
  -5   6  -2 1655.50 150.705  17
  -5   6  -2 1952.30 181.758  13
  -5   6  -2 1470.40 310.984   1
  -5   6  -3 31.8721 28.3240  17
  -5   6  -3 101.931 46.2088  13
  -5   6  -4 7221.26 316.529  17
  -5   6  -4 7977.43 344.639  13
  -5   6  -4 7232.71 386.192  29
  -5   6  -5 4884.25 250.810  17
  -5   6  -5 4815.39 316.259  29
  -5   6  -6 1477.89 176.171  29
  -5   6  -7 740.442 98.0329  30
  -5   6  -7 615.738 113.196  29
  -5   6  -8 3673.90 274.500  29
  -5   6  -8 3905.11 222.355   9
  -5   6  -9 6737.45 278.314   9
  -5   6  -9 7386.23 366.327  29
   5  -6  10 3.71503 14.7515  18
  -5   6 -10-15.1872 21.3771   9
   5  -6  11-1.96778 11.1312  18
  -5   5   9 2562.87 119.266  17
  -5   5   9 2200.27 107.927  13
  -5   5   8 10041.2 345.123  17
  -5   5   8 9497.93 326.780  13
  -5   5   7 1036.36 116.714  17
  -5   5   7 875.685 99.2629  13
  -5   5   6 217.217 61.4283  17
  -5   5   6 278.822 60.9989  13
  -5   5   5-3.85125 33.1239  17
  -5   5   5-12.4988 36.2544  13
  -5   5   4 1727.69 168.688  17
  -5   5   4 1652.40 157.602  13
  -5   5   3 135.789 52.2029  17
  -5   5   3 143.352 52.8960  13
  -5   5   2 865.532 231.465   1
  -5   5   2 844.684 116.684  17
  -5   5   2 797.428 82.2068  15
  -5   5   2 719.139 100.576  13
  -5   5   1 5841.15 303.162  17
  -5   5   1 4952.93 229.547  15
  -5   5   1 5716.10 286.168  13
  -5   5   1 4419.99 534.941   1
  -5   5   0 73.0293 55.7858  17
  -5   5   0 76.0680 39.5758  15
  -5   5   0 69.2798 53.9522  13
  -5   5   0 152.344 105.189   1
  -5   5  -1 214.087 59.1501  17
  -5   5  -1 250.531 54.3992  15
  -5   5  -1 242.704 73.1686  13
  -5   5  -1 213.031 128.295   1
  -5   5  -2 2248.90 173.538  17
  -5   5  -2 2395.69 149.121  15
  -5   5  -2 2473.71 175.589  13
  -5   5  -2 1935.96 350.508   1
  -5   5  -3 8618.10 346.911  17
  -5   5  -3 8270.21 336.238  13
  -5   5  -4 112.093 60.7378  17
  -5   5  -4 159.112 68.5186  29
  -5   5  -5 3620.02 217.732  17
  -5   5  -5 3479.81 266.356  29
  -5   5  -6 217.390 60.3995  30
  -5   5  -6 157.040 61.9841  29
  -5   5  -7 4199.15 239.732  30
  -5   5  -7 4005.45 295.628  29
  -5   5  -8 2022.03 166.706   9
  -5   5  -8 1712.71 190.183  29
   5  -5   9 3663.86 219.920  18
  -5   5  -9 3956.06 219.177   9
   5  -5  10 5.57510 16.3806  18
  -5   5 -10-1.06175 18.0051   9
   5  -5  11 193.205 30.9441  18
  -5   5 -11 172.727 42.1165   8
  -5   4  10 129.619 23.0448  13
  -5   4   9 4752.04 200.534  17
  -5   4   9 4462.76 199.430  13
  -5   4   8 9261.33 355.625  13
  -5   4   8 9283.10 357.770  17
  -5   4   7 96.9061 46.9912  17
  -5   4   7 113.284 49.8586  13
  -5   4   6-40.8797 50.7958  17
  -5   4   6 41.6569 54.1694  13
  -5   4   5 50.8523 41.3445  17
  -5   4   5 123.506 45.5531  28
  -5   4   5 148.201 57.7788  13
  -5   4   4 57939.3 1329.57  28
  -5   4   4 59722.4 1388.53  13
  -5   4   3 4974.11 254.886  28
  -5   4   3 4599.08 509.290   1
  -5   4   3 4941.29 282.759  17
  -5   4   3 5301.62 279.046  13
  -5   4   2 2551.05 384.351   1
  -5   4   2 2932.32 205.689  17
  -5   4   2 2493.48 174.585  28
  -5   4   2 2847.64 193.185  13
  -5   4   1 1336.65 276.997   1
  -5   4   1 1695.31 151.172  17
  -5   4   1 1493.54 127.801  28
  -5   4   0 7896.34 691.626   1
  -5   4  -1 8387.85 701.389   1
  -5   4  -2 3377.55 433.425   1
  -5   4  -2 3853.42 219.730  17
  -5   4  -3 29093.4 1352.56   1
  -5   4  -3 35521.3 880.503  17
  -5   4  -4 11235.7 401.826  17
  -5   4  -4 10812.3 441.374  30
  -5   4  -4 10281.8 441.424  29
  -5   4  -5 6665.16 328.078  30
  -5   4  -5 6297.35 355.985  29
  -5   4  -6 66.3714 44.7341  30
  -5   4  -6 101.917 61.3396  29
  -5   4  -7 30218.5 794.006  30
  -5   4  -7 27621.7 919.329  29
  -5   4  -8 2785.11 205.921   9
   5  -4   9 50.3405 29.6342  18
  -5   4  -9 26.3717 29.3756   9
   5  -4  10 139.157 35.5935  18
  -5   4 -10 165.253 45.4617   9
  -5   4 -10 177.155 60.7383   8
  -5   4 -11 515.141 72.2559   8
  -5   3  10 654.524 52.6565  17
  -5   3  10 777.182 69.4992  13
  -5   3   9 2018.97 132.011  17
  -5   3   9 2091.98 147.326  13
  -5   3   8 323.901 64.5113  17
  -5   3   8 340.155 68.9256  13
  -5   3   7 96.5623 44.8956  17
  -5   3   7 203.679 54.2319  28
  -5   3   7 189.940 57.7143  13
  -5   3   6 1043.41 123.527  28
  -5   3   6 929.510 129.877  13
  -5   3   5 19.8844 32.9411  17
  -5   3   5 90.5794 28.5372  28
  -5   3   5 113.267 39.5756  13
  -5   3   4 718.950 103.226  17
  -5   3   4 692.618 89.8770  28
  -5   3   4 712.497 92.5792  27
  -5   3   4 693.625 102.596  13
  -5   3   4 796.687 202.507   1
  -5   3   3 8542.90 366.974  17
  -5   3   3 8616.22 677.302   1
  -5   3   3 8576.61 338.985  28
  -5   3   3 9719.89 380.128  13
  -5   3   3 8364.60 330.020  27
  -5   3   3 8604.08 329.830  25
  -5   3   2 21147.3 1121.88   1
  -5   3   1 3399.45 430.646   1
  -5   3   0 4660.79 503.059   1
  -5   3  -1 12494.2 827.471   1
  -5   3  -2 19897.8 1037.46   1
  -5   3  -3 438.739 78.7944  17
  -5   3  -3 410.520 81.1358  30
  -5   3  -3 341.012 135.406   1
  -5   3  -4 6.77829 33.3261  17
  -5   3  -4 46.0811 27.7995  30
  -5   3  -5 512.341 91.2296  30
  -5   3  -5 521.289 95.9353  29
  -5   3  -6 319.012 69.0844  30
  -5   3  -6 80.7111 38.8228  29
  -5   3  -7 483.314 97.8953   9
  -5   3  -7 202.862 67.8489   6
   5  -3   8 85.6269 46.0093  18
  -5   3  -8 135.622 58.5839   9
   5  -3   9 2895.40 177.959  18
  -5   3  -9 3006.41 196.489   9
  -5   3  -9 2488.88 241.441   8
   5  -3  10 688.975 72.4157  18
  -5   3 -10 717.914 107.964   8
  -5   2  11 307.643 36.8678  13
  -5   2  10 926.431 86.5571  13
  -5   2   9 136.235 35.9730  17
  -5   2   9 73.5616 35.5622  13
  -5   2   8 7956.02 327.122  17
  -5   2   8 8092.34 385.022  16
  -5   2   8 8315.08 310.733  28
  -5   2   8 8905.41 378.251  13
  -5   2   7 9.43451 25.1961  17
  -5   2   7-21.7552 44.2593  16
  -5   2   7 49.2769 33.4864  28
  -5   2   7 20.8140 30.6743  13
  -5   2   6 2838.37 221.985  17
  -5   2   6 3630.45 293.548  16
  -5   2   6 5085.02 286.626  28
  -5   2   6 6479.95 339.766  13
  -5   2   6 5340.71 286.274  27
  -5   2   5 8926.22 625.368   1
  -5   2   5 8284.59 366.937  17
  -5   2   5 9807.13 372.936  28
  -5   2   5 9021.47 394.540  13
  -5   2   5 9577.83 373.733  27
  -5   2   4 7261.09 324.663  17
  -5   2   4 7748.65 322.660  28
  -5   2   4 8051.22 346.868  13
  -5   2   4 7719.35 322.843  27
  -5   2   4 7356.28 591.753   1
  -5   2   4 7688.11 322.070  25
  -5   2   3 104.306 46.0824   1
  -5   2   3 87.0347 43.2783  28
  -5   2   3 100.300 38.2689  27
  -5   2   2 3266.48 408.333   1
  -5   2   1 1550.10 286.018   1
  -5   2   0 603.091 174.828   1
  -5   2  -1 3942.96 425.564   1
  -5   2  -2 14440.0 822.268   1
  -5   2  -3 6939.56 289.400  17
  -5   2  -3 7464.29 329.410  30
  -5   2  -4 10631.4 416.943  30
  -5   2  -5 10625.9 419.074  30
  -5   2  -6 5850.50 283.441  30
  -5   2  -7 857.067 122.983   9
  -5   2  -7 900.757 157.522   8
   5  -2   8 323.956 63.5387  18
  -5   2  -8 269.801 64.7869   9
  -5   2  -8 198.567 76.8432   8
   5  -2   9 146.651 39.0108  18
  -5   2  -9 143.848 44.6185   9
  -5   2  -9 116.421 53.4890   8
  -5   2 -10 123.549 45.7426   8
  -5   1  11 2082.83 109.909  13
  -5   1  10 3444.69 185.833  13
  -5   1   9 98.2084 38.1385  21
  -5   1   9-17.6416 29.4023  16
  -5   1   9 83.2288 33.3993  28
  -5   1   9 110.960 45.4492  13
  -5   1   8 5098.39 264.651  21
  -5   1   8 5105.45 238.366  28
  -5   1   8 5840.86 298.428  13
  -5   1   7 1064.18 116.917  28
  -5   1   7 1370.26 146.135  13
  -5   1   7 1104.31 123.081  27
  -5   1   6 402.935 91.6349  16
  -5   1   6 584.161 85.4828  28
  -5   1   6 545.171 84.7766  27
  -5   1   6 564.614 94.4067  13
  -5   1   5 243.861 55.8668  28
  -5   1   5 321.745 70.7449  27
  -5   1   5 207.239 65.5215  13
  -5   1   5 270.432 65.1518  25
  -5   1   5 193.798 90.7436   1
  -5   1   4 32013.6 836.934  28
  -5   1   4 31644.2 832.123  27
  -5   1   4 31695.1 825.417  25
  -5   1   3 7775.06 601.847   1
  -5   1   2 2822.51 362.063   1
  -5   1   1 7013.51 571.486   1
  -5   1   0 9753.90 665.287   1
  -5   1  -1 4324.49 427.210   1
  -5   1  -2 30.1042 40.8878   1
  -5   1  -2 30.8983 34.1642  30
  -5   1  -3 68.8979 36.7502  30
  -5   1  -4 3361.30 215.119  30
  -5   1  -5 979.507 148.568   8
  -5   1  -5 1231.97 126.560  30
  -5   1  -6 183.977 65.4595   9
  -5   1  -6 153.204 65.5267   8
  -5   1  -6 169.365 60.6429  30
  -5   1  -7 5779.46 307.494   9
  -5   1  -7 6109.36 404.985   8
  -5   1  -8 6673.26 309.396   9
  -5   1  -8 5769.52 379.505   8
  -5   1  -9 249.971 69.2186   8
  -5   1 -10 62.0803 30.9108   8
  -5   0  11 1039.14 78.8779  13
  -5   0  10 8774.81 324.579  21
  -5   0  10 10266.8 350.178  13
  -5   0   9 7372.94 327.100  21
  -5   0   9 7506.00 281.090  28
  -5   0   8 48.4176 35.7432  16
  -5   0   8 191.818 51.5922  28
  -5   0   8 153.451 46.6449  27
  -5   0   8 165.690 53.9993  13
  -5   0   7-37.0130 42.6705  16
  -5   0   7 8.02138 21.3042  28
  -5   0   7 1.55105 24.2608  27
  -5   0   7-62.2383 29.5749  13
  -5   0   6 4414.12 247.647  28
  -5   0   6 4308.01 243.558  27
  -5   0   6 4269.61 244.342  25
  -5   0   5 9448.67 386.312  28
  -5   0   5 9071.00 377.592  27
  -5   0   5 9529.22 376.093  25
  -5   0   4 639.653 93.5585  28
  -5   0   4 611.990 83.8982  27
  -5   0   4 686.614 89.9396  25
  -5   0   3 1350.94 132.096   5
  -5   0   3 1231.50 119.460  28
  -5   0   3 1307.24 126.448  27
  -5   0   3 1330.22 133.791  22
  -5   0   2 4117.11 243.014   5
  -5   0   2 4395.14 444.544   1
  -5   0   1 25002.6 743.951   5
  -5   0   1 28329.1 1195.90   1
  -5   0   0 1210.35 171.884   5
  -5   0  -1 3497.66 225.089   5
  -5   0  -1 3951.42 221.169  30
  -5   0  -2 7866.99 338.884  30
  -5   0  -3 3182.82 214.513  30
  -5   0  -4 221.704 63.6639   9
  -5   0  -4 137.140 61.2059  30
  -5   0  -5 2850.51 199.951   9
  -5   0  -5 3027.62 267.499   8
  -5   0  -5 3167.88 204.852  30
  -5   0  -5 2736.16 263.190   7
  -5   0  -6 13955.7 504.095   9
  -5   0  -6 15064.7 654.513   8
  -5   0  -7 509.255 85.5931   9
  -5   0  -7 625.389 135.686   8
  -5   0  -8 1320.43 164.065   8
  -5  -1  11 53.9814 21.8569  21
  -5  -1  11 35.2805 18.8168  13
  -5  -1  10 367.786 60.6864  21
  -5  -1  10 287.423 40.5338  28
  -5  -1  10 468.225 66.1270  13
  -5  -1   9 1878.01 159.808  21
  -5  -1   9 1911.87 132.469  28
  -5  -1   9 2097.39 154.237  13
  -5  -1   9 1844.23 129.988  27
  -5  -1   8 169.761 46.6894  28
  -5  -1   8 164.002 46.6290  27
  -5  -1   8 66.2456 33.2744  13
  -5  -1   7 453.465 83.9713  32
  -5  -1   7 513.203 84.9176  28
  -5  -1   7 482.542 82.6794  27
  -5  -1   6 77.5071 41.0624  28
  -5  -1   6 95.1086 42.4645  27
  -5  -1   6 33.9696 34.1262  25
  -5  -1   5 7848.40 328.330   5
  -5  -1   5 6798.27 332.111  28
  -5  -1   5 6886.90 324.572  27
  -5  -1   5 6819.14 310.963  25
  -5  -1   4 5824.86 293.911   5
  -5  -1   4 6129.61 331.270  20
  -5  -1   4 5637.24 291.922  28
  -5  -1   4 5575.41 273.473  25
  -5  -1   3 289.362 71.9949  22
  -5  -1   3 289.858 74.9384  20
  -5  -1   3 297.095 70.7196   5
  -5  -1   3 169.850 34.8254  15
  -5  -1   2 17068.6 560.043  22
  -5  -1   2 17285.3 581.358   5
  -5  -1   2 17309.9 598.654  20
  -5  -1   2 15453.9 473.501  15
  -5  -1   2 17908.9 602.108  14
  -5  -1   2 16605.3 503.849  30
  -5  -1   2 15104.9 510.036  28
  -5  -1   1 8426.01 367.946  22
  -5  -1   1 8575.10 384.670   5
  -5  -1   1 8671.01 397.853  20
  -5  -1   1 9188.28 395.896  14
  -5  -1   1 8496.34 340.785  30
  -5  -1   0 1390.40 139.523  22
  -5  -1   0 1184.36 135.485   5
  -5  -1   0 1306.91 154.156  20
  -5  -1   0 1561.98 136.476  30
  -5  -1  -1 28.4301 27.5907  22
  -5  -1  -1 29.6200 28.6786  20
  -5  -1  -1 40.7453 36.1077  30
  -5  -1  -2 7973.94 354.615   5
  -5  -1  -2 6442.73 370.403  20
  -5  -1  -2 7157.62 376.329  10
  -5  -1  -2 7259.29 333.374  30
  -5  -1  -3-60.3361 58.1783  20
  -5  -1  -3 78.9515 46.9356  30
  -5  -1  -4 435.561 98.9247   8
  -5  -1  -4 474.140 81.4915  30
  -5  -1  -5 1178.37 167.151   8
  -5  -1  -5 909.659 147.268   7
  -5  -1  -6 21986.1 805.170   8
  -5  -1  -6 20207.2 788.762   7
  -5  -1  -7 359.532 84.0813   8
  -5  -1  -8 17.1658 19.3374  20
  -5  -1  -8-8.22570 26.0527  10
  -5  -1  -9 242.639 37.3504  22
  -5  -1  -9 238.606 50.7275  10
  -5  -2  11 2737.70 140.065  21
  -5  -2  10 158.422 47.2892  21
  -5  -2  10 75.9609 24.8282  28
  -5  -2  10 196.311 37.3554  13
  -5  -2   9 5.74411 16.3371  28
  -5  -2   9 29.7015 20.6069  27
  -5  -2   8 236.005 60.4440  32
  -5  -2   8 271.745 61.1173  28
  -5  -2   8 300.583 57.7715  27
  -5  -2   7 4874.07 271.664  32
  -5  -2   7 5073.24 271.589  28
  -5  -2   7 4766.04 256.074  27
  -5  -2   6 6576.58 333.721  28
  -5  -2   6 6260.05 309.874  27
  -5  -2   6 6088.35 293.984  25
  -5  -2   5 168.086 49.7790   5
  -5  -2   5 97.5870 37.6014  25
  -5  -2   4 7099.08 342.106   5
  -5  -2   4 7061.75 374.947  20
  -5  -2   3 13100.7 507.923   5
  -5  -2   3 12961.4 537.448  20
  -5  -2   3 14070.4 547.523  14
  -5  -2   3 12473.1 483.388  22
  -5  -2   2 77.3484 43.1257  22
  -5  -2   2 57.3374 39.3638  20
  -5  -2   2 165.310 63.3949   5
  -5  -2   2 87.8986 36.4643  30
  -5  -2   2 165.664 62.5379  14
  -5  -2   1 14.7751 39.7976  22
  -5  -2   1 63.5413 53.1125  20
  -5  -2   1 32.4519 35.3488   5
  -5  -2   1 36.2889 42.6741  14
  -5  -2   1 47.0418 41.9107  30
  -5  -2   0 15424.6 550.183  22
  -5  -2   0 14645.1 562.728   5
  -5  -2   0 16027.5 619.389  20
  -5  -2   0 15283.5 571.998  14
  -5  -2   0 16322.2 533.739  30
  -5  -2  -1 18756.4 645.138  22
  -5  -2  -1 20520.3 664.354   5
  -5  -2  -1 19014.2 711.672  20
  -5  -2  -1 19367.8 696.958  10
  -5  -2  -1 20161.9 633.268  30
  -5  -2  -2 28.9270 34.5087  22
  -5  -2  -2-37.4584 50.7820  20
  -5  -2  -2 2.13926 25.8312   5
  -5  -2  -2-11.6181 29.2873  10
  -5  -2  -2 12.5747 28.0334  30
  -5  -2  -3 1668.92 194.481  20
  -5  -2  -3 1592.91 189.231  10
  -5  -2  -4 7798.53 434.123  20
  -5  -2  -4 8891.72 469.171  10
  -5  -2  -5 4470.04 342.272  10
  -5  -2  -5 3083.51 279.004   7
  -5  -2  -6 62.6607 48.8338  20
  -5  -2  -6 55.1981 47.2352  10
  -5  -2  -6 56.4090 37.4718   7
  -5  -2  -7 20.9480 25.4872  22
  -5  -2  -7 67.5088 43.8264  20
  -5  -2  -7 4.61543 29.5036  10
  -5  -2  -8 28.4042 19.1374  22
  -5  -2  -8-2.79670 18.2551  20
  -5  -2  -8 24.2745 18.5268  10
  -5  -3  11 224.122 38.5250  21
  -5  -3  10 393.720 63.6533  21
  -5  -3  10 394.695 46.7953  28
  -5  -3   9 1407.44 124.050  32
  -5  -3   9 1470.47 116.324  28
  -5  -3   9 1265.72 98.7087  27
  -5  -3   8 71.8131 33.8026  32
  -5  -3   8 105.488 46.8915  28
  -5  -3   8 32.8002 35.9347  27
  -5  -3   7 3241.48 213.300  28
  -5  -3   7 3180.29 202.099  27
  -5  -3   6 1057.67 112.557   5
  -5  -3   6 1161.11 122.529  27
  -5  -3   6 1096.33 111.030  25
  -5  -3   5 4321.39 255.220   5
  -5  -3   5 3932.34 223.746  25
  -5  -3   5 3600.68 254.714  24
  -5  -3   4 103.189 66.5270  20
  -5  -3   4 58.8422 49.9544   5
  -5  -3   4 67.6237 42.4641  14
  -5  -3   4 31.6828 37.1390  24
  -5  -3   3 96.3992 63.9439  20
  -5  -3   3 47.3103 36.3367   5
  -5  -3   3 38.1236 39.2610  14
  -5  -3   2 95.7977 48.1131  22
  -5  -3   2 53.9744 32.2583  14
  -5  -3   2 27.5057 32.3477   5
  -5  -3   2 89.7867 42.7432  20
  -5  -3   1 4284.50 254.232  22
  -5  -3   1 4686.57 317.030  20
  -5  -3   1 4371.17 297.838  14
  -5  -3   0 51.0455 28.8046  22
  -5  -3   0 24.6210 31.6508   5
  -5  -3   0 61.0225 51.1778  20
  -5  -3   0 51.3572 42.5624  10
  -5  -3   0 80.9423 53.4862  14
  -5  -3  -1 608.759 98.0860  22
  -5  -3  -1 684.245 122.655  20
  -5  -3  -1 829.624 115.720   5
  -5  -3  -1 669.225 124.269  10
  -5  -3  -1 352.558 81.4159  14
  -5  -3  -2 1527.50 151.633  22
  -5  -3  -2 1722.92 155.665   5
  -5  -3  -2 1512.34 186.132  20
  -5  -3  -2 1509.15 185.392  10
  -5  -3  -3 37.4615 32.7947  22
  -5  -3  -3 56.0213 35.7647  20
  -5  -3  -3 43.9874 46.9181  10
  -5  -3  -4 1182.62 128.260  22
  -5  -3  -4 1158.88 158.447  20
  -5  -3  -4 1209.13 160.709  10
  -5  -3  -5 327.825 60.5502  22
  -5  -3  -5 206.271 68.9230  20
  -5  -3  -5 313.749 85.1595  10
  -5  -3  -6 1042.10 91.3689  22
  -5  -3  -6 900.439 114.323  20
  -5  -3  -6 1067.33 127.013  10
  -5  -3  -7 874.693 86.9561  20
  -5  -3  -7 1094.38 107.510  10
  -5  -4  11 178.192 28.1698  21
  -5  -4  10 180.353 40.2656  21
  -5  -4  10 218.092 33.4493  28
  -5  -4   9 905.944 85.8099  32
  -5  -4   9 1113.96 94.8582  28
  -5  -4   9 910.612 73.4929  27
  -5  -4   8 185.241 50.8694  28
  -5  -4   8 87.5732 34.6695  27
  -5  -4   7 2660.16 176.055  27
  -5  -4   6 399.755 70.6788   5
  -5  -4   6 437.258 70.7349  25
  -5  -4   6 354.947 77.5042  24
  -5  -4   5 4099.69 248.809   5
  -5  -4   5 3614.60 197.308  25
  -5  -4   4 608.838 110.086  20
  -5  -4   4 612.635 98.3023   5
  -5  -4   4 595.254 112.347  14
  -5  -4   4 544.480 77.6329  25
  -5  -4   3 3878.24 285.159  20
  -5  -4   3 3869.29 281.471  14
  -5  -4   2 76.0343 50.1990   5
  -5  -4   2 93.4439 31.7853  20
  -5  -4   2 117.943 46.1807  14
  -5  -4   1 6252.94 351.652   5
  -5  -4   1 6718.90 397.646  20
  -5  -4   1 5887.47 354.627  14
  -5  -4   1 6696.30 314.864  22
  -5  -4   0 130.613 41.8378  22
  -5  -4   0 281.565 90.7855  20
  -5  -4   0 244.814 73.2735   5
  -5  -4   0 142.499 71.7008  10
  -5  -4   0 20.3897 37.3287  14
  -5  -4  -1 26.0079 28.9556  22
  -5  -4  -1 27.9310 37.7369  20
  -5  -4  -1-0.76346 27.9441   5
  -5  -4  -1 4.21963 38.3520  10
  -5  -4  -1-46.6736 38.4653  14
  -5  -4  -2 187.858 48.7220  22
  -5  -4  -2 55.7272 52.4501  20
  -5  -4  -2 169.444 62.0171  10
  -5  -4  -3 901.095 100.746  22
  -5  -4  -3 564.829 134.251  20
  -5  -4  -3 890.376 156.665  10
  -5  -4  -4 79.1930 43.0444  20
  -5  -4  -4 87.7721 51.9942  10
  -5  -4  -5 366.261 72.0338  20
  -5  -4  -5 443.395 81.8043  10
  -5  -4  -6 1867.51 127.636  20
  -5  -4  -6 2148.34 144.261  10
  -5  -5  10 260.106 40.0016  21
  -5  -5   9 31.5860 24.1750  28
  -5  -5   9 12.0135 8.64908  27
  -5  -5   8 6.22256 21.1740  28
  -5  -5   8-33.9502 27.0420  27
  -5  -5   7 2717.90 164.021  27
  -5  -5   6 5978.21 271.652   5
  -5  -5   6 5280.40 280.152  24
  -5  -5   5 30.8617 28.2281   5
  -5  -5   5 12.4887 22.5995  24
  -5  -5   4 320.674 79.6752  20
  -5  -5   4 332.454 75.9960   5
  -5  -5   4 272.225 72.4738  14
  -5  -5   4 238.174 48.1651  25
  -5  -5   3 1716.21 169.459   5
  -5  -5   3 2315.49 207.803  20
  -5  -5   3 2053.17 196.669  14
  -5  -5   2 3169.69 230.619   5
  -5  -5   2 3383.91 261.185  20
  -5  -5   2 3150.71 245.024  14
  -5  -5   1 13.9603 40.4675  20
  -5  -5   1 2.63761 26.9610   5
  -5  -5   1 34.2918 27.2708  14
  -5  -5   0 820.891 126.442  20
  -5  -5   0 770.993 102.406   5
  -5  -5   0 608.868 99.2505  14
  -5  -5  -1 967.670 101.956   5
  -5  -5  -1 877.454 128.332  20
  -5  -5  -1 612.524 93.1085  14
  -5  -5  -2 445.174 91.1673  20
  -5  -5  -3 43.7132 37.9678  20
  -5  -5  -4 3144.31 187.079  20
  -5  -6   9 478.496 43.5738  28
  -5  -6   8 3368.40 151.448  28
  -5  -6   8 2568.75 113.220  27
  -5  -6   7 129.880 38.4595  28
  -5  -6   7 124.233 34.1791  27
  -5  -6   6 27.2568 22.6151   5
  -5  -6   5 622.752 81.6496   5
  -5  -6   4 684.791 99.4564  20
  -5  -6   4 638.191 90.7326   5
  -5  -6   4 566.556 91.1530  14
  -5  -6   3 160.208 61.5230  20
  -5  -6   3 99.8645 46.7300   5
  -5  -6   3 148.431 56.1087  14
  -5  -6   2 60.6218 42.5991  20
  -5  -6   2 49.6331 32.5554   5
  -5  -6   2 28.1482 25.2441  14
  -5  -6   1 2511.22 171.807   5
  -5  -6   1 2293.07 186.257  20
  -5  -6   1 2111.18 173.365  14
  -5  -6   0 59.2664 33.1985  20
  -5  -6   0 57.8157 33.9969  14
  -5  -6  -1 1214.97 121.379  20
  -5  -6  -1 940.010 88.7563  14
  -5  -6  -2 182.568 45.7612  20
  -5  -6  -3 269.589 42.4453  20
  -5  -7   7 124.187 24.6266  28
  -5  -7   6 6.39973 11.3757  28
  -5  -7   6-8.27302 12.8479  27
  -5  -7   5 740.163 62.7563  28
  -5  -7   2 329.134 56.2249  20
  -5  -7   2 277.139 51.2550  14
  -5  -7   1 1701.56 116.047  20
  -5  -7   1 1407.88 103.016  14
  -5  -7   0 219.055 40.8448  20
   6 -10  -1 377.407 53.1261  23
   6 -10   0 143.087 37.3730  23
  -6  10  -1 1909.37 94.1773  30
   6 -10   1 1970.45 129.278  23
  -6  10  -2 5353.21 200.570  30
   6 -10   2 4305.96 190.674  23
  -6  10  -3 181.748 37.4382  30
  -6  10  -4 702.216 74.6270  30
  -6  10  -4 413.146 54.2816  29
  -6  10  -5 1043.39 85.1584  30
  -6  10  -5 823.087 73.8317  29
  -6  10  -6 6391.10 212.425  30
  -6   9   3 4261.07 143.034  17
  -6   9   3 4181.00 160.586  13
  -6   9   2 17.2354 17.8711  17
  -6   9   2-25.9284 21.8848  13
  -6   9   1 841.369 71.9664  17
  -6   9   1 800.782 83.4169  13
  -6   9   0 8566.05 280.392  17
  -6   9   0 8736.53 320.562  13
  -6   9  -1 1715.25 109.642  17
  -6   9  -1 1803.67 136.035  13
   6  -9   1 1543.10 143.807  23
  -6   9  -2 30.3141 19.6456  17
   6  -9   2 51.1770 30.1561  23
  -6   9  -3 1188.80 86.2622  17
  -6   9  -3 1107.47 108.185  29
  -6   9  -4 306.790 60.8147  29
  -6   9  -5 21.1738 26.3943  30
  -6   9  -5 28.5915 20.8452  29
  -6   9  -6 101.778 33.4470  30
  -6   9  -6 113.428 33.6536  29
  -6   9  -7 2036.56 115.370  30
  -6   9  -7 1974.30 131.119  29
  -6   8   5 1432.81 81.5402  17
  -6   8   5 1197.31 74.9300  13
  -6   8   4 83.9579 33.1987  17
  -6   8   4 65.4460 27.4247  13
  -6   8   3-56.3213 27.5932  17
  -6   8   3 43.3747 25.4832  13
  -6   8   2 3171.04 183.117  17
  -6   8   2 3045.17 183.937  13
  -6   8   1 359.430 63.5603  17
  -6   8   1 361.662 73.2392  13
  -6   8   0 207.637 51.1740  17
  -6   8   0 263.902 57.1527  30
  -6   8   0 184.384 57.5283  13
  -6   8  -1 23.0929 23.4008  17
  -6   8  -1 12.2526 35.6146  13
  -6   8  -2 4774.99 231.881  17
  -6   8  -2 4576.14 253.221  13
  -6   8  -3 58.2916 30.8232  17
  -6   8  -3 8.98575 24.9324  29
  -6   8  -4 1870.65 131.498  17
  -6   8  -4 1540.23 151.416  29
  -6   8  -5 53.9444 28.1789  30
  -6   8  -5 14.6409 27.5022  29
  -6   8  -6 1492.62 132.954  30
  -6   8  -6 1434.53 140.214  29
  -6   8  -7 37.2122 21.6048  30
  -6   8  -7 3.29354 24.8641  29
  -6   8  -8 24.1607 17.3505  29
  -6   7   6 661.469 62.8472  17
  -6   7   6 657.718 65.3207  13
  -6   7   5 6221.42 252.600  17
  -6   7   5 5966.38 242.308  13
  -6   7   4 311.819 59.7080  17
  -6   7   4 241.524 55.6401  13
  -6   7   3 1899.41 158.908  17
  -6   7   3 1868.39 155.130  13
  -6   7   2 172.453 55.4200  17
  -6   7   2 230.112 57.1740  13
  -6   7   1 4274.93 252.964  17
  -6   7   1 4113.89 246.453  13
  -6   7   0 662.476 92.8625  17
  -6   7   0 681.436 103.605  13
  -6   7  -1 576.179 91.7863  17
  -6   7  -1 616.314 94.9965  13
  -6   7  -2 3805.85 229.341  17
  -6   7  -2 4109.13 244.060  13
  -6   7  -3-21.8714 26.8344  17
  -6   7  -3 86.6820 59.5980  13
  -6   7  -4 197.824 49.8948  17
  -6   7  -4 166.715 50.2226  29
  -6   7  -5 914.924 126.253  30
  -6   7  -5 827.600 119.596  29
  -6   7  -6 5494.80 284.848  30
  -6   7  -6 5096.25 294.844  29
  -6   7  -7 1322.08 116.964  30
  -6   7  -7 1123.03 128.602  29
  -6   7  -8 19.8563 22.0263   9
   6  -7   9 824.981 67.9897  18
  -6   6   7 122.662 29.2689  17
  -6   6   7 60.1862 25.1887  13
  -6   6   6 2418.92 153.252  17
  -6   6   6 2638.47 157.591  13
  -6   6   5 658.703 88.9010  17
  -6   6   5 728.890 92.1645  13
  -6   6   4 1550.57 147.251  17
  -6   6   4 1829.11 155.745  13
  -6   6   3 640.871 105.056  17
  -6   6   3 572.892 94.6118  13
  -6   6   2 331.209 83.8300  17
  -6   6   2 305.664 53.8933  15
  -6   6   2 408.827 77.8503  13
  -6   6   1 33.2861 40.9013  17
  -6   6   1 38.5717 29.9773  15
  -6   6   1 124.584 47.5863  30
  -6   6   1 77.2821 42.0523  13
  -6   6   0 16125.3 561.177  17
  -6   6   0 15093.0 447.809  15
  -6   6   0 15406.1 532.129  13
  -6   6  -1 8446.12 377.622  17
  -6   6  -1 8107.87 362.270  13
  -6   6  -2 3608.14 231.439  17
  -6   6  -2 3823.05 229.719  13
  -6   6  -3 52.0026 30.7781  17
  -6   6  -3 25.1300 42.9022  30
  -6   6  -3 67.4830 47.9740  13
  -6   6  -4 19393.1 580.558  17
  -6   6  -4 16187.4 617.688  30
  -6   6  -5 20979.0 678.312  30
  -6   6  -5 18627.3 661.504  29
  -6   6  -6 135.524 55.2157  30
  -6   6  -6 18.2623 27.7650  29
  -6   6  -7 80.4785 40.2817  30
  -6   6  -7 71.4816 26.9197  29
  -6   6  -8 346.659 62.5109   9
   6  -6   9 238.659 39.0020  18
  -6   6  -9 201.064 38.6624   9
  -6   5   8 2598.20 121.115  17
  -6   5   8 2796.36 132.196  13
  -6   5   7 58.4764 29.0244  17
  -6   5   7 77.1170 22.3975  15
  -6   5   7 46.1178 26.9472  13
  -6   5   6 8.94058 27.5674  17
  -6   5   6-55.7888 29.3616  15
  -6   5   6 36.1521 28.7077  13
  -6   5   5 10991.8 360.196  15
  -6   5   5 12899.7 448.075  13
  -6   5   4 82.0598 56.4961  17
  -6   5   4-8.72701 24.4872  15
  -6   5   4 38.7968 56.8157  13
  -6   5   3 757.020 113.608  17
  -6   5   3 737.621 92.6513  15
  -6   5   3 833.688 120.098  13
  -6   5   2 67.8396 49.2273  17
  -6   5   2 76.6694 42.9625  15
  -6   5   2 29.5343 44.1486  13
  -6   5   1 4760.40 281.121  17
  -6   5   1 4267.67 227.167  15
  -6   5   1 4368.90 241.516  30
  -6   5   1 4604.34 260.640  13
  -6   5   0 431.320 89.6648  17
  -6   5   0 414.826 73.8306  15
  -6   5   0 396.856 73.3829  30
  -6   5   0 360.378 76.0251  13
  -6   5  -1 6603.69 327.693  17
  -6   5  -1 6572.26 286.952  15
  -6   5  -1 6882.30 311.465  13
  -6   5  -2 404.883 79.5455  17
  -6   5  -2 544.662 103.156  30
  -6   5  -2 432.943 77.0066  13
  -6   5  -3 566.968 94.5328  17
  -6   5  -3 543.486 101.061  30
  -6   5  -4 11834.1 440.369  17
  -6   5  -4 10807.2 470.807  30
  -6   5  -5 11406.0 464.866  30
  -6   5  -5 9882.61 443.305  29
  -6   5  -6-6.05248 33.0028  30
  -6   5  -6 54.2747 43.5643  29
  -6   5  -7 530.884 90.0533   9
  -6   5  -7 446.345 73.7320  30
   6  -5   8 813.783 84.3307  18
  -6   5  -8 828.425 97.3970   9
   6  -5   9 461.363 51.7763  18
  -6   5  -9 654.733 73.9709   9
  -6   4   9 244.319 34.2373  13
  -6   4   8 3535.85 160.744  17
  -6   4   8 3211.86 146.957  15
  -6   4   7 176.929 38.9974  17
  -6   4   7 175.351 42.2672  13
  -6   4   6 126.206 36.4288  17
  -6   4   6 433.367 77.5513  13
  -6   4   5 2172.72 182.754  17
  -6   4   5 3712.70 229.569  13
  -6   4   4 1743.75 148.066  15
  -6   4   4 2190.83 175.390  28
  -6   4   4 2058.87 175.455  13
  -6   4   3 1068.13 133.092  17
  -6   4   3 997.243 112.767  15
  -6   4   3 1094.73 124.951  13
  -6   4   3 1104.40 125.253  28
  -6   4   2 872.157 117.663  17
  -6   4   2 921.008 105.079  15
  -6   4   2 972.399 118.397  13
  -6   4   2 939.904 115.409  28
  -6   4   1 28126.2 826.543  17
  -6   4   1 29104.2 781.263  15
  -6   4   1 28263.1 780.739  30
  -6   4   1 30315.1 804.874  13
  -6   4   1 27434.4 773.748  28
  -6   4   0 7843.40 358.393  17
  -6   4   0 7621.26 324.645  15
  -6   4   0 7165.96 340.987  30
  -6   4  -1 634.091 97.5758  17
  -6   4  -1 671.747 89.4659  15
  -6   4  -1 760.629 113.884  30
  -6   4  -2 4255.43 253.524  17
  -6   4  -2 3577.65 262.535  30
  -6   4  -3 2114.90 168.165  17
  -6   4  -3 1990.57 185.423  30
  -6   4  -4 711.550 106.504  17
  -6   4  -4 782.754 116.267  30
  -6   4  -5 104.203 56.3189  30
  -6   4  -6 1209.02 127.931  30
  -6   4  -7 491.425 89.3672   9
  -6   4  -7 323.641 62.0302  30
  -6   4  -8 8.85735 27.2597   9
  -6   4  -9 606.024 74.8441   9
  -6   3   9 326.064 40.8616  15
  -6   3   9 321.895 46.6402  13
  -6   3   8 279.101 42.4733  17
  -6   3   8 331.471 60.0186  13
  -6   3   7 6710.10 285.881  17
  -6   3   7 8453.85 340.454  13
  -6   3   6 924.381 106.405  17
  -6   3   6 1146.41 119.126  28
  -6   3   6 1029.42 116.879  13
  -6   3   5 2017.27 168.618  17
  -6   3   5 2569.97 186.466  28
  -6   3   5 2444.93 189.422  13
  -6   3   4 132.345 48.1729  17
  -6   3   4 144.871 44.4766  28
  -6   3   4 207.487 55.0712  27
  -6   3   4 119.115 47.7074  13
  -6   3   3 2150.73 175.241  17
  -6   3   3 2070.65 166.645  15
  -6   3   3 2298.87 176.688  13
  -6   3   3 2095.78 168.984  28
  -6   3   3 1942.69 156.302  27
  -6   3   2 7200.70 333.254  17
  -6   3   2 6947.75 320.014  15
  -6   3   2 7071.41 315.005  28
  -6   3   2 6335.08 287.830  27
  -6   3   2 6866.29 299.271  25
  -6   3   1 2196.04 175.099  17
  -6   3   1 2108.19 165.920  15
  -6   3   1 2241.22 165.818  30
  -6   3   1 1982.08 157.396  28
  -6   3   1 2099.11 153.026  25
  -6   3   0 2188.61 163.949  22
  -6   3   0 2197.69 172.025  17
  -6   3   0 2071.00 165.027  15
  -6   3   0 2196.56 360.661   1
  -6   3   0 1999.53 145.772  28
  -6   3   0 2190.94 176.515  30
  -6   3  -1 3160.90 213.546  22
  -6   3  -1 2784.47 196.090  17
  -6   3  -1 3128.17 199.362  15
  -6   3  -1 2752.93 216.295  30
  -6   3  -2 1182.91 132.396  22
  -6   3  -2 1008.50 117.051  17
  -6   3  -2 1365.41 154.481  30
  -6   3  -3 7749.73 369.461  22
  -6   3  -3 7847.73 341.413  17
  -6   3  -3 8605.72 391.642  30
  -6   3  -4 653.464 100.845  30
  -6   3  -5 9930.97 416.933  30
  -6   3  -6 615.032 92.1717  30
  -6   3  -7 22.4851 45.8128   9
  -6   3  -7-16.3466 25.1435  30
  -6   3  -8 44.2270 21.9093   9
  -6   3  -9 1935.08 126.109  22
  -6   2  10 24.7148 12.9085  15
  -6   2  10 26.9594 13.2069  13
  -6   2   9 339.556 53.5011  13
  -6   2   8 1409.66 108.609  28
  -6   2   8 1304.62 116.875  13
  -6   2   7 929.623 106.259  28
  -6   2   7 999.597 111.992  13
  -6   2   6 8495.83 343.311  28
  -6   2   6 7934.91 335.313  27
  -6   2   5 3759.69 228.068  28
  -6   2   5 3386.86 222.512  13
  -6   2   5 3491.74 216.413  27
  -6   2   4 1241.57 120.692  17
  -6   2   4 1510.25 141.198  28
  -6   2   4 1457.81 137.551  27
  -6   2   4 1545.51 141.771  25
  -6   2   3 1730.42 144.947  17
  -6   2   3 1455.82 144.527  15
  -6   2   3 1561.66 145.926  28
  -6   2   3 1775.73 151.784  27
  -6   2   3 1901.89 158.974  25
  -6   2   2 2089.97 160.091  17
  -6   2   2 1925.24 160.345  15
  -6   2   2 2013.86 146.228  30
  -6   2   2 1762.55 149.453  28
  -6   2   2 1882.39 151.728  27
  -6   2   2 1906.09 156.704  25
  -6   2   1 1506.48 132.555  17
  -6   2   1 1466.39 139.478  15
  -6   2   1 1250.64 123.983  30
  -6   2   1 1248.57 118.783  28
  -6   2   1 1203.32 113.464  27
  -6   2   1 1240.35 256.741   1
  -6   2   1 1188.41 121.492  25
  -6   2   1 1383.89 138.492  22
  -6   2   0 3169.38 219.847  22
  -6   2   0 2791.54 393.029   1
  -6   2   0 2963.76 191.954  17
  -6   2   0 3367.72 209.724  15
  -6   2   0 3309.50 214.155  30
  -6   2  -1 170.404 59.0877  22
  -6   2  -1 108.783 46.1789  17
  -6   2  -1 145.870 55.9303  15
  -6   2  -1 167.411 94.8383   1
  -6   2  -1 97.0888 54.6606  30
  -6   2  -2 1043.92 134.166  22
  -6   2  -2 1063.79 112.502  17
  -6   2  -2 1120.87 131.170  30
  -6   2  -3 1018.32 132.324  22
  -6   2  -3 1139.18 133.542  30
  -6   2  -4 4405.87 268.681  30
  -6   2  -5 7942.91 359.254  30
  -6   2  -6 62.9670 44.0675   9
  -6   2  -6 117.193 47.0886  30
  -6   2  -7 529.322 83.7194   9
  -6   2  -8 446.930 67.1504   9
  -6   2  -9 2166.95 131.605  22
  -6   1  10 485.569 47.1271  15
  -6   1  10 566.900 49.4703  13
  -6   1   9 302.353 46.6848  28
  -6   1   9 268.925 48.7268  13
  -6   1   8 1956.50 133.703  28
  -6   1   8 1763.19 133.570  13
  -6   1   7 2974.82 184.009  28
  -6   1   7 2846.42 181.396  27
  -6   1   6 70.4296 27.7415  28
  -6   1   6 101.205 40.9922  27
  -6   1   6 84.4118 41.4738  13
  -6   1   5 3376.11 214.585  28
  -6   1   5 3151.36 206.925  27
  -6   1   5 3012.49 205.988  25
  -6   1   4 1015.47 122.320  28
  -6   1   4 858.710 109.444  27
  -6   1   4 976.337 118.767  25
  -6   1   3 94.6906 35.7924  15
  -6   1   3 210.781 57.7876  28
  -6   1   3 106.386 29.4563  27
  -6   1   3 137.235 59.5209  25
  -6   1   2 352.654 74.7488  22
  -6   1   2 280.573 60.4985  15
  -6   1   2 336.641 64.3369  30
  -6   1   2 274.216 60.7359  28
  -6   1   2 281.692 63.8596  27
  -6   1   2 336.120 68.3124  25
  -6   1   1 10648.1 431.689  22
  -6   1   1 9950.04 383.454  15
  -6   1   1 10073.9 387.285  30
  -6   1   1 9229.74 358.600  28
  -6   1   1 9221.80 366.211  27
  -6   1   0 7150.58 354.420  22
  -6   1   0 6777.62 305.945  15
  -6   1   0 7057.64 331.024  30
  -6   1  -1 769.765 111.453  22
  -6   1  -1 850.971 105.389  15
  -6   1  -1 787.699 115.314  30
  -6   1  -2 6314.01 350.736  22
  -6   1  -2 6768.63 337.367  30
  -6   1  -3 24191.5 816.665  22
  -6   1  -3 27556.3 789.799  30
  -6   1  -4 6367.58 323.183  30
  -6   1  -5 204.192 56.5109   9
  -6   1  -5 180.828 52.0517  30
  -6   1  -6 153.292 50.7429   9
  -6   1  -6 193.666 55.0397  30
  -6   1  -7 1342.50 117.488   9
  -6   1  -8-15.6001 19.7491  10
  -6   0  10 736.815 56.3887  15
  -6   0   9 3666.18 173.857  21
  -6   0   9 3938.21 170.517  28
  -6   0   9 3962.46 168.883  13
  -6   0   8 1009.13 102.369  21
  -6   0   8 1103.24 101.174  28
  -6   0   8 1059.48 101.174  27
  -6   0   7 3848.75 218.152  28
  -6   0   7 3638.90 212.699  27
  -6   0   6 2018.22 165.911  28
  -6   0   6 2023.18 166.051  27
  -6   0   5 87.7642 45.8640  28
  -6   0   5 79.2204 48.9932  27
  -6   0   5 110.584 37.7228  25
  -6   0   4 81.7330 26.3194  15
  -6   0   4 184.110 56.8994  28
  -6   0   4 253.810 66.1680  27
  -6   0   4 147.479 49.8780  25
  -6   0   3 7018.20 316.483  15
  -6   0   3 7224.64 339.583  28
  -6   0   3 7870.51 352.791  27
  -6   0   3 7614.63 344.479  25
  -6   0   2 17460.6 543.876  15
  -6   0   2 17868.4 545.052  30
  -6   0   2 17332.4 570.296  27
  -6   0   2 18843.9 624.948  22
  -6   0   1 95.1431 45.1371  22
  -6   0   1 112.500 37.6791  15
  -6   0   1 105.703 44.9433  30
  -6   0   1 76.4146 36.4990  27
  -6   0   0 2222.67 194.247  22
  -6   0   0 2353.47 165.249  15
  -6   0   0 2285.28 181.011  30
  -6   0  -1 4103.79 273.912  22
  -6   0  -1 4366.51 259.420  30
  -6   0  -2 14471.5 581.035  22
  -6   0  -2 15143.2 558.337  30
  -6   0  -3 2771.17 230.442  22
  -6   0  -3 3076.60 215.155  30
  -6   0  -4 166.037 52.7055  30
  -6   0  -5 100.293 46.3111  10
  -6   0  -5 157.000 35.0462   9
  -6   0  -6 262.436 93.5341  10
  -6   0  -6 155.297 44.8727   9
  -6   0  -7 209.599 57.0398  22
  -6   0  -7 194.212 54.8680  10
  -6   0  -8 4.35269 20.8914  22
  -6  -1  10 202.149 31.8463  21
  -6  -1  10 187.574 24.6871  15
  -6  -1   9 1076.60 93.9653  21
  -6  -1   9 795.994 67.5395  15
  -6  -1   9 1137.95 86.8020  28
  -6  -1   8 766.666 77.7769  15
  -6  -1   8 866.198 89.6530  28
  -6  -1   8 863.562 90.0866  27
  -6  -1   7 1050.72 96.5692  15
  -6  -1   7 1306.56 123.194  28
  -6  -1   7 1390.47 125.669  27
  -6  -1   6 2307.97 179.445  28
  -6  -1   6 2201.86 170.850  27
  -6  -1   6 1960.53 160.031  25
  -6  -1   5 612.208 83.4731  15
  -6  -1   5 777.093 107.677  28
  -6  -1   5 726.140 100.237  27
  -6  -1   5 903.663 111.459  25
  -6  -1   4 113.538 42.2582  15
  -6  -1   4 110.015 54.5231  28
  -6  -1   4 183.645 57.4885  27
  -6  -1   4 119.286 41.6224  25
  -6  -1   3 1703.46 178.092  20
  -6  -1   3 1474.29 125.594  15
  -6  -1   3 1204.08 133.441  28
  -6  -1   3 1650.31 154.916  27
  -6  -1   3 1562.47 149.565  25
  -6  -1   2 10688.5 468.555  20
  -6  -1   2 10603.8 457.567   5
  -6  -1   2 9860.97 356.193  15
  -6  -1   2 9765.65 384.099  30
  -6  -1   2 10901.2 447.767  22
  -6  -1   1 627.307 101.972  22
  -6  -1   1 554.868 101.834  20
  -6  -1   1 723.982 119.597   5
  -6  -1   1 683.839 84.2169  15
  -6  -1   1 501.757 84.5720  30
  -6  -1   0 28.5960 36.1869  22
  -6  -1   0-15.4798 51.7540  20
  -6  -1   0 50.7160 42.4899  30
  -6  -1  -1 1426.39 169.448  22
  -6  -1  -1 1389.40 172.505  20
  -6  -1  -1 1531.36 158.063  30
  -6  -1  -2 1548.24 167.915  22
  -6  -1  -2 1580.85 178.141  20
  -6  -1  -2 1801.63 166.623  30
  -6  -1  -3 879.728 127.145  22
  -6  -1  -3 936.395 133.391  20
  -6  -1  -3 1001.90 120.968  30
  -6  -1  -4 151.691 58.4090  22
  -6  -1  -4 22.0575 34.4790  20
  -6  -1  -4 145.310 62.9012  10
  -6  -1  -5 132.796 53.6276  22
  -6  -1  -5 53.2258 25.7323  20
  -6  -1  -5 119.466 48.3616  10
  -6  -1  -6 2773.48 187.513  22
  -6  -1  -6 2608.58 195.350  10
  -6  -1  -7 1381.27 107.116  22
  -6  -1  -7 1275.90 113.266  10
  -6  -2  10 33.4667 14.8446  21
  -6  -2   9 14.1594 15.2837  21
  -6  -2   9 35.6010 16.3525  28
  -6  -2   8 4090.20 200.431  28
  -6  -2   8 3751.54 186.901  27
  -6  -2   7 1391.83 127.273  28
  -6  -2   7 1300.13 120.755  27
  -6  -2   6 347.034 66.1127  28
  -6  -2   6 354.022 66.8578  27
  -6  -2   6 319.323 64.8561  25
  -6  -2   5 62.3471 33.0836  28
  -6  -2   5 64.6790 32.7747  25
  -6  -2   4 4742.17 270.149  28
  -6  -2   4 5057.08 288.303  27
  -6  -2   4 4732.06 264.048  25
  -6  -2   3 3262.39 236.983   5
  -6  -2   3 3585.53 261.140  20
  -6  -2   2 333.159 78.4496  22
  -6  -2   2 200.325 62.4072  20
  -6  -2   2 257.134 64.5381   5
  -6  -2   2 223.221 55.3272  28
  -6  -2   1 631.459 100.505  22
  -6  -2   1 539.978 103.752  20
  -6  -2   1 542.089 106.386   5
  -6  -2   0 3447.90 243.400  22
  -6  -2   0 3982.77 269.079   5
  -6  -2   0 3164.63 259.987  20
  -6  -2  -1 325.417 80.3779  22
  -6  -2  -1 267.306 86.7260  20
  -6  -2  -2 13.0443 31.6013  22
  -6  -2  -2 133.350 69.1337  20
  -6  -2  -3 1469.85 147.698  22
  -6  -2  -3 1101.33 142.537  20
  -6  -2  -3 1455.36 156.961  10
  -6  -2  -4 2933.99 201.049  22
  -6  -2  -4 2358.07 197.854  20
  -6  -2  -4 2992.23 222.750  10
  -6  -2  -5 1739.02 138.335  22
  -6  -2  -5 1409.37 132.424  20
  -6  -2  -5 1874.25 159.585  10
  -6  -2  -6 1065.01 85.9945  22
  -6  -2  -6 872.831 92.1600  10
  -6  -3   9 1640.33 113.460  21
  -6  -3   9 1798.72 99.7321  28
  -6  -3   9 1513.83 83.7777  27
  -6  -3   8-19.1792 21.5407  28
  -6  -3   8 18.2653 24.8383  27
  -6  -3   7 58.1089 31.3874  28
  -6  -3   7 39.9526 32.2540  27
  -6  -3   6 1308.24 125.365  28
  -6  -3   6 1392.57 129.598  27
  -6  -3   6 1199.51 109.170  25
  -6  -3   5 2124.81 166.833   5
  -6  -3   5 1616.87 146.204  28
  -6  -3   5 2112.26 166.967  27
  -6  -3   5 2000.16 149.684  25
  -6  -3   4 472.809 89.4203   5
  -6  -3   4 197.018 55.7478  28
  -6  -3   4 341.922 67.2137  25
  -6  -3   3-24.8857 25.0701   5
  -6  -3   3-1.88783 25.9215  28
  -6  -3   3 21.9782 29.8966  25
  -6  -3   2 1401.40 154.204   5
  -6  -3   2 3088.46 242.759  20
  -6  -3   1 475.622 92.1509  22
  -6  -3   1 420.059 94.5352  20
  -6  -3   1 633.968 105.480   5
  -6  -3   0 58.8795 46.6353  22
  -6  -3   0 28.8947 37.0659  20
  -6  -3   0 80.3836 43.8280   5
  -6  -3  -1 655.766 91.6774  22
  -6  -3  -1 736.288 118.920  20
  -6  -3  -2 994.011 108.705  22
  -6  -3  -2 812.947 123.442  20
  -6  -3  -2 726.144 109.614  10
  -6  -3  -3 447.059 68.7128  22
  -6  -3  -3 450.486 84.4307  20
  -6  -3  -3 472.167 87.7971  10
  -6  -3  -4 1435.83 108.209  22
  -6  -3  -4 1260.53 124.366  20
  -6  -3  -4 1564.33 137.185  10
  -6  -3  -5 108.003 34.1294  20
  -6  -4   9 390.056 48.8468  21
  -6  -4   9 549.991 44.9615  28
  -6  -4   8 108.416 26.8967  28
  -6  -4   8 77.4606 24.5777  27
  -6  -4   7 19.2496 23.0806  28
  -6  -4   7-23.0078 22.0919  27
  -6  -4   6 161.633 45.6079  28
  -6  -4   6 126.278 45.3526  27
  -6  -4   5 91.7979 35.6923   5
  -6  -4   5 116.076 39.7856  28
  -6  -4   5 87.1415 38.2019  27
  -6  -4   5 99.8482 35.1231  25
  -6  -4   4 39.1313 26.0373   5
  -6  -4   4 73.2019 37.4503  28
  -6  -4   4-4.99691 23.3486  25
  -6  -4   3 21.8186 37.0222  20
  -6  -4   3-24.1867 24.8678   5
  -6  -4   3 49.5532 30.4273  28
  -6  -4   3-1.33151 21.4883  25
  -6  -4   2 819.789 126.550  20
  -6  -4   2 630.124 96.0233   5
  -6  -4   1 478.756 98.2850  20
  -6  -4   1 473.912 80.4787   5
  -6  -4   0 246.195 61.4222  20
  -6  -4   0 188.783 55.5556   5
  -6  -4  -1 22.9407 25.4057  20
  -6  -4  -1 82.9695 31.0057  22
  -6  -4  -2 2192.86 175.740  20
  -6  -4  -2 2413.25 129.192  22
  -6  -4  -3 203.732 48.1751  20
  -6  -4  -4 30.8319 17.6823  20
  -6  -5   8 735.739 53.3402  28
  -6  -5   7 395.316 46.0456  28
  -6  -5   7 371.794 45.1236  27
  -6  -5   6 43.0245 23.4371  28
  -6  -5   6 4.50201 14.3843  27
  -6  -5   5 465.135 56.7774  28
  -6  -5   5 438.471 61.2999  27
  -6  -5   4 1616.81 127.523   5
  -6  -5   4 1582.29 103.724  28
  -6  -5   4 1809.19 129.166  27
  -6  -5   4 1726.62 100.017  25
  -6  -5   3 2355.48 175.635  20
  -6  -5   3 2242.97 156.682   5
  -6  -5   3 2130.04 120.385  25
  -6  -5   2 78.8744 32.0920  20
  -6  -5   2 102.271 32.2304   5
  -6  -5   2 84.7370 24.5519  25
  -6  -5   1-27.5031 25.9527  20
  -6  -5   1-42.3325 27.8637   5
  -6  -5   0 656.445 89.8627  20
  -6  -5  -1 2725.53 168.053  20
  -6  -5  -2 36.6770 23.7799  20
  -6  -6   5 555.648 52.4507  27
  -6  -6   4 28.4140 19.0955  27
  -6  -6   3 355.777 44.7700  27
  -6  -6   2 33.3872 15.0083  27
  -7   9   0 1329.64 75.3020  17
  -7   9  -1 401.845 42.4181  17
  -7   9  -1 312.991 36.3506  30
  -7   9  -2 164.638 30.9714  30
  -7   9  -3 2292.00 130.827  30
  -7   9  -4 3858.86 173.070  30
  -7   9  -5 147.554 30.3427  30
  -7   8   3 265.808 37.4480  17
  -7   8   3 250.556 39.3275  13
  -7   8   2 2049.32 119.609  17
  -7   8   2 2073.55 123.529  13
  -7   8   1 209.049 42.7477  17
  -7   8   1 129.534 33.1895  13
  -7   8   0 57.5628 30.5493  17
  -7   8   0-7.98923 19.2976  13
  -7   8  -1 304.438 49.2180  17
  -7   8  -1 316.605 56.1220  13
  -7   8  -1 311.663 52.5683  30
  -7   8  -2 1209.87 98.3354  17
  -7   8  -2 934.942 97.4590  30
  -7   8  -3 190.075 44.8389  17
  -7   8  -3 60.3418 28.6340  30
  -7   8  -4 924.673 97.0324  30
  -7   8  -5 23.6165 19.2929  30
  -7   8  -6 333.604 44.7722   9
  -7   8  -6 251.870 41.4064  30
  -7   7   5 36.9515 17.1313  17
  -7   7   5 42.0299 18.7395  13
  -7   7   4 1488.88 102.587  17
  -7   7   4 1608.87 106.102  13
  -7   7   3 548.888 69.1170  17
  -7   7   3 547.827 70.0491  13
  -7   7   2 4641.35 228.677  17
  -7   7   2 4977.46 231.757  13
  -7   7   1 310.995 62.0341  17
  -7   7   1 261.908 56.7750  13
  -7   7   0 130.729 49.3227  17
  -7   7   0 120.826 34.8102  30
  -7   7   0 61.7183 30.3179  13
  -7   7  -1 1294.45 120.982  17
  -7   7  -1 905.325 101.649  30
  -7   7  -1 1215.58 114.188  13
  -7   7  -2 9426.22 328.080  17
  -7   7  -2 4744.44 269.847  30
  -7   7  -3 921.836 99.3652  17
  -7   7  -3 549.796 83.5771  30
  -7   7  -4 83.8419 39.4450  30
  -7   7  -5 659.966 88.1377  30
  -7   7  -6 36.7718 22.7959  30
  -7   7  -7 116.462 32.4360   9
  -7   7  -7 89.7231 26.8494  30
  -7   6   6 198.863 31.1224  17
  -7   6   6 219.810 34.8101  13
  -7   6   5 1872.43 120.588  17
  -7   6   5 2100.86 125.271  13
  -7   6   4 8530.85 246.959  15
  -7   6   4 9198.43 315.727  13
  -7   6   3 11660.2 330.935  15
  -7   6   3 11462.2 390.758  13
  -7   6   2 328.525 70.5080  17
  -7   6   2 328.829 53.4060  15
  -7   6   2 281.901 60.2640  13
  -7   6   1 156.281 50.3760  17
  -7   6   1 57.1038 30.6493  15
  -7   6   1 73.0025 38.0522  13
  -7   6   0 153.863 52.0024  17
  -7   6   0 158.861 48.9700  30
  -7   6   0 150.065 49.1146  13
  -7   6  -1 2854.48 190.460  17
  -7   6  -1 2266.16 176.781  30
  -7   6  -1 2720.17 176.357  13
  -7   6  -2 535.484 84.8486  17
  -7   6  -2 461.212 84.0899  30
  -7   6  -3 958.901 108.841  17
  -7   6  -3 748.062 109.081  30
  -7   6  -4 729.600 105.072  30
  -7   6  -5 802.502 102.221  30
  -7   6  -6 82.3333 33.1186  30
  -7   6  -7 867.212 86.0045   9
  -7   6  -7 832.849 71.7296  30
  -7   6  -8 2157.38 110.233   9
  -7   5   7 541.070 48.3108  13
  -7   5   6 662.757 65.0217  17
  -7   5   6 574.877 52.5717  15
  -7   5   6 748.798 74.3064  13
  -7   5   5 46.2177 25.5115  17
  -7   5   5 99.9581 31.1613  15
  -7   5   5 133.602 42.0521  13
  -7   5   4 1252.39 103.274  15
  -7   5   4 1277.01 116.943  13
  -7   5   3 1369.76 133.005  17
  -7   5   3 1755.62 129.447  15
  -7   5   3 1862.93 147.405  13
  -7   5   2 120.138 50.1459  17
  -7   5   2 229.335 52.8946  15
  -7   5   2 284.037 62.4104  13
  -7   5   1 426.692 86.2562  17
  -7   5   1 697.510 86.8938  15
  -7   5   1 552.355 77.0824  30
  -7   5   1 632.092 83.5535  13
  -7   5   0 51.6239 42.8237  17
  -7   5   0 118.414 50.7380  15
  -7   5   0 137.074 51.1365  30
  -7   5  -1 144.119 51.7054  17
  -7   5  -1 143.882 56.2981  30
  -7   5  -2 347.380 68.8034  17
  -7   5  -2 433.172 82.7517  30
  -7   5  -3 1123.59 120.328  17
  -7   5  -3 998.565 128.010  30
  -7   5  -4 269.838 72.9991  30
  -7   5  -5 1486.91 139.397  30
  -7   5  -6 262.513 56.8850  30
  -7   5  -7 183.318 45.5823   9
  -7   5  -7 180.986 35.5609  30
  -7   5  -8 1541.63 100.147   9
  -7   4   7 50.7971 20.6472  15
  -7   4   7 35.2096 19.9942  13
  -7   4   6 60.2192 24.8315  17
  -7   4   6 144.851 33.9764  15
  -7   4   6 69.8926 33.3144  13
  -7   4   5 4481.97 211.129  15
  -7   4   5 4376.72 215.630  13
  -7   4   4 307.959 62.5562  17
  -7   4   4 464.533 73.2492  15
  -7   4   4 540.535 83.6946  13
  -7   4   3 80.8980 39.8317  17
  -7   4   3 129.162 44.9748  15
  -7   4   3 153.869 49.4836  13
  -7   4   2 2008.73 163.077  17
  -7   4   2 2294.86 167.397  15
  -7   4   1 2483.92 182.880  17
  -7   4   1 2839.94 190.340  15
  -7   4   0 1161.42 126.001  17
  -7   4   0 1263.20 131.762  15
  -7   4   0 1072.01 125.158  30
  -7   4  -1 1418.70 133.539  17
  -7   4  -1 1396.37 146.880  30
  -7   4  -2 9110.24 365.135  17
  -7   4  -2 8923.96 400.720  30
  -7   4  -3 7594.54 365.317  30
  -7   4  -4-11.3211 35.5188  30
  -7   4  -5 413.086 81.0222  30
  -7   4  -6 4056.79 222.320   9
  -7   4  -6 3958.99 208.883  30
  -7   4  -7 3353.44 176.658   9
  -7   4  -7 2714.19 132.211  30
  -7   4  -8 134.218 27.2469   9
  -7   3   8 61.1670 19.1765  15
  -7   3   7 528.764 59.3105  15
  -7   3   7 504.738 55.7830  13
  -7   3   6 173.414 38.6287  15
  -7   3   6 189.998 38.6768  13
  -7   3   5 1122.33 98.6602  17
  -7   3   5 774.623 92.3358  15
  -7   3   5 985.451 96.8472  13
  -7   3   4 846.803 94.4570  17
  -7   3   4 943.772 108.652  15
  -7   3   4 1140.80 119.809  28
  -7   3   3 3715.56 213.071  17
  -7   3   3 3847.71 228.790  15
  -7   3   2 1104.96 116.209  17
  -7   3   2 1229.23 128.813  15
  -7   3   2 1227.34 124.500  28
  -7   3   2 1183.62 113.377  25
  -7   3   1 723.979 95.4274  17
  -7   3   1 956.744 113.348  15
  -7   3   1 691.703 94.8585  30
  -7   3   1 772.789 102.783  28
  -7   3   1 769.235 93.2712  25
  -7   3   0 426.350 78.6532  22
  -7   3   0 316.670 63.8282  17
  -7   3   0 437.517 76.7798  15
  -7   3   0 304.851 63.9374  30
  -7   3  -1 7104.16 332.043  22
  -7   3  -1 6740.98 297.930  17
  -7   3  -1 6885.42 335.197  30
  -7   3  -2 134.510 50.3175  22
  -7   3  -2 157.966 54.0908  17
  -7   3  -2 61.7180 43.1747  30
  -7   3  -3 102.091 53.8367  22
  -7   3  -3 119.784 62.0468  30
  -7   3  -4 64.3884 34.4822  22
  -7   3  -4 68.4211 46.1654  30
  -7   3  -5 172.754 50.8710  22
  -7   3  -5 251.640 61.4588   9
  -7   3  -5 197.437 59.9759  30
  -7   3  -6 245.701 54.7789  22
  -7   3  -6 485.324 75.3077   9
  -7   3  -6 462.653 66.7522  30
  -7   3  -7 353.371 54.7239  22
  -7   3  -7 386.587 54.7240   9
  -7   2   8 250.961 37.7092  15
  -7   2   7 10.1625 14.9402  15
  -7   2   7 21.3328 23.7457  28
  -7   2   6 234.187 49.0770  15
  -7   2   6 776.524 90.1006  28
  -7   2   5 654.728 85.0617  15
  -7   2   5 1211.83 119.393  28
  -7   2   4 137.578 37.8247  15
  -7   2   4 177.237 50.6487  28
  -7   2   4 189.016 49.8664  27
  -7   2   3 1403.64 134.303  15
  -7   2   3 1369.21 134.822  28
  -7   2   3 1431.08 130.549  27
  -7   2   3 1566.40 143.360  25
  -7   2   2 1174.39 122.913  15
  -7   2   2 1102.72 107.197  30
  -7   2   2 1059.98 115.614  28
  -7   2   2 1043.90 107.334  27
  -7   2   2 1151.35 120.667  25
  -7   2   1 435.446 83.2784  15
  -7   2   1 274.005 61.9297  30
  -7   2   1 285.505 62.0253  28
  -7   2   1 204.675 55.0382  25
  -7   2   0 580.659 99.5698  22
  -7   2   0 565.074 77.0350  17
  -7   2   0 697.335 96.8659  15
  -7   2   0 591.846 90.9373  30
  -7   2   0 562.246 87.3083  25
  -7   2  -1 3159.45 228.522  22
  -7   2  -1 3258.98 224.073  30
  -7   2  -1 2737.88 184.769  25
  -7   2  -2 306.300 76.3158  22
  -7   2  -2 213.798 68.3897  30
  -7   2  -3 870.364 119.959  22
  -7   2  -3 852.775 116.483  30
  -7   2  -4-25.1399 32.4545  22
  -7   2  -4 131.266 50.7045   9
  -7   2  -4 119.939 50.5334  30
  -7   2  -5 2447.69 158.687   9
  -7   2  -5 2576.56 172.267  30
  -7   2  -6 45.7285 32.6552  22
  -7   2  -6-5.36661 22.1795   9
  -7   2  -6 11.1470 19.8781  30
  -7   2  -7 81.0258 28.8405  22
  -7   1   8 158.129 31.2611  15
  -7   1   8 122.140 32.0666  28
  -7   1   7-9.06891 18.2447  15
  -7   1   7 13.1040 16.4875  28
  -7   1   6 266.577 53.8203  15
  -7   1   6 416.542 67.5095  28
  -7   1   6 369.106 65.0047  27
  -7   1   5 4375.37 230.679  28
  -7   1   5 4418.38 229.144  27
  -7   1   4 3099.13 196.545  15
  -7   1   4 3430.46 211.014  28
  -7   1   4 3655.67 214.436  27
  -7   1   4 3875.50 224.606  25
  -7   1   3 413.114 73.5029  15
  -7   1   3 435.682 80.4766  28
  -7   1   3 471.126 80.6060  27
  -7   1   3 473.475 82.8177  25
  -7   1   2 1187.11 125.161  15
  -7   1   2 1177.20 113.137  30
  -7   1   2 1064.38 111.436  28
  -7   1   2 1207.19 120.331  27
  -7   1   2 1369.71 135.876  25
  -7   1   1 1238.29 125.817  15
  -7   1   1 941.369 111.996  30
  -7   1   1 1029.38 118.727  25
  -7   1   1 1287.14 145.678  22
  -7   1   0 4393.61 276.217  22
  -7   1   0 4228.64 249.512  30
  -7   1   0 4065.14 237.793  25
  -7   1  -1 657.014 110.670  22
  -7   1  -1 696.944 100.341  30
  -7   1  -2 85.3947 49.0564  22
  -7   1  -2 3.25492 28.7113  30
  -7   1  -3 13.7851 29.2876  22
  -7   1  -3 85.1318 40.6537  30
  -7   1  -4 41.1303 43.1620  22
  -7   1  -4-37.1318 33.5541  30
  -7   1  -5 129.613 48.4489  22
  -7   1  -6 87.9238 35.1503  22
  -7   1  -7 2559.94 133.226  22
  -7   0   8 231.333 33.1041  15
  -7   0   8 347.320 47.4437  28
  -7   0   7 188.964 38.1901  15
  -7   0   7 173.578 41.7251  28
  -7   0   7 209.002 41.8303  27
  -7   0   6 3101.52 180.697  28
  -7   0   6 3266.19 183.242  27
  -7   0   5 27.6741 26.7245  15
  -7   0   5-6.59694 25.8596  28
  -7   0   5 72.7271 40.0098  27
  -7   0   4 95.3882 41.5565  15
  -7   0   4-16.6577 28.5275  28
  -7   0   4 131.228 47.1312  27
  -7   0   4 98.6778 40.7399  25
  -7   0   3 174.473 49.7995  15
  -7   0   3 86.7998 31.4091  28
  -7   0   3 128.424 50.6591  27
  -7   0   3 161.593 51.5959  25
  -7   0   2 3729.97 209.397  30
  -7   0   2 3224.02 191.858  28
  -7   0   2 3506.72 209.944  27
  -7   0   2 3864.90 235.110  25
  -7   0   1 524.003 102.921  22
  -7   0   1 483.371 83.0217  30
  -7   0   1 391.340 74.8586  25
  -7   0   0 360.310 81.6558  22
  -7   0   0 371.349 78.0632  30
  -7   0  -1 524.963 102.353  22
  -7   0  -1 631.894 98.5319  30
  -7   0  -2 2626.66 211.956  22
  -7   0  -2 2840.60 205.610  30
  -7   0  -3 34.9457 45.2780  22
  -7   0  -4 46.3396 38.3862  22
  -7   0  -5 2339.82 164.161  22
  -7   0  -6 199.286 41.5609  22
  -7  -1   8 9.86808 17.7045  28
  -7  -1   7 53.7107 20.2755  15
  -7  -1   7-20.4344 20.0697  28
  -7  -1   7 13.2066 21.8771  27
  -7  -1   6 1399.59 93.0541  15
  -7  -1   6 1666.90 125.473  28
  -7  -1   5 105.799 35.9296  15
  -7  -1   5 129.949 40.3237  28
  -7  -1   5 191.776 49.3798  27
  -7  -1   5 107.447 40.0305  25
  -7  -1   4 245.626 45.8063  15
  -7  -1   4 190.716 53.3153  28
  -7  -1   4 268.906 56.8575  27
  -7  -1   4 273.893 61.3697  25
  -7  -1   3 1868.54 124.299  15
  -7  -1   3 1664.06 140.845  27
  -7  -1   3 1799.47 149.836  25
  -7  -1   2 5564.69 268.933  27
  -7  -1   2 6517.13 304.182  25
  -7  -1   1 134.527 49.3201  20
  -7  -1   1 23.1330 25.2476  27
  -7  -1   1 190.730 60.5592  22
  -7  -1   0 197.250 62.4106  22
  -7  -1   0 225.856 60.1425  20
  -7  -1  -1 2139.57 182.363  22
  -7  -1  -2 203.068 62.6955  22
  -7  -1  -3 65.6706 32.7061  22
  -7  -1  -4 206.208 48.1231  22
  -7  -1  -5 4197.25 186.385  22
  -7  -2   8 545.719 49.3601  28
  -7  -2   7 1074.16 83.9642  28
  -7  -2   7 1064.52 83.5132  27
  -7  -2   6 139.596 34.9438  28
  -7  -2   6 178.676 43.3008  27
  -7  -2   5 1077.28 101.943  27
  -7  -2   5 972.698 95.0178  25
  -7  -2   4 2766.03 170.558  27
  -7  -2   4 2949.43 172.395  25
  -7  -2   3 767.622 90.8687  27
  -7  -2   3 965.795 102.609  25
  -7  -2   2 196.016 43.2016  27
  -7  -2   2 239.761 58.2120  25
  -7  -2   1 24.4053 36.2651  20
  -7  -2   1-9.89118 23.4799  27
  -7  -2   0 7627.23 344.180  20
  -7  -2   0 8345.13 346.152  22
  -7  -2  -1 133.784 46.5004  22
  -7  -2  -1 114.884 38.3348  20
  -7  -2  -2 49.1958 27.7896  22
  -7  -2  -2-1.25331 26.4359  20
  -7  -2  -3 1215.46 101.517  22
  -7  -2  -4 647.690 60.5669  22
  -7  -3   7 54.5785 17.5253  28
  -7  -3   7 56.4922 18.2310  27
  -7  -3   6 295.827 41.3122  28
  -7  -3   6 352.592 48.3084  27
  -7  -3   5-3.69852 13.8864  28
  -7  -3   5 10.8320 16.5759  27
  -7  -3   4 119.583 27.7186  28
  -7  -3   4 86.0059 26.3164  27
  -7  -3   4 169.972 40.1345  25
  -7  -3   3 83.4687 27.5421  27
  -7  -3   3 76.8240 31.1510  25
  -7  -3   2 321.765 50.6431  27
  -7  -3   2 508.741 67.6679  25
  -7  -3   1 142.610 42.7520  20
  -7  -3   1 45.1280 21.1514  25
  -7  -3   0 171.224 48.6848  20
  -7  -3  -1 73.1528 28.2630  20
  -7  -4   5 339.057 42.1280  27
  -7  -4   4 38.8753 18.0219  27
  -7  -4   4 50.1107 16.2456  25
  -7  -4   3 438.674 49.9284  27
  -7  -4   3 565.125 52.5835  25
  -7  -4   2 1467.28 85.2882  27
  -7  -4   2 2093.18 106.332  25
  -7  -4   1 68.6762 20.6141  25
  -7  -4   0 78.6709 21.7389  25
  -8   7   2 167.892 29.4058  17
  -8   7   1 379.828 47.7534  17
  -8   7   0 18.6927 18.2802  17
  -8   7  -1 627.364 67.2345  17
  -8   7  -1 516.176 53.5420  30
  -8   7  -2 72.1961 25.2428  30
  -8   7  -3-26.3243 23.9014  30
  -8   7  -4 189.136 37.0575  30
  -8   6   3 522.046 53.1215  17
  -8   6   2-7.60703 15.8745  17
  -8   6   1 747.257 74.4174  17
  -8   6   0 2212.22 135.346  17
  -8   6   0 2129.70 117.183  30
  -8   6  -1 477.654 66.4060  17
  -8   6  -1 434.719 58.6537  30
  -8   6  -2 113.962 35.6836  30
  -8   6  -3 1033.88 95.1318  30
  -8   6  -4 3375.03 171.844  30
  -8   6  -5 289.736 46.5619   9
  -8   6  -5 200.739 36.2237  30
  -8   5   4 50.0445 18.1678  17
  -8   5   3 223.292 36.2319  17
  -8   5   2 231.014 42.5424  17
  -8   5   1 26.6043 21.6657  17
  -8   5   0 1710.25 126.144  17
  -8   5   0 1701.11 120.157  30
  -8   5  -1 155.876 44.5915  17
  -8   5  -1 112.815 37.1701  30
  -8   5  -2 33.8084 23.4636  30
  -8   5  -3 1550.24 126.545  30
  -8   5  -4 2678.04 157.922  30
  -8   5  -5 153.635 36.4155   9
  -8   5  -5 222.880 42.5262  30
  -8   4   5 637.847 55.9288  15
  -8   4   4 50.4216 26.1188  15
  -8   4   3 22.3434 17.1581  17
  -8   4   3 50.2972 28.3224  15
  -8   4   2 2422.00 136.912  17
  -8   4   2 3851.13 187.094  15
  -8   4   1 3270.99 164.930  17
  -8   4   1 3346.60 163.746  30
  -8   4   0 371.968 57.4056  17
  -8   4   0 341.335 58.5695  30
  -8   4  -1 180.288 46.4096  30
  -8   4  -2 1337.45 121.857  30
  -8   4  -3 655.378 88.3075  30
  -8   4  -4 255.035 47.0731   9
  -8   4  -4 175.206 43.1208  30
  -8   4  -5 123.651 31.6114   9
  -8   4  -5 106.083 30.4107  30
  -8   3   6 89.9302 22.0634  15
  -8   3   5 69.4711 21.5182  15
  -8   3   4 17.7744 17.4676  15
  -8   3   3 584.140 72.7645  15
  -8   3   2 552.992 79.9659  15
  -8   3   1 83.3728 28.6743  30
  -8   3   0 431.423 66.6731  30
  -8   3  -1 45.1553 31.4667  30
  -8   3  -2 413.961 71.5454  30
  -8   3  -3 315.529 51.4675   9
  -8   3  -3 338.634 60.7994  30
  -8   3  -3 373.709 55.6330  22
  -8   3  -4 1303.76 91.2332   9
  -8   3  -4 1426.41 112.299  30
  -8   3  -4 1256.73 91.9967  22
  -8   2   6 15.1873 12.4066  15
  -8   2   5-19.3687 16.0054  15
  -8   2   4 93.4946 34.0215  15
  -8   2   3 2651.26 154.898  15
  -8   2   1 103.691 35.6388  30
  -8   2   1 150.300 40.8007  25
  -8   2   0 23.9976 28.4526  30
  -8   2   0 38.8069 30.7690  25
  -8   2  -1 6.63662 21.6797  30
  -8   2  -2 483.667 72.4671  22
  -8   2  -2 431.451 70.8646  30
  -8   2  -3 119.611 33.9977  22
  -8   2  -3 196.617 48.7920  30
  -8   2  -4 312.858 47.9821  22
  -8   1   6 44.9907 18.4351  15
  -8   1   5 72.6576 26.7521  15
  -8   1   5 93.0121 28.4203  28
  -8   1   4 120.718 33.8457  15
  -8   1   4 108.503 31.6817  28
  -8   1   2 312.113 53.6953  25
  -8   1   1 4151.46 202.839  25
  -8   1   0 105.126 35.3548  25
  -8   1  -1 164.092 38.2669  25
  -8   1  -2 1670.56 104.040  25
  -8   1  -2 2509.39 161.384  22
  -8   1  -3 1455.86 115.537  22
  -8   1  -4 70.1581 21.0851  22
  -8   0   5 32.1198 14.2951  28
  -8   0   4 229.343 36.7407  28
  -8   0   4 431.136 49.8641  27
  -8   0   3 1079.04 80.6331  27
  -8   0   3 2018.87 128.235  25
  -8   0   2 187.966 47.0736  25
  -8   0   1 817.045 84.6347  25
  -8   0   0 59.3336 21.8461  25
  -8   0  -1 126.690 32.8242  25
  -8   0  -2 51.9526 22.4760  25
  -8  -1   4-8.84088 15.3053  27
  -8  -1   3 267.615 35.4976  27
  -8  -1   3 1447.38 100.760  25
  -8  -1   2 298.984 49.4694  25
  -8  -1   1 105.134 30.8867  25
  -8  -1   0-10.8832 15.6758  25
  -8  -1  -1 422.223 47.5632  25
  -8  -2   2 136.552 27.8811  25
  -8  -2   1 182.892 30.2402  25
   0   0   0    0.00    0.00   0
TITL Cl4Q_3ampy in P-1
REM P-1 (#2 in standard setting)
CELL 1.54184   7.129380   9.504157  11.003455 106.2576  91.6241 106.0849
ZERR    3.00   0.000364   0.000781   0.000924   0.0073   0.0057   0.0061
LATT  1
SFAC C H N O
UNIT 33.00 30.00 3.00 3.00
TREF
HKLF 4
END
;
loop_
_symmetry_equiv_pos_as_xyz
'x, y, z'
'-x, -y, -z'
loop_
_atom_site_label
_atom_site_fract_x
_atom_site_fract_y
_atom_site_fract_z
_atom_site_U_iso_or_equiv
_atom_site_adp_type
_atom_site_calc_flag
_atom_site_refinement_flags
_atom_site_occupancy
_atom_site_type_symbol
Cl1 0.30938(15) 0.92227(11) 0.66868(8) 0.0487(3) Uani d . 1 Cl
Cl2 0.24262(16) 0.64928(10) 0.41638(9) 0.0509(3) Uani d . 1 Cl
Cl3 0.12360(16) 1.01287(12) 0.14428(9) 0.0521(3) Uani d . 1 Cl
Cl4 0.19191(17) 1.28527(10) 0.39735(10) 0.0534(3) Uani d . 1 Cl
O1 0.2296(4) 1.1923(3) 0.6279(3) 0.0482(6) Uani d . 1 O
O2 0.1227(4) 0.7228(3) 0.1907(2) 0.0480(6) Uani d . 1 O
C1 0.2138(5) 1.0875(4) 0.5267(3) 0.0377(7) Uani d . 1 C
C2 0.2357(5) 0.9392(4) 0.5239(3) 0.0376(7) Uani d . 1 C
C3 0.2079(5) 0.8212(4) 0.4143(3) 0.0373(7) Uani d . 1 C
C4 0.1539(5) 0.8325(4) 0.2906(3) 0.0384(7) Uani d . 1 C
C5 0.1530(5) 0.9854(4) 0.2915(3) 0.0387(7) Uani d . 1 C
C6 0.1812(5) 1.1029(4) 0.4006(3) 0.0387(7) Uani d . 1 C
N1 -0.6154(5) 0.6219(4) -0.1681(3) 0.0459(7) Uani d . 1 N
N2 -0.1675(6) 0.5802(5) -0.0412(4) 0.0679(11) Uani d . 1 N
H2A -0.1524 0.5069 -0.1029 0.081 Uiso calc R 1 H
H2B -0.0833 0.6201 0.0258 0.081 Uiso calc R 1 H
C7 -0.4615(6) 0.5692(4) -0.1576(3) 0.0458(8) Uani d . 1 C
H7 -0.4462 0.4886 -0.2236 0.055 Uiso calc R 1 H
C8 -0.3238(6) 0.6329(4) -0.0494(4) 0.0443(8) Uani d . 1 C
C9 -0.3576(7) 0.7503(5) 0.0485(4) 0.0508(9) Uani d . 1 C
H9 -0.2733 0.7926 0.1241 0.061 Uiso calc R 1 H
C10 -0.5128(6) 0.8027(5) 0.0338(4) 0.0535(10) Uani d . 1 C
H10 -0.5321 0.8824 0.0989 0.064 Uiso calc R 1 H
C11 -0.6423(7) 0.7398(5) -0.0760(4) 0.0536(10) Uani d . 1 C
H11 -0.7464 0.7781 -0.0864 0.064 Uiso calc R 1 H
C12 -0.7587(8) 0.5482(5) -0.2832(4) 0.0648(13) Uani d . 1 C
H12A -0.8597 0.598 -0.2772 0.097 Uiso calc R 1 H
H12B -0.8164 0.4417 -0.2904 0.097 Uiso calc R 1 H
H12C -0.6932 0.5568 -0.357 0.097 Uiso calc R 1 H
loop_
_atom_site_aniso_label
_atom_site_aniso_U_11
_atom_site_aniso_U_22
_atom_site_aniso_U_33
_atom_site_aniso_U_12
_atom_site_aniso_U_13
_atom_site_aniso_U_23
Cl1 0.0661(6) 0.0458(5) 0.0326(4) 0.0198(4) -0.0050(4) 0.0070(3)
Cl2 0.0766(7) 0.0371(5) 0.0439(5) 0.0294(4) 0.0042(4) 0.0079(4)
Cl3 0.0749(7) 0.0545(6) 0.0349(4) 0.0265(5) 0.0115(4) 0.0183(4)
Cl4 0.0766(7) 0.0316(4) 0.0539(5) 0.0170(4) 0.0088(5) 0.0149(4)
O1 0.0657(17) 0.0327(13) 0.0392(13) 0.0140(12) 0.0002(12) 0.0008(10)
O2 0.0697(17) 0.0412(14) 0.0306(12) 0.0231(13) 0.0047(11) 0.0001(10)
C1 0.0446(18) 0.0299(16) 0.0326(16) 0.0092(13) 0.0024(13) 0.0020(13)
C2 0.0420(17) 0.0355(17) 0.0324(16) 0.0111(14) 0.0004(13) 0.0060(13)
C3 0.0462(18) 0.0323(16) 0.0342(16) 0.0163(14) 0.0051(13) 0.0067(13)
C4 0.0469(18) 0.0356(17) 0.0306(16) 0.0150(14) 0.0071(13) 0.0036(13)
C5 0.0481(19) 0.0395(18) 0.0327(16) 0.0175(15) 0.0080(14) 0.0126(14)
C6 0.0450(18) 0.0313(16) 0.0418(18) 0.0132(14) 0.0080(14) 0.0119(14)
N1 0.0580(19) 0.0382(16) 0.0378(15) 0.0122(14) 0.0013(13) 0.0081(13)
N2 0.073(3) 0.062(2) 0.063(2) 0.036(2) -0.0089(19) -0.0034(19)
C7 0.067(2) 0.0367(18) 0.0331(17) 0.0195(17) 0.0106(16) 0.0060(14)
C8 0.056(2) 0.0361(18) 0.0400(18) 0.0138(16) 0.0057(15) 0.0097(15)
C9 0.062(2) 0.046(2) 0.0362(18) 0.0114(18) 0.0067(16) 0.0032(16)
C10 0.059(2) 0.044(2) 0.045(2) 0.0159(18) 0.0098(18) -0.0056(17)
C11 0.057(2) 0.045(2) 0.053(2) 0.0195(18) 0.0044(18) 0.0021(18)
C12 0.086(3) 0.048(2) 0.051(2) 0.016(2) -0.019(2) 0.0058(19)
loop_
_atom_type_symbol
_atom_type_description
_atom_type_scat_dispersion_real
_atom_type_scat_dispersion_imag
_atom_type_scat_source
C C 0.0181 0.0091 'International Tables Vol C Tables 4.2.6.8 and 6.1.1.4'
H H 0 0 'International Tables Vol C Tables 4.2.6.8 and 6.1.1.4'
Cl Cl 0.3639 0.7018 'International Tables Vol C Tables 4.2.6.8 and 6.1.1.4'
N N 0.0311 0.018 'International Tables Vol C Tables 4.2.6.8 and 6.1.1.4'
O O 0.0492 0.0322 'International Tables Vol C Tables 4.2.6.8 and 6.1.1.4'
loop_
_geom_angle_atom_site_label_1
_geom_angle_atom_site_label_2
_geom_angle_atom_site_label_3
_geom_angle
O1 C1 C2 122.6(3)
O1 C1 C6 124.0(3)
C2 C1 C6 113.4(3)
C3 C2 C1 122.9(3)
C3 C2 Cl1 121.2(3)
C1 C2 Cl1 115.8(2)
C2 C3 C4 123.0(3)
C2 C3 Cl2 120.9(3)
C4 C3 Cl2 116.1(2)
O2 C4 C3 122.9(3)
O2 C4 C5 123.0(3)
C3 C4 C5 114.0(3)
C6 C5 C4 122.6(3)
C6 C5 Cl3 121.1(3)
C4 C5 Cl3 116.2(3)
C5 C6 C1 123.4(3)
C5 C6 Cl4 121.2(3)
C1 C6 Cl4 115.3(3)
C7 N1 C11 121.6(3)
C7 N1 C12 119.0(3)
C11 N1 C12 119.4(4)
C8 N2 H2A 120
C8 N2 H2B 120
H2A N2 H2B 120
N1 C7 C8 121.2(3)
N1 C7 H7 119.4
C8 C7 H7 119.4
N2 C8 C7 120.5(4)
N2 C8 C9 122.6(4)
C7 C8 C9 116.9(4)
C10 C9 C8 120.3(4)
C10 C9 H9 119.9
C8 C9 H9 119.9
C9 C10 C11 121.0(4)
C9 C10 H10 119.5
C11 C10 H10 119.5
N1 C11 C10 118.8(4)
N1 C11 H11 120.6
C10 C11 H11 120.6
N1 C12 H12A 109.5
N1 C12 H12B 109.5
H12A C12 H12B 109.5
N1 C12 H12C 109.5
H12A C12 H12C 109.5
H12B C12 H12C 109.5
loop_
_geom_bond_atom_site_label_1
_geom_bond_atom_site_label_2
_geom_bond_distance
Cl1 C2 1.726(4)
Cl2 C3 1.725(3)
Cl3 C5 1.727(3)
Cl4 C6 1.725(3)
O1 C1 1.247(4)
O2 C4 1.249(4)
C1 C2 1.453(5)
C1 C6 1.454(5)
C2 C3 1.363(5)
C3 C4 1.445(5)
C4 C5 1.452(5)
C5 C6 1.356(5)
N1 C7 1.341(5)
N1 C11 1.347(5)
N1 C12 1.474(5)
N2 C8 1.352(5)
N2 H2A 0.86
N2 H2B 0.86
C7 C8 1.396(6)
C7 H7 0.93
C8 C9 1.398(5)
C9 C10 1.356(6)
C9 H9 0.93
C10 C11 1.377(6)
C10 H10 0.93
C11 H11 0.93
C12 H12A 0.96
C12 H12B 0.96
C12 H12C 0.96
loop_
_geom_torsion_atom_site_label_1
_geom_torsion_atom_site_label_2
_geom_torsion_atom_site_label_3
_geom_torsion_atom_site_label_4
_geom_torsion
O1 C1 C2 C3 176.2(4)
C6 C1 C2 C3 -6.4(5)
O1 C1 C2 Cl1 -6.2(5)
C6 C1 C2 Cl1 171.1(3)
C1 C2 C3 C4 0.0(6)
Cl1 C2 C3 C4 -177.4(3)
C1 C2 C3 Cl2 178.2(3)
Cl1 C2 C3 Cl2 0.8(5)
C2 C3 C4 O2 -177.8(4)
Cl2 C3 C4 O2 4.0(5)
C2 C3 C4 C5 6.4(5)
Cl2 C3 C4 C5 -171.9(3)
O2 C4 C5 C6 177.9(4)
C3 C4 C5 C6 -6.2(5)
O2 C4 C5 Cl3 -4.6(5)
C3 C4 C5 Cl3 171.3(3)
C4 C5 C6 C1 -0.3(6)
Cl3 C5 C6 C1 -177.7(3)
C4 C5 C6 Cl4 176.6(3)
Cl3 C5 C6 Cl4 -0.8(5)
O1 C1 C6 C5 -176.1(4)
C2 C1 C6 C5 6.6(5)
O1 C1 C6 Cl4 6.9(5)
C2 C1 C6 Cl4 -170.4(3)
C11 N1 C7 C8 1.1(6)
C12 N1 C7 C8 -178.7(4)
N1 C7 C8 N2 -178.9(4)
N1 C7 C8 C9 2.0(6)
N2 C8 C9 C10 177.7(4)
C7 C8 C9 C10 -3.2(6)
C8 C9 C10 C11 1.4(7)
C7 N1 C11 C10 -2.9(6)
C12 N1 C11 C10 176.8(4)
C9 C10 C11 N1 1.7(7)
