#------------------------------------------------------------------------------
#$Date: 2019-09-04 06:26:17 +0300 (Wed, 04 Sep 2019) $
#$Revision: 217956 $
#$URL: file:///home/coder/svn-repositories/cod/cif/7/23/36/7233627.cif $
#------------------------------------------------------------------------------
#
# This file is available in the Crystallography Open Database (COD),
# http://www.crystallography.net/
#
# All data on this site have been placed in the public domain by the
# contributors.
#
data_7233627
loop_
_publ_author_name
'Wiedemann, Dennis'
'Suard, Emmanuelle'
'Lerch, Martin'
_publ_section_title
;
 Structural complexities and sodium-ion diffusion in the intercalates
 NaxTiS2: move it, change it, re-diffract it
;
_journal_issue                   48
_journal_name_full               'RSC Advances'
_journal_page_first              27780
_journal_paper_doi               10.1039/C9RA05690D
_journal_volume                  9
_journal_year                    2019
_chemical_compound_source        synthetic
_chemical_formula_iupac          'Na0.5 Ti S2'
_chemical_formula_sum            'Na0.5 S2 Ti'
_chemical_formula_weight         123.5
_chemical_name_systematic
;
sodium titanium disulfide, sodium deficient
;
_space_group_IT_number           166
_space_group_name_Hall           '-R 3 2"'
_space_group_name_H-M_alt        'R -3 m :H'
_symmetry_cell_setting           trigonal
_symmetry_Int_Tables_number      166
_symmetry_space_group_name_Hall  '-R 3 2"'
_symmetry_space_group_name_H-M   'R -3 m :H'
_audit_update_record
;
2019-07-22 deposited with the CCDC.    2019-08-26 downloaded from the CCDC.
;
_cell_angle_alpha                90
_cell_angle_beta                 90
_cell_angle_gamma                120
_cell_formula_units_Z            3
_cell_length_a                   3.43840(8)
_cell_length_b                   3.43840(8)
_cell_length_c                   21.0431(6)
_cell_measurement_temperature    291.15
_cell_volume                     215.453(9)
_computing_cell_refinement       'JANA2006 (Pet\<r\'i\<cek et al., 2014)'
_computing_data_collection       'NOMAD 3.0.16 (Institut Laue-Langevin, 2016)'
_computing_data_reduction        'Lamp 8.5 (Richard et al., 1996)'
_computing_molecular_graphics    'Diamond 4.5 (Brandenbrug, 2019)'
_computing_publication_material  'JANA2006 (Pet\<r\'i\<cek et al., 2014)'
_computing_structure_refinement  'JANA2006 (Pet\<r\'i\<cek et al., 2014)'
_diffrn_ambient_environment      vacuum
_diffrn_ambient_temperature      291.15
_diffrn_detector                 '^3^He counter'
_diffrn_detector_details
;
array of 128 counting tubes (Suard & Hewat, 2001)
;
_diffrn_measurement_device       'two-axis diffractometer'
_diffrn_measurement_device_details 'Hewat (1986)'
_diffrn_measurement_device_type  D2B
_diffrn_measurement_method       'profile data from 2\q scans'
_diffrn_radiation_monochromator  'Ge 335'
_diffrn_radiation_probe          neutron
_diffrn_radiation_type           neutron
_diffrn_radiation_wavelength     1.594
_diffrn_source                   'nuclear reactor'
_diffrn_source_type              'ILL, beam tube H11'
_exptl_absorpt_coefficient_mu    0.014
_exptl_absorpt_correction_type   cylinder
_exptl_absorpt_process_details
;
correction for a cylindrical sample with \mR = 0.043 as implemented in
 JANA2006 (Pet\<r\'i\<cek et al., 2014)
;
_exptl_crystal_density_diffrn    2.8554
_exptl_crystal_density_method    'not measured'
_exptl_crystal_F_000             37.799
_pd_calc_method                  'Rietveld refinement'
_pd_char_atten_coef_mu_calc      0.009
_pd_char_colour                  grey-black
_pd_instr_2theta_monochr_pre     135
_pd_instr_beam_size_ax           50
_pd_instr_beam_size_eq           20
_pd_instr_dist_src/mono          3000
_pd_instr_geometry               Debye-Scherrer
_pd_instr_location
;
D2B, high-resolution two-axis diffractometer, Institut Laue-Langevin
 (Grenoble, France)
;
_pd_instr_monochr_pre_spec       'Ge 335'
_pd_instr_slit_ax_mono/spec      2985
_pd_instr_slit_eq_mono/spec      500
_pd_instr_soller_eq_spec/detc    0.083333
_pd_instr_soller_eq_src/mono     0.166667
_pd_meas_2theta_range_inc        0.05
_pd_meas_2theta_range_max        159.950
_pd_meas_2theta_range_min        0.050
_pd_meas_number_of_points        3199
_pd_meas_scan_method             step
_pd_proc_2theta_range_inc        0.05
_pd_proc_2theta_range_max        157.45
_pd_proc_2theta_range_min        7.55
_pd_proc_ls_background_function
;
manual background (visual estimation, unrefined) interpolated by 10 Legendre
 polynomials [1st: 2.0(3), 2nd: -5.2(5), 3rd: -2.1(6), 4th: 1.9(7),
 5th: -3.4(8), 6th: 2.1(9), 7th: 1.8(9), 8th: 0.8(10), 9th: 7.4(10),
 10th: 4.3(11)]
;
_pd_proc_ls_pref_orient_corr     none
_pd_proc_ls_profile_function
;
pseudo-Voigt profile according to Thompson, Cox & Hastings (1987):
 G~U~ = 251(5), G~V~ = -424.2348, G~W~ = 416(6), L~X~ = 6.4(5), L~Y~ = 0;
asymmetry correction according to Howard (1982): P = 17.9(4)
;
_pd_proc_ls_prof_R_factor        0.0268
_pd_proc_ls_prof_wR_expected     0.0176
_pd_proc_ls_prof_wR_factor       0.0359
_pd_proc_wavelength              1.594
_pd_spec_mounting                'compacted powder in vanadium can'
_pd_spec_mount_mode              transmission
_pd_spec_orientation             horizontal
_pd_spec_preparation             'grinding in an agate mortar'
_pd_spec_shape                   cylinder
_pd_spec_size_axial              49.8
_pd_spec_size_equat              13.9
_refine_diff_density_max         0.32
_refine_diff_density_min         -0.16
_refine_ls_extinction_method     none
_refine_ls_goodness_of_fit_all   2.04
_refine_ls_matrix_type           fullcycle
_refine_ls_number_constraints    0
_refine_ls_number_parameters     25
_refine_ls_number_restraints     0
_refine_ls_R_factor_all          0.0333
_refine_ls_R_factor_gt           0.0311
_refine_ls_R_I_factor            0.0520
_refine_ls_shift/su_max          0.0060
_refine_ls_shift/su_mean         0.0016
_refine_ls_structure_factor_coef Inet
_refine_ls_weighting_details     w=1/[\s^2^(I)+(0.01*I)^2^]
_refine_ls_weighting_scheme      sigma
_refine_ls_wR_factor_all         0.0414
_refine_ls_wR_factor_gt          0.0413
_reflns_number_gt                69
_reflns_number_total             73
_reflns_threshold_expression     I>3\s(I)
_cod_data_source_file            c9ra05690d2.cif
_cod_data_source_block           nd-18C
_cod_original_cell_volume        215.453(14)
_cod_original_sg_symbol_H-M      'R -3 m'
_cod_database_code               7233627
loop_
_space_group_symop_id
_space_group_symop_operation_xyz
1 x,y,z
2 -y,x-y,z
3 -x+y,-x,z
4 y,x,-z
5 x-y,-y,-z
6 -x,-x+y,-z
7 -x,-y,-z
8 y,-x+y,-z
9 x-y,x,-z
10 -y,-x,z
11 -x+y,y,z
12 x,x-y,z
13 x+2/3,y+1/3,z+1/3
14 -y+2/3,x-y+1/3,z+1/3
15 -x+y+2/3,-x+1/3,z+1/3
16 y+2/3,x+1/3,-z+1/3
17 x-y+2/3,-y+1/3,-z+1/3
18 -x+2/3,-x+y+1/3,-z+1/3
19 -x+2/3,-y+1/3,-z+1/3
20 y+2/3,-x+y+1/3,-z+1/3
21 x-y+2/3,x+1/3,-z+1/3
22 -y+2/3,-x+1/3,z+1/3
23 -x+y+2/3,y+1/3,z+1/3
24 x+2/3,x-y+1/3,z+1/3
25 x+1/3,y+2/3,z+2/3
26 -y+1/3,x-y+2/3,z+2/3
27 -x+y+1/3,-x+2/3,z+2/3
28 y+1/3,x+2/3,-z+2/3
29 x-y+1/3,-y+2/3,-z+2/3
30 -x+1/3,-x+y+2/3,-z+2/3
31 -x+1/3,-y+2/3,-z+2/3
32 y+1/3,-x+y+2/3,-z+2/3
33 x-y+1/3,x+2/3,-z+2/3
34 -y+1/3,-x+2/3,z+2/3
35 -x+y+1/3,y+2/3,z+2/3
36 x+1/3,x-y+2/3,z+2/3
loop_
_atom_site_label
_atom_site_type_symbol
_atom_site_fract_x
_atom_site_fract_y
_atom_site_fract_z
_atom_site_adp_type
_atom_site_U_iso_or_equiv
_atom_site_site_symmetry_multiplicity
_atom_site_occupancy
_atom_site_calc_flag
Ti1 Ti 0 0 0 Uiso 0.0048(4) 3 1 d
Na1 Na 0 0 0.166667 Uani 0.0300(16) 6 0.25 d
S1 S 0 0 0.40098(7) Uani 0.0061(4) 6 1 d
loop_
_atom_site_aniso_label
_atom_site_aniso_type_symbol
_atom_site_aniso_U_11
_atom_site_aniso_U_22
_atom_site_aniso_U_33
_atom_site_aniso_U_12
_atom_site_aniso_U_13
_atom_site_aniso_U_23
Na1 Na 0.0322(17) 0.0322(17) 0.025(3) 0.0161(9) 0 0
S1 S 0.0042(4) 0.0042(4) 0.0098(8) 0.00212(19) 0 0
loop_
_atom_type_symbol
_atom_type_scat_length_neutron
_atom_type_scat_source
Na 3.630 International_Tables_Vol_C
S 2.847 International_Tables_Vol_C
Ti -3.438 International_Tables_Vol_C
loop_
_geom_angle_atom_site_label_1
_geom_angle_atom_site_label_2
_geom_angle_atom_site_label_3
_geom_angle_site_symmetry_1
_geom_angle_site_symmetry_3
_geom_angle
S1 Ti1 S1 25_444 25_544 89.46(3)
S1 Ti1 S1 25_444 25_554 89.46(3)
S1 Ti1 S1 25_444 16_445 90.54(3)
S1 Ti1 S1 25_444 16_455 90.54(3)
S1 Ti1 S1 25_444 16_555 180
S1 Ti1 S1 25_544 25_554 89.46(3)
S1 Ti1 S1 25_544 16_445 90.54(3)
S1 Ti1 S1 25_544 16_455 180
S1 Ti1 S1 25_544 16_555 90.54(3)
S1 Ti1 S1 25_554 16_445 180
S1 Ti1 S1 25_554 16_455 90.54(3)
S1 Ti1 S1 25_554 16_555 90.54(3)
S1 Ti1 S1 16_445 16_455 89.46(3)
S1 Ti1 S1 16_445 16_555 89.46(3)
S1 Ti1 S1 16_455 16_555 89.46(3)
S1 Na1 S1 25_444 25_544 73.36(2)
S1 Na1 S1 25_444 25_554 73.36(2)
S1 Na1 S1 25_444 28_445 92.77(3)
S1 Na1 S1 25_444 28_545 139.649(11)
S1 Na1 S1 25_444 28_555 139.649(11)
S1 Na1 S1 25_544 25_554 73.36(2)
S1 Na1 S1 25_544 28_445 139.649(11)
S1 Na1 S1 25_544 28_545 92.77(3)
S1 Na1 S1 25_544 28_555 139.649(11)
S1 Na1 S1 25_554 28_445 139.649(11)
S1 Na1 S1 25_554 28_545 139.649(11)
S1 Na1 S1 25_554 28_555 92.77(3)
S1 Na1 S1 28_445 28_545 73.36(2)
S1 Na1 S1 28_445 28_555 73.36(2)
S1 Na1 S1 28_545 28_555 73.36(2)
loop_
_geom_bond_atom_site_label_1
_geom_bond_atom_site_label_2
_geom_bond_site_symmetry_2
_geom_bond_distance
Ti1 S1 25_444 2.4428(9)
Ti1 S1 25_544 2.4428(9)
Ti1 S1 25_554 2.4428(9)
Ti1 S1 16_445 2.4428(9)
Ti1 S1 16_455 2.4428(9)
Ti1 S1 16_555 2.4428(9)
Na1 S1 25_444 2.8779(11)
Na1 S1 25_544 2.8779(11)
Na1 S1 25_554 2.8779(11)
Na1 S1 28_445 2.8779(11)
Na1 S1 28_545 2.8779(11)
Na1 S1 28_555 2.8779(11)
loop_
_pd_proc_point_id
_pd_proc_2theta_corrected
_pd_proc_d_spacing
_pd_proc_intensity_net
_pd_calc_intensity_net
_pd_proc_ls_weight
1 7.4400 12.284096 511.22 508.45 7.42
2 7.4900 12.202209 511.32 506.47 7.39
3 7.5400 12.121408 501.10 504.50 7.33
4 7.5900 12.041672 493.22 502.52 7.25
5 7.6400 11.962981 502.50 500.55 7.29
6 7.6900 11.885313 497.71 498.58 7.24
7 7.7400 11.808650 504.32 496.60 7.28
8 7.7900 11.732972 506.97 494.63 7.27
9 7.8400 11.658259 505.15 492.65 7.27
10 7.8900 11.584496 494.44 490.68 7.19
11 7.9400 11.511662 492.47 488.71 7.16
12 7.9900 11.439739 492.81 486.73 7.18
13 8.0400 11.368713 489.27 484.76 7.13
14 8.0900 11.298564 486.78 482.79 7.12
15 8.1400 11.229278 486.23 480.82 7.10
16 8.1900 11.160840 491.41 478.84 7.12
17 8.2400 11.093231 482.43 476.87 7.12
18 8.2900 11.026440 483.50 474.90 7.06
19 8.3400 10.960449 480.50 472.93 7.04
20 8.3900 10.895247 478.45 470.95 7.03
21 8.4400 10.830818 468.24 468.98 6.94
22 8.4900 10.767148 463.25 467.01 6.92
23 8.5400 10.704224 472.33 465.04 6.97
24 8.5900 10.642033 459.27 463.53 6.88
25 8.6400 10.580563 455.84 462.34 6.84
26 8.6900 10.519801 462.35 461.14 6.89
27 8.7400 10.459735 466.78 459.94 6.95
28 8.7900 10.400352 457.85 458.75 6.87
29 8.8400 10.341642 457.43 457.55 6.85
30 8.8900 10.283594 454.75 456.36 6.82
31 8.9400 10.226195 448.85 455.16 6.79
32 8.9900 10.169436 453.22 453.97 6.83
33 9.0400 10.113305 448.46 452.77 6.76
34 9.0900 10.057791 454.52 451.58 6.82
35 9.1400 10.002887 448.92 450.39 6.78
36 9.1900 9.948580 450.52 449.19 6.76
37 9.2400 9.894861 456.55 448.00 6.83
38 9.2900 9.841722 456.32 446.81 6.82
39 9.3400 9.789151 451.59 445.62 6.80
40 9.3900 9.737142 442.79 444.43 6.71
41 9.4400 9.685683 440.66 443.23 6.68
42 9.4900 9.634768 442.99 442.04 6.71
43 9.5400 9.584387 437.49 440.85 6.67
44 9.5900 9.534533 430.20 439.66 6.61
45 9.6400 9.485195 431.46 438.48 6.63
46 9.6900 9.436368 434.01 437.29 6.66
47 9.7400 9.388042 438.15 436.10 6.68
48 9.7900 9.340212 432.62 434.91 6.63
49 9.8400 9.292867 425.33 433.72 6.60
50 9.8900 9.246001 432.60 432.54 6.61
51 9.9400 9.199609 436.34 431.35 6.65
52 9.9900 9.153680 440.98 430.17 6.68
53 10.0400 9.108210 438.58 428.98 6.70
54 10.0900 9.063190 437.78 427.80 6.71
55 10.1400 9.018616 422.36 426.62 6.57
56 10.1900 8.974480 427.54 425.44 6.57
57 10.2400 8.930775 430.05 424.26 6.61
58 10.2900 8.887495 426.55 423.08 6.57
59 10.3400 8.844635 419.08 421.90 6.52
60 10.3900 8.802187 415.99 420.98 6.48
61 10.4400 8.760147 409.75 420.05 6.44
62 10.4900 8.718509 412.43 419.12 6.47
63 10.5400 8.677265 412.56 418.20 6.46
64 10.5900 8.636412 415.55 417.28 6.48
65 10.6400 8.595943 408.23 416.36 6.43
66 10.6900 8.555854 409.55 415.45 6.44
67 10.7400 8.516137 410.35 414.53 6.46
68 10.7900 8.476790 408.38 413.62 6.44
69 10.8400 8.437807 408.88 412.71 6.45
70 10.8900 8.399181 417.74 411.80 6.54
71 10.9400 8.360910 407.94 410.90 6.44
72 10.9900 8.322988 407.43 410.01 6.42
73 11.0400 8.285409 412.43 409.11 6.47
74 11.0900 8.248169 411.21 408.23 6.46
75 11.1400 8.211264 415.16 407.34 6.48
76 11.1900 8.174690 407.85 406.47 6.48
77 11.2400 8.138442 393.18 405.65 6.34
78 11.2900 8.102515 409.58 405.03 6.47
79 11.3400 8.066905 410.08 404.42 6.47
80 11.3900 8.031609 408.82 403.82 6.46
81 11.4400 7.996622 403.03 403.24 6.41
82 11.4900 7.961940 403.76 402.68 6.42
83 11.5400 7.927559 402.26 402.14 6.40
84 11.5900 7.893475 403.93 401.66 6.39
85 11.6400 7.859684 400.18 401.25 6.37
86 11.6900 7.826183 408.17 400.97 6.44
87 11.7400 7.792967 411.85 400.89 6.47
88 11.7900 7.760034 408.91 401.12 6.43
89 11.8400 7.727379 411.81 401.83 6.53
90 11.8900 7.695000 408.92 403.24 6.45
91 11.9400 7.662893 407.99 405.59 6.42
92 11.9900 7.631053 410.24 409.17 6.44
93 12.0400 7.599479 417.91 414.29 6.53
94 12.0900 7.568166 427.95 421.21 6.62
95 12.1400 7.537112 425.86 430.13 6.57
96 12.1900 7.506313 430.18 441.11 6.62
97 12.2400 7.475766 440.30 454.00 6.69
98 12.2900 7.445467 436.99 468.51 6.66
99 12.3400 7.415415 452.91 484.19 6.76
100 12.3900 7.385606 464.89 500.55 6.85
101 12.4400 7.356038 465.95 516.98 6.85
102 12.4900 7.326706 476.25 532.91 6.93
103 12.5400 7.297608 484.96 548.01 6.99
104 12.5900 7.268743 500.79 562.42 7.10
105 12.6400 7.240106 513.81 576.60 7.19
106 12.6900 7.211695 525.05 590.74 7.28
107 12.7400 7.183508 555.99 604.46 7.46
108 12.7900 7.155541 586.14 616.66 7.66
109 12.8400 7.127793 599.04 625.63 7.75
110 12.8900 7.100260 609.66 629.34 7.85
111 12.9400 7.072941 616.49 626.03 7.86
112 12.9900 7.045833 618.49 614.65 7.86
113 13.0400 7.018932 611.72 595.21 7.82
114 13.0900 6.992239 586.08 569.05 7.71
115 13.1400 6.965747 572.54 538.69 7.58
116 13.1900 6.939459 547.07 507.11 7.42
117 13.2400 6.913368 521.93 477.02 7.24
118 13.2900 6.887475 487.70 450.42 7.03
119 13.3400 6.861775 459.83 428.38 6.80
120 13.3900 6.836268 451.08 411.19 6.74
121 13.4400 6.810952 446.81 398.47 6.72
122 13.4900 6.785824 429.26 389.48 6.61
123 13.5400 6.760881 429.39 383.34 6.59
124 13.5900 6.736123 420.29 379.21 6.52
125 13.6400 6.711546 404.56 376.41 6.42
126 13.6900 6.687150 401.39 374.42 6.41
127 13.7400 6.662931 385.48 372.92 6.24
128 13.7900 6.638889 379.20 371.70 6.19
129 13.8400 6.615021 374.16 370.63 6.15
130 13.8900 6.591324 369.22 369.64 6.16
131 13.9400 6.567800 368.12 368.72 6.20
132 13.9900 6.544442 376.36 367.82 6.17
133 14.0400 6.521252 368.74 366.96 6.10
134 14.0900 6.498226 363.10 366.11 6.05
135 14.1400 6.475364 372.48 365.29 6.12
136 14.1900 6.452664 365.44 364.47 6.07
137 14.2400 6.430123 355.87 363.67 6.01
138 14.2900 6.407741 356.26 362.88 6.06
139 14.3400 6.385514 356.47 362.10 6.07
140 14.3900 6.363443 348.74 361.33 5.99
141 14.4400 6.341526 354.48 360.56 5.97
142 14.4900 6.319759 357.88 359.80 6.01
143 14.5400 6.298143 359.16 359.05 6.04
144 14.5900 6.276675 361.00 358.30 6.02
145 14.6400 6.255354 354.99 357.55 5.97
146 14.6900 6.234179 348.93 356.81 5.93
147 14.7400 6.213149 351.88 356.08 5.96
148 14.7900 6.192261 354.93 355.34 6.01
149 14.8400 6.171513 348.90 354.61 5.96
150 14.8900 6.150906 360.86 353.88 6.06
151 14.9400 6.130437 346.78 353.28 5.94
152 14.9900 6.110105 347.22 352.75 5.93
153 15.0400 6.089908 342.18 352.23 5.91
154 15.0900 6.069845 347.44 351.71 5.92
155 15.1400 6.049915 345.46 351.19 5.92
156 15.1900 6.030118 347.61 350.68 5.92
157 15.2400 6.010450 352.92 350.16 5.97
158 15.2900 5.990912 350.76 349.65 5.98
159 15.3400 5.971501 357.46 349.14 6.03
160 15.3900 5.952216 363.17 348.62 6.07
161 15.4400 5.933057 348.18 348.11 5.99
162 15.4900 5.914022 342.62 347.60 5.89
163 15.5400 5.895110 353.75 347.10 5.96
164 15.5900 5.876319 347.98 346.59 5.93
165 15.6400 5.857649 348.09 346.08 5.94
166 15.6900 5.839099 341.61 345.58 5.87
167 15.7400 5.820667 344.16 345.07 5.89
168 15.7900 5.802351 344.01 344.57 5.91
169 15.8400 5.784152 335.64 344.06 5.81
170 15.8900 5.766068 334.01 343.56 5.79
171 15.9400 5.748097 333.98 343.06 5.80
172 15.9900 5.730239 335.64 342.56 5.86
173 16.0400 5.712493 335.76 342.05 5.89
174 16.0900 5.694858 336.50 341.55 5.86
175 16.1400 5.677332 338.11 341.05 5.89
176 16.1900 5.659914 334.57 340.55 5.93
177 16.2400 5.642605 334.87 340.05 5.86
178 16.2900 5.625402 344.49 339.62 5.91
179 16.3400 5.608305 334.68 339.20 5.84
180 16.3900 5.591312 343.17 338.78 5.90
181 16.4400 5.574424 334.74 338.37 5.84
182 16.4900 5.557638 331.46 337.95 5.81
183 16.5400 5.540953 336.19 337.53 5.86
184 16.5900 5.524370 344.00 337.12 6.05
185 16.6400 5.507886 335.10 336.72 5.86
186 16.6900 5.491502 330.89 336.31 5.80
187 16.7400 5.475216 329.51 335.89 5.76
188 16.7900 5.459027 332.98 335.48 5.80
189 16.8400 5.442935 334.62 335.06 5.81
190 16.8900 5.426939 333.35 334.65 5.80
191 16.9400 5.411037 331.08 334.23 5.79
192 16.9900 5.395229 332.10 333.82 5.81
193 17.0400 5.379514 333.33 333.41 5.78
194 17.0900 5.363892 332.32 332.99 5.78
195 17.1400 5.348361 332.09 332.58 5.79
196 17.1900 5.332921 334.79 332.17 5.83
197 17.2400 5.317571 332.08 331.76 5.85
198 17.2900 5.302309 337.79 331.34 5.86
199 17.3400 5.287136 336.60 330.93 5.87
200 17.3900 5.272051 329.24 330.52 5.81
201 17.4400 5.257053 324.14 330.11 5.70
202 17.4900 5.242140 318.48 329.69 5.68
203 17.5400 5.227313 323.41 329.28 5.72
204 17.5900 5.212571 326.99 328.87 5.76
205 17.6400 5.197913 321.62 328.46 5.72
206 17.6900 5.183337 323.09 328.05 5.72
207 17.7400 5.168844 330.41 327.64 5.81
208 17.7900 5.154433 329.74 327.23 5.80
209 17.8400 5.140103 322.46 326.82 5.73
210 17.8900 5.125854 323.23 326.41 5.69
211 17.9400 5.111684 319.44 326.03 5.69
212 17.9900 5.097594 320.51 325.64 5.71
213 18.0400 5.083581 333.34 325.26 5.80
214 18.0900 5.069647 321.13 324.88 5.71
215 18.1400 5.055790 313.10 324.50 5.61
216 18.1900 5.042009 320.78 324.12 5.71
217 18.2400 5.028305 319.26 323.74 5.76
218 18.2900 5.014675 320.57 323.36 5.74
219 18.3400 5.001120 322.54 322.98 5.70
220 18.3900 4.987639 320.73 322.60 5.72
221 18.4400 4.974231 322.84 322.22 5.76
222 18.4900 4.960896 320.73 321.84 5.68
223 18.5400 4.947634 316.49 321.46 5.66
224 18.5900 4.934444 321.91 321.08 5.69
225 18.6400 4.921324 320.10 320.70 5.76
226 18.6900 4.908275 315.37 320.33 5.68
227 18.7400 4.895296 315.81 319.95 5.66
228 18.7900 4.882386 318.46 319.57 5.69
229 18.8400 4.869545 322.72 319.19 5.71
230 18.8900 4.856772 309.92 318.81 5.61
231 18.9400 4.844067 313.73 318.43 5.65
232 18.9900 4.831429 313.31 318.05 5.74
233 19.0400 4.818858 315.40 317.67 5.72
234 19.0900 4.806354 311.56 317.54 5.61
235 19.1400 4.793914 321.83 317.41 5.73
236 19.1900 4.781540 324.51 317.27 5.77
237 19.2400 4.769230 313.06 317.14 5.68
238 19.2900 4.756985 312.54 317.01 5.65
239 19.3400 4.744803 319.63 316.88 5.68
240 19.3900 4.732685 309.07 316.74 5.57
241 19.4400 4.720628 311.40 316.61 5.66
242 19.4900 4.708635 301.18 316.48 5.52
243 19.5400 4.696702 312.08 316.35 5.61
244 19.5900 4.684832 302.59 316.21 5.62
245 19.6400 4.673021 311.30 316.08 5.65
246 19.6900 4.661272 310.93 315.95 5.65
247 19.7400 4.649581 314.09 315.82 5.70
248 19.7900 4.637950 319.21 315.68 5.68
249 19.8400 4.626379 318.09 315.55 5.69
250 19.8900 4.614866 316.86 315.42 5.67
251 19.9400 4.603410 317.24 315.29 5.72
252 19.9900 4.592013 314.78 315.16 5.66
253 20.0400 4.580672 313.63 315.02 5.66
254 20.0900 4.569388 318.52 314.89 5.70
255 20.1400 4.558161 322.23 314.76 5.71
256 20.1900 4.546989 316.89 314.63 5.69
257 20.2400 4.535873 322.33 314.50 5.78
258 20.2900 4.524812 316.39 314.37 5.67
259 20.3400 4.513806 324.71 314.24 5.73
260 20.3900 4.502854 335.73 314.11 5.84
261 20.4400 4.491956 331.21 313.97 5.80
262 20.4900 4.481111 330.50 313.84 5.80
263 20.5400 4.470320 327.36 313.71 5.78
264 20.5900 4.459580 336.77 313.58 5.82
265 20.6400 4.448895 329.18 313.45 5.79
266 20.6900 4.438259 323.46 313.32 5.76
267 20.7400 4.427676 329.13 313.19 5.79
268 20.7900 4.417144 327.09 313.06 5.76
269 20.8400 4.406663 330.29 312.93 5.77
270 20.8900 4.396233 322.94 312.80 5.71
271 20.9400 4.385852 326.86 312.67 5.75
272 20.9900 4.375521 324.27 312.54 5.73
273 21.0400 4.365240 310.87 312.41 5.61
274 21.0900 4.355008 319.52 312.28 5.67
275 21.1400 4.344824 314.36 312.15 5.62
276 21.1900 4.334689 311.42 312.02 5.64
277 21.2400 4.324601 315.78 311.89 5.66
278 21.2900 4.314561 320.39 311.76 5.70
279 21.3400 4.304569 314.22 311.63 5.65
280 21.3900 4.294624 307.65 311.50 5.61
281 21.4400 4.284725 312.03 311.37 5.62
282 21.4900 4.274873 321.24 311.24 5.72
283 21.5400 4.265066 308.50 311.11 5.57
284 21.5900 4.255306 312.26 310.99 5.61
285 21.6400 4.245591 311.50 310.86 5.61
286 21.6900 4.235920 309.68 310.73 5.58
287 21.7400 4.226295 318.02 310.60 5.66
288 21.7900 4.216713 307.35 310.47 5.55
289 21.8400 4.207177 318.56 310.34 5.68
290 21.8900 4.197684 307.91 310.21 5.61
291 21.9400 4.188234 317.45 310.09 5.71
292 21.9900 4.178828 320.64 310.03 5.68
293 22.0400 4.169465 313.88 309.90 5.62
294 22.0900 4.160144 313.02 309.78 5.61
295 22.1400 4.150866 308.51 309.65 5.60
296 22.1900 4.141629 311.01 309.52 5.62
297 22.2400 4.132435 310.95 309.40 5.62
298 22.2900 4.123282 311.53 309.27 5.61
299 22.3400 4.114171 313.64 309.14 5.61
300 22.3900 4.105100 308.23 309.02 5.59
301 22.4400 4.096070 301.74 308.89 5.58
302 22.4900 4.087080 311.08 308.77 5.62
303 22.5400 4.078131 311.20 308.64 5.62
304 22.5900 4.069221 309.18 308.52 5.64
305 22.6400 4.060351 312.93 308.39 5.61
306 22.6900 4.051520 310.34 308.27 5.58
307 22.7400 4.042729 311.37 308.14 5.59
308 22.7900 4.033977 308.29 308.02 5.59
309 22.8400 4.025262 309.41 307.86 5.58
310 22.8900 4.016587 301.88 307.74 5.53
311 22.9400 4.007949 302.46 307.62 5.56
312 22.9900 3.999349 306.17 307.50 5.55
313 23.0400 3.990787 311.69 307.38 5.61
314 23.0900 3.982262 309.85 307.26 5.60
315 23.1400 3.973774 304.14 307.14 5.57
316 23.1900 3.965323 307.24 307.02 5.55
317 23.2400 3.956909 298.83 306.89 5.50
318 23.2900 3.948531 295.72 306.77 5.45
319 23.3400 3.940189 302.29 306.65 5.55
320 23.3900 3.931883 304.84 306.54 5.62
321 23.4400 3.923613 299.59 306.42 5.51
322 23.4900 3.915378 300.64 306.30 5.51
323 23.5400 3.907179 302.27 306.18 5.51
324 23.5900 3.899014 299.64 306.07 5.49
325 23.6400 3.890885 300.23 305.95 5.49
326 23.6900 3.882790 307.41 305.83 5.56
327 23.7400 3.874729 300.55 305.72 5.53
328 23.7900 3.866702 306.30 305.61 5.59
329 23.8400 3.858709 294.64 305.49 5.51
330 23.8900 3.850751 296.47 305.38 5.51
331 23.9400 3.842825 299.28 305.27 5.51
332 23.9900 3.834933 301.51 305.16 5.55
333 24.0400 3.827074 302.50 305.04 5.52
334 24.0900 3.819247 300.65 304.93 5.50
335 24.1400 3.811454 290.45 304.82 5.43
336 24.1900 3.803692 295.16 304.71 5.46
337 24.2400 3.795964 307.29 304.61 5.61
338 24.2900 3.788267 297.40 304.50 5.58
339 24.3400 3.780602 303.45 304.40 5.59
340 24.3900 3.772969 309.17 304.30 5.59
341 24.4400 3.765367 306.81 304.21 5.58
342 24.4900 3.757796 301.85 304.12 5.55
343 24.5400 3.750257 301.23 304.03 5.56
344 24.5900 3.742748 300.93 303.95 5.53
345 24.6400 3.735271 298.84 303.87 5.49
346 24.6900 3.727823 302.22 303.80 5.57
347 24.7400 3.720406 296.12 303.74 5.47
348 24.7900 3.713020 302.70 303.69 5.62
349 24.8400 3.705663 302.53 303.64 5.63
350 24.8900 3.698336 308.12 303.61 5.68
351 24.9400 3.691038 302.83 303.59 5.59
352 24.9900 3.683770 298.88 303.59 5.53
353 25.0400 3.676532 303.98 303.60 5.60
354 25.0900 3.669322 302.17 303.64 5.58
355 25.1400 3.662142 305.25 303.72 5.55
356 25.1900 3.654989 307.76 303.85 5.58
357 25.2400 3.647866 306.55 304.06 5.55
358 25.2900 3.640771 311.72 304.42 5.60
359 25.3400 3.633704 309.83 305.05 5.64
360 25.3900 3.626666 309.76 306.10 5.64
361 25.4400 3.619655 312.66 307.85 5.62
362 25.4900 3.612672 322.37 310.65 5.70
363 25.5400 3.605717 319.15 314.98 5.74
364 25.5900 3.598789 332.44 321.37 5.81
365 25.6400 3.591888 338.73 330.39 5.88
366 25.6900 3.585014 349.86 342.62 5.97
367 25.7400 3.578168 353.03 358.59 6.02
368 25.7900 3.571348 379.42 378.68 6.18
369 25.8400 3.564554 394.99 403.03 6.30
370 25.8900 3.557788 415.54 431.27 6.46
371 25.9400 3.551047 443.22 462.51 6.69
372 25.9900 3.544333 481.94 495.14 6.96
373 26.0400 3.537644 518.10 526.60 7.21
374 26.0900 3.530982 540.69 553.22 7.36
375 26.1400 3.524345 556.85 570.51 7.48
376 26.1900 3.517734 573.42 574.42 7.58
377 26.2400 3.511148 568.31 563.17 7.55
378 26.2900 3.504588 551.56 538.22 7.47
379 26.3400 3.498052 531.41 503.62 7.30
380 26.3900 3.491542 483.90 464.55 6.97
381 26.4400 3.485056 450.31 425.89 6.72
382 26.4900 3.478596 407.21 391.30 6.43
383 26.5400 3.472159 384.59 362.90 6.28
384 26.5900 3.465748 365.88 341.29 6.08
385 26.6400 3.459360 347.65 326.02 5.91
386 26.6900 3.452997 332.60 315.76 5.78
387 26.7400 3.446657 324.23 309.24 5.74
388 26.7900 3.440342 313.15 305.26 5.64
389 26.8400 3.434050 312.78 302.86 5.63
390 26.8900 3.427782 309.48 301.39 5.66
391 26.9400 3.421538 310.53 300.43 5.61
392 26.9900 3.415317 308.98 299.76 5.59
393 27.0400 3.409118 308.27 299.23 5.58
394 27.0900 3.402944 300.84 298.80 5.51
395 27.1400 3.396792 306.50 298.42 5.56
396 27.1900 3.390663 313.87 298.08 5.67
397 27.2400 3.384557 312.74 297.77 5.63
398 27.2900 3.378473 314.88 297.48 5.63
399 27.3400 3.372411 311.70 297.21 5.60
400 27.3900 3.366373 312.15 296.96 5.65
401 27.4400 3.360356 314.85 296.72 5.64
402 27.4900 3.354361 313.67 296.49 5.62
403 27.5400 3.348388 319.33 296.27 5.72
404 27.5900 3.342438 330.42 296.07 5.78
405 27.6400 3.336509 324.39 295.87 5.74
406 27.6900 3.330601 314.27 295.67 5.68
407 27.7400 3.324716 307.04 295.49 5.59
408 27.7900 3.318851 297.35 295.31 5.50
409 27.8400 3.313008 304.71 295.13 5.56
410 27.8900 3.307186 300.71 294.96 5.55
411 27.9400 3.301385 301.21 294.80 5.57
412 27.9900 3.295605 299.84 294.63 5.52
413 28.0400 3.289846 295.44 294.48 5.47
414 28.0900 3.284107 301.21 294.32 5.51
415 28.1400 3.278390 293.49 294.17 5.44
416 28.1900 3.272692 285.83 294.02 5.42
417 28.2400 3.267015 288.83 293.87 5.41
418 28.2900 3.261359 296.50 293.73 5.46
419 28.3400 3.255722 288.73 293.59 5.40
420 28.3900 3.250106 290.83 293.45 5.51
421 28.4400 3.244509 301.38 293.32 5.60
422 28.4900 3.238933 293.45 293.18 5.44
423 28.5400 3.233376 295.27 293.05 5.49
424 28.5900 3.227839 281.94 292.93 5.46
425 28.6400 3.222321 279.95 292.80 5.35
426 28.6900 3.216823 292.68 292.68 5.43
427 28.7400 3.211344 300.81 292.56 5.54
428 28.7900 3.205884 291.27 292.45 5.46
429 28.8400 3.200444 290.93 292.33 5.41
430 28.8900 3.195022 289.90 292.23 5.43
431 28.9400 3.189620 287.18 292.12 5.39
432 28.9900 3.184236 290.98 292.02 5.44
433 29.0400 3.178871 284.55 291.92 5.37
434 29.0900 3.173525 278.88 291.83 5.30
435 29.1400 3.168197 278.63 291.73 5.32
436 29.1900 3.162888 276.58 291.66 5.31
437 29.2400 3.157597 285.99 291.58 5.38
438 29.2900 3.152324 280.32 291.51 5.35
439 29.3400 3.147070 279.52 291.44 5.38
440 29.3900 3.141834 277.50 291.38 5.33
441 29.4400 3.136615 282.73 291.33 5.35
442 29.4900 3.131415 277.12 291.29 5.28
443 29.5400 3.126232 286.24 291.25 5.44
444 29.5900 3.121067 272.62 291.23 5.31
445 29.6400 3.115920 285.98 291.39 5.42
446 29.6900 3.110790 276.15 291.56 5.32
447 29.7400 3.105678 279.31 291.75 5.34
448 29.7900 3.100583 279.23 291.95 5.35
449 29.8400 3.095505 279.95 292.18 5.32
450 29.8900 3.090445 279.21 292.42 5.35
451 29.9400 3.085401 285.52 292.69 5.41
452 29.9900 3.080375 294.02 292.99 5.43
453 30.0400 3.075365 290.87 293.33 5.42
454 30.0900 3.070373 278.48 293.70 5.30
455 30.1400 3.065397 286.17 294.12 5.36
456 30.1900 3.060438 283.60 294.59 5.37
457 30.2400 3.055496 281.55 295.14 5.32
458 30.2900 3.050569 295.64 295.78 5.47
459 30.3400 3.045660 292.05 296.54 5.49
460 30.3900 3.040766 295.66 297.52 5.47
461 30.4400 3.035890 299.58 298.83 5.51
462 30.4900 3.031029 308.58 300.75 5.57
463 30.5400 3.026184 310.67 303.70 5.62
464 30.5900 3.021356 315.73 308.42 5.69
465 30.6400 3.016543 331.70 316.00 5.81
466 30.6900 3.011746 352.20 328.00 5.96
467 30.7400 3.006965 370.41 346.43 6.11
468 30.7900 3.002200 402.72 373.72 6.37
469 30.8400 2.997451 432.25 412.50 6.61
470 30.8900 2.992717 463.78 465.14 6.82
471 30.9400 2.987998 520.17 533.28 7.23
472 30.9900 2.983295 594.38 616.80 7.73
473 31.0400 2.978607 682.43 712.86 8.27
474 31.0900 2.973935 794.94 815.49 8.93
475 31.1400 2.969278 901.81 915.81 9.51
476 31.1900 2.964635 1000.50 1002.45 10.02
477 31.2400 2.960008 1068.90 1062.28 10.36
478 31.2900 2.955396 1102.70 1082.79 10.52
479 31.3400 2.950799 1083.16 1057.31 10.42
480 31.3900 2.946217 1019.83 989.02 10.12
481 31.4400 2.941649 925.51 890.03 9.64
482 31.4900 2.937096 824.55 776.42 9.10
483 31.5400 2.932558 698.73 663.52 8.37
484 31.5900 2.928034 587.32 562.91 7.68
485 31.6400 2.923525 506.36 481.31 7.13
486 31.6900 2.919030 437.29 420.82 6.63
487 31.7400 2.914550 392.70 380.05 6.28
488 31.7900 2.910084 362.34 355.72 6.05
489 31.8400 2.905632 346.06 343.98 5.96
490 31.8900 2.901194 343.85 341.30 5.92
491 31.9400 2.896770 343.34 344.82 5.93
492 31.9900 2.892361 339.13 352.23 5.84
493 32.0400 2.887965 354.23 361.58 5.96
494 32.0900 2.883583 351.83 371.13 5.97
495 32.1400 2.879215 369.24 379.18 6.09
496 32.1900 2.874861 379.74 384.04 6.17
497 32.2400 2.870520 374.75 384.36 6.13
498 32.2900 2.866193 368.61 379.59 6.08
499 32.3400 2.861880 360.80 370.40 6.02
500 32.3900 2.857580 353.76 358.29 5.98
501 32.4400 2.853294 334.30 345.10 5.79
502 32.4900 2.849021 327.83 332.43 5.74
503 32.5400 2.844761 318.81 321.40 5.67
504 32.5900 2.840515 304.99 312.58 5.55
505 32.6400 2.836282 299.91 306.05 5.52
506 32.6900 2.832062 296.86 301.52 5.54
507 32.7400 2.827854 292.69 298.56 5.47
508 32.7900 2.823660 289.27 296.71 5.49
509 32.8400 2.819479 283.00 295.59 5.41
510 32.8900 2.815311 285.29 294.90 5.38
511 32.9400 2.811156 280.53 294.47 5.36
512 32.9900 2.807013 283.34 294.17 5.36
513 33.0400 2.802883 292.82 293.96 5.43
514 33.0900 2.798766 289.07 293.80 5.51
515 33.1400 2.794662 290.99 293.67 5.43
516 33.1900 2.790570 286.93 293.56 5.38
517 33.2400 2.786490 298.46 293.47 5.49
518 33.2900 2.782423 295.64 293.40 5.45
519 33.3400 2.778369 307.01 293.35 5.56
520 33.3900 2.774327 296.33 293.31 5.50
521 33.4400 2.770296 296.71 293.28 5.46
522 33.4900 2.766278 295.67 293.27 5.46
523 33.5400 2.762273 304.33 293.26 5.61
524 33.5900 2.758279 284.69 293.27 5.49
525 33.6400 2.754298 287.80 293.29 5.41
526 33.6900 2.750329 285.32 293.31 5.39
527 33.7400 2.746371 290.20 293.35 5.42
528 33.7900 2.742425 285.37 293.40 5.36
529 33.8400 2.738491 293.02 293.46 5.44
530 33.8900 2.734569 292.73 293.53 5.55
531 33.9400 2.730659 285.19 293.62 5.38
532 33.9900 2.726760 288.51 293.71 5.41
533 34.0400 2.722873 292.74 293.82 5.49
534 34.0900 2.718998 288.91 293.95 5.49
535 34.1400 2.715134 288.85 294.09 5.43
536 34.1900 2.711282 288.24 294.25 5.38
537 34.2400 2.707441 294.45 294.43 5.46
538 34.2900 2.703611 285.90 294.63 5.40
539 34.3400 2.699793 278.71 294.86 5.33
540 34.3900 2.695986 285.61 295.06 5.45
541 34.4400 2.692190 282.47 295.27 5.35
542 34.4900 2.688406 285.04 295.51 5.36
543 34.5400 2.684632 280.95 295.80 5.36
544 34.5900 2.680870 282.26 296.13 5.35
545 34.6400 2.677119 286.08 296.52 5.42
546 34.6900 2.673378 283.77 296.99 5.36
547 34.7400 2.669649 290.35 297.53 5.41
548 34.7900 2.665931 287.32 298.19 5.38
549 34.8400 2.662223 296.28 299.01 5.47
550 34.8900 2.658526 298.13 300.05 5.53
551 34.9400 2.654840 305.24 301.48 5.54
552 34.9900 2.651165 307.33 303.59 5.57
553 35.0400 2.647500 321.02 306.90 5.74
554 35.0900 2.643846 328.61 312.31 5.75
555 35.1400 2.640203 344.78 321.28 5.98
556 35.1900 2.636570 356.01 335.95 6.05
557 35.2400 2.632947 379.86 359.23 6.22
558 35.2900 2.629335 413.13 394.75 6.44
559 35.3400 2.625734 460.94 446.41 6.80
560 35.3900 2.622143 527.08 517.70 7.28
561 35.4400 2.618562 603.71 610.43 7.78
562 35.4900 2.614991 703.47 723.22 8.40
563 35.5400 2.611430 824.26 850.11 9.10
564 35.5900 2.607880 963.12 980.09 9.84
565 35.6400 2.604340 1087.60 1098.42 10.46
566 35.6900 2.600810 1182.00 1188.12 10.89
567 35.7400 2.597290 1215.29 1232.45 11.05
568 35.7900 2.593780 1213.29 1219.96 11.03
569 35.8400 2.590280 1137.17 1150.82 10.68
570 35.8900 2.586790 1018.45 1037.98 10.11
571 35.9400 2.583309 885.08 901.49 9.42
572 35.9900 2.579839 747.64 761.54 8.66
573 36.0400 2.576378 630.25 633.91 7.95
574 36.0900 2.572928 532.79 528.17 7.31
575 36.1400 2.569487 446.21 447.65 6.75
576 36.1900 2.566055 399.71 390.83 6.34
577 36.2400 2.562633 363.63 353.42 6.04
578 36.2900 2.559221 339.87 330.20 5.85
579 36.3400 2.555819 320.08 316.44 5.67
580 36.3900 2.552425 300.15 308.46 5.56
581 36.4400 2.549042 299.74 303.80 5.50
582 36.4900 2.545668 284.33 300.93 5.38
583 36.5400 2.542303 296.90 299.01 5.49
584 36.5900 2.538948 294.70 297.60 5.46
585 36.6400 2.535601 286.67 296.49 5.40
586 36.6900 2.532265 290.01 295.57 5.40
587 36.7400 2.528937 287.25 294.78 5.41
588 36.7900 2.525619 283.64 294.10 5.39
589 36.8400 2.522310 283.06 293.50 5.37
590 36.8900 2.519010 289.83 292.98 5.39
591 36.9400 2.515719 286.93 292.52 5.37
592 36.9900 2.512437 293.44 292.11 5.47
593 37.0400 2.509164 288.21 291.75 5.42
594 37.0900 2.505900 286.34 291.43 5.43
595 37.1400 2.502645 291.09 291.15 5.45
596 37.1900 2.499399 292.40 290.90 5.43
597 37.2400 2.496162 295.07 290.69 5.47
598 37.2900 2.492934 291.39 290.52 5.43
599 37.3400 2.489715 295.13 290.39 5.44
600 37.3900 2.486504 292.04 290.30 5.47
601 37.4400 2.483302 287.44 290.28 5.40
602 37.4900 2.480109 292.49 290.37 5.44
603 37.5400 2.476925 287.92 290.65 5.39
604 37.5900 2.473749 286.37 291.24 5.38
605 37.6400 2.470582 288.56 292.36 5.38
606 37.6900 2.467423 289.67 294.29 5.40
607 37.7400 2.464272 291.75 297.42 5.46
608 37.7900 2.461131 296.71 302.23 5.48
609 37.8400 2.457998 292.12 309.16 5.46
610 37.8900 2.454873 303.51 318.52 5.55
611 37.9400 2.451757 316.64 330.32 5.64
612 37.9900 2.448649 334.50 344.04 5.79
613 38.0400 2.445549 346.64 358.57 5.90
614 38.0900 2.442458 367.59 372.26 6.09
615 38.1400 2.439375 376.83 383.15 6.19
616 38.1900 2.436300 392.01 389.29 6.29
617 38.2400 2.433233 385.40 389.20 6.22
618 38.2900 2.430175 370.98 382.64 6.11
619 38.3400 2.427125 351.50 370.83 5.96
620 38.3900 2.424082 342.15 356.00 5.87
621 38.4400 2.421048 327.29 340.47 5.82
622 38.4900 2.418022 310.68 326.12 5.61
623 38.5400 2.415004 305.88 314.11 5.54
624 38.5900 2.411994 288.52 304.92 5.44
625 38.6400 2.408992 288.53 298.43 5.44
626 38.6900 2.405998 285.40 294.17 5.39
627 38.7400 2.403011 274.12 291.57 5.34
628 38.7900 2.400033 279.91 290.08 5.32
629 38.8400 2.397062 281.07 289.31 5.34
630 38.8900 2.394099 277.07 288.95 5.27
631 38.9400 2.391144 277.47 288.88 5.29
632 38.9900 2.388196 282.26 288.88 5.36
633 39.0400 2.385257 279.05 289.12 5.32
634 39.0900 2.382325 277.63 289.70 5.29
635 39.1400 2.379401 282.78 290.87 5.33
636 39.1900 2.376484 285.02 293.04 5.40
637 39.2400 2.373575 290.73 296.90 5.40
638 39.2900 2.370674 306.61 303.43 5.55
639 39.3400 2.367779 318.86 313.89 5.66
640 39.3900 2.364893 336.06 329.74 5.83
641 39.4400 2.362014 352.85 352.35 5.95
642 39.4900 2.359143 372.60 382.53 6.13
643 39.5400 2.356278 413.25 419.95 6.44
644 39.5900 2.353422 458.94 462.55 6.79
645 39.6400 2.350573 523.97 506.36 7.25
646 39.6900 2.347731 552.27 545.86 7.46
647 39.7400 2.344896 592.81 574.88 7.72
648 39.7900 2.342068 603.34 587.68 7.78
649 39.8400 2.339248 594.74 580.78 7.73
650 39.8900 2.336435 561.24 555.02 7.60
651 39.9400 2.333630 530.47 515.52 7.46
652 39.9900 2.330831 482.91 469.41 7.16
653 40.0400 2.328040 427.26 423.45 6.76
654 40.0900 2.325255 375.64 382.59 6.38
655 40.1400 2.322478 341.12 349.55 6.10
656 40.1900 2.319708 327.77 324.98 5.99
657 40.2400 2.316945 312.94 308.03 5.89
658 40.2900 2.314189 307.17 297.07 5.84
659 40.3400 2.311440 297.28 290.35 5.78
660 40.3900 2.308697 295.05 286.35 5.77
661 40.4400 2.305962 299.30 283.96 5.79
662 40.4900 2.303234 294.05 282.39 5.77
663 40.5400 2.300513 293.05 281.38 5.77
664 40.5900 2.297798 286.81 280.61 5.67
665 40.6400 2.295090 299.08 279.98 5.78
666 40.6900 2.292390 286.75 279.43 5.69
667 40.7400 2.289695 293.20 278.94 5.77
668 40.7900 2.287008 288.46 278.49 5.70
669 40.8400 2.284328 280.74 278.07 5.60
670 40.8900 2.281653 279.44 277.68 5.61
671 40.9400 2.278986 270.81 277.30 5.51
672 40.9900 2.276326 267.40 276.95 5.47
673 41.0400 2.273672 269.64 276.61 5.53
674 41.0900 2.271024 269.18 276.29 5.53
675 41.1400 2.268384 261.80 275.98 5.47
676 41.1900 2.265750 265.36 275.67 5.47
677 41.2400 2.263122 273.97 275.38 5.58
678 41.2900 2.260501 265.48 275.09 5.51
679 41.3400 2.257886 260.38 274.81 5.40
680 41.3900 2.255278 268.70 274.53 5.54
681 41.4400 2.252676 267.35 274.26 5.49
682 41.4900 2.250081 268.93 274.00 5.50
683 41.5400 2.247492 264.63 273.74 5.45
684 41.5900 2.244910 261.23 273.68 5.43
685 41.6400 2.242334 262.29 273.62 5.43
686 41.6900 2.239764 276.19 273.57 5.60
687 41.7400 2.237200 265.04 273.52 5.45
688 41.7900 2.234643 267.16 273.48 5.46
689 41.8400 2.232092 271.55 273.43 5.51
690 41.8900 2.229548 262.59 273.39 5.45
691 41.9400 2.227009 264.99 273.35 5.48
692 41.9900 2.224477 269.27 273.31 5.50
693 42.0400 2.221951 268.22 273.28 5.49
694 42.0900 2.219431 268.30 273.24 5.49
695 42.1400 2.216917 270.08 273.21 5.52
696 42.1900 2.214409 268.53 273.17 5.49
697 42.2400 2.211908 277.09 273.14 5.56
698 42.2900 2.209412 280.67 273.11 5.62
699 42.3400 2.206923 271.97 273.08 5.52
700 42.3900 2.204439 278.31 273.05 5.57
701 42.4400 2.201962 284.24 273.03 5.63
702 42.4900 2.199490 289.19 273.00 5.79
703 42.5400 2.197025 285.81 272.97 5.69
704 42.5900 2.194565 302.56 272.95 5.85
705 42.6400 2.192111 308.17 272.92 5.87
706 42.6900 2.189664 305.34 272.90 5.84
707 42.7400 2.187222 303.17 272.88 5.85
708 42.7900 2.184785 307.29 272.86 5.88
709 42.8400 2.182355 298.94 272.84 5.85
710 42.8900 2.179931 301.89 272.82 5.82
711 42.9400 2.177512 294.31 272.80 5.76
712 42.9900 2.175099 296.86 272.78 5.76
713 43.0400 2.172692 295.74 272.76 5.77
714 43.0900 2.170291 292.41 272.74 5.74
715 43.1400 2.167895 283.97 272.73 5.69
716 43.1900 2.165505 281.89 272.72 5.64
717 43.2400 2.163121 272.85 272.71 5.61
718 43.2900 2.160742 277.18 272.70 5.64
719 43.3400 2.158370 279.26 272.70 5.71
720 43.3900 2.156002 283.45 272.70 5.67
721 43.4400 2.153641 281.87 272.72 5.64
722 43.4900 2.151284 292.02 272.75 5.71
723 43.5400 2.148933 290.64 272.80 5.70
724 43.5900 2.146589 288.94 272.88 5.69
725 43.6400 2.144249 300.18 273.01 5.80
726 43.6900 2.141915 297.75 273.19 5.77
727 43.7400 2.139586 297.42 273.47 5.77
728 43.7900 2.137263 291.94 273.87 5.72
729 43.8400 2.134945 281.86 274.42 5.63
730 43.8900 2.132633 291.67 275.17 5.71
731 43.9400 2.130327 280.03 276.14 5.62
732 43.9900 2.128025 290.61 277.33 5.72
733 44.0400 2.125729 290.58 278.73 5.72
734 44.0900 2.123438 295.89 280.29 5.79
735 44.1400 2.121153 291.42 281.97 5.74
736 44.1900 2.118873 300.02 283.70 5.81
737 44.2400 2.116598 295.24 285.46 5.78
738 44.2900 2.114328 304.03 287.27 5.85
739 44.3400 2.112064 305.45 289.18 5.90
740 44.3900 2.109805 301.17 291.29 5.80
741 44.4400 2.107552 305.85 293.66 5.85
742 44.4900 2.105303 303.50 296.35 5.84
743 44.5400 2.103060 313.67 299.34 5.93
744 44.5900 2.100821 319.01 302.58 5.97
745 44.6400 2.098588 320.57 306.00 5.98
746 44.6900 2.096361 322.08 309.49 6.01
747 44.7400 2.094138 320.05 312.94 6.01
748 44.7900 2.091920 319.18 316.14 5.97
749 44.8400 2.089708 317.74 319.15 5.96
750 44.8900 2.087500 310.42 321.77 5.95
751 44.9400 2.085298 313.34 323.92 5.93
752 44.9900 2.083100 321.26 325.50 6.05
753 45.0400 2.080908 327.10 326.46 6.05
754 45.0900 2.078720 329.47 326.76 6.17
755 45.1400 2.076538 326.92 326.38 6.10
756 45.1900 2.074361 325.82 325.34 6.04
757 45.2400 2.072188 315.40 323.68 5.94
758 45.2900 2.070021 313.06 321.45 5.91
759 45.3400 2.067858 314.03 318.75 5.92
760 45.3900 2.065701 320.14 315.65 6.01
761 45.4400 2.063548 309.82 312.26 5.93
762 45.4900 2.061400 307.84 308.68 5.93
763 45.5400 2.059257 303.29 305.01 5.86
764 45.5900 2.057118 299.68 301.35 5.81
765 45.6400 2.054985 291.23 297.77 5.71
766 45.6900 2.052857 283.52 294.34 5.64
767 45.7400 2.050733 286.21 291.13 5.67
768 45.7900 2.048614 281.64 288.17 5.60
769 45.8400 2.046499 273.81 285.50 5.53
770 45.8900 2.044390 261.11 283.11 5.44
771 45.9400 2.042285 267.52 281.03 5.48
772 45.9900 2.040185 268.84 279.22 5.57
773 46.0400 2.038090 262.09 277.69 5.45
774 46.0900 2.035999 270.24 276.41 5.54
775 46.1400 2.033913 261.87 275.35 5.45
776 46.1900 2.031832 264.80 274.49 5.47
777 46.2400 2.029755 268.43 273.80 5.49
778 46.2900 2.027683 271.26 273.20 5.52
779 46.3400 2.025616 262.28 272.71 5.47
780 46.3900 2.023553 263.28 272.32 5.46
781 46.4400 2.021495 269.81 272.01 5.50
782 46.4900 2.019441 262.88 271.77 5.47
783 46.5400 2.017392 264.09 271.58 5.47
784 46.5900 2.015347 263.60 271.43 5.49
785 46.6400 2.013307 264.19 271.31 5.54
786 46.6900 2.011272 255.55 271.21 5.37
787 46.7400 2.009240 268.90 271.15 5.47
788 46.7900 2.007214 277.65 271.11 5.57
789 46.8400 2.005192 261.99 271.08 5.44
790 46.8900 2.003174 269.35 271.08 5.54
791 46.9400 2.001161 269.41 271.13 5.50
792 46.9900 1.999152 269.44 271.26 5.52
793 47.0400 1.997148 268.62 271.52 5.56
794 47.0900 1.995148 268.70 272.05 5.48
795 47.1400 1.993152 278.27 273.02 5.64
796 47.1900 1.991161 277.05 274.69 5.60
797 47.2400 1.989174 275.06 277.39 5.55
798 47.2900 1.987191 278.58 281.46 5.69
799 47.3400 1.985213 285.77 287.15 5.66
800 47.3900 1.983239 294.90 294.47 5.75
801 47.4400 1.981269 310.90 303.06 5.89
802 47.4900 1.979304 320.20 312.08 6.00
803 47.5400 1.977343 344.13 320.27 6.22
804 47.5900 1.975386 338.62 326.20 6.17
805 47.6400 1.973433 340.14 328.58 6.17
806 47.6900 1.971485 339.93 326.75 6.18
807 47.7400 1.969541 328.36 321.04 6.06
808 47.7900 1.967601 318.32 312.70 5.98
809 47.8400 1.965665 319.39 303.32 5.99
810 47.8900 1.963734 291.61 294.26 5.75
811 47.9400 1.961806 282.49 286.48 5.64
812 47.9900 1.959883 279.12 280.39 5.63
813 48.0400 1.957964 288.55 276.01 5.68
814 48.0900 1.956049 277.81 273.09 5.60
815 48.1400 1.954138 268.20 271.26 5.51
816 48.1900 1.952231 268.53 270.15 5.50
817 48.2400 1.950329 260.73 269.48 5.40
818 48.2900 1.948430 262.36 269.07 5.41
819 48.3400 1.946535 264.16 268.79 5.47
820 48.3900 1.944645 262.38 268.58 5.45
821 48.4400 1.942759 258.59 268.40 5.40
822 48.4900 1.940876 264.27 268.25 5.44
823 48.5400 1.938998 259.59 268.12 5.43
824 48.5900 1.937123 264.54 267.99 5.48
825 48.6400 1.935253 264.60 267.86 5.44
826 48.6900 1.933386 265.68 267.74 5.45
827 48.7400 1.931524 274.28 267.60 5.57
828 48.7900 1.929665 261.81 267.49 5.49
829 48.8400 1.927811 263.03 267.39 5.46
830 48.8900 1.925960 264.43 267.29 5.49
831 48.9400 1.924114 260.20 267.19 5.41
832 48.9900 1.922271 266.55 267.09 5.48
833 49.0400 1.920432 257.48 266.99 5.38
834 49.0900 1.918597 257.72 266.90 5.36
835 49.1400 1.916765 267.44 266.81 5.48
836 49.1900 1.914938 266.97 266.72 5.46
837 49.2400 1.913114 263.42 266.63 5.47
838 49.2900 1.911295 262.17 266.54 5.52
839 49.3400 1.909479 250.98 266.45 5.33
840 49.3900 1.907667 260.73 266.36 5.40
841 49.4400 1.905859 259.89 266.28 5.47
842 49.4900 1.904054 256.60 266.19 5.54
843 49.5400 1.902254 261.42 266.11 5.53
844 49.5900 1.900457 254.62 266.03 5.38
845 49.6400 1.898664 259.63 265.97 5.41
846 49.6900 1.896874 264.99 265.92 5.46
847 49.7400 1.895088 266.54 265.87 5.52
848 49.7900 1.893306 266.42 265.82 5.47
849 49.8400 1.891528 254.76 265.77 5.38
850 49.8900 1.889754 262.04 265.72 5.44
851 49.9400 1.887983 264.48 265.67 5.45
852 49.9900 1.886216 261.65 265.62 5.44
853 50.0400 1.884452 266.48 265.57 5.54
854 50.0900 1.882692 261.70 265.52 5.46
855 50.1400 1.880936 265.14 265.47 5.44
856 50.1900 1.879184 265.78 265.42 5.45
857 50.2400 1.877434 271.89 265.37 5.53
858 50.2900 1.875689 266.73 265.33 5.51
859 50.3400 1.873947 259.69 265.28 5.46
860 50.3900 1.872209 268.08 265.23 5.50
861 50.4400 1.870474 255.67 265.18 5.48
862 50.4900 1.868743 264.30 265.14 5.56
863 50.5400 1.867016 260.81 265.09 5.49
864 50.5900 1.865292 260.10 265.04 5.44
865 50.6400 1.863572 256.85 265.00 5.38
866 50.6900 1.861855 264.37 264.95 5.47
867 50.7400 1.860141 258.08 264.91 5.40
868 50.7900 1.858431 266.00 264.87 5.46
869 50.8400 1.856725 265.37 264.83 5.44
870 50.8900 1.855022 272.77 264.80 5.54
871 50.9400 1.853323 269.46 264.79 5.49
872 50.9900 1.851627 269.85 264.77 5.50
873 51.0400 1.849934 259.44 264.75 5.43
874 51.0900 1.848245 259.34 264.74 5.46
875 51.1400 1.846560 264.14 264.75 5.44
876 51.1900 1.844877 262.05 264.78 5.45
877 51.2400 1.843199 264.52 264.84 5.45
878 51.2900 1.841523 263.05 264.93 5.45
879 51.3400 1.839851 272.00 265.07 5.57
880 51.3900 1.838183 267.08 265.26 5.52
881 51.4400 1.836517 266.45 265.53 5.47
882 51.4900 1.834855 276.23 265.89 5.57
883 51.5400 1.833197 269.25 266.35 5.48
884 51.5900 1.831542 279.64 266.93 5.62
885 51.6400 1.829890 277.82 267.67 5.64
886 51.6900 1.828241 274.06 268.56 5.57
887 51.7400 1.826596 277.67 269.64 5.59
888 51.7900 1.824954 272.49 270.90 5.53
889 51.8400 1.823316 278.09 272.37 5.61
890 51.8900 1.821680 278.18 274.04 5.58
891 51.9400 1.820048 282.71 275.90 5.65
892 51.9900 1.818419 285.23 277.93 5.68
893 52.0400 1.816794 287.92 280.12 5.70
894 52.0900 1.815172 282.17 282.42 5.66
895 52.1400 1.813553 293.27 284.79 5.74
896 52.1900 1.811937 303.27 287.15 5.84
897 52.2400 1.810324 303.84 289.46 5.82
898 52.2900 1.808715 297.83 291.64 5.78
899 52.3400 1.807109 298.92 293.61 5.83
900 52.3900 1.805506 290.70 295.31 5.68
901 52.4400 1.803906 299.77 296.67 5.67
902 52.4900 1.802309 302.81 297.63 5.62
903 52.5400 1.800716 302.72 298.17 5.63
904 52.5900 1.799126 292.30 298.24 5.46
905 52.6400 1.797539 294.58 297.86 5.46
906 52.6900 1.795955 291.51 297.02 5.46
907 52.7400 1.794374 290.58 295.77 5.41
908 52.7900 1.792796 294.78 294.16 5.44
909 52.8400 1.791221 286.76 292.23 5.36
910 52.8900 1.789650 288.71 290.07 5.40
911 52.9400 1.788081 285.64 287.73 5.37
912 52.9900 1.786516 276.29 285.30 5.30
913 53.0400 1.784954 272.45 282.84 5.26
914 53.0900 1.783395 267.71 280.42 5.22
915 53.1400 1.781838 270.51 278.09 5.26
916 53.1900 1.780285 264.99 275.89 5.19
917 53.2400 1.778735 266.15 273.85 5.20
918 53.2900 1.777188 262.29 272.01 5.19
919 53.3400 1.775644 253.74 270.36 5.12
920 53.3900 1.774103 258.95 268.91 5.11
921 53.4400 1.772565 252.55 267.67 5.05
922 53.4900 1.771030 253.20 266.61 5.11
923 53.5400 1.769498 256.08 265.73 5.18
924 53.5900 1.767969 254.87 265.00 5.07
925 53.6400 1.766443 257.84 264.41 5.20
926 53.6900 1.764920 267.54 263.95 5.25
927 53.7400 1.763400 262.74 263.58 5.18
928 53.7900 1.761883 264.02 263.32 5.21
929 53.8400 1.760369 262.88 263.21 5.20
930 53.8900 1.758858 259.46 263.11 5.14
931 53.9400 1.757349 263.57 263.04 5.18
932 53.9900 1.755844 262.09 263.00 5.13
933 54.0400 1.754341 263.40 262.99 5.15
934 54.0900 1.752842 263.79 262.98 5.18
935 54.1400 1.751345 270.21 262.99 5.22
936 54.1900 1.749852 262.20 263.02 5.18
937 54.2400 1.748361 261.14 263.06 5.18
938 54.2900 1.746873 257.25 263.11 5.09
939 54.3400 1.745387 260.88 263.19 5.20
940 54.3900 1.743905 262.92 263.30 5.15
941 54.4400 1.742426 264.93 263.43 5.25
942 54.4900 1.740949 260.89 263.62 5.14
943 54.5400 1.739475 267.60 263.90 5.19
944 54.5900 1.738004 268.46 264.35 5.24
945 54.6400 1.736536 265.57 265.10 5.23
946 54.6900 1.735071 272.61 266.42 5.30
947 54.7400 1.733608 271.13 268.71 5.23
948 54.7900 1.732148 280.64 272.52 5.33
949 54.8400 1.730691 283.39 278.51 5.37
950 54.8900 1.729237 291.06 287.25 5.41
951 54.9400 1.727785 306.52 299.02 5.55
952 54.9900 1.726337 320.43 313.46 5.67
953 55.0400 1.724891 339.74 329.33 5.84
954 55.0900 1.723448 354.72 344.52 5.97
955 55.1400 1.722007 374.73 356.32 6.13
956 55.1900 1.720570 374.25 362.12 6.14
957 55.2400 1.719134 374.01 360.36 6.13
958 55.2900 1.717702 357.76 351.44 6.00
959 55.3400 1.716273 338.15 337.54 5.84
960 55.3900 1.714846 315.88 321.56 5.72
961 55.4400 1.713422 300.95 306.06 5.52
962 55.4900 1.712000 286.98 292.77 5.39
963 55.5400 1.710582 287.91 282.48 5.43
964 55.5900 1.709165 267.59 275.22 5.22
965 55.6400 1.707752 266.85 270.50 5.21
966 55.6900 1.706341 267.15 267.65 5.19
967 55.7400 1.704933 266.35 266.02 5.17
968 55.7900 1.703528 260.93 265.14 5.14
969 55.8400 1.702125 265.52 264.66 5.20
970 55.8900 1.700725 266.66 264.40 5.26
971 55.9400 1.699327 271.30 264.26 5.30
972 55.9900 1.697932 269.96 264.19 5.24
973 56.0400 1.696540 260.19 264.17 5.13
974 56.0900 1.695150 264.83 264.18 5.20
975 56.1400 1.693763 261.56 264.23 5.18
976 56.1900 1.692378 262.78 264.32 5.26
977 56.2400 1.690996 269.87 264.46 5.21
978 56.2900 1.689617 268.52 264.68 5.20
979 56.3400 1.688240 267.91 265.03 5.20
980 56.3900 1.686866 267.14 265.64 5.20
981 56.4400 1.685494 262.93 266.73 5.17
982 56.4900 1.684125 266.33 268.66 5.19
983 56.5400 1.682758 277.24 272.02 5.30
984 56.5900 1.681394 276.09 277.59 5.34
985 56.6400 1.680033 282.90 286.23 5.37
986 56.6900 1.678674 303.14 298.55 5.52
987 56.7400 1.677317 318.82 314.73 5.68
988 56.7900 1.675963 339.84 333.96 5.85
989 56.8400 1.674612 363.37 354.25 6.04
990 56.8900 1.673263 392.07 372.55 6.27
991 56.9400 1.671916 405.26 385.23 6.38
992 56.9900 1.670572 394.19 389.23 6.29
993 57.0400 1.669230 396.22 383.36 6.31
994 57.0900 1.667892 371.10 369.13 6.10
995 57.1400 1.666555 344.52 349.93 5.88
996 57.1900 1.665221 335.71 329.46 5.82
997 57.2400 1.663889 311.95 310.64 5.62
998 57.2900 1.662560 297.16 295.22 5.48
999 57.3400 1.661233 290.79 283.76 5.44
1000 57.3900 1.659909 283.70 275.95 5.35
1001 57.4400 1.658587 270.22 271.05 5.23
1002 57.4900 1.657267 273.43 268.16 5.24
1003 57.5400 1.655950 276.77 266.54 5.27
1004 57.5900 1.654635 276.06 265.65 5.27
1005 57.6400 1.653323 270.14 265.15 5.23
1006 57.6900 1.652013 267.19 264.86 5.19
1007 57.7400 1.650705 263.84 264.67 5.16
1008 57.7900 1.649400 271.55 264.55 5.25
1009 57.8400 1.648097 268.11 264.46 5.22
1010 57.8900 1.646797 267.10 264.41 5.20
1011 57.9400 1.645499 260.30 264.39 5.14
1012 57.9900 1.644203 269.08 264.39 5.22
1013 58.0400 1.642910 269.34 264.40 5.25
1014 58.0900 1.641619 264.58 264.45 5.16
1015 58.1400 1.640330 260.61 264.51 5.11
1016 58.1900 1.639044 262.15 264.60 5.13
1017 58.2400 1.637760 261.23 264.71 5.15
1018 58.2900 1.636478 262.44 264.85 5.17
1019 58.3400 1.635199 267.05 265.01 5.19
1020 58.3900 1.633922 269.71 265.21 5.25
1021 58.4400 1.632647 271.06 265.46 5.23
1022 58.4900 1.631374 269.36 265.75 5.26
1023 58.5400 1.630104 263.97 266.12 5.22
1024 58.5900 1.628837 270.89 266.58 5.23
1025 58.6400 1.627571 270.73 267.20 5.30
1026 58.6900 1.626307 272.48 268.12 5.25
1027 58.7400 1.625046 281.32 269.61 5.33
1028 58.7900 1.623788 285.64 272.20 5.35
1029 58.8400 1.622531 293.92 276.78 5.43
1030 58.8900 1.621277 308.99 284.75 5.60
1031 58.9400 1.620025 314.81 297.99 5.65
1032 58.9900 1.618775 336.03 318.57 5.83
1033 59.0400 1.617527 365.33 348.17 6.07
1034 59.0900 1.616282 393.25 387.14 6.28
1035 59.1400 1.615039 440.08 433.52 6.64
1036 59.1900 1.613798 490.31 482.46 7.01
1037 59.2400 1.612559 533.60 526.41 7.32
1038 59.2900 1.611323 546.47 556.44 7.41
1039 59.3400 1.610089 558.35 565.08 7.49
1040 59.3900 1.608857 540.48 549.67 7.39
1041 59.4400 1.607627 497.53 514.33 7.09
1042 59.4900 1.606399 453.33 467.59 6.75
1043 59.5400 1.605173 412.04 418.40 6.44
1044 59.5900 1.603950 360.51 373.70 6.03
1045 59.6400 1.602729 332.27 337.44 5.82
1046 59.6900 1.601510 313.79 310.78 5.62
1047 59.7400 1.600293 297.09 292.83 5.46
1048 59.7900 1.599078 282.06 281.64 5.35
1049 59.8400 1.597866 278.55 275.09 5.31
1050 59.8900 1.596655 269.87 271.41 5.20
1051 59.9400 1.595447 272.93 269.35 5.27
1052 59.9900 1.594241 275.61 268.16 5.30
1053 60.0400 1.593037 262.36 267.41 5.13
1054 60.0900 1.591835 270.01 266.90 5.29
1055 60.1400 1.590635 259.18 266.51 5.16
1056 60.1900 1.589438 266.40 266.21 5.23
1057 60.2400 1.588242 258.74 265.97 5.23
1058 60.2900 1.587049 261.92 265.78 5.20
1059 60.3400 1.585857 263.94 265.62 5.24
1060 60.3900 1.584668 261.61 265.50 5.17
1061 60.4400 1.583481 261.61 265.41 5.19
1062 60.4900 1.582295 277.28 265.35 5.33
1063 60.5400 1.581112 272.37 265.30 5.32
1064 60.5900 1.579931 273.24 265.29 5.30
1065 60.6400 1.578752 263.78 265.29 5.17
1066 60.6900 1.577576 266.96 265.31 5.20
1067 60.7400 1.576401 262.84 265.35 5.22
1068 60.7900 1.575228 264.89 265.42 5.17
1069 60.8400 1.574057 269.74 265.50 5.20
1070 60.8900 1.572889 266.26 265.61 5.19
1071 60.9400 1.571722 266.06 265.74 5.23
1072 60.9900 1.570557 265.70 265.91 5.19
1073 61.0400 1.569395 270.99 266.10 5.22
1074 61.0900 1.568234 263.55 266.33 5.18
1075 61.1400 1.567076 254.05 266.60 5.09
1076 61.1900 1.565919 255.03 266.98 5.08
1077 61.2400 1.564764 267.11 267.42 5.22
1078 61.2900 1.563612 265.72 267.95 5.26
1079 61.3400 1.562461 257.49 268.56 5.17
1080 61.3900 1.561313 267.58 269.31 5.20
1081 61.4400 1.560166 263.95 270.28 5.19
1082 61.4900 1.559022 277.51 271.63 5.33
1083 61.5400 1.557879 278.43 273.74 5.35
1084 61.5900 1.556738 286.14 277.29 5.37
1085 61.6400 1.555600 288.18 283.55 5.39
1086 61.6900 1.554463 293.26 294.50 5.46
1087 61.7400 1.553328 319.78 312.96 5.72
1088 61.7900 1.552195 341.50 342.22 5.86
1089 61.8400 1.551064 397.14 385.15 6.32
1090 61.8900 1.549935 454.71 442.86 6.76
1091 61.9400 1.548808 532.78 513.08 7.31
1092 61.9900 1.547683 600.62 589.04 7.76
1093 62.0400 1.546560 680.16 659.55 8.26
1094 62.0900 1.545439 730.67 710.39 8.56
1095 62.1400 1.544320 740.43 728.99 8.62
1096 62.1900 1.543202 712.73 709.85 8.46
1097 62.2400 1.542087 660.32 658.27 8.14
1098 62.2900 1.540973 578.33 587.23 7.62
1099 62.3400 1.539861 506.09 511.05 7.13
1100 62.3900 1.538751 427.67 440.99 6.55
1101 62.4400 1.537644 378.94 383.73 6.17
1102 62.4900 1.536538 339.29 341.43 5.84
1103 62.5400 1.535434 314.98 312.85 5.62
1104 62.5900 1.534331 303.76 295.02 5.53
1105 62.6400 1.533231 289.69 284.59 5.43
1106 62.6900 1.532133 273.78 278.75 5.34
1107 62.7400 1.531036 272.44 275.52 5.28
1108 62.7900 1.529941 267.83 273.66 5.22
1109 62.8400 1.528848 272.78 272.51 5.29
1110 62.8900 1.527757 265.39 271.73 5.23
1111 62.9400 1.526668 274.36 271.15 5.34
1112 62.9900 1.525580 273.14 270.70 5.26
1113 63.0400 1.524495 279.41 270.34 5.33
1114 63.0900 1.523411 269.50 270.06 5.25
1115 63.1400 1.522329 269.40 269.83 5.26
1116 63.1900 1.521249 266.78 269.66 5.28
1117 63.2400 1.520171 267.50 269.52 5.21
1118 63.2900 1.519094 275.74 269.42 5.29
1119 63.3400 1.518020 276.49 269.36 5.32
1120 63.3900 1.516947 278.34 269.32 5.34
1121 63.4400 1.515876 284.21 269.30 5.36
1122 63.4900 1.514807 284.93 269.31 5.40
1123 63.5400 1.513739 278.00 269.35 5.36
1124 63.5900 1.512674 274.96 269.40 5.33
1125 63.6400 1.511610 272.43 269.47 5.25
1126 63.6900 1.510548 275.71 269.56 5.29
1127 63.7400 1.509488 260.23 269.68 5.14
1128 63.7900 1.508429 262.15 269.82 5.18
1129 63.8400 1.507372 265.12 269.99 5.22
1130 63.8900 1.506317 267.55 270.19 5.20
1131 63.9400 1.505264 268.71 270.42 5.21
1132 63.9900 1.504213 269.73 270.69 5.23
1133 64.0400 1.503163 269.08 271.00 5.25
1134 64.0900 1.502115 265.16 271.37 5.22
1135 64.1400 1.501069 261.96 271.82 5.19
1136 64.1900 1.500024 269.06 272.40 5.20
1137 64.2400 1.498982 268.50 273.20 5.26
1138 64.2900 1.497941 274.64 274.43 5.30
1139 64.3400 1.496902 265.32 276.48 5.20
1140 64.3900 1.495864 279.71 280.07 5.32
1141 64.4400 1.494828 287.78 286.37 5.41
1142 64.4900 1.493794 288.08 297.01 5.38
1143 64.5400 1.492762 309.73 313.91 5.57
1144 64.5900 1.491731 334.73 338.78 5.80
1145 64.6400 1.490702 375.99 372.24 6.16
1146 64.6900 1.489675 424.36 412.97 6.59
1147 64.7400 1.488649 478.33 456.88 6.93
1148 64.7900 1.487625 521.76 497.36 7.25
1149 64.8400 1.486603 555.06 526.13 7.48
1150 64.8900 1.485583 562.37 535.85 7.53
1151 64.9400 1.484564 547.13 523.73 7.44
1152 64.9900 1.483547 504.06 493.47 7.13
1153 65.0400 1.482532 447.25 453.08 6.75
1154 65.0900 1.481518 394.10 411.04 6.33
1155 65.1400 1.480506 355.26 373.85 6.02
1156 65.1900 1.479495 323.47 345.15 5.76
1157 65.2400 1.478486 306.33 325.80 5.65
1158 65.2900 1.477479 306.41 314.48 5.60
1159 65.3400 1.476474 300.65 308.72 5.54
1160 65.3900 1.475470 297.87 305.77 5.54
1161 65.4400 1.474468 297.47 303.36 5.48
1162 65.4900 1.473467 294.01 300.21 5.45
1163 65.5400 1.472468 286.76 296.08 5.40
1164 65.5900 1.471471 283.26 291.39 5.38
1165 65.6400 1.470475 277.21 286.77 5.30
1166 65.6900 1.469481 277.61 282.71 5.29
1167 65.7400 1.468489 281.88 279.50 5.33
1168 65.7900 1.467498 276.42 277.18 5.27
1169 65.8400 1.466509 272.84 275.65 5.28
1170 65.8900 1.465521 263.49 274.71 5.20
1171 65.9400 1.464536 261.53 274.17 5.23
1172 65.9900 1.463551 271.88 273.88 5.28
1173 66.0400 1.462568 262.56 273.73 5.18
1174 66.0900 1.461587 264.08 273.68 5.20
1175 66.1400 1.460608 268.28 273.68 5.23
1176 66.1900 1.459630 273.58 273.72 5.33
1177 66.2400 1.458653 269.93 273.78 5.26
1178 66.2900 1.457679 281.29 273.88 5.36
1179 66.3400 1.456706 275.55 273.99 5.33
1180 66.3900 1.455734 268.60 274.14 5.21
1181 66.4400 1.454764 273.20 274.31 5.32
1182 66.4900 1.453795 275.46 274.49 5.31
1183 66.5400 1.452828 279.82 274.60 5.35
1184 66.5900 1.451863 275.89 274.75 5.29
1185 66.6400 1.450899 266.78 274.93 5.19
1186 66.6900 1.449937 272.04 275.17 5.23
1187 66.7400 1.448976 277.02 275.47 5.32
1188 66.7900 1.448017 275.47 275.84 5.35
1189 66.8400 1.447060 273.39 276.31 5.26
1190 66.8900 1.446103 278.03 276.95 5.35
1191 66.9400 1.445149 275.78 277.87 5.32
1192 66.9900 1.444196 273.79 279.35 5.39
1193 67.0400 1.443244 286.62 281.88 5.42
1194 67.0900 1.442294 285.38 286.43 5.36
1195 67.1400 1.441346 291.81 294.52 5.48
1196 67.1900 1.440399 290.16 308.32 5.48
1197 67.2400 1.439454 312.69 330.37 5.62
1198 67.2900 1.438510 348.56 362.94 5.91
1199 67.3400 1.437568 383.55 406.83 6.23
1200 67.3900 1.436627 448.94 460.20 6.76
1201 67.4400 1.435687 510.75 517.63 7.16
1202 67.4900 1.434749 572.75 570.17 7.59
1203 67.5400 1.433813 618.72 606.73 7.89
1204 67.5900 1.432878 632.76 617.61 7.97
1205 67.6400 1.431945 615.32 599.46 7.86
1206 67.6900 1.431013 551.60 557.65 7.44
1207 67.7400 1.430083 496.39 502.89 7.06
1208 67.7900 1.429154 424.57 446.17 6.54
1209 67.8400 1.428226 377.92 395.65 6.22
1210 67.8900 1.427300 347.20 355.77 5.94
1211 67.9400 1.426376 310.63 327.56 5.71
1212 67.9900 1.425453 297.75 309.55 5.57
1213 68.0400 1.424531 305.76 299.08 5.58
1214 68.0900 1.423611 294.51 293.34 5.58
1215 68.1400 1.422693 296.49 290.02 5.55
1216 68.1900 1.421775 297.59 287.61 5.54
1217 68.2400 1.420860 296.67 285.38 5.48
1218 68.2900 1.419945 282.92 283.15 5.39
1219 68.3400 1.419033 284.30 281.04 5.49
1220 68.3900 1.418121 283.22 279.18 5.42
1221 68.4400 1.417211 276.65 277.68 5.30
1222 68.4900 1.416303 281.20 276.59 5.34
1223 68.5400 1.415396 274.43 275.87 5.26
1224 68.5900 1.414490 275.18 275.50 5.38
1225 68.6400 1.413586 274.60 275.45 5.32
1226 68.6900 1.412683 272.34 275.79 5.27
1227 68.7400 1.411782 277.42 276.63 5.29
1228 68.7900 1.410882 268.64 278.22 5.21
1229 68.8400 1.409983 276.45 280.82 5.27
1230 68.8900 1.409086 284.06 284.68 5.34
1231 68.9400 1.408190 288.33 289.86 5.41
1232 68.9900 1.407296 295.38 296.10 5.46
1233 69.0400 1.406403 305.42 302.75 5.54
1234 69.0900 1.405511 313.07 308.74 5.61
1235 69.1400 1.404621 309.24 312.82 5.57
1236 69.1900 1.403733 316.35 313.93 5.68
1237 69.2400 1.402845 316.71 311.83 5.64
1238 69.2900 1.401959 307.58 307.27 5.57
1239 69.3400 1.401075 291.09 301.51 5.44
1240 69.3900 1.400192 286.28 295.77 5.46
1241 69.4400 1.399310 293.04 290.95 5.43
1242 69.4900 1.398430 282.89 287.55 5.45
1243 69.5400 1.397550 276.77 285.73 5.30
1244 69.5900 1.396673 281.41 285.56 5.38
1245 69.6400 1.395796 289.68 287.23 5.46
1246 69.6900 1.394921 291.58 291.46 5.53
1247 69.7400 1.394048 306.40 299.85 5.57
1248 69.7900 1.393176 315.19 315.33 5.65
1249 69.8400 1.392305 358.28 342.27 6.02
1250 69.8900 1.391435 405.70 386.07 6.39
1251 69.9400 1.390567 474.66 451.85 6.94
1252 69.9900 1.389700 547.07 542.03 7.41
1253 70.0400 1.388835 656.25 653.70 8.11
1254 70.0900 1.387971 768.59 776.35 8.78
1255 70.1400 1.387108 887.89 891.72 9.44
1256 70.1900 1.386246 941.58 976.05 9.72
1257 70.2400 1.385386 975.49 1007.04 9.90
1258 70.2900 1.384527 954.95 975.09 9.79
1259 70.3400 1.383670 894.14 889.84 9.48
1260 70.3900 1.382814 792.15 773.79 8.92
1261 70.4400 1.381959 660.81 650.82 8.14
1262 70.4900 1.381106 545.94 539.14 7.40
1263 70.5400 1.380253 458.22 449.16 6.80
1264 70.5900 1.379403 388.04 383.67 6.27
1265 70.6400 1.378553 349.08 340.10 5.95
1266 70.6900 1.377705 316.09 313.28 5.67
1267 70.7400 1.376858 300.85 297.74 5.57
1268 70.7900 1.376012 291.30 289.02 5.43
1269 70.8400 1.375168 284.38 284.09 5.35
1270 70.8900 1.374325 290.82 281.14 5.40
1271 70.9400 1.373483 281.60 279.19 5.34
1272 70.9900 1.372642 271.57 277.77 5.28
1273 71.0400 1.371803 278.00 276.66 5.34
1274 71.0900 1.370965 265.40 275.75 5.29
1275 71.1400 1.370129 276.29 274.98 5.30
1276 71.1900 1.369293 271.17 274.34 5.23
1277 71.2400 1.368459 265.68 273.78 5.29
1278 71.2900 1.367627 270.68 273.31 5.23
1279 71.3400 1.366795 263.96 272.90 5.17
1280 71.3900 1.365965 269.30 272.55 5.26
1281 71.4400 1.365136 270.04 272.25 5.27
1282 71.4900 1.364308 266.40 272.00 5.22
1283 71.5400 1.363482 263.99 271.79 5.19
1284 71.5900 1.362657 268.45 271.61 5.20
1285 71.6400 1.361833 277.47 271.46 5.32
1286 71.6900 1.361010 274.44 271.27 5.33
1287 71.7400 1.360189 277.80 271.12 5.34
1288 71.7900 1.359368 271.97 271.01 5.32
1289 71.8400 1.358550 261.38 270.93 5.20
1290 71.8900 1.357732 268.95 270.89 5.30
1291 71.9400 1.356915 269.61 270.89 5.27
1292 71.9900 1.356100 264.59 270.94 5.20
1293 72.0400 1.355286 264.88 271.05 5.21
1294 72.0900 1.354474 272.53 271.24 5.26
1295 72.1400 1.353662 264.75 271.53 5.21
1296 72.1900 1.352852 270.01 271.98 5.31
1297 72.2400 1.352043 275.63 272.72 5.37
1298 72.2900 1.351235 279.61 274.02 5.30
1299 72.3400 1.350429 274.41 276.40 5.30
1300 72.3900 1.349623 287.45 280.81 5.40
1301 72.4400 1.348819 292.92 288.70 5.45
1302 72.4900 1.348016 309.99 302.04 5.59
1303 72.5400 1.347214 334.52 322.97 5.80
1304 72.5900 1.346414 366.40 353.08 6.07
1305 72.6400 1.345614 408.95 392.40 6.41
1306 72.6900 1.344816 448.39 438.34 6.71
1307 72.7400 1.344019 490.39 485.20 7.01
1308 72.7900 1.343224 526.84 524.56 7.27
1309 72.8400 1.342429 550.80 546.94 7.44
1310 72.8900 1.341636 555.45 545.69 7.47
1311 72.9400 1.340844 525.57 521.16 7.26
1312 72.9900 1.340053 488.05 480.49 7.00
1313 73.0400 1.339263 440.66 433.25 6.65
1314 73.0900 1.338475 381.12 387.71 6.18
1315 73.1400 1.337687 348.56 349.26 5.91
1316 73.1900 1.336901 326.24 320.14 5.75
1317 73.2400 1.336116 300.72 300.15 5.51
1318 73.2900 1.335332 293.37 287.46 5.45
1319 73.3400 1.334550 273.25 279.85 5.27
1320 73.3900 1.333768 273.75 275.33 5.29
1321 73.4400 1.332988 269.71 272.53 5.23
1322 73.4900 1.332209 270.25 270.61 5.23
1323 73.5400 1.331431 269.12 269.18 5.23
1324 73.5900 1.330654 266.98 268.05 5.25
1325 73.6400 1.329878 268.79 267.14 5.31
1326 73.6900 1.329104 263.50 266.39 5.18
1327 73.7400 1.328330 261.27 265.79 5.21
1328 73.7900 1.327558 259.29 265.30 5.15
1329 73.8400 1.326787 265.26 264.89 5.20
1330 73.8900 1.326017 265.04 264.54 5.17
1331 73.9400 1.325248 254.04 264.23 5.17
1332 73.9900 1.324481 253.62 263.94 5.10
1333 74.0400 1.323714 260.66 263.68 5.12
1334 74.0900 1.322949 266.23 263.44 5.19
1335 74.1400 1.322185 261.02 263.21 5.16
1336 74.1900 1.321421 265.56 263.00 5.17
1337 74.2400 1.320660 255.44 262.79 5.16
1338 74.2900 1.319899 250.31 262.60 5.12
1339 74.3400 1.319139 240.63 262.41 5.04
1340 74.3900 1.318380 249.95 262.31 5.10
1341 74.4400 1.317623 258.26 262.27 5.11
1342 74.4900 1.316867 269.25 262.24 5.21
1343 74.5400 1.316111 265.65 262.21 5.26
1344 74.5900 1.315357 254.04 262.18 5.11
1345 74.6400 1.314604 256.39 262.16 5.11
1346 74.6900 1.313853 264.32 262.15 5.20
1347 74.7400 1.313102 252.37 262.14 5.09
1348 74.7900 1.312352 254.18 262.16 5.07
1349 74.8400 1.311604 260.35 262.16 5.20
1350 74.8900 1.310856 265.29 262.17 5.25
1351 74.9400 1.310110 263.54 262.18 5.16
1352 74.9900 1.309365 261.52 262.19 5.18
1353 75.0400 1.308620 251.66 262.21 5.06
1354 75.0900 1.307877 258.81 262.24 5.12
1355 75.1400 1.307135 271.14 262.27 5.25
1356 75.1900 1.306395 264.46 262.32 5.17
1357 75.2400 1.305655 258.88 262.38 5.14
1358 75.2900 1.304916 272.64 262.47 5.30
1359 75.3400 1.304178 260.55 262.62 5.25
1360 75.3900 1.303442 269.35 262.88 5.21
1361 75.4400 1.302706 268.43 263.35 5.19
1362 75.4900 1.301972 270.13 264.15 5.22
1363 75.5400 1.301239 262.18 265.50 5.23
1364 75.5900 1.300507 266.16 267.59 5.27
1365 75.6400 1.299775 273.61 270.57 5.28
1366 75.6900 1.299045 270.82 274.43 5.25
1367 75.7400 1.298316 281.80 278.89 5.36
1368 75.7900 1.297588 286.24 283.37 5.40
1369 75.8400 1.296862 284.90 287.02 5.35
1370 75.8900 1.296136 293.57 289.00 5.46
1371 75.9400 1.295411 294.62 288.66 5.52
1372 75.9900 1.294687 283.32 286.13 5.45
1373 76.0400 1.293965 292.19 282.14 5.45
1374 76.0900 1.293243 284.84 277.62 5.40
1375 76.1400 1.292522 276.56 273.33 5.32
1376 76.1900 1.291803 263.08 269.76 5.23
1377 76.2400 1.291084 266.04 267.10 5.19
1378 76.2900 1.290367 254.28 265.32 5.09
1379 76.3400 1.289651 263.91 264.25 5.20
1380 76.3900 1.288935 264.01 263.68 5.16
1381 76.4400 1.288221 257.63 263.45 5.13
1382 76.4900 1.287508 261.34 263.46 5.15
1383 76.5400 1.286795 264.52 263.63 5.18
1384 76.5900 1.286084 264.38 263.96 5.15
1385 76.6400 1.285374 262.24 264.46 5.16
1386 76.6900 1.284665 258.22 265.14 5.11
1387 76.7400 1.283957 264.47 266.06 5.20
1388 76.7900 1.283250 264.89 267.24 5.24
1389 76.8400 1.282544 262.85 268.74 5.19
1390 76.8900 1.281839 258.61 270.59 5.14
1391 76.9400 1.281135 269.87 272.82 5.26
1392 76.9900 1.280432 275.17 275.45 5.34
1393 77.0400 1.279730 269.02 278.49 5.21
1394 77.0900 1.279029 280.43 281.91 5.36
1395 77.1400 1.278329 281.97 285.66 5.43
1396 77.1900 1.277630 285.78 289.67 5.37
1397 77.2400 1.276932 289.42 293.86 5.44
1398 77.2900 1.276235 301.35 298.06 5.50
1399 77.3400 1.275539 297.41 302.12 5.46
1400 77.3900 1.274844 312.28 305.88 5.61
1401 77.4400 1.274150 311.93 309.19 5.62
1402 77.4900 1.273457 321.68 311.88 5.70
1403 77.5400 1.272765 315.21 313.80 5.65
1404 77.5900 1.272074 318.65 314.87 5.66
1405 77.6400 1.271384 321.83 315.01 5.71
1406 77.6900 1.270695 314.40 314.21 5.67
1407 77.7400 1.270007 314.99 312.54 5.64
1408 77.7900 1.269320 315.18 310.07 5.63
1409 77.8400 1.268634 316.60 306.93 5.68
1410 77.8900 1.267949 299.55 303.30 5.51
1411 77.9400 1.267265 298.97 299.32 5.52
1412 77.9900 1.266582 287.71 295.17 5.39
1413 78.0400 1.265900 280.42 291.00 5.35
1414 78.0900 1.265219 280.42 286.96 5.35
1415 78.1400 1.264539 277.48 283.14 5.29
1416 78.1900 1.263860 264.94 279.64 5.19
1417 78.2400 1.263181 262.19 276.52 5.13
1418 78.2900 1.262504 269.33 273.79 5.22
1419 78.3400 1.261828 268.71 271.46 5.28
1420 78.3900 1.261153 263.52 269.52 5.20
1421 78.4400 1.260478 264.44 267.85 5.15
1422 78.4900 1.259805 261.05 266.59 5.14
1423 78.5400 1.259132 263.56 265.60 5.21
1424 78.5900 1.258461 259.61 264.85 5.14
1425 78.6400 1.257790 262.72 264.28 5.17
1426 78.6900 1.257121 259.77 263.87 5.11
1427 78.7400 1.256452 258.67 263.57 5.18
1428 78.7900 1.255784 256.81 263.36 5.12
1429 78.8400 1.255118 260.39 263.21 5.16
1430 78.8900 1.254452 264.53 263.12 5.17
1431 78.9400 1.253787 261.79 263.06 5.16
1432 78.9900 1.253123 260.50 263.02 5.16
1433 79.0400 1.252460 261.76 263.00 5.22
1434 79.0900 1.251798 258.86 262.99 5.21
1435 79.1400 1.251137 256.07 262.99 5.16
1436 79.1900 1.250477 259.37 262.99 5.13
1437 79.2400 1.249818 265.45 263.00 5.18
1438 79.2900 1.249160 268.94 263.02 5.28
1439 79.3400 1.248502 274.91 263.03 5.29
1440 79.3900 1.247846 267.36 263.04 5.21
1441 79.4400 1.247190 262.79 263.06 5.18
1442 79.4900 1.246536 272.03 263.07 5.24
1443 79.5400 1.245882 271.37 263.09 5.25
1444 79.5900 1.245230 272.89 263.11 5.34
1445 79.6400 1.244578 274.75 263.13 5.29
1446 79.6900 1.243927 274.38 263.14 5.26
1447 79.7400 1.243277 275.98 263.16 5.30
1448 79.7900 1.242628 271.45 263.18 5.25
1449 79.8400 1.241980 264.59 263.20 5.27
1450 79.8900 1.241333 265.14 263.23 5.26
1451 79.9400 1.240686 272.29 263.25 5.27
1452 79.9900 1.240041 264.44 263.27 5.21
1453 80.0400 1.239396 271.92 263.29 5.31
1454 80.0900 1.238753 276.18 263.32 5.29
1455 80.1400 1.238110 271.96 263.34 5.26
1456 80.1900 1.237468 274.81 263.37 5.31
1457 80.2400 1.236827 276.26 263.39 5.32
1458 80.2900 1.236187 274.79 263.42 5.28
1459 80.3400 1.235548 277.09 263.45 5.29
1460 80.3900 1.234910 276.47 263.48 5.27
1461 80.4400 1.234273 272.07 263.51 5.29
1462 80.4900 1.233637 272.06 263.54 5.29
1463 80.5400 1.233001 269.30 263.57 5.22
1464 80.5900 1.232366 269.60 263.61 5.20
1465 80.6400 1.231733 263.55 263.64 5.15
1466 80.6900 1.231100 264.96 263.68 5.16
1467 80.7400 1.230468 268.80 263.71 5.21
1468 80.7900 1.229837 255.47 263.76 5.07
1469 80.8400 1.229207 262.28 263.80 5.15
1470 80.8900 1.228577 259.86 263.84 5.13
1471 80.9400 1.227949 258.17 263.89 5.11
1472 80.9900 1.227321 262.79 263.94 5.14
1473 81.0400 1.226695 256.77 263.96 5.15
1474 81.0900 1.226069 263.11 264.01 5.15
1475 81.1400 1.225444 266.76 264.07 5.19
1476 81.1900 1.224820 262.19 264.14 5.17
1477 81.2400 1.224197 265.77 264.23 5.21
1478 81.2900 1.223574 266.59 264.34 5.18
1479 81.3400 1.222953 258.85 264.46 5.14
1480 81.3900 1.222332 249.51 264.61 5.08
1481 81.4400 1.221712 256.00 264.79 5.12
1482 81.4900 1.221094 264.41 265.05 5.24
1483 81.5400 1.220476 260.13 265.43 5.17
1484 81.5900 1.219858 260.73 265.99 5.16
1485 81.6400 1.219242 262.43 266.79 5.14
1486 81.6900 1.218627 259.55 267.85 5.12
1487 81.7400 1.218012 260.91 269.18 5.13
1488 81.7900 1.217398 262.36 270.66 5.20
1489 81.8400 1.216785 267.14 272.12 5.21
1490 81.8900 1.216173 263.36 273.31 5.21
1491 81.9400 1.215562 273.59 273.97 5.28
1492 81.9900 1.214952 272.98 273.96 5.27
1493 82.0400 1.214342 270.92 273.41 5.22
1494 82.0900 1.213734 272.30 272.50 5.23
1495 82.1400 1.213126 261.83 271.53 5.13
1496 82.1900 1.212519 272.87 270.73 5.24
1497 82.2400 1.211913 274.54 270.24 5.30
1498 82.2900 1.211307 265.95 270.16 5.18
1499 82.3400 1.210703 264.92 270.55 5.16
1500 82.3900 1.210099 266.09 271.59 5.18
1501 82.4400 1.209496 265.84 273.64 5.17
1502 82.4900 1.208894 271.89 277.44 5.26
1503 82.5400 1.208293 288.07 284.21 5.38
1504 82.5900 1.207693 295.85 295.67 5.47
1505 82.6400 1.207093 306.39 313.82 5.55
1506 82.6900 1.206494 338.61 340.34 5.83
1507 82.7400 1.205897 376.21 375.64 6.14
1508 82.7900 1.205299 417.27 417.90 6.47
1509 82.8400 1.204703 470.17 462.44 6.87
1510 82.8900 1.204108 514.86 501.83 7.19
1511 82.9400 1.203513 519.16 527.00 7.22
1512 82.9900 1.202920 532.08 530.58 7.31
1513 83.0400 1.202327 511.92 511.40 7.17
1514 83.0900 1.201734 479.50 475.41 6.94
1515 83.1400 1.201143 440.45 431.61 6.65
1516 83.1900 1.200553 396.22 388.13 6.34
1517 83.2400 1.199963 359.64 350.53 6.02
1518 83.2900 1.199374 325.12 321.43 5.71
1519 83.3400 1.198786 304.14 300.99 5.53
1520 83.3900 1.198199 298.05 287.81 5.47
1521 83.4400 1.197612 289.38 279.90 5.39
1522 83.4900 1.197026 285.34 275.40 5.38
1523 83.5400 1.196442 270.09 272.88 5.21
1524 83.5900 1.195858 270.93 271.45 5.25
1525 83.6400 1.195274 277.76 270.57 5.28
1526 83.6900 1.194692 274.56 269.98 5.30
1527 83.7400 1.194110 267.21 269.56 5.19
1528 83.7900 1.193529 262.61 269.23 5.19
1529 83.8400 1.192949 265.61 268.98 5.20
1530 83.8900 1.192370 262.12 268.78 5.15
1531 83.9400 1.191791 272.59 268.62 5.23
1532 83.9900 1.191213 264.67 268.51 5.18
1533 84.0400 1.190636 262.40 268.42 5.21
1534 84.0900 1.190060 267.14 268.36 5.27
1535 84.1400 1.189485 261.57 268.33 5.15
1536 84.1900 1.188910 266.29 268.33 5.19
1537 84.2400 1.188336 266.78 268.35 5.27
1538 84.2900 1.187763 273.90 268.39 5.28
1539 84.3400 1.187191 274.32 268.45 5.28
1540 84.3900 1.186619 273.97 268.60 5.26
1541 84.4400 1.186049 266.85 268.71 5.24
1542 84.4900 1.185479 270.45 268.86 5.22
1543 84.5400 1.184910 268.14 269.04 5.20
1544 84.5900 1.184341 267.14 269.26 5.19
1545 84.6400 1.183774 267.49 269.52 5.20
1546 84.6900 1.183207 274.79 269.86 5.25
1547 84.7400 1.182641 281.77 270.29 5.32
1548 84.7900 1.182075 274.03 270.90 5.24
1549 84.8400 1.181511 281.37 271.84 5.34
1550 84.8900 1.180947 281.77 273.41 5.34
1551 84.9400 1.180384 286.00 276.16 5.37
1552 84.9900 1.179822 288.74 280.98 5.39
1553 85.0400 1.179260 305.05 289.08 5.53
1554 85.0900 1.178699 316.74 301.88 5.65
1555 85.1400 1.178139 339.20 320.55 5.85
1556 85.1900 1.177580 351.80 345.37 5.94
1557 85.2400 1.177022 387.35 375.10 6.23
1558 85.2900 1.176464 425.95 406.52 6.54
1559 85.3400 1.175907 425.13 434.44 6.55
1560 85.3900 1.175351 435.88 452.52 6.64
1561 85.4400 1.174795 438.10 455.50 6.63
1562 85.4900 1.174240 434.47 442.42 6.61
1563 85.5400 1.173686 415.35 417.35 6.46
1564 85.5900 1.173133 398.22 386.61 6.34
1565 85.6400 1.172581 379.89 355.95 6.18
1566 85.6900 1.172029 354.40 329.32 5.97
1567 85.7400 1.171478 348.71 308.66 5.92
1568 85.7900 1.170928 333.17 294.12 5.79
1569 85.8400 1.170378 319.12 284.76 5.68
1570 85.8900 1.169829 315.46 279.14 5.64
1571 85.9400 1.169281 300.97 275.91 5.52
1572 85.9900 1.168734 293.48 274.04 5.49
1573 86.0400 1.168187 291.97 272.86 5.46
1574 86.0900 1.167641 294.85 272.03 5.50
1575 86.1400 1.167096 286.28 271.40 5.40
1576 86.1900 1.166552 280.16 270.89 5.30
1577 86.2400 1.166008 282.33 270.48 5.34
1578 86.2900 1.165465 270.91 270.17 5.36
1579 86.3400 1.164923 276.85 269.92 5.30
1580 86.3900 1.164382 285.28 269.73 5.37
1581 86.4400 1.163841 273.90 269.59 5.28
1582 86.4900 1.163301 276.97 269.48 5.30
1583 86.5400 1.162761 269.73 269.40 5.27
1584 86.5900 1.162223 271.28 269.33 5.24
1585 86.6400 1.161685 286.60 269.28 5.37
1586 86.6900 1.161148 273.81 269.24 5.27
1587 86.7400 1.160612 271.72 269.21 5.30
1588 86.7900 1.160076 278.07 269.19 5.31
1589 86.8400 1.159541 271.07 269.18 5.24
1590 86.8900 1.159006 274.20 269.17 5.36
1591 86.9400 1.158473 268.84 269.17 5.21
1592 86.9900 1.157940 268.59 269.17 5.20
1593 87.0400 1.157408 274.51 269.17 5.27
1594 87.0900 1.156876 261.13 269.18 5.17
1595 87.1400 1.156346 266.81 269.20 5.21
1596 87.1900 1.155816 258.37 269.22 5.22
1597 87.2400 1.155286 262.56 269.24 5.34
1598 87.2900 1.154758 265.06 269.26 5.20
1599 87.3400 1.154230 266.52 269.32 5.20
1600 87.3900 1.153702 263.38 269.41 5.15
1601 87.4400 1.153176 265.45 269.50 5.19
1602 87.4900 1.152650 277.07 269.60 5.30
1603 87.5400 1.152125 268.67 269.69 5.21
1604 87.5900 1.151601 270.40 269.79 5.21
1605 87.6400 1.151077 265.42 269.89 5.18
1606 87.6900 1.150554 255.34 270.00 5.11
1607 87.7400 1.150032 253.62 270.10 5.09
1608 87.7900 1.149510 266.25 270.21 5.20
1609 87.8400 1.148989 265.57 270.33 5.22
1610 87.8900 1.148469 265.07 270.45 5.18
1611 87.9400 1.147949 267.62 270.58 5.23
1612 87.9900 1.147430 269.88 270.72 5.22
1613 88.0400 1.146912 266.49 270.89 5.37
1614 88.0900 1.146395 274.40 271.09 5.31
1615 88.1400 1.145878 265.97 271.33 5.25
1616 88.1900 1.145362 269.05 271.61 5.23
1617 88.2400 1.144846 267.98 271.92 5.23
1618 88.2900 1.144331 270.20 272.24 5.24
1619 88.3400 1.143817 270.20 272.54 5.35
1620 88.3900 1.143304 266.71 272.78 5.25
1621 88.4400 1.142791 267.00 272.93 5.28
1622 88.4900 1.142279 259.48 272.99 5.20
1623 88.5400 1.141768 274.76 272.98 5.29
1624 88.5900 1.141257 259.91 272.94 5.19
1625 88.6400 1.140747 266.32 272.91 5.18
1626 88.6900 1.140238 257.28 272.91 5.23
1627 88.7400 1.139729 261.37 272.95 5.17
1628 88.7900 1.139221 268.66 273.04 5.22
1629 88.8400 1.138713 262.17 273.17 5.14
1630 88.8900 1.138207 269.97 273.33 5.25
1631 88.9400 1.137701 274.56 273.51 5.29
1632 88.9900 1.137195 256.96 273.72 5.11
1633 89.0400 1.136691 269.79 273.95 5.21
1634 89.0900 1.136187 266.35 274.19 5.18
1635 89.1400 1.135683 262.29 274.48 5.14
1636 89.1900 1.135181 282.47 274.77 5.34
1637 89.2400 1.134679 276.48 275.08 5.28
1638 89.2900 1.134177 273.43 275.42 5.32
1639 89.3400 1.133677 275.11 275.80 5.26
1640 89.3900 1.133176 269.96 276.23 5.40
1641 89.4400 1.132677 267.83 276.70 5.20
1642 89.4900 1.132178 267.38 277.24 5.24
1643 89.5400 1.131680 271.64 277.86 5.24
1644 89.5900 1.131183 277.85 278.60 5.29
1645 89.6400 1.130686 267.38 279.52 5.20
1646 89.6900 1.130190 270.11 280.74 5.23
1647 89.7400 1.129694 279.82 282.53 5.31
1648 89.7900 1.129199 271.07 285.40 5.37
1649 89.8400 1.128705 281.88 290.29 5.32
1650 89.8900 1.128212 282.81 298.69 5.38
1651 89.9400 1.127719 291.19 312.71 5.43
1652 89.9900 1.127227 306.75 334.82 5.55
1653 90.0400 1.126735 340.85 367.22 5.85
1654 90.0900 1.126244 388.95 410.76 6.25
1655 90.1400 1.125754 456.52 463.79 6.77
1656 90.1900 1.125264 547.77 521.25 7.42
1657 90.2400 1.124775 646.49 574.59 8.06
1658 90.2900 1.124287 699.14 612.81 8.38
1659 90.3400 1.123799 690.68 625.62 8.33
1660 90.3900 1.123312 638.39 609.24 8.01
1661 90.4400 1.122825 557.52 569.29 7.49
1662 90.4900 1.122339 469.22 516.81 6.87
1663 90.5400 1.121854 413.04 462.77 6.45
1664 90.5900 1.121369 369.18 415.21 6.09
1665 90.6400 1.120885 344.49 378.38 5.90
1666 90.6900 1.120402 320.15 352.97 5.74
1667 90.7400 1.119919 337.14 337.08 5.82
1668 90.7900 1.119437 336.50 327.43 5.85
1669 90.8400 1.118956 320.09 320.78 5.73
1670 90.8900 1.118475 305.59 314.87 5.56
1671 90.9400 1.117995 310.49 308.86 5.60
1672 90.9900 1.117515 294.25 302.83 5.50
1673 91.0400 1.117036 296.31 297.21 5.49
1674 91.0900 1.116558 282.27 292.39 5.32
1675 91.1400 1.116081 279.46 288.59 5.30
1676 91.1900 1.115603 271.38 285.81 5.22
1677 91.2400 1.115127 285.71 283.96 5.37
1678 91.2900 1.114651 282.15 282.80 5.37
1679 91.3400 1.114176 292.11 282.12 5.49
1680 91.3900 1.113701 289.23 281.74 5.43
1681 91.4400 1.113227 283.40 281.55 5.35
1682 91.4900 1.112754 279.93 281.48 5.30
1683 91.5400 1.112281 277.65 281.48 5.32
1684 91.5900 1.111809 276.50 281.52 5.32
1685 91.6400 1.111337 276.02 281.62 5.29
1686 91.6900 1.110866 286.50 281.77 5.37
1687 91.7400 1.110396 269.34 281.98 5.25
1688 91.7900 1.109926 272.88 282.25 5.26
1689 91.8400 1.109457 281.22 282.58 5.36
1690 91.8900 1.108989 281.95 282.98 5.32
1691 91.9400 1.108521 279.46 283.48 5.31
1692 91.9900 1.108054 286.95 284.07 5.40
1693 92.0400 1.107587 285.17 284.81 5.44
1694 92.0900 1.107121 287.14 285.74 5.39
1695 92.1400 1.106655 285.92 287.01 5.43
1696 92.1900 1.106191 295.61 288.87 5.46
1697 92.2400 1.105726 287.62 291.86 5.45
1698 92.2900 1.105263 286.44 296.94 5.40
1699 92.3400 1.104800 301.78 305.73 5.55
1700 92.3900 1.104337 311.19 320.57 5.61
1701 92.4400 1.103875 333.58 344.39 5.81
1702 92.4900 1.103414 365.54 380.09 6.06
1703 92.5400 1.102953 417.80 429.38 6.48
1704 92.5900 1.102493 500.11 491.40 7.11
1705 92.6400 1.102034 592.08 561.50 7.72
1706 92.6900 1.101575 694.39 630.72 8.35
1707 92.7400 1.101117 770.58 686.42 8.80
1708 92.7900 1.100659 773.07 714.98 8.81
1709 92.8400 1.100202 753.07 707.83 8.70
1710 92.8900 1.099745 671.27 667.33 8.21
1711 92.9400 1.099289 571.52 605.02 7.57
1712 92.9900 1.098834 490.20 534.74 7.04
1713 93.0400 1.098379 414.80 467.86 6.47
1714 93.0900 1.097925 382.87 411.65 6.23
1715 93.1400 1.097471 353.62 369.07 5.96
1716 93.1900 1.097018 327.34 339.70 5.74
1717 93.2400 1.096566 314.10 321.00 5.66
1718 93.2900 1.096114 318.55 309.75 5.67
1719 93.3400 1.095663 310.86 303.01 5.59
1720 93.3900 1.095212 305.30 298.68 5.54
1721 93.4400 1.094762 301.04 295.56 5.51
1722 93.4900 1.094312 298.94 293.13 5.53
1723 93.5400 1.093863 294.13 291.20 5.44
1724 93.5900 1.093415 293.35 289.76 5.45
1725 93.6400 1.092967 310.00 288.86 5.60
1726 93.6900 1.092520 301.83 288.54 5.51
1727 93.7400 1.092073 300.27 288.94 5.50
1728 93.7900 1.091627 309.64 290.18 5.58
1729 93.8400 1.091182 303.05 292.51 5.58
1730 93.8900 1.090737 301.93 296.30 5.55
1731 93.9400 1.090292 303.85 301.97 5.53
1732 93.9900 1.089849 310.28 309.89 5.70
1733 94.0400 1.089405 327.63 320.26 5.75
1734 94.0900 1.088963 347.07 332.90 5.91
1735 94.1400 1.088521 357.94 347.12 6.00
1736 94.1900 1.088079 366.23 361.70 6.06
1737 94.2400 1.087638 383.34 374.95 6.23
1738 94.2900 1.087198 388.64 385.17 6.28
1739 94.3400 1.086758 396.51 391.38 6.34
1740 94.3900 1.086319 395.63 393.78 6.31
1741 94.4400 1.085880 384.39 393.36 6.24
1742 94.4900 1.085442 390.33 391.20 6.26
1743 94.5400 1.085004 380.20 388.05 6.18
1744 94.5900 1.084567 383.66 384.32 6.21
1745 94.6400 1.084131 377.50 380.04 6.20
1746 94.6900 1.083695 381.94 375.08 6.22
1747 94.7400 1.083259 374.17 369.28 6.16
1748 94.7900 1.082824 368.54 362.58 6.10
1749 94.8400 1.082390 359.64 355.07 6.01
1750 94.8900 1.081957 347.18 346.96 5.95
1751 94.9400 1.081523 334.60 338.56 5.81
1752 94.9900 1.081091 325.44 330.20 5.72
1753 95.0400 1.080659 316.88 322.19 5.70
1754 95.0900 1.080227 304.95 314.80 5.55
1755 95.1400 1.079796 302.23 308.21 5.54
1756 95.1900 1.079366 299.14 302.51 5.55
1757 95.2400 1.078936 297.29 297.74 5.62
1758 95.2900 1.078507 297.32 293.86 5.51
1759 95.3400 1.078078 291.27 290.79 5.51
1760 95.3900 1.077650 296.85 288.44 5.47
1761 95.4400 1.077222 290.84 286.67 5.47
1762 95.4900 1.076795 287.29 285.39 5.38
1763 95.5400 1.076368 292.74 284.48 5.42
1764 95.5900 1.075942 294.05 283.86 5.45
1765 95.6400 1.075517 291.82 283.44 5.48
1766 95.6900 1.075092 295.68 283.17 5.46
1767 95.7400 1.074668 297.97 283.01 5.47
1768 95.7900 1.074244 293.61 282.91 5.47
1769 95.8400 1.073820 287.03 282.87 5.38
1770 95.8900 1.073398 287.00 282.85 5.38
1771 95.9400 1.072975 288.37 282.86 5.39
1772 95.9900 1.072554 284.88 282.89 5.40
1773 96.0400 1.072132 283.83 282.92 5.41
1774 96.0900 1.071712 280.06 282.97 5.33
1775 96.1400 1.071292 294.19 283.02 5.43
1776 96.1900 1.070872 290.53 283.09 5.42
1777 96.2400 1.070453 285.76 283.16 5.37
1778 96.2900 1.070034 290.38 283.23 5.42
1779 96.3400 1.069616 289.02 283.32 5.46
1780 96.3900 1.069199 293.17 283.40 5.49
1781 96.4400 1.068782 296.01 283.50 5.54
1782 96.4900 1.068366 282.49 283.61 5.38
1783 96.5400 1.067950 283.15 283.73 5.36
1784 96.5900 1.067534 289.17 283.86 5.43
1785 96.6400 1.067120 278.89 284.00 5.35
1786 96.6900 1.066705 278.67 284.14 5.33
1787 96.7400 1.066292 284.71 284.28 5.35
1788 96.7900 1.065878 274.84 284.45 5.36
1789 96.8400 1.065466 280.82 284.64 5.40
1790 96.8900 1.065053 294.05 284.86 5.48
1791 96.9400 1.064642 281.89 285.11 5.34
1792 96.9900 1.064231 280.75 285.42 5.32
1793 97.0400 1.063820 291.10 285.79 5.45
1794 97.0900 1.063410 282.72 286.27 5.34
1795 97.1400 1.063000 286.84 286.94 5.39
1796 97.1900 1.062591 286.93 287.95 5.45
1797 97.2400 1.062183 288.60 289.60 5.47
1798 97.2900 1.061774 294.00 292.37 5.45
1799 97.3400 1.061367 298.49 297.05 5.51
1800 97.3900 1.060960 307.73 304.67 5.60
1801 97.4400 1.060553 333.62 316.39 5.79
1802 97.4900 1.060147 353.53 333.23 5.96
1803 97.5400 1.059742 388.95 355.51 6.25
1804 97.5900 1.059337 417.80 382.42 6.52
1805 97.6400 1.058932 447.42 411.58 6.70
1806 97.6900 1.058529 448.44 439.02 6.71
1807 97.7400 1.058125 446.12 459.54 6.69
1808 97.7900 1.057722 431.64 468.06 6.64
1809 97.8400 1.057320 408.54 462.12 6.42
1810 97.8900 1.056918 398.90 443.58 6.34
1811 97.9400 1.056516 383.95 417.32 6.28
1812 97.9900 1.056116 370.36 388.68 6.18
1813 98.0400 1.055715 358.91 361.86 6.04
1814 98.0900 1.055315 339.55 339.46 5.84
1815 98.1400 1.054916 333.26 322.45 5.80
1816 98.1900 1.054517 316.63 310.56 5.64
1817 98.2400 1.054119 310.76 302.72 5.61
1818 98.2900 1.053721 302.02 297.68 5.55
1819 98.3400 1.053323 292.24 294.37 5.43
1820 98.3900 1.052926 291.40 292.07 5.41
1821 98.4400 1.052530 284.79 290.38 5.36
1822 98.4900 1.052134 279.49 289.09 5.37
1823 98.5400 1.051739 280.41 288.06 5.37
1824 98.5900 1.051344 278.51 287.27 5.40
1825 98.6400 1.050949 288.20 286.68 5.41
1826 98.6900 1.050555 277.58 286.21 5.32
1827 98.7400 1.050162 278.53 285.91 5.30
1828 98.7900 1.049769 283.14 285.70 5.34
1829 98.8400 1.049377 280.38 285.55 5.31
1830 98.8900 1.048985 289.37 285.44 5.44
1831 98.9400 1.048593 292.04 285.38 5.48
1832 98.9900 1.048203 284.61 285.22 5.39
1833 99.0400 1.047812 281.20 285.08 5.31
1834 99.0900 1.047422 290.53 284.96 5.41
1835 99.1400 1.047033 292.52 284.86 5.47
1836 99.1900 1.046644 284.39 284.78 5.36
1837 99.2400 1.046255 290.60 284.73 5.41
1838 99.2900 1.045867 285.27 284.70 5.36
1839 99.3400 1.045480 286.10 284.71 5.40
1840 99.3900 1.045093 280.84 284.76 5.36
1841 99.4400 1.044706 289.24 284.87 5.39
1842 99.4900 1.044320 286.19 285.05 5.38
1843 99.5400 1.043934 286.85 285.32 5.44
1844 99.5900 1.043549 286.90 285.73 5.37
1845 99.6400 1.043165 288.84 286.32 5.44
1846 99.6900 1.042781 300.07 287.20 5.50
1847 99.7400 1.042397 287.37 288.52 5.45
1848 99.7900 1.042014 284.72 290.54 5.39
1849 99.8400 1.041631 295.00 293.68 5.48
1850 99.8900 1.041249 308.47 298.50 5.60
1851 99.9400 1.040867 303.58 305.67 5.56
1852 99.9900 1.040486 315.00 315.85 5.65
1853 100.0400 1.040105 334.58 329.45 5.87
1854 100.0900 1.039725 362.62 346.27 6.05
1855 100.1400 1.039345 388.34 365.32 6.27
1856 100.1900 1.038966 408.76 384.65 6.45
1857 100.2400 1.038587 423.64 401.42 6.60
1858 100.2900 1.038208 437.01 412.38 6.66
1859 100.3400 1.037830 423.64 415.03 6.53
1860 100.3900 1.037453 414.41 409.10 6.45
1861 100.4400 1.037076 413.58 396.85 6.45
1862 100.4900 1.036699 393.96 381.69 6.30
1863 100.5400 1.036323 374.68 366.69 6.15
1864 100.5900 1.035948 368.23 353.88 6.10
1865 100.6400 1.035573 352.35 344.04 5.96
1866 100.6900 1.035198 339.94 336.79 5.84
1867 100.7400 1.034824 339.90 330.98 5.88
1868 100.7900 1.034450 338.23 325.38 5.85
1869 100.8400 1.034077 321.92 319.22 5.70
1870 100.8900 1.033704 319.89 312.56 5.68
1871 100.9400 1.033332 301.37 305.86 5.54
1872 100.9900 1.032960 297.91 299.62 5.47
1873 101.0400 1.032589 287.52 294.25 5.38
1874 101.0900 1.032218 284.46 289.95 5.39
1875 101.1400 1.031847 284.04 286.73 5.41
1876 101.1900 1.031477 281.44 284.44 5.38
1877 101.2400 1.031108 281.85 282.84 5.34
1878 101.2900 1.030739 282.03 281.81 5.33
1879 101.3400 1.030370 287.64 281.11 5.39
1880 101.3900 1.030002 287.36 280.62 5.37
1881 101.4400 1.029634 282.33 280.26 5.37
1882 101.4900 1.029267 284.69 279.96 5.39
1883 101.5400 1.028900 282.81 279.70 5.39
1884 101.5900 1.028534 280.88 279.48 5.45
1885 101.6400 1.028168 282.55 279.27 5.40
1886 101.6900 1.027803 279.04 279.08 5.32
1887 101.7400 1.027438 281.05 278.90 5.34
1888 101.7900 1.027073 282.53 278.73 5.33
1889 101.8400 1.026709 273.92 278.57 5.26
1890 101.8900 1.026346 270.60 278.41 5.21
1891 101.9400 1.025982 281.16 278.27 5.33
1892 101.9900 1.025620 274.65 278.12 5.31
1893 102.0400 1.025258 274.92 278.08 5.28
1894 102.0900 1.024896 278.10 278.04 5.32
1895 102.1400 1.024535 277.24 278.00 5.36
1896 102.1900 1.024174 279.90 277.97 5.37
1897 102.2400 1.023813 275.14 277.94 5.32
1898 102.2900 1.023453 276.05 277.91 5.27
1899 102.3400 1.023094 275.02 277.89 5.31
1900 102.3900 1.022735 276.78 277.87 5.29
1901 102.4400 1.022376 276.58 277.85 5.34
1902 102.4900 1.022018 278.53 277.83 5.39
1903 102.5400 1.021660 267.26 277.81 5.29
1904 102.5900 1.021303 279.05 277.80 5.40
1905 102.6400 1.020946 279.33 277.78 5.43
1906 102.6900 1.020589 275.82 277.77 5.30
1907 102.7400 1.020234 266.95 277.76 5.21
1908 102.7900 1.019878 271.77 277.75 5.25
1909 102.8400 1.019523 274.68 277.74 5.26
1910 102.8900 1.019168 264.93 277.73 5.31
1911 102.9400 1.018814 271.03 277.73 5.28
1912 102.9900 1.018460 273.32 277.72 5.33
1913 103.0400 1.018107 276.53 277.72 5.36
1914 103.0900 1.017754 266.49 277.75 5.28
1915 103.1400 1.017402 269.98 277.75 5.23
1916 103.1900 1.017050 277.66 277.75 5.34
1917 103.2400 1.016698 272.90 277.75 5.27
1918 103.2900 1.016347 275.20 277.75 5.29
1919 103.3400 1.015996 279.11 277.75 5.40
1920 103.3900 1.015646 273.33 277.76 5.31
1921 103.4400 1.015296 277.92 277.77 5.33
1922 103.4900 1.014947 277.82 277.77 5.33
1923 103.5400 1.014598 275.92 277.78 5.27
1924 103.5900 1.014249 280.92 277.79 5.32
1925 103.6400 1.013901 276.42 277.80 5.37
1926 103.6900 1.013553 276.50 277.82 5.33
1927 103.7400 1.013206 285.33 277.83 5.38
1928 103.7900 1.012859 277.08 277.85 5.34
1929 103.8400 1.012513 273.21 277.87 5.31
1930 103.8900 1.012167 280.57 277.89 5.34
1931 103.9400 1.011822 279.74 277.92 5.31
1932 103.9900 1.011477 276.72 277.95 5.28
1933 104.0400 1.011132 273.58 277.98 5.30
1934 104.0900 1.010788 276.83 278.01 5.32
1935 104.1400 1.010444 279.68 278.05 5.41
1936 104.1900 1.010100 272.13 278.10 5.28
1937 104.2400 1.009757 273.85 278.14 5.35
1938 104.2900 1.009415 275.07 278.20 5.30
1939 104.3400 1.009073 276.52 278.26 5.35
1940 104.3900 1.008731 275.80 278.34 5.28
1941 104.4400 1.008390 272.42 278.42 5.27
1942 104.4900 1.008049 266.41 278.52 5.34
1943 104.5400 1.007709 266.13 278.63 5.25
1944 104.5900 1.007369 279.80 278.77 5.32
1945 104.6400 1.007029 277.10 278.93 5.34
1946 104.6900 1.006690 281.95 279.16 5.34
1947 104.7400 1.006351 267.91 279.49 5.28
1948 104.7900 1.006013 284.52 279.99 5.37
1949 104.8400 1.005675 282.39 280.80 5.35
1950 104.8900 1.005337 271.25 282.12 5.25
1951 104.9400 1.005000 282.84 284.25 5.33
1952 104.9900 1.004664 285.57 287.53 5.40
1953 105.0400 1.004328 284.33 292.32 5.42
1954 105.0900 1.003992 292.62 298.87 5.45
1955 105.1400 1.003656 293.21 307.21 5.49
1956 105.1900 1.003321 315.73 316.97 5.74
1957 105.2400 1.002987 334.25 327.31 5.79
1958 105.2900 1.002653 358.33 336.92 5.99
1959 105.3400 1.002319 384.68 344.17 6.21
1960 105.3900 1.001986 385.68 347.45 6.24
1961 105.4400 1.001653 391.54 345.92 6.28
1962 105.4900 1.001320 360.77 340.00 6.04
1963 105.5400 1.000988 334.44 331.10 5.79
1964 105.5900 1.000656 316.92 320.92 5.67
1965 105.6400 1.000325 290.98 310.91 5.47
1966 105.6900 0.999994 292.36 302.08 5.47
1967 105.7400 0.999664 280.46 294.94 5.30
1968 105.7900 0.999334 290.11 289.62 5.43
1969 105.8400 0.999004 284.43 285.92 5.43
1970 105.8900 0.998675 278.13 283.52 5.33
1971 105.9400 0.998346 280.57 282.04 5.32
1972 105.9900 0.998018 282.79 281.19 5.36
1973 106.0400 0.997690 282.46 280.72 5.35
1974 106.0900 0.997362 288.25 280.49 5.39
1975 106.1400 0.997035 290.47 280.43 5.40
1976 106.1900 0.996708 282.42 280.49 5.36
1977 106.2400 0.996382 280.79 280.71 5.33
1978 106.2900 0.996056 285.05 281.14 5.44
1979 106.3400 0.995730 287.73 281.91 5.45
1980 106.3900 0.995405 277.05 283.17 5.30
1981 106.4400 0.995080 280.62 285.13 5.35
1982 106.4900 0.994756 295.50 287.98 5.47
1983 106.5400 0.994432 284.66 291.92 5.37
1984 106.5900 0.994108 293.41 296.94 5.44
1985 106.6400 0.993785 307.41 302.87 5.57
1986 106.6900 0.993462 320.55 309.24 5.67
1987 106.7400 0.993140 324.04 315.32 5.71
1988 106.7900 0.992818 344.13 320.16 5.89
1989 106.8400 0.992496 341.84 322.80 5.90
1990 106.8900 0.992175 336.86 322.66 5.83
1991 106.9400 0.991854 325.93 319.82 5.73
1992 106.9900 0.991534 317.33 314.99 5.65
1993 107.0400 0.991214 306.94 309.16 5.57
1994 107.0900 0.990895 301.24 303.24 5.55
1995 107.1400 0.990575 290.29 297.93 5.47
1996 107.1900 0.990256 290.86 293.68 5.48
1997 107.2400 0.989938 283.96 290.72 5.48
1998 107.2900 0.989620 290.77 289.13 5.47
1999 107.3400 0.989302 286.71 289.02 5.41
2000 107.3900 0.988985 297.84 290.60 5.51
2001 107.4400 0.988668 306.96 294.25 5.56
2002 107.4900 0.988352 316.21 300.61 5.68
2003 107.5400 0.988036 325.49 310.43 5.78
2004 107.5900 0.987720 339.90 324.42 5.89
2005 107.6400 0.987405 350.73 342.90 5.94
2006 107.6900 0.987090 360.48 365.53 6.05
2007 107.7400 0.986775 369.45 390.98 6.11
2008 107.7900 0.986461 372.45 416.84 6.15
2009 107.8400 0.986148 391.06 439.71 6.27
2010 107.8900 0.985834 406.20 455.67 6.39
2011 107.9400 0.985521 417.21 461.47 6.48
2012 107.9900 0.985209 434.97 456.13 6.62
2013 108.0400 0.984896 437.21 441.61 6.67
2014 108.0900 0.984585 426.54 421.72 6.54
2015 108.1400 0.984273 410.96 400.38 6.42
2016 108.1900 0.983962 392.33 380.64 6.28
2017 108.2400 0.983652 366.74 364.30 6.07
2018 108.2900 0.983341 355.36 351.77 5.98
2019 108.3400 0.983031 364.52 342.44 6.06
2020 108.3900 0.982722 347.02 335.03 5.94
2021 108.4400 0.982413 343.25 328.30 5.88
2022 108.4900 0.982104 325.77 321.58 5.77
2023 108.5400 0.981796 319.45 314.74 5.72
2024 108.5900 0.981488 299.71 308.08 5.56
2025 108.6400 0.981180 298.21 301.92 5.51
2026 108.6900 0.980873 289.70 296.58 5.40
2027 108.7400 0.980566 284.53 292.23 5.39
2028 108.7900 0.980260 285.43 288.89 5.39
2029 108.8400 0.979954 280.03 286.49 5.34
2030 108.8900 0.979648 278.30 284.84 5.35
2031 108.9400 0.979342 287.00 283.76 5.44
2032 108.9900 0.979038 284.52 283.08 5.38
2033 109.0400 0.978733 276.43 282.66 5.28
2034 109.0900 0.978429 276.22 282.42 5.37
2035 109.1400 0.978125 273.78 282.28 5.35
2036 109.1900 0.977821 281.66 282.20 5.37
2037 109.2400 0.977518 280.77 282.19 5.34
2038 109.2900 0.977216 280.80 282.23 5.37
2039 109.3400 0.976913 281.63 282.31 5.38
2040 109.3900 0.976611 282.20 282.43 5.37
2041 109.4400 0.976310 275.51 282.59 5.28
2042 109.4900 0.976009 276.37 282.80 5.30
2043 109.5400 0.975708 276.76 283.05 5.30
2044 109.5900 0.975407 276.90 283.37 5.28
2045 109.6400 0.975107 285.77 283.76 5.39
2046 109.6900 0.974807 280.17 284.26 5.32
2047 109.7400 0.974508 283.57 284.92 5.37
2048 109.7900 0.974209 284.16 285.84 5.36
2049 109.8400 0.973910 289.86 287.20 5.43
2050 109.8900 0.973612 292.58 289.32 5.47
2051 109.9400 0.973314 297.65 292.71 5.52
2052 109.9900 0.973017 315.71 298.16 5.63
2053 110.0400 0.972720 324.96 306.58 5.77
2054 110.0900 0.972423 327.67 319.17 5.78
2055 110.1400 0.972126 347.85 337.10 5.95
2056 110.1900 0.971830 371.61 361.14 6.11
2057 110.2400 0.971535 403.06 391.30 6.36
2058 110.2900 0.971239 421.44 426.44 6.50
2059 110.3400 0.970944 434.30 463.97 6.60
2060 110.3900 0.970650 447.10 499.88 6.74
2061 110.4400 0.970356 472.68 528.94 6.89
2062 110.4900 0.970062 498.77 545.75 7.08
2063 110.5400 0.969768 518.73 546.59 7.22
2064 110.5900 0.969475 525.53 531.36 7.26
2065 110.6400 0.969182 522.32 503.58 7.28
2066 110.6900 0.968890 488.54 468.60 7.03
2067 110.7400 0.968598 433.20 431.72 6.64
2068 110.7900 0.968306 394.11 397.07 6.29
2069 110.8400 0.968015 359.27 367.36 6.01
2070 110.8900 0.967724 340.00 343.79 5.85
2071 110.9400 0.967433 329.11 326.36 5.77
2072 110.9900 0.967143 314.72 314.22 5.64
2073 111.0400 0.966853 309.69 306.09 5.59
2074 111.0900 0.966563 305.35 300.68 5.59
2075 111.1400 0.966274 303.80 296.95 5.53
2076 111.1900 0.965985 291.65 294.17 5.49
2077 111.2400 0.965697 289.24 291.93 5.43
2078 111.2900 0.965409 285.05 290.06 5.39
2079 111.3400 0.965121 288.01 288.47 5.42
2080 111.3900 0.964834 290.87 287.14 5.45
2081 111.4400 0.964547 289.72 286.06 5.44
2082 111.4900 0.964260 286.38 285.23 5.41
2083 111.5400 0.963974 286.05 284.60 5.44
2084 111.5900 0.963688 279.50 284.14 5.40
2085 111.6400 0.963402 290.24 283.82 5.42
2086 111.6900 0.963117 289.04 283.61 5.41
2087 111.7400 0.962832 278.28 283.47 5.32
2088 111.7900 0.962547 277.24 283.39 5.31
2089 111.8400 0.962263 278.76 283.36 5.35
2090 111.8900 0.961979 281.09 283.36 5.35
2091 111.9400 0.961695 284.87 283.40 5.40
2092 111.9900 0.961412 288.02 283.47 5.40
2093 112.0400 0.961129 284.94 283.58 5.41
2094 112.0900 0.960847 273.91 283.73 5.34
2095 112.1400 0.960565 276.36 283.92 5.31
2096 112.1900 0.960283 277.99 284.16 5.30
2097 112.2400 0.960002 281.38 284.45 5.34
2098 112.2900 0.959721 292.83 284.86 5.48
2099 112.3400 0.959440 279.76 285.36 5.34
2100 112.3900 0.959159 292.12 286.04 5.44
2101 112.4400 0.958879 285.71 287.03 5.39
2102 112.4900 0.958600 285.19 288.54 5.41
2103 112.5400 0.958320 286.02 290.91 5.48
2104 112.5900 0.958041 292.31 294.61 5.53
2105 112.6400 0.957763 295.91 300.38 5.47
2106 112.6900 0.957484 301.28 309.06 5.53
2107 112.7400 0.957206 304.33 321.57 5.55
2108 112.7900 0.956929 322.86 338.66 5.70
2109 112.8400 0.956651 342.39 360.67 5.90
2110 112.8900 0.956374 365.40 387.22 6.05
2111 112.9400 0.956098 418.98 416.97 6.48
2112 112.9900 0.955822 461.27 447.49 6.82
2113 113.0400 0.955546 491.45 475.34 7.04
2114 113.0900 0.955270 519.51 496.35 7.22
2115 113.1400 0.954995 535.48 506.63 7.33
2116 113.1900 0.954720 551.72 503.97 7.47
2117 113.2400 0.954445 530.04 489.00 7.30
2118 113.2900 0.954171 485.81 464.80 6.98
2119 113.3400 0.953897 442.99 435.50 6.67
2120 113.3900 0.953624 397.79 405.01 6.35
2121 113.4400 0.953350 360.00 376.39 6.09
2122 113.4900 0.953078 339.97 351.64 5.92
2123 113.5400 0.952805 311.47 331.68 5.63
2124 113.5900 0.952533 308.76 316.56 5.59
2125 113.6400 0.952261 304.10 305.72 5.63
2126 113.6900 0.951989 298.26 298.31 5.51
2127 113.7400 0.951718 295.91 293.41 5.54
2128 113.7900 0.951447 292.49 290.22 5.46
2129 113.8400 0.951177 291.32 288.11 5.48
2130 113.8900 0.950907 286.07 286.67 5.47
2131 113.9400 0.950637 287.67 285.63 5.47
2132 113.9900 0.950367 294.24 284.84 5.46
2133 114.0400 0.950098 287.24 284.21 5.38
2134 114.0900 0.949829 285.19 283.70 5.37
2135 114.1400 0.949561 281.46 283.27 5.34
2136 114.1900 0.949293 287.71 282.91 5.53
2137 114.2400 0.949025 287.25 282.61 5.43
2138 114.2900 0.948757 280.38 282.35 5.36
2139 114.3400 0.948490 283.66 282.13 5.40
2140 114.3900 0.948223 293.58 281.95 5.56
2141 114.4400 0.947957 279.40 281.78 5.36
2142 114.4900 0.947691 289.94 281.64 5.46
2143 114.5400 0.947425 290.63 281.52 5.50
2144 114.5900 0.947159 281.83 281.40 5.51
2145 114.6400 0.946894 283.52 281.29 5.40
2146 114.6900 0.946629 286.42 281.19 5.37
2147 114.7400 0.946365 282.35 281.10 5.35
2148 114.7900 0.946100 285.63 281.02 5.40
2149 114.8400 0.945836 290.34 280.95 5.44
2150 114.8900 0.945573 286.16 280.88 5.45
2151 114.9400 0.945310 279.07 280.82 5.35
2152 114.9900 0.945047 284.13 280.77 5.49
2153 115.0400 0.944784 282.42 280.71 5.51
2154 115.0900 0.944522 277.86 280.67 5.37
2155 115.1400 0.944260 283.85 280.62 5.46
2156 115.1900 0.943998 294.84 280.58 5.48
2157 115.2400 0.943737 292.34 280.54 5.54
2158 115.2900 0.943476 285.90 280.51 5.40
2159 115.3400 0.943215 280.44 280.47 5.36
2160 115.3900 0.942955 282.27 280.44 5.40
2161 115.4400 0.942695 287.86 280.41 5.42
2162 115.4900 0.942435 280.97 280.39 5.47
2163 115.5400 0.942176 283.73 280.36 5.42
2164 115.5900 0.941917 294.60 280.34 5.55
2165 115.6400 0.941658 280.80 280.32 5.45
2166 115.6900 0.941400 277.11 280.33 5.30
2167 115.7400 0.941142 273.84 280.36 5.28
2168 115.7900 0.940884 289.10 280.40 5.40
2169 115.8400 0.940627 278.61 280.43 5.28
2170 115.8900 0.940370 281.70 280.46 5.34
2171 115.9400 0.940113 282.59 280.50 5.42
2172 115.9900 0.939856 284.55 280.54 5.44
2173 116.0400 0.939600 286.54 280.58 5.42
2174 116.0900 0.939344 276.59 280.61 5.32
2175 116.1400 0.939089 270.37 280.65 5.31
2176 116.1900 0.938834 274.39 280.69 5.29
2177 116.2400 0.938579 281.48 280.73 5.38
2178 116.2900 0.938324 281.40 280.77 5.40
2179 116.3400 0.938070 284.23 280.82 5.34
2180 116.3900 0.937816 283.68 280.86 5.35
2181 116.4400 0.937563 284.62 280.90 5.38
2182 116.4900 0.937309 283.90 280.95 5.36
2183 116.5400 0.937056 288.56 281.00 5.39
2184 116.5900 0.936804 277.03 281.04 5.30
2185 116.6400 0.936551 287.39 281.09 5.39
2186 116.6900 0.936299 286.72 281.14 5.41
2187 116.7400 0.936048 286.69 281.19 5.42
2188 116.7900 0.935796 283.22 281.24 5.36
2189 116.8400 0.935545 284.67 281.29 5.40
2190 116.8900 0.935294 277.00 281.34 5.36
2191 116.9400 0.935044 287.80 281.39 5.45
2192 116.9900 0.934794 286.38 281.44 5.45
2193 117.0400 0.934544 288.43 281.50 5.42
2194 117.0900 0.934294 285.20 281.55 5.40
2195 117.1400 0.934045 285.31 281.60 5.36
2196 117.1900 0.933796 280.65 281.66 5.36
2197 117.2400 0.933548 281.32 281.72 5.38
2198 117.2900 0.933299 276.87 281.77 5.40
2199 117.3400 0.933051 286.10 281.83 5.48
2200 117.3900 0.932804 284.39 281.89 5.43
2201 117.4400 0.932556 289.47 281.92 5.57
2202 117.4900 0.932309 287.77 281.98 5.47
2203 117.5400 0.932063 278.93 282.04 5.37
2204 117.5900 0.931816 280.88 282.10 5.37
2205 117.6400 0.931570 283.21 282.17 5.41
2206 117.6900 0.931324 278.64 282.23 5.38
2207 117.7400 0.931079 280.62 282.29 5.39
2208 117.7900 0.930833 282.51 282.36 5.38
2209 117.8400 0.930588 277.23 282.48 5.39
2210 117.8900 0.930344 282.92 282.61 5.38
2211 117.9400 0.930100 284.43 282.73 5.44
2212 117.9900 0.929856 281.36 282.86 5.37
2213 118.0400 0.929612 284.78 282.99 5.45
2214 118.0900 0.929368 281.07 283.13 5.46
2215 118.1400 0.929125 287.85 283.26 5.42
2216 118.1900 0.928883 285.27 283.40 5.44
2217 118.2400 0.928640 278.15 283.54 5.38
2218 118.2900 0.928398 278.19 283.69 5.36
2219 118.3400 0.928156 273.52 283.84 5.31
2220 118.3900 0.927915 284.27 284.00 5.41
2221 118.4400 0.927673 284.51 284.17 5.37
2222 118.4900 0.927432 283.05 284.36 5.36
2223 118.5400 0.927192 273.04 284.59 5.25
2224 118.5900 0.926951 288.23 284.86 5.53
2225 118.6400 0.926711 286.38 285.21 5.36
2226 118.6900 0.926472 285.48 285.66 5.36
2227 118.7400 0.926232 290.40 286.25 5.51
2228 118.7900 0.925993 282.01 287.00 5.38
2229 118.8400 0.925754 289.02 287.95 5.41
2230 118.8900 0.925516 284.99 289.12 5.49
2231 118.9400 0.925277 289.43 290.44 5.48
2232 118.9900 0.925039 290.14 291.90 5.51
2233 119.0400 0.924802 282.88 293.39 5.41
2234 119.0900 0.924564 290.36 294.81 5.43
2235 119.1400 0.924327 290.29 296.00 5.48
2236 119.1900 0.924091 296.92 296.81 5.52
2237 119.2400 0.923854 302.73 297.14 5.59
2238 119.2900 0.923618 304.65 296.95 5.63
2239 119.3400 0.923382 299.06 296.31 5.51
2240 119.3900 0.923147 297.63 295.35 5.57
2241 119.4400 0.922911 292.05 294.22 5.45
2242 119.4900 0.922676 290.62 293.05 5.45
2243 119.5400 0.922442 290.54 291.97 5.48
2244 119.5900 0.922207 287.09 291.04 5.41
2245 119.6400 0.921973 294.02 290.30 5.46
2246 119.6900 0.921739 292.90 289.77 5.53
2247 119.7400 0.921506 293.57 289.43 5.47
2248 119.7900 0.921273 289.29 289.24 5.40
2249 119.8400 0.921040 279.87 289.19 5.34
2250 119.8900 0.920807 284.32 289.24 5.52
2251 119.9400 0.920575 282.14 289.36 5.48
2252 119.9900 0.920343 293.93 289.54 5.44
2253 120.0400 0.920111 299.00 289.76 5.49
2254 120.0900 0.919879 296.72 290.01 5.53
2255 120.1400 0.919648 292.51 290.29 5.47
2256 120.1900 0.919417 289.76 290.60 5.47
2257 120.2400 0.919187 286.99 290.94 5.48
2258 120.2900 0.918957 283.17 291.31 5.40
2259 120.3400 0.918727 290.00 291.68 5.50
2260 120.3900 0.918497 292.91 292.13 5.55
2261 120.4400 0.918267 292.60 292.63 5.52
2262 120.4900 0.918038 287.52 293.21 5.39
2263 120.5400 0.917809 281.98 293.88 5.36
2264 120.5900 0.917581 279.35 294.70 5.37
2265 120.6400 0.917353 296.09 295.76 5.49
2266 120.6900 0.917125 294.40 297.19 5.48
2267 120.7400 0.916897 295.93 299.20 5.46
2268 120.7900 0.916670 292.31 302.11 5.43
2269 120.8400 0.916442 301.07 306.42 5.57
2270 120.8900 0.916216 308.23 312.66 5.68
2271 120.9400 0.915989 309.37 321.60 5.66
2272 120.9900 0.915763 316.85 334.04 5.70
2273 121.0400 0.915537 334.78 350.76 5.82
2274 121.0900 0.915311 364.26 372.31 6.05
2275 121.1400 0.915086 395.30 398.86 6.30
2276 121.1900 0.914861 432.76 429.98 6.60
2277 121.2400 0.914636 473.35 464.45 6.93
2278 121.2900 0.914411 520.95 500.24 7.27
2279 121.3400 0.914187 539.25 534.47 7.36
2280 121.3900 0.913963 555.28 563.62 7.47
2281 121.4400 0.913739 566.21 583.98 7.54
2282 121.4900 0.913516 573.16 592.52 7.59
2283 121.5400 0.913293 575.37 587.89 7.63
2284 121.5900 0.913070 590.18 570.98 7.70
2285 121.6400 0.912847 571.54 544.50 7.57
2286 121.6900 0.912625 536.32 512.01 7.34
2287 121.7400 0.912403 493.41 477.13 7.06
2288 121.7900 0.912181 431.95 442.92 6.59
2289 121.8400 0.911960 394.50 411.64 6.32
2290 121.8900 0.911739 361.32 384.71 6.04
2291 121.9400 0.911518 350.44 362.74 5.95
2292 121.9900 0.911297 324.58 345.67 5.77
2293 122.0400 0.911077 331.20 332.97 5.79
2294 122.0900 0.910857 321.21 323.85 5.69
2295 122.1400 0.910637 314.84 317.43 5.65
2296 122.1900 0.910418 313.57 312.94 5.61
2297 122.2400 0.910199 308.50 309.71 5.63
2298 122.2900 0.909980 299.55 307.31 5.53
2299 122.3400 0.909761 309.03 305.42 5.59
2300 122.3900 0.909543 299.92 303.88 5.57
2301 122.4400 0.909324 303.62 302.59 5.64
2302 122.4900 0.909107 296.62 301.51 5.49
2303 122.5400 0.908889 297.33 300.61 5.50
2304 122.5900 0.908672 302.43 299.89 5.53
2305 122.6400 0.908455 305.35 299.32 5.57
2306 122.6900 0.908238 293.00 298.90 5.46
2307 122.7400 0.908022 301.49 298.60 5.57
2308 122.7900 0.907806 295.93 298.40 5.51
2309 122.8400 0.907590 298.80 298.29 5.51
2310 122.8900 0.907374 296.56 298.24 5.46
2311 122.9400 0.907159 302.77 298.26 5.53
2312 122.9900 0.906944 300.30 298.31 5.53
2313 123.0400 0.906729 289.04 298.41 5.44
2314 123.0900 0.906515 293.96 298.49 5.48
2315 123.1400 0.906300 290.90 298.61 5.53
2316 123.1900 0.906086 294.72 298.76 5.55
2317 123.2400 0.905873 293.79 298.95 5.48
2318 123.2900 0.905659 294.45 299.14 5.45
2319 123.3400 0.905446 293.59 299.42 5.47
2320 123.3900 0.905233 296.99 299.75 5.51
2321 123.4400 0.905021 301.00 300.15 5.62
2322 123.4900 0.904808 298.11 300.66 5.58
2323 123.5400 0.904596 298.97 301.33 5.58
2324 123.5900 0.904385 308.27 302.23 5.60
2325 123.6400 0.904173 293.09 303.49 5.45
2326 123.6900 0.903962 308.85 305.31 5.64
2327 123.7400 0.903751 311.34 307.95 5.68
2328 123.7900 0.903540 313.77 311.78 5.66
2329 123.8400 0.903330 327.01 317.24 5.73
2330 123.8900 0.903120 337.31 324.88 5.83
2331 123.9400 0.902910 355.94 335.23 5.99
2332 123.9900 0.902700 370.88 348.82 6.10
2333 124.0400 0.902491 406.36 365.95 6.39
2334 124.0900 0.902282 438.70 386.67 6.67
2335 124.1400 0.902073 451.31 410.63 6.76
2336 124.1900 0.901864 458.94 436.98 6.79
2337 124.2400 0.901656 457.10 464.32 6.77
2338 124.2900 0.901448 444.95 490.73 6.68
2339 124.3400 0.901240 461.19 513.87 6.80
2340 124.3900 0.901033 463.57 531.28 6.82
2341 124.4400 0.900826 475.74 540.81 6.91
2342 124.4900 0.900619 499.37 541.34 7.08
2343 124.5400 0.900412 523.80 533.14 7.25
2344 124.5900 0.900206 513.99 517.78 7.18
2345 124.6400 0.900000 511.33 497.60 7.16
2346 124.6900 0.899794 497.57 474.92 7.08
2347 124.7400 0.899588 479.47 451.78 6.97
2348 124.7900 0.899383 453.35 429.57 6.75
2349 124.8400 0.899178 420.36 408.96 6.49
2350 124.8900 0.898973 394.84 390.15 6.29
2351 124.9400 0.898768 371.75 373.11 6.11
2352 124.9900 0.898564 346.66 357.86 5.93
2353 125.0400 0.898360 339.89 344.55 5.85
2354 125.0900 0.898156 332.81 333.32 5.78
2355 125.1400 0.897953 330.88 324.25 5.78
2356 125.1900 0.897750 326.25 317.24 5.73
2357 125.2400 0.897547 317.49 312.09 5.66
2358 125.2900 0.897344 321.24 308.46 5.71
2359 125.3400 0.897142 328.93 306.01 5.77
2360 125.3900 0.896939 330.73 304.39 5.82
2361 125.4400 0.896738 315.94 303.34 5.64
2362 125.4900 0.896536 312.85 302.64 5.61
2363 125.5400 0.896335 315.78 302.16 5.64
2364 125.5900 0.896133 306.32 301.81 5.57
2365 125.6400 0.895933 308.12 301.55 5.60
2366 125.6900 0.895732 310.87 301.34 5.64
2367 125.7400 0.895532 301.24 301.17 5.59
2368 125.7900 0.895332 303.03 301.04 5.54
2369 125.8400 0.895132 306.78 300.93 5.56
2370 125.8900 0.894932 301.85 300.85 5.53
2371 125.9400 0.894733 306.69 300.79 5.60
2372 125.9900 0.894534 309.99 300.74 5.58
2373 126.0400 0.894335 303.33 300.72 5.56
2374 126.0900 0.894136 304.66 300.71 5.61
2375 126.1400 0.893938 296.32 300.72 5.49
2376 126.1900 0.893740 295.93 300.75 5.48
2377 126.2400 0.893542 298.10 300.79 5.48
2378 126.2900 0.893345 295.78 300.84 5.46
2379 126.3400 0.893148 295.72 300.92 5.47
2380 126.3900 0.892951 291.28 301.01 5.46
2381 126.4400 0.892754 300.84 301.12 5.53
2382 126.4900 0.892558 294.48 301.27 5.50
2383 126.5400 0.892361 300.37 301.46 5.51
2384 126.5900 0.892165 304.16 301.71 5.59
2385 126.6400 0.891970 306.51 302.05 5.57
2386 126.6900 0.891774 305.10 302.51 5.55
2387 126.7400 0.891579 301.83 303.17 5.51
2388 126.7900 0.891384 305.35 304.09 5.59
2389 126.8400 0.891189 303.09 305.40 5.58
2390 126.8900 0.890995 309.86 307.22 5.60
2391 126.9400 0.890801 317.54 309.69 5.71
2392 126.9900 0.890607 332.02 312.98 5.83
2393 127.0400 0.890413 338.35 317.22 5.85
2394 127.0900 0.890220 351.52 322.52 5.95
2395 127.1400 0.890027 361.59 328.89 6.03
2396 127.1900 0.889834 355.93 336.26 5.99
2397 127.2400 0.889641 359.41 344.43 6.05
2398 127.2900 0.889449 359.52 353.06 6.03
2399 127.3400 0.889257 348.06 361.67 5.91
2400 127.3900 0.889065 352.79 369.64 5.98
2401 127.4400 0.888873 355.87 376.29 6.01
2402 127.4900 0.888682 348.96 380.90 5.94
2403 127.5400 0.888490 360.14 382.95 6.03
2404 127.5900 0.888300 358.45 382.19 6.01
2405 127.6400 0.888109 362.49 378.72 6.04
2406 127.6900 0.887919 373.54 373.01 6.18
2407 127.7400 0.887728 376.27 365.67 6.16
2408 127.7900 0.887539 369.55 357.40 6.09
2409 127.8400 0.887349 340.81 348.85 5.87
2410 127.8900 0.887160 341.92 340.55 5.86
2411 127.9400 0.886970 331.94 332.91 5.77
2412 127.9900 0.886781 320.81 326.18 5.70
2413 128.0400 0.886593 316.34 320.51 5.64
2414 128.0900 0.886405 313.82 315.90 5.69
2415 128.1400 0.886216 307.01 312.29 5.58
2416 128.1900 0.886028 307.17 309.54 5.57
2417 128.2400 0.885841 296.78 307.52 5.52
2418 128.2900 0.885653 297.84 306.08 5.49
2419 128.3400 0.885466 293.38 305.06 5.49
2420 128.3900 0.885279 303.82 304.37 5.58
2421 128.4400 0.885093 303.39 303.90 5.53
2422 128.4900 0.884906 292.39 303.58 5.46
2423 128.5400 0.884720 298.97 303.36 5.58
2424 128.5900 0.884534 306.42 303.22 5.63
2425 128.6400 0.884349 307.59 303.12 5.60
2426 128.6900 0.884163 305.23 303.05 5.59
2427 128.7400 0.883978 305.15 303.01 5.63
2428 128.7900 0.883793 300.66 302.98 5.53
2429 128.8400 0.883608 303.47 302.96 5.60
2430 128.8900 0.883424 306.80 302.95 5.59
2431 128.9400 0.883240 309.32 302.96 5.58
2432 128.9900 0.883056 302.20 302.97 5.51
2433 129.0400 0.882872 310.23 302.98 5.60
2434 129.0900 0.882689 304.88 303.01 5.55
2435 129.1400 0.882505 300.76 303.03 5.56
2436 129.1900 0.882322 302.09 303.07 5.53
2437 129.2400 0.882140 300.61 303.11 5.51
2438 129.2900 0.881957 312.08 303.15 5.64
2439 129.3400 0.881775 302.37 303.20 5.53
2440 129.3900 0.881593 295.57 303.25 5.47
2441 129.4400 0.881411 299.38 303.30 5.53
2442 129.4900 0.881230 309.40 303.37 5.61
2443 129.5400 0.881049 295.98 303.43 5.49
2444 129.5900 0.880867 292.01 303.51 5.47
2445 129.6400 0.880687 301.50 303.59 5.53
2446 129.6900 0.880506 298.42 303.73 5.51
2447 129.7400 0.880326 304.48 303.87 5.59
2448 129.7900 0.880146 304.19 304.04 5.59
2449 129.8400 0.879966 305.86 304.23 5.65
2450 129.8900 0.879786 299.91 304.45 5.51
2451 129.9400 0.879607 303.68 304.73 5.52
2452 129.9900 0.879428 306.14 305.07 5.59
2453 130.0400 0.879249 304.46 305.51 5.58
2454 130.0900 0.879071 297.09 306.07 5.47
2455 130.1400 0.878892 311.76 306.77 5.59
2456 130.1900 0.878714 312.60 307.66 5.60
2457 130.2400 0.878536 310.03 308.75 5.58
2458 130.2900 0.878358 310.24 310.06 5.60
2459 130.3400 0.878181 309.24 311.60 5.59
2460 130.3900 0.878004 310.32 313.36 5.62
2461 130.4400 0.877827 314.67 315.30 5.70
2462 130.4900 0.877650 320.65 317.37 5.69
2463 130.5400 0.877474 317.88 319.47 5.65
2464 130.5900 0.877298 326.47 321.50 5.73
2465 130.6400 0.877122 329.20 323.35 5.80
2466 130.6900 0.876946 330.33 324.87 5.82
2467 130.7400 0.876770 340.97 325.96 5.85
2468 130.7900 0.876595 348.37 326.55 5.91
2469 130.8400 0.876420 337.51 326.61 5.89
2470 130.8900 0.876245 323.43 326.19 5.73
2471 130.9400 0.876071 328.28 325.40 5.80
2472 130.9900 0.875896 314.57 324.36 5.73
2473 131.0400 0.875722 312.49 323.20 5.66
2474 131.0900 0.875548 313.70 322.02 5.66
2475 131.1400 0.875375 315.15 320.92 5.65
2476 131.1900 0.875201 306.59 319.94 5.59
2477 131.2400 0.875028 313.30 319.10 5.62
2478 131.2900 0.874855 317.85 318.39 5.65
2479 131.3400 0.874683 321.21 317.78 5.70
2480 131.3900 0.874510 313.38 317.21 5.63
2481 131.4400 0.874338 309.70 316.65 5.64
2482 131.4900 0.874166 311.55 316.07 5.66
2483 131.5400 0.873994 309.45 315.45 5.60
2484 131.5900 0.873823 313.75 314.79 5.64
2485 131.6400 0.873651 320.22 314.12 5.74
2486 131.6900 0.873480 316.57 313.45 5.66
2487 131.7400 0.873310 322.01 312.81 5.75
2488 131.7900 0.873139 303.79 312.23 5.59
2489 131.8400 0.872969 307.41 311.71 5.61
2490 131.8900 0.872799 315.65 311.28 5.66
2491 131.9400 0.872629 315.55 310.93 5.65
2492 131.9900 0.872459 307.38 310.67 5.59
2493 132.0400 0.872290 295.20 310.50 5.46
2494 132.0900 0.872120 311.89 310.40 5.63
2495 132.1400 0.871951 316.10 310.37 5.64
2496 132.1900 0.871783 308.18 310.39 5.60
2497 132.2400 0.871614 306.06 310.44 5.57
2498 132.2900 0.871446 309.54 310.53 5.61
2499 132.3400 0.871278 305.07 310.65 5.54
2500 132.3900 0.871110 305.38 310.81 5.63
2501 132.4400 0.870943 320.09 310.98 5.71
2502 132.4900 0.870775 324.83 311.18 5.71
2503 132.5400 0.870608 310.39 311.41 5.60
2504 132.5900 0.870441 308.23 311.65 5.59
2505 132.6400 0.870275 302.43 311.92 5.57
2506 132.6900 0.870108 306.56 312.23 5.58
2507 132.7400 0.869942 303.39 312.56 5.57
2508 132.7900 0.869776 308.29 312.94 5.63
2509 132.8400 0.869610 309.71 313.38 5.61
2510 132.8900 0.869445 306.74 313.90 5.68
2511 132.9400 0.869280 309.08 314.53 5.64
2512 132.9900 0.869115 315.48 315.33 5.67
2513 133.0400 0.868950 308.56 316.36 5.57
2514 133.0900 0.868785 316.12 317.67 5.64
2515 133.1400 0.868621 314.89 319.48 5.63
2516 133.1900 0.868457 328.95 321.91 5.76
2517 133.2400 0.868293 325.83 325.17 5.73
2518 133.2900 0.868129 331.83 329.51 5.80
2519 133.3400 0.867966 335.96 335.22 5.84
2520 133.3900 0.867802 342.63 342.61 5.88
2521 133.4400 0.867639 344.36 351.97 5.93
2522 133.4900 0.867477 356.62 363.58 6.01
2523 133.5400 0.867314 383.08 377.62 6.20
2524 133.5900 0.867152 419.43 394.18 6.49
2525 133.6400 0.866990 431.35 413.15 6.58
2526 133.6900 0.866828 471.46 434.24 6.88
2527 133.7400 0.866666 500.33 456.92 7.09
2528 133.7900 0.866505 522.06 480.43 7.24
2529 133.8400 0.866344 538.34 503.74 7.35
2530 133.8900 0.866183 540.14 525.65 7.36
2531 133.9400 0.866022 547.05 544.80 7.42
2532 133.9900 0.865861 549.85 559.78 7.44
2533 134.0400 0.865701 552.17 569.36 7.52
2534 134.0900 0.865541 564.05 572.70 7.53
2535 134.1400 0.865381 547.95 569.51 7.42
2536 134.1900 0.865221 544.98 560.15 7.40
2537 134.2400 0.865062 544.44 545.49 7.40
2538 134.2900 0.864903 535.86 526.72 7.34
2539 134.3400 0.864744 525.81 505.21 7.34
2540 134.3900 0.864585 518.69 482.26 7.26
2541 134.4400 0.864427 489.57 459.10 7.01
2542 134.4900 0.864268 473.27 436.71 6.89
2543 134.5400 0.864110 441.36 415.89 6.67
2544 134.5900 0.863953 416.01 397.14 6.46
2545 134.6400 0.863795 382.26 380.75 6.21
2546 134.6900 0.863638 366.59 366.85 6.08
2547 134.7400 0.863480 364.69 355.35 6.08
2548 134.7900 0.863323 353.91 346.08 5.98
2549 134.8400 0.863167 335.30 338.78 5.83
2550 134.8900 0.863010 325.11 333.15 5.74
2551 134.9400 0.862854 320.15 328.90 5.70
2552 134.9900 0.862698 323.01 325.76 5.71
2553 135.0400 0.862542 311.50 323.48 5.69
2554 135.0900 0.862386 317.95 321.88 5.77
2555 135.1400 0.862231 307.82 320.78 5.63
2556 135.1900 0.862076 314.87 320.09 5.71
2557 135.2400 0.861921 313.47 319.72 5.65
2558 135.2900 0.861766 322.62 319.61 5.71
2559 135.3400 0.861611 317.90 319.74 5.67
2560 135.3900 0.861457 309.84 320.09 5.63
2561 135.4400 0.861303 308.18 320.66 5.60
2562 135.4900 0.861149 309.60 321.43 5.63
2563 135.5400 0.860996 314.38 322.41 5.65
2564 135.5900 0.860842 318.44 323.57 5.66
2565 135.6400 0.860689 316.55 324.91 5.66
2566 135.6900 0.860536 329.02 326.38 5.80
2567 135.7400 0.860383 319.42 327.95 5.70
2568 135.7900 0.860231 325.95 329.54 5.76
2569 135.8400 0.860078 340.88 331.11 5.85
2570 135.8900 0.859926 343.64 332.55 5.92
2571 135.9400 0.859774 345.47 333.80 5.93
2572 135.9900 0.859622 350.77 334.77 5.93
2573 136.0400 0.859471 347.63 335.41 5.92
2574 136.0900 0.859320 349.80 335.67 6.04
2575 136.1400 0.859169 331.10 335.56 5.82
2576 136.1900 0.859018 338.41 335.12 5.94
2577 136.2400 0.858867 340.61 334.41 5.88
2578 136.2900 0.858717 333.94 333.53 5.80
2579 136.3400 0.858567 327.93 332.58 5.75
2580 136.3900 0.858417 337.30 331.68 5.82
2581 136.4400 0.858267 324.03 330.96 5.74
2582 136.4900 0.858118 327.04 330.54 5.73
2583 136.5400 0.857968 332.67 330.56 5.83
2584 136.5900 0.857819 323.89 331.19 5.72
2585 136.6400 0.857670 331.52 332.57 5.78
2586 136.6900 0.857522 337.01 334.88 5.87
2587 136.7400 0.857373 328.94 338.28 5.78
2588 136.7900 0.857225 329.71 343.02 5.76
2589 136.8400 0.857077 345.71 349.26 5.91
2590 136.8900 0.856929 360.70 357.17 6.03
2591 136.9400 0.856781 368.48 366.88 6.11
2592 136.9900 0.856634 378.62 378.47 6.21
2593 137.0400 0.856487 404.93 391.93 6.37
2594 137.0900 0.856340 414.74 407.16 6.45
2595 137.1400 0.856193 431.46 423.93 6.58
2596 137.1900 0.856047 446.33 441.86 6.69
2597 137.2400 0.855900 466.99 460.46 6.84
2598 137.2900 0.855754 499.70 479.07 7.08
2599 137.3400 0.855608 510.95 496.93 7.18
2600 137.3900 0.855463 497.55 513.19 7.09
2601 137.4400 0.855317 504.70 526.94 7.12
2602 137.4900 0.855172 503.97 537.34 7.12
2603 137.5400 0.855027 499.30 543.70 7.12
2604 137.5900 0.854882 495.90 545.62 7.06
2605 137.6400 0.854738 477.07 543.04 6.92
2606 137.6900 0.854593 460.91 536.29 6.80
2607 137.7400 0.854449 470.23 525.93 6.87
2608 137.7900 0.854305 474.01 512.76 6.90
2609 137.8400 0.854161 480.85 497.58 6.95
2610 137.8900 0.854018 482.51 481.26 6.96
2611 137.9400 0.853874 480.42 464.53 6.94
2612 137.9900 0.853731 481.48 448.04 6.95
2613 138.0400 0.853588 479.46 432.29 6.94
2614 138.0900 0.853445 469.34 417.61 6.86
2615 138.1400 0.853303 453.16 404.23 6.74
2616 138.1900 0.853161 436.18 392.22 6.62
2617 138.2400 0.853019 426.19 381.60 6.54
2618 138.2900 0.852877 405.75 372.32 6.39
2619 138.3400 0.852735 382.01 364.22 6.22
2620 138.3900 0.852594 375.93 357.21 6.17
2621 138.4400 0.852452 365.83 351.16 6.11
2622 138.4900 0.852311 359.06 345.94 6.06
2623 138.5400 0.852171 347.60 341.45 5.96
2624 138.5900 0.852030 341.35 337.58 5.97
2625 138.6400 0.851889 333.48 334.25 5.86
2626 138.6900 0.851749 323.70 331.39 5.75
2627 138.7400 0.851609 323.24 328.93 5.86
2628 138.7900 0.851470 330.49 326.83 5.79
2629 138.8400 0.851330 334.14 325.05 5.80
2630 138.8900 0.851191 323.51 323.55 5.77
2631 138.9400 0.851051 314.87 322.29 5.67
2632 138.9900 0.850912 317.47 321.25 5.66
2633 139.0400 0.850774 323.88 320.39 5.72
2634 139.0900 0.850635 315.97 319.68 5.74
2635 139.1400 0.850497 320.47 319.11 5.68
2636 139.1900 0.850359 317.08 318.64 5.68
2637 139.2400 0.850221 315.95 318.26 5.67
2638 139.2900 0.850083 310.39 317.95 5.62
2639 139.3400 0.849946 319.69 317.70 5.72
2640 139.3900 0.849808 323.02 317.50 5.77
2641 139.4400 0.849671 322.68 317.32 5.74
2642 139.4900 0.849534 316.67 317.18 5.66
2643 139.5400 0.849398 315.15 317.05 5.66
2644 139.5900 0.849261 317.28 316.95 5.76
2645 139.6400 0.849125 318.77 316.85 5.69
2646 139.6900 0.848989 319.23 316.77 5.68
2647 139.7400 0.848853 312.79 316.70 5.63
2648 139.7900 0.848717 310.53 316.64 5.59
2649 139.8400 0.848582 324.50 316.58 5.77
2650 139.8900 0.848446 323.21 316.53 5.74
2651 139.9400 0.848311 324.49 316.48 5.74
2652 139.9900 0.848177 308.37 316.44 5.60
2653 140.0400 0.848042 306.64 316.40 5.56
2654 140.0900 0.847908 316.80 316.37 5.66
2655 140.1400 0.847773 303.17 316.34 5.64
2656 140.1900 0.847639 307.31 316.34 5.62
2657 140.2400 0.847505 319.43 316.39 5.69
2658 140.2900 0.847372 321.66 316.44 5.75
2659 140.3400 0.847238 318.80 316.49 5.76
2660 140.3900 0.847105 310.60 316.54 5.66
2661 140.4400 0.846972 316.41 316.60 5.66
2662 140.4900 0.846839 307.94 316.65 5.63
2663 140.5400 0.846707 310.13 316.71 5.63
2664 140.5900 0.846574 325.05 316.78 5.74
2665 140.6400 0.846442 321.97 316.83 5.74
2666 140.6900 0.846310 316.71 316.90 5.69
2667 140.7400 0.846178 319.33 316.96 5.71
2668 140.7900 0.846047 318.82 317.03 5.71
2669 140.8400 0.845915 312.40 317.10 5.66
2670 140.8900 0.845784 313.60 317.17 5.62
2671 140.9400 0.845653 316.95 317.25 5.67
2672 140.9900 0.845523 325.84 317.32 5.76
2673 141.0400 0.845392 324.83 317.40 5.72
2674 141.0900 0.845262 332.47 317.48 5.87
2675 141.1400 0.845131 323.12 317.55 5.79
2676 141.1900 0.845001 321.92 317.63 5.70
2677 141.2400 0.844872 318.42 317.71 5.72
2678 141.2900 0.844742 312.54 317.80 5.72
2679 141.3400 0.844613 323.39 317.88 5.70
2680 141.3900 0.844484 325.85 317.96 5.76
2681 141.4400 0.844355 329.01 318.05 5.81
2682 141.4900 0.844226 329.91 318.13 5.79
2683 141.5400 0.844097 317.07 318.22 5.65
2684 141.5900 0.843969 319.18 318.31 5.69
2685 141.6400 0.843841 320.21 318.39 5.74
2686 141.6900 0.843713 312.64 318.48 5.69
2687 141.7400 0.843585 316.46 318.58 5.70
2688 141.7900 0.843457 322.88 318.67 5.77
2689 141.8400 0.843330 321.61 318.76 5.77
2690 141.8900 0.843203 329.02 318.85 5.85
2691 141.9400 0.843076 324.76 318.95 5.76
2692 141.9900 0.842949 328.53 319.04 5.79
2693 142.0400 0.842822 320.95 319.14 5.71
2694 142.0900 0.842696 317.56 319.24 5.68
2695 142.1400 0.842570 330.13 319.34 5.82
2696 142.1900 0.842444 319.49 319.44 5.73
2697 142.2400 0.842318 324.58 319.54 5.83
2698 142.2900 0.842193 318.89 319.64 5.77
2699 142.3400 0.842067 315.20 319.75 5.70
2700 142.3900 0.841942 319.19 319.85 5.70
2701 142.4400 0.841817 314.20 319.96 5.69
2702 142.4900 0.841692 318.66 320.07 5.70
2703 142.5400 0.841568 327.54 320.18 5.75
2704 142.5900 0.841443 332.92 320.29 5.81
2705 142.6400 0.841319 313.42 320.41 5.61
2706 142.6900 0.841195 312.23 320.53 5.61
2707 142.7400 0.841071 318.55 320.64 5.70
2708 142.7900 0.840947 322.95 320.77 5.74
2709 142.8400 0.840824 326.02 320.89 5.79
2710 142.8900 0.840701 326.99 321.02 5.78
2711 142.9400 0.840578 323.91 321.14 5.75
2712 142.9900 0.840455 313.51 321.28 5.63
2713 143.0400 0.840332 314.87 321.41 5.70
2714 143.0900 0.840210 333.43 321.55 5.83
2715 143.1400 0.840088 315.63 321.69 5.70
2716 143.1900 0.839966 324.14 321.84 5.73
2717 143.2400 0.839844 323.39 322.03 5.77
2718 143.2900 0.839722 322.72 322.23 5.74
2719 143.3400 0.839601 320.21 322.43 5.69
2720 143.3900 0.839479 317.90 322.64 5.71
2721 143.4400 0.839358 324.70 322.86 5.78
2722 143.4900 0.839237 330.33 323.09 5.79
2723 143.5400 0.839117 321.19 323.33 5.71
2724 143.5900 0.838996 316.05 323.57 5.64
2725 143.6400 0.838876 311.76 323.84 5.62
2726 143.6900 0.838756 322.36 324.12 5.74
2727 143.7400 0.838636 315.31 324.43 5.66
2728 143.7900 0.838516 324.96 324.77 5.72
2729 143.8400 0.838397 324.90 325.15 5.74
2730 143.8900 0.838277 321.37 325.58 5.69
2731 143.9400 0.838158 320.21 326.09 5.72
2732 143.9900 0.838039 333.99 326.67 5.83
2733 144.0400 0.837920 334.23 327.38 5.79
2734 144.0900 0.837802 327.25 328.21 5.76
2735 144.1400 0.837683 327.14 329.23 5.84
2736 144.1900 0.837565 329.74 330.46 5.78
2737 144.2400 0.837447 337.13 331.96 5.88
2738 144.2900 0.837330 328.41 333.78 5.77
2739 144.3400 0.837212 325.70 335.97 5.79
2740 144.3900 0.837095 334.36 338.61 5.86
2741 144.4400 0.836977 332.08 341.75 5.80
2742 144.4900 0.836860 329.81 345.45 5.79
2743 144.5400 0.836744 334.25 349.78 5.82
2744 144.5900 0.836627 330.01 354.78 5.83
2745 144.6400 0.836510 340.77 360.49 5.89
2746 144.6900 0.836394 350.27 366.93 5.98
2747 144.7400 0.836278 352.29 374.10 5.97
2748 144.7900 0.836162 349.66 381.95 5.96
2749 144.8400 0.836047 365.97 390.43 6.07
2750 144.8900 0.835931 377.29 399.44 6.16
2751 144.9400 0.835816 396.14 408.85 6.31
2752 144.9900 0.835701 402.81 418.50 6.40
2753 145.0400 0.835586 420.95 428.17 6.52
2754 145.0900 0.835471 437.17 437.64 6.65
2755 145.1400 0.835357 447.21 446.65 6.72
2756 145.1900 0.835242 472.90 454.93 6.89
2757 145.2400 0.835128 482.44 462.17 6.97
2758 145.2900 0.835014 498.10 468.11 7.07
2759 145.3400 0.834900 499.43 472.51 7.08
2760 145.3900 0.834787 524.27 475.18 7.26
2761 145.4400 0.834673 511.73 476.02 7.20
2762 145.4900 0.834560 508.59 474.99 7.14
2763 145.5400 0.834447 514.97 472.16 7.20
2764 145.5900 0.834334 512.65 467.68 7.17
2765 145.6400 0.834222 505.51 461.76 7.12
2766 145.6900 0.834109 488.88 454.64 7.03
2767 145.7400 0.833997 461.05 446.59 6.84
2768 145.7900 0.833885 439.64 437.89 6.66
2769 145.8400 0.833773 418.88 428.80 6.50
2770 145.8900 0.833661 406.28 419.57 6.40
2771 145.9400 0.833550 385.03 410.42 6.28
2772 145.9900 0.833439 370.88 401.54 6.12
2773 146.0400 0.833327 373.79 393.10 6.12
2774 146.0900 0.833216 366.93 385.19 6.11
2775 146.1400 0.833106 356.76 377.92 5.99
2776 146.1900 0.832995 347.50 371.33 5.91
2777 146.2400 0.832885 343.40 365.44 5.88
2778 146.2900 0.832775 339.21 360.26 5.84
2779 146.3400 0.832665 356.58 355.75 5.99
2780 146.3900 0.832555 342.12 351.88 5.91
2781 146.4400 0.832445 333.93 348.60 5.84
2782 146.4900 0.832336 328.37 345.84 5.81
2783 146.5400 0.832227 336.64 343.55 5.85
2784 146.5900 0.832117 326.25 341.67 5.73
2785 146.6400 0.832009 338.89 340.13 5.88
2786 146.6900 0.831900 337.43 338.89 5.89
2787 146.7400 0.831791 340.62 337.90 5.86
2788 146.7900 0.831683 332.30 337.12 5.79
2789 146.8400 0.831575 334.02 336.50 5.80
2790 146.8900 0.831467 337.99 336.01 5.83
2791 146.9400 0.831359 343.21 335.64 5.87
2792 146.9900 0.831252 340.99 335.36 5.87
2793 147.0400 0.831144 339.67 335.15 5.90
2794 147.0900 0.831037 333.95 335.00 5.84
2795 147.1400 0.830930 335.17 334.91 5.87
2796 147.1900 0.830823 332.79 334.85 5.84
2797 147.2400 0.830717 338.57 334.83 5.83
2798 147.2900 0.830610 336.86 334.84 5.85
2799 147.3400 0.830504 339.55 334.87 5.89
2800 147.3900 0.830398 347.07 334.93 5.91
2801 147.4400 0.830292 335.31 335.01 5.81
2802 147.4900 0.830186 333.48 335.11 5.79
2803 147.5400 0.830081 343.39 335.23 5.88
2804 147.5900 0.829975 335.70 335.36 5.83
2805 147.6400 0.829870 339.26 335.51 5.85
2806 147.6900 0.829765 337.96 335.68 5.88
2807 147.7400 0.829661 336.89 335.86 5.83
2808 147.7900 0.829556 342.75 336.06 5.87
2809 147.8400 0.829452 349.33 336.29 5.93
2810 147.8900 0.829347 339.97 336.53 5.87
2811 147.9400 0.829243 336.87 336.79 5.91
2812 147.9900 0.829139 347.46 337.08 6.03
2813 148.0400 0.829036 338.73 337.39 5.86
2814 148.0900 0.828932 340.62 337.73 5.90
2815 148.1400 0.828829 341.62 338.11 5.91
2816 148.1900 0.828726 345.23 338.54 5.96
2817 148.2400 0.828623 340.39 339.01 5.95
2818 148.2900 0.828520 338.17 339.55 5.98
2819 148.3400 0.828417 333.80 340.17 5.91
2820 148.3900 0.828315 343.35 340.88 6.02
2821 148.4400 0.828213 344.56 341.71 6.05
2822 148.4900 0.828111 339.30 342.67 6.05
2823 148.5400 0.828009 345.66 343.79 6.14
2824 148.5900 0.827907 340.13 345.11 6.14
2825 148.6400 0.827806 355.55 346.65 6.33
2826 148.6900 0.827705 362.35 348.45 6.38
2827 148.7400 0.827603 360.09 350.55 6.34
2828 148.7900 0.827502 353.69 352.98 6.30
2829 148.8400 0.827402 355.44 355.81 6.31
2830 148.8900 0.827301 362.63 359.06 6.40
2831 148.9400 0.827201 348.81 362.77 6.25
2832 148.9900 0.827101 353.19 367.00 6.29
2833 149.0400 0.827001 371.34 371.77 6.45
2834 149.0900 0.826901 365.54 377.12 6.41
2835 149.1400 0.826801 368.58 383.09 6.42
2836 149.1900 0.826702 373.49 389.72 6.51
2837 149.2400 0.826602 371.70 397.07 6.47
2838 149.2900 0.826503 377.80 405.20 6.55
2839 149.3400 0.826404 391.78 414.25 6.67
2840 149.3900 0.826305 395.64 424.39 6.73
2841 149.4400 0.826207 406.88 435.83 6.84
2842 149.4900 0.826108 411.67 448.99 6.90
2843 149.5400 0.826010 436.56 464.22 7.14
2844 149.5900 0.825912 459.99 481.96 7.34
2845 149.6400 0.825814 490.54 502.56 7.61
2846 149.6900 0.825717 518.47 526.26 7.86
2847 149.7400 0.825619 563.64 553.00 8.22
2848 149.7900 0.825522 596.10 582.31 8.49
2849 149.8400 0.825425 622.90 613.28 8.75
2850 149.8900 0.825328 673.42 644.40 9.19
2851 149.9400 0.825231 686.53 673.71 9.28
2852 149.9900 0.825134 686.99 698.87 9.29
2853 150.0400 0.825038 707.28 717.44 9.43
2854 150.0900 0.824942 718.79 727.39 9.49
2855 150.1400 0.824846 719.74 727.57 9.50
2856 150.1900 0.824750 683.91 718.15 9.26
2857 150.2400 0.824654 663.77 700.41 9.13
2858 150.2900 0.824559 647.53 676.27 9.01
2859 150.3400 0.824463 627.49 647.78 8.88
2860 150.3900 0.824368 605.78 616.98 8.72
2861 150.4400 0.824273 590.09 585.71 8.61
2862 150.4900 0.824178 563.15 555.52 8.44
2863 150.5400 0.824084 553.21 527.54 8.39
2864 150.5900 0.823989 518.21 502.46 8.15
2865 150.6400 0.823895 495.16 480.55 7.99
2866 150.6900 0.823801 482.82 461.77 7.93
2867 150.7400 0.823707 472.58 445.90 7.88
2868 150.7900 0.823613 462.74 432.58 7.84
2869 150.8400 0.823520 454.89 421.44 7.77
2870 150.8900 0.823426 441.98 412.09 7.72
2871 150.9400 0.823333 434.73 404.21 7.66
2872 150.9900 0.823240 429.57 397.51 7.65
2873 151.0400 0.823147 417.56 391.76 7.60
2874 151.0900 0.823055 416.96 386.79 7.65
2875 151.1400 0.822962 410.75 382.46 7.67
2876 151.1900 0.822870 393.46 378.68 7.53
2877 151.2400 0.822778 405.67 375.37 7.64
2878 151.2900 0.822686 396.27 372.45 7.53
2879 151.3400 0.822594 396.96 369.90 7.54
2880 151.3900 0.822502 388.19 367.65 7.48
2881 151.4400 0.822411 377.74 365.68 7.39
2882 151.4900 0.822320 386.21 363.95 7.44
2883 151.5400 0.822229 382.68 362.44 7.41
2884 151.5900 0.822138 364.18 361.12 7.23
2885 151.6400 0.822047 348.41 359.97 7.09
2886 151.6900 0.821957 368.21 358.97 7.28
2887 151.7400 0.821866 367.55 358.10 7.31
2888 151.7900 0.821776 358.28 357.35 7.25
2889 151.8400 0.821686 361.98 356.71 7.30
2890 151.8900 0.821596 366.43 356.17 7.37
2891 151.9400 0.821506 363.39 355.71 7.39
2892 151.9900 0.821417 363.07 355.33 7.43
2893 152.0400 0.821328 355.48 355.03 7.40
2894 152.0900 0.821238 344.85 354.79 7.29
2895 152.1400 0.821150 352.58 354.61 7.43
2896 152.1900 0.821061 356.42 354.48 7.48
2897 152.2400 0.820972 342.98 354.40 7.42
2898 152.2900 0.820884 360.03 354.40 7.59
2899 152.3400 0.820795 362.53 354.59 7.70
2900 152.3900 0.820707 355.83 354.82 7.77
2901 152.4400 0.820619 361.83 355.08 7.79
2902 152.4900 0.820532 351.45 355.37 7.69
2903 152.5400 0.820444 354.57 355.69 7.70
2904 152.5900 0.820357 358.02 356.04 7.75
2905 152.6400 0.820270 357.40 356.41 7.74
2906 152.6900 0.820183 354.46 356.80 7.70
2907 152.7400 0.820096 365.32 357.22 7.84
2908 152.7900 0.820009 364.99 357.66 7.84
2909 152.8400 0.819923 365.85 358.13 7.82
2910 152.8900 0.819836 362.17 358.61 7.81
2911 152.9400 0.819750 363.83 359.13 7.87
2912 152.9900 0.819664 365.52 359.67 7.91
2913 153.0400 0.819578 365.16 360.23 7.94
2914 153.0900 0.819493 359.43 360.83 7.90
2915 153.1400 0.819407 364.47 361.47 7.98
2916 153.1900 0.819322 367.52 362.16 8.05
2917 153.2400 0.819237 362.84 362.89 8.04
2918 153.2900 0.819152 376.04 363.68 8.22
2919 153.3400 0.819067 364.72 364.53 8.17
2920 153.3900 0.818982 358.94 365.46 8.11
2921 153.4400 0.818898 350.73 366.48 8.09
2922 153.4900 0.818814 369.15 367.60 8.37
2923 153.5400 0.818730 362.11 368.84 8.31
2924 153.5900 0.818646 364.27 370.20 8.42
2925 153.6400 0.818562 362.23 371.72 8.53
2926 153.6900 0.818479 360.57 373.40 8.51
2927 153.7400 0.818395 369.77 375.28 8.61
2928 153.7900 0.818312 370.39 377.36 8.61
2929 153.8400 0.818229 382.44 379.59 8.76
2930 153.8900 0.818146 378.09 382.07 8.70
2931 153.9400 0.818063 371.67 384.81 8.64
2932 153.9900 0.817981 379.38 387.86 8.73
2933 154.0400 0.817899 376.01 391.22 8.68
2934 154.0900 0.817816 364.70 394.93 8.56
2935 154.1400 0.817734 367.91 398.98 8.64
2936 154.1900 0.817653 371.46 403.41 8.76
2937 154.2400 0.817571 393.73 408.22 9.03
2938 154.2900 0.817489 382.39 413.40 8.94
2939 154.3400 0.817408 375.40 418.97 8.92
2940 154.3900 0.817327 396.82 424.92 9.20
2941 154.4400 0.817246 399.93 431.20 9.31
2942 154.4900 0.817165 394.87 437.86 9.30
2943 154.5400 0.817084 387.78 444.83 9.25
2944 154.5900 0.817004 404.58 452.08 9.51
2945 154.6400 0.816924 408.71 459.56 9.61
2946 154.6900 0.816844 416.65 467.23 9.77
2947 154.7400 0.816764 426.97 475.02 9.98
2948 154.7900 0.816684 464.05 482.86 10.48
2949 154.8400 0.816604 477.42 490.68 10.78
2950 154.8900 0.816525 485.56 498.40 11.03
2951 154.9400 0.816446 517.57 505.92 11.39
2952 154.9900 0.816367 524.09 513.14 11.46
2953 155.0400 0.816288 542.73 519.98 11.66
2954 155.0900 0.816209 549.78 526.34 11.73
2955 155.1400 0.816130 582.97 532.11 12.09
2956 155.1900 0.816052 617.80 537.21 12.44
2957 155.2400 0.815974 597.25 541.54 12.23
2958 155.2900 0.815896 624.91 545.03 12.54
2959 155.3400 0.815818 646.38 547.63 12.82
2960 155.3900 0.815740 650.36 549.29 12.97
2961 155.4400 0.815662 664.84 549.99 13.18
2962 155.4900 0.815585 662.28 549.72 13.23
2963 155.5400 0.815508 651.20 548.51 13.16
2964 155.5900 0.815431 644.95 546.39 13.17
2965 155.6400 0.815354 636.75 543.41 13.16
2966 155.6900 0.815277 632.46 539.65 13.21
2967 155.7400 0.815201 608.21 535.18 13.06
2968 155.7900 0.815124 584.83 530.09 12.89
2969 155.8400 0.815048 556.39 524.48 12.67
2970 155.8900 0.814972 550.05 518.43 12.70
2971 155.9400 0.814896 513.15 512.04 12.37
2972 155.9900 0.814821 521.83 505.41 12.60
2973 156.0400 0.814745 512.04 498.63 12.62
2974 156.0900 0.814670 514.64 491.78 12.87
2975 156.1400 0.814595 481.12 484.93 12.67
2976 156.1900 0.814519 460.74 478.17 12.41
2977 156.2400 0.814445 462.25 471.56 12.43
2978 156.2900 0.814370 439.86 465.16 12.12
2979 156.3400 0.814295 427.85 459.01 11.94
2980 156.3900 0.814221 438.63 453.14 12.09
2981 156.4400 0.814147 408.01 447.61 11.66
2982 156.4900 0.814073 409.10 442.42 11.73
2983 156.5400 0.813999 407.34 437.60 11.82
2984 156.5900 0.813925 409.63 433.16 11.93
2985 156.6400 0.813852 411.80 429.09 12.10
2986 156.6900 0.813779 391.28 425.41 11.85
2987 156.7400 0.813706 398.31 422.09 12.08
2988 156.7900 0.813632 405.55 419.13 12.22
2989 156.8400 0.813560 408.35 416.52 12.42
2990 156.8900 0.813487 392.37 414.23 12.31
2991 156.9400 0.813415 379.55 412.25 12.18
2992 156.9900 0.813342 390.04 410.56 12.49
2993 157.0400 0.813270 401.58 409.13 12.77
2994 157.0900 0.813198 397.82 407.95 12.81
2995 157.1400 0.813126 386.59 406.98 12.82
2996 157.1900 0.813055 402.50 406.22 13.16
2997 157.2400 0.812983 387.32 405.64 13.05
2998 157.2900 0.812912 388.74 405.21 13.28
2999 157.3400 0.812841 388.00 404.93 13.54
loop_
_pd_proc_info_excluded_regions
'from 0.05 to 7.50\%: steep noisy onset'
'from 157.50 to 160.11\%: cut-off reflection'
