#------------------------------------------------------------------------------
#$Date: 2019-07-10 06:30:08 +0300 (Wed, 10 Jul 2019) $
#$Revision: 216916 $
#$URL: file:///home/coder/svn-repositories/cod/cif/7/23/30/7233043.cif $
#------------------------------------------------------------------------------
#
# This file is available in the Crystallography Open Database (COD),
# http://www.crystallography.net/
#
# All data on this site have been placed in the public domain by the
# contributors.
#
data_7233043
loop_
_publ_author_name
'Schlachter, Adrien Camille'
'Bonnot, Antoine'
'Fortin, Daniel'
'Karsenti, Paul-Ludovic'
'Knorr, Michael'
'Harvey, Pierre D.'
_publ_section_title
;
 Unusual Triplet-Triplet Annihilation in a 3D Copper Chloride Coordination
 Polymer
;
_journal_name_full               'Physical Chemistry Chemical Physics'
_journal_paper_doi               10.1039/C9CP02891A
_journal_year                    2019
_chemical_formula_moiety         'C4 H9 Cl Cu S'
_chemical_formula_sum            'C4 H9 Cl Cu S'
_chemical_formula_weight         188.16
_space_group_IT_number           14
_space_group_name_Hall           '-P 2yn'
_space_group_name_H-M_alt        'P 1 21/n 1'
_symmetry_cell_setting           monoclinic
_symmetry_Int_Tables_number      14
_symmetry_space_group_name_Hall  '-P 2yn'
_symmetry_space_group_name_H-M   'P 1 21/n 1'
_atom_sites_solution_hydrogens   geom
_atom_sites_solution_primary     'direct - structure invariant direct methods'
_atom_sites_solution_secondary   'direct - structure invariant direct methods'
_audit_conform_dict_location     ftp://ftp.iucr.org/pub/cif_core.dic
_audit_conform_dict_name         cif_core.dic
_audit_conform_dict_version      2.4.3
_audit_creation_date             2018-11-01T16:37:07-00:00
_audit_creation_method           'WinGX routine CIF_UPDATE'
_audit_update_record
;
2019-05-21 deposited with the CCDC.    2019-07-09 downloaded from the CCDC.
;
_cell_angle_alpha                90
_cell_angle_beta                 108.982(2)
_cell_angle_gamma                90
_cell_formula_units_Z            4
_cell_length_a                   8.9459(9)
_cell_length_b                   6.7880(7)
_cell_length_c                   10.9215(10)
_cell_measurement_reflns_used    8901
_cell_measurement_temperature    217(2)
_cell_measurement_theta_max      26.46
_cell_measurement_theta_min      2.57
_cell_measurement_wavelength     0.71073
_cell_volume                     627.14(11)
_computing_cell_refinement       'SAINT V8.34A integration software'
_computing_data_collection       'Bruker APEX2 software'
_computing_data_reduction        'SORTAV (Blessing, 1995)'
_computing_molecular_graphics    'Ortep for Windows (Farrugia, 2012)'
_computing_publication_material  'WinGX publication routines (Farrugia, 2012)'
_computing_structure_refinement  'SHELXL-2016/6 (Sheldrick, 2016)'
_computing_structure_solution    'SHELXS-2013/1 (Sheldrick, 2008)'
_diffrn_ambient_temperature      217(2)
_diffrn_detector                 'APEX-II CCD'
_diffrn_measured_fraction_theta_full 1
_diffrn_measured_fraction_theta_max 1
_diffrn_measurement_device       '\k-geometry diffractometer'
_diffrn_measurement_device_type  'Bruker APEX-II'
_diffrn_measurement_method       '\f or \w oscillation scans'
_diffrn_orient_matrix_UB_11      -0.009231
_diffrn_orient_matrix_UB_12      -0.146548
_diffrn_orient_matrix_UB_13      0.003567
_diffrn_orient_matrix_UB_21      -0.069675
_diffrn_orient_matrix_UB_22      0.01463
_diffrn_orient_matrix_UB_23      0.054842
_diffrn_orient_matrix_UB_31      -0.095047
_diffrn_orient_matrix_UB_32      0.003507
_diffrn_orient_matrix_UB_33      -0.07972
_diffrn_radiation_monochromator  graphite
_diffrn_radiation_probe          x-ray
_diffrn_radiation_type           MoK\a
_diffrn_radiation_wavelength     0.71073
_diffrn_reflns_av_unetI/netI     0.0456
_diffrn_reflns_Laue_measured_fraction_full 1
_diffrn_reflns_Laue_measured_fraction_max 1
_diffrn_reflns_limit_h_max       11
_diffrn_reflns_limit_h_min       -11
_diffrn_reflns_limit_k_max       8
_diffrn_reflns_limit_k_min       -8
_diffrn_reflns_limit_l_max       13
_diffrn_reflns_limit_l_min       -13
_diffrn_reflns_number            10385
_diffrn_reflns_point_group_measured_fraction_full 1
_diffrn_reflns_point_group_measured_fraction_max 1
_diffrn_reflns_theta_full        25
_diffrn_reflns_theta_max         26.456
_diffrn_reflns_theta_min         2.569
_diffrn_source                   'sealed x-ray tube'
_diffrn_standards_number         0
_exptl_absorpt_coefficient_mu    4.109
_exptl_absorpt_correction_T_max  0.745
_exptl_absorpt_correction_T_min  0.599
_exptl_absorpt_correction_type   multi-scan
_exptl_absorpt_process_details
;
SADABS-2014/5 - Bruker AXS area detector scaling and absorption correction
;
_exptl_crystal_density_diffrn    1.993
_exptl_crystal_density_method    'not measured'
_exptl_crystal_description       Needle
_exptl_crystal_F_000             380
_exptl_crystal_size_max          0.33
_exptl_crystal_size_mid          0.1
_exptl_crystal_size_min          0.04
_refine_diff_density_max         0.754
_refine_diff_density_min         -0.986
_refine_diff_density_rms         0.116
_refine_ls_extinction_method     none
_refine_ls_goodness_of_fit_ref   0.737
_refine_ls_hydrogen_treatment    constr
_refine_ls_matrix_type           full
_refine_ls_number_constraints    0
_refine_ls_number_parameters     66
_refine_ls_number_reflns         10385
_refine_ls_number_restraints     0
_refine_ls_restrained_S_all      0.737
_refine_ls_R_factor_all          0.0415
_refine_ls_R_factor_gt           0.0333
_refine_ls_shift/su_max          0
_refine_ls_shift/su_mean         0
_refine_ls_structure_factor_coef Fsqd
_refine_ls_weighting_details
'w=1/[\s^2^(Fo^2^)+(0.0365P)^2^+8.0213P] where P=(Fo^2^+2Fc^2^)/3'
_refine_ls_weighting_scheme      calc
_refine_ls_wR_factor_gt          0.0848
_refine_ls_wR_factor_ref         0.0905
_reflns_Friedel_coverage         0
_reflns_number_gt                9052
_reflns_number_total             10385
_reflns_threshold_expression     'I > 2\s(I)'
_iucr_refine_instructions_details
;
TITL mo_Harvey_AS_CP2_217K_0m in P2(1)/n
    shelx.res
    created by SHELXL-2016/6 at 16:35:38 on 01-Nov-2018
CELL  0.71073   8.9459   6.7880  10.9215   90.000  108.982   90.000
ZERR     4.00   0.0009   0.0007   0.0010    0.000    0.002    0.000
LATT   1
SYMM  1/2 - X, 1/2 + Y, 1/2 - Z
SFAC  C    H    S    CL   CU
UNIT  16 36 4 4 4
MERG   0
EQIV $2 -x+3/2, y+1/2, -z+1/2
HTAB C1 Cl1_$2
EQIV $5 -x+2, -y+1, -z+1
HTAB C4 Cl1_$5
HTAB C1 Cl1_$2
HTAB C4 Cl1_$5
FMAP   2
PLAN    2
 
SIZE     0.040   0.100   0.330
ACTA    50.00
BOND
L.S.  20
TEMP   -55.79
WGHT    0.036500    8.021301
BASF   0.13607
FVAR       0.23381
MOLE    1
C1    1    0.845855    0.860464    0.055570    11.00000    0.01485    0.01200 =
         0.01179    0.00315    0.00190    0.00109
AFIX  23
H1A   2    0.829405    0.748205   -0.003779    11.00000   -1.20000
H1B   2    0.761046    0.955493    0.017227    11.00000   -1.20000
AFIX   0
C2    1    1.003259    0.956864    0.065288    11.00000    0.01716    0.01446 =
         0.01631    0.00003    0.00500   -0.00231
AFIX  23
H2A   2    1.026596    1.061638    0.130534    11.00000   -1.20000
H2B   2    1.088050    0.858779    0.092568    11.00000   -1.20000
AFIX   0
C3    1    1.010122    0.634660    0.278083    11.00000    0.01240    0.01693 =
         0.01429    0.00474   -0.00109    0.00298
AFIX  23
H3A   2    1.099731    0.726063    0.299326    11.00000   -1.20000
H3B   2    1.008373    0.574360    0.359135    11.00000   -1.20000
AFIX   0
C4    1    1.036412    0.474764    0.190859    11.00000    0.02144    0.01619 =
         0.02603    0.00426    0.00831    0.00593
AFIX 137
H4A   2    0.944865    0.388810    0.163986    11.00000   -1.50000
H4B   2    1.129277    0.398705    0.237502    11.00000   -1.50000
H4C   2    1.051959    0.534207    0.115137    11.00000   -1.50000
AFIX   0
S1    3    0.828009    0.774259    0.208160    11.00000    0.01209    0.01126 =
         0.01104    0.00007    0.00402   -0.00021
CL1   4    0.868683    0.864814    0.551880    11.00000    0.01638    0.02496 =
         0.01759    0.00616    0.00369   -0.00490
CU1   5    0.867264    1.036484    0.356738    11.00000    0.01535    0.02038 =
         0.01633   -0.00020    0.00501    0.00342
HKLF    5
 
 
 
 
REM  mo_Harvey_AS_CP2_217K_0m in P2(1)/n
REM R1 =  0.0333 for    9052 Fo > 4sig(Fo)  and  0.0415 for all   10385 data
REM     66 parameters refined using      0 restraints
 
END
 
WGHT      0.0000      2.0242
 
REM Highest difference peak  0.754,  deepest hole -0.986,  1-sigma level  0.116
Q1    1   0.9470  0.5314  0.4354  11.00000  0.05    0.75
Q2    1   0.8264  1.1196  0.1384  11.00000  0.05    0.54
;
_cod_data_source_file            c9cp02891a2.cif
_cod_data_source_block           shelx_CCDC2
_cod_original_sg_symbol_H-M      'P 21/n'
_cod_database_code               7233043
_shelx_estimated_absorpt_t_min   0.344
_shelx_estimated_absorpt_t_max   0.853
_iucr_refine_reflections_details
;
  -1   0   0   -0.08    0.12
  -1   0   0    0.02    0.13
  -1   0   0    0.09    0.10
  -1   0   0    0.10    0.09
  -1   0   0    0.03    0.08
   1   0   0    0.00    0.08
   1   0   0    0.17    0.09
   1   0   0    0.03    0.09
  -2   0   0    5.94    0.49
  -2   0   0    6.85    0.60
  -2   0   0    6.64    0.44
   2   0   0    5.50    0.44
   2   0   0    5.75    0.42
   3   0   0   -0.10    0.33
   3   0   0   -0.36    0.28
  -3   0   0    0.34    0.42
  -3   0   0   -0.47    0.28
  -3   0   0    0.17    0.55
  -4   0   0  678.74   19.26
   4   0   0  621.86   19.03
   4   0   0  601.87   19.04
  -4   0   0  646.37   19.14
  -4   0   0  618.99   19.06
  -5   0   0    0.21    0.55
   5   0   0   -0.22    0.39
  -5   0   0    0.63    0.71
  -5   0   0    0.02    0.39
  -5   0   0    0.38    0.41
   6   0   0  244.45    8.05
  -6   0   0  265.01    8.05
  -6   0   0  261.57    8.38
  -6   0   0  258.72    8.17
   7   0   0    0.05    0.58
  -7   0   0   -0.01    0.52
  -7   0   0   -0.55    0.89
  -7   0   0   -0.13    0.72
  -8   0   0  148.06    5.34
  -8   0   0  138.57    4.99
   8   0   0  149.54    5.19
   8   0   0  138.83    4.89
  -8   0   0  140.76    4.80
  -9   0   0   -1.95    0.83
   9   0   0    0.57    0.96
   9   0   0   -0.29    0.72
  -9   0   0    0.14    0.73
  -9   0   0   -0.45    0.70
 -10   0   0   30.29    2.42
  10   0   0   29.97    2.58
 -10   0   0   29.79    1.74
  10   0   0   25.97    1.96
   0  -1   0    0.10    0.23
   0  -1   0    0.02    0.20
   0  -1   0   -0.11    0.14
   0  -1   0   -0.25    0.17
   0   1   0   -0.07    0.17
   0   1   0    0.04    0.22
   0   1   0    0.04    0.17
  -1  -1   0  398.85   12.27
   1  -1   0  410.45   12.25
  -1  -1   0  408.26   12.31
   1  -1   0  412.38   12.25
  -1  -1   0  412.61   12.27
   1  -1   0  410.77   12.20
  -1   1   0  414.96   12.28
   1   1   0  396.58   12.21
   1   1   0  406.50   12.26
  -1   1   0  416.57   12.26
  -1   1   0  407.83   12.24
   1   1   0  404.01   12.25
   2  -1   0  243.52    7.39
  -2  -1   0  234.89    7.55
   2  -1   0  248.77    7.41
  -2  -1   0  246.69    7.43
  -2  -1   0  239.18    7.44
   2  -1   0  237.93    7.38
  -2   1   0  248.49    7.42
  -2   1   0  243.44    7.38
   2   1   0  238.73    7.40
   2   1   0  240.26    7.36
   2   1   0  242.21    7.34
   2   1   0  248.09    7.40
  -2   1   0  253.26    7.36
  -3  -1   0  656.86   20.62
   3  -1   0  665.52   20.55
  -3  -1   0  720.84   20.62
  -3  -1   0  663.21   20.75
  -3   1   0  694.10   20.62
  -3   1   0  671.48   20.58
  -3   1   0  716.61   20.51
   3   1   0  678.89   20.53
   3   1   0  696.72   20.56
   3   1   0  679.27   20.50
  -3   1   0  690.59   20.58
   3   1   0  690.19   20.58
  -3   1   0  693.28   20.62
  -4  -1   0  107.78    3.48
  -4  -1   0  120.87    3.98
   4  -1   0  106.68    3.61
  -4  -1   0  125.96    3.75
  -4  -1   0  112.33    3.68
  -4   1   0  105.79    3.68
  -4   1   0  110.18    3.63
   4   1   0  117.68    3.55
  -4   1   0  110.44    3.48
  -4   1   0  101.38    3.75
   4   1   0  116.50    3.67
   4   1   0  112.27    3.65
  -4   1   0  112.74    3.72
   5  -1   0   89.51    3.10
  -5  -1   0   96.63    3.17
  -5  -1   0   92.21    3.51
  -5  -1   0   95.20    3.19
   5   1   0   89.18    2.98
   5   1   0   91.12    3.14
  -5   1   0   93.83    3.14
  -5   1   0   89.61    3.17
  -5   1   0   93.80    3.24
   5   1   0   88.72    3.17
  -6  -1   0    1.90    0.77
  -6  -1   0    1.95    0.61
   6  -1   0    1.79    0.58
  -6  -1   0    0.98    0.63
  -6   1   0    1.48    0.72
   6   1   0    1.69    0.45
   6   1   0    1.64    0.45
  -6   1   0    0.74    0.68
   6   1   0    1.65    0.66
   7  -1   0  222.27    7.19
  -7  -1   0  230.34    7.27
  -7  -1   0  218.57    7.65
  -7  -1   0  222.64    7.27
   7   1   0  221.69    7.00
  -7   1   0  215.30    7.26
  -7   1   0  224.56    7.03
   7   1   0  226.19    7.23
   7   1   0  223.61    7.24
  -7   1   0  234.01    7.41
   8  -1   0   23.79    1.53
  -8  -1   0   19.19    1.49
  -8  -1   0   19.75    1.47
  -8  -1   0   21.47    1.90
   8   1   0   19.84    1.56
  -8   1   0   22.09    1.55
   8   1   0   20.78    1.52
  -8   1   0   22.12    1.72
  -9  -1   0   14.13    1.71
  -9  -1   0   11.05    1.13
   9  -1   0   13.52    1.25
  -9  -1   0   12.74    1.26
  -9   1   0   13.09    1.35
   9   1   0   13.60    1.26
  -9   1   0   12.45    1.37
   9   1   0   10.47    1.33
  10  -1   0   11.32    1.28
 -10  -1   0    9.78    1.27
 -10  -1   0   11.88    1.76
 -10   1   0   12.00    1.43
 -10   1   0   12.95    1.50
  10   1   0   11.45    1.29
   0  -2   0  228.73    6.94
   0  -2   0  225.53    6.85
   0  -2   0  217.14    6.88
   0  -2   0  223.99    6.92
   0   2   0  223.83    6.92
   0   2   0  228.98    6.94
   0   2   0  225.15    6.97
  -1  -2   0   47.50    1.82
  -1  -2   0   48.33    1.77
  -1  -2   0   52.08    1.88
   1  -2   0   52.05    1.71
   1  -2   0   50.46    1.55
   1  -2   0   50.71    1.82
  -1  -2   0   49.41    1.85
   1  -2   0   48.77    1.85
   1   2   0   50.56    1.76
  -1   2   0   51.76    1.87
   1   2   0   50.06    1.87
  -1   2   0   49.97    1.75
   1   2   0   47.49    1.76
  -1   2   0   49.49    1.79
  -2  -2   0   89.82    2.99
  -2  -2   0   84.72    3.01
   2  -2   0   89.98    2.81
  -2  -2   0   88.72    2.93
   2  -2   0   91.47    2.97
  -2  -2   0   85.98    3.04
   2  -2   0   90.81    2.91
   2   2   0   86.65    2.95
  -2   2   0   90.30    2.92
  -2   2   0   88.26    2.98
   2   2   0   90.60    2.97
   2   2   0   87.71    2.85
  -3  -2   0    1.18    0.40
   3  -2   0    0.44    0.46
  -3   2   0    0.10    0.45
  -3   2   0    0.49    0.20
   3   2   0    1.21    0.42
  -4  -2   0   41.09    1.58
  -4  -2   0   43.24    1.78
  -4  -2   0   39.65    1.94
   4  -2   0   40.16    1.74
   4  -2   0   44.12    1.64
   4   2   0   42.23    1.62
  -4   2   0   48.42    1.81
  -4   2   0   44.43    1.58
   4   2   0   41.34    1.53
   4   2   0   52.43    1.81
  -4   2   0   45.35    1.78
  -5  -2   0    9.45    0.63
  -5  -2   0   10.79    1.08
   5  -2   0   10.58    0.85
  -5  -2   0   10.83    0.89
  -5  -2   0   11.27    0.99
  -5   2   0    9.89    0.78
  -5   2   0   11.00    0.87
   5   2   0   10.08    0.60
  -5   2   0    8.13    0.74
  -5   2   0   10.25    0.87
   5   2   0   11.52    0.84
  -6  -2   0    1.00    0.56
   6  -2   0    1.52    0.67
  -6  -2   0    2.30    1.11
  -6  -2   0    2.18    0.54
  -6   2   0    1.28    0.51
   6   2   0    1.79    0.39
  -6   2   0    1.14    0.66
  -6   2   0    2.37    0.57
   6   2   0    2.20    0.66
  -7  -2   0    7.25    1.39
   7  -2   0    7.41    0.93
  -7  -2   0    8.01    0.95
  -7  -2   0    7.45    0.88
   7   2   0    9.17    0.97
  -7   2   0    8.74    0.97
  -7   2   0    6.52    0.81
   7   2   0    9.11    0.72
  -8  -2   0  110.32    4.74
  -8  -2   0  113.89    4.23
  -8  -2   0  110.68    4.19
   8  -2   0  117.64    4.14
  -8   2   0  116.08    4.11
   8   2   0  109.92    4.15
  -8   2   0  113.15    4.14
  -9  -2   0    1.74    0.89
  -9  -2   0    1.24    0.87
  -9  -2   0    0.09    0.92
   9  -2   0    1.22    0.86
   9   2   0    0.91    0.88
  -9   2   0    2.67    0.94
 -10  -2   0    5.34    1.08
 -10  -2   0    7.18    1.66
  10  -2   0    3.97    1.05
 -10  -2   0    5.45    1.08
 -10   2   0    3.63    0.85
  10   2   0    6.46    1.12
   0  -3   0    0.04    0.36
   0  -3   0    0.02    0.31
   0  -3   0    0.71    0.58
   0  -3   0   -0.18    0.31
   0   3   0    0.39    0.50
   0   3   0   -0.43    0.36
   0   3   0    0.64    0.50
   1  -3   0    7.91    0.44
  -1  -3   0    8.06    0.71
  -1  -3   0    8.58    0.79
   1  -3   0    8.32    0.80
  -1  -3   0    7.51    0.68
   1  -3   0    7.17    0.70
   1  -3   0    7.93    0.62
  -1  -3   0    8.10    0.65
  -1   3   0    8.65    0.78
   1   3   0    7.86    0.65
   1   3   0    9.36    0.71
  -1   3   0    7.39    0.62
  -1   3   0    7.67    0.67
   1   3   0    8.63    0.72
  -2  -3   0  120.51    4.15
  -2  -3   0  125.22    4.19
   2  -3   0  129.58    4.14
  -2  -3   0  126.12    4.20
  -2  -3   0  121.34    4.12
   2  -3   0  125.31    3.97
   2  -3   0  128.77    4.14
   2   3   0  123.78    4.13
  -2   3   0  123.30    4.11
   2   3   0  124.74    4.05
   2   3   0  126.46    4.14
  -2   3   0  126.71    4.17
  -3  -3   0    5.15    0.73
  -3  -3   0    4.71    0.59
   3  -3   0    4.29    0.71
   3  -3   0    4.73    0.60
  -3  -3   0    5.34    0.56
  -3   3   0    6.53    0.64
  -3   3   0    4.64    0.61
   3   3   0    5.18    0.59
   3   3   0    4.73    0.50
   3   3   0    4.31    0.54
  -4  -3   0   34.66    1.69
  -4  -3   0   39.66    1.79
  -4  -3   0   34.61    1.56
  -4  -3   0   36.94    2.13
   4  -3   0   38.22    1.64
   4  -3   0   35.73    1.54
   4   3   0   37.27    1.73
  -4   3   0   35.28    1.55
   4   3   0   38.60    1.44
  -4   3   0   38.10    1.14
  -4   3   0   34.68    1.76
   4   3   0   36.26    1.52
  -5  -3   0    4.49    0.58
  -5  -3   0    4.76    0.79
  -5  -3   0    5.51    0.98
  -5  -3   0    4.54    0.77
   5  -3   0    3.70    0.80
  -5   3   0    5.03    0.56
   5   3   0    4.29    0.78
  -5   3   0    5.54    0.47
   5   3   0    3.84    0.59
  -5   3   0    4.43    0.83
  -5   3   0    4.35    0.78
   5   3   0    4.76    0.48
   6  -3   0    7.52    0.98
  -6  -3   0    6.57    0.83
  -6  -3   0    7.18    1.08
  -6  -3   0    7.59    1.16
   6   3   0    8.29    0.70
  -6   3   0    7.61    0.67
   6   3   0    8.94    0.97
  -6   3   0    8.32    0.83
  -6   3   0    7.34    0.83
  -7  -3   0   33.05    2.14
  -7  -3   0   30.48    1.74
   7  -3   0   30.26    1.82
  -7  -3   0   30.97    1.66
  -7   3   0   31.06    1.82
  -7   3   0   27.05    1.77
   7   3   0   27.80    1.78
  -8  -3   0   10.87    1.18
  -8  -3   0   10.06    1.21
   8  -3   0   11.51    1.21
  -8  -3   0   10.95    1.69
  -8   3   0   10.53    1.04
   8   3   0    8.71    1.16
  -9  -3   0   17.01    1.54
   9  -3   0   17.29    1.44
  -9  -3   0   18.96    1.55
  -9  -3   0   15.35    2.05
   9   3   0   18.74    1.57
  -9   3   0   17.43    1.39
   0  -4   0   57.02    2.12
   0  -4   0   59.13    2.32
   0  -4   0   61.82    2.41
   0  -4   0   58.97    2.30
   0   4   0   57.61    2.28
   0   4   0   60.08    2.36
   0   4   0   58.76    2.37
  -1  -4   0  206.19    6.78
   1  -4   0  209.01    6.77
   1  -4   0  208.99    6.43
   1  -4   0  213.67    6.65
  -1  -4   0  208.66    6.76
   1  -4   0  209.74    6.80
  -1  -4   0  208.92    6.70
  -1  -4   0  203.40    6.77
  -1   4   0  213.90    6.86
   1   4   0  213.89    6.79
  -1   4   0  207.86    6.71
  -1   4   0  210.76    6.80
   1   4   0  212.81    6.79
   1   4   0  206.67    6.69
   2  -4   0    9.09    0.89
  -2  -4   0    8.84    0.95
   2  -4   0    9.07    0.99
  -2  -4   0    9.91    0.99
   2  -4   0    8.19    0.70
  -2  -4   0    9.76    0.99
  -2  -4   0    9.24    0.84
   2   4   0    9.39    0.98
  -2   4   0    9.89    1.07
   2   4   0    7.55    0.91
  -2   4   0    8.19    0.87
   2   4   0    8.80    0.72
  -3  -4   0   71.64    2.81
   3  -4   0   73.03    2.84
   3  -4   0   69.40    2.44
  -3  -4   0   71.36    2.85
  -3  -4   0   69.78    2.61
   3  -4   0   66.86    2.57
  -3  -4   0   68.13    2.80
   3   4   0   70.28    2.55
   3   4   0   68.30    2.73
   3   4   0   69.55    2.78
  -3   4   0   68.99    2.56
  -3   4   0   69.69    2.85
  -4  -4   0    5.77    0.97
  -4  -4   0   10.53    1.03
  -4  -4   0    9.78    1.13
   4  -4   0    8.66    1.05
  -4  -4   0    6.37    0.72
  -4   4   0   12.24    0.99
   4   4   0    8.04    0.98
  -4   4   0    7.38    1.03
   4   4   0    5.27    0.70
  -5  -4   0  117.67    4.32
   5  -4   0  126.34    4.37
  -5  -4   0  119.93    4.72
  -5  -4   0  115.96    4.45
  -5  -4   0  127.04    4.35
   5   4   0  115.26    4.34
  -5   4   0  123.41    4.40
   5   4   0  119.48    3.99
  -6  -4   0   12.55    1.62
   6  -4   0   12.05    1.10
  -6  -4   0   11.21    1.10
  -6  -4   0   17.07    1.50
  -6   4   0   15.28    1.26
   6   4   0   14.42    1.22
  -6   4   0   13.79    1.29
   6   4   0   13.51    0.96
  -7  -4   0    3.85    1.11
  -7  -4   0    5.85    1.07
   7  -4   0    6.74    1.12
  -7  -4   0    6.85    1.03
   7   4   0    7.02    1.09
  -7   4   0    5.15    1.07
  -7   4   0    5.09    0.98
  -8  -4   0    8.95    1.35
  -8  -4   0    7.25    1.02
   8  -4   0    8.49    1.22
  -8  -4   0    9.00    1.42
   8   4   0    7.21    1.00
  -8   4   0    7.33    1.22
  -8   4   0    8.45    1.17
   9  -4   0   28.30    2.19
  -9  -4   0   30.42    2.33
  -9  -4   0   34.44    3.00
  -9  -4   0   29.60    2.16
  -9   4   0   26.24    1.83
   9   4   0   34.05    2.26
   0  -5   0   -0.69    0.69
   0  -5   0   -0.18    0.67
   0  -5   0   -0.67    0.61
   0  -5   0   -0.31    0.44
   0   5   0    1.27    0.80
   0   5   0   -0.29    0.54
   0   5   0   -1.17    0.85
  -1  -5   0   11.17    0.99
  -1  -5   0   12.49    1.14
  -1  -5   0   11.33    0.99
   1  -5   0   12.34    0.69
   1  -5   0   11.75    0.99
   1  -5   0   11.01    0.99
   1  -5   0   13.39    1.12
  -1  -5   0   11.44    1.20
   1   5   0   11.08    1.10
  -1   5   0   12.81    1.10
   1   5   0    9.86    1.21
   1   5   0   11.14    1.15
  -1   5   0   12.23    1.33
  -1   5   0   12.00    1.14
  -2  -5   0  156.31    5.37
   2  -5   0  157.35    5.38
  -2  -5   0  150.89    5.40
  -2  -5   0  157.79    5.47
  -2  -5   0  158.20    5.39
   2  -5   0  161.34    5.54
   2  -5   0  158.56    5.23
  -2   5   0  167.30    5.44
  -2   5   0  156.47    5.58
   2   5   0  163.33    5.53
   2   5   0  159.17    5.51
   2   5   0  159.91    5.31
  -3  -5   0   26.03    1.86
  -3  -5   0   26.47    1.61
   3  -5   0   28.62    1.38
   3  -5   0   26.46    1.60
  -3  -5   0   28.21    1.93
   3  -5   0   27.16    1.94
  -3  -5   0   26.47    1.77
   3   5   0   28.38    1.79
  -3   5   0   25.92    1.67
   3   5   0   29.79    1.56
  -3   5   0   29.50    1.68
   3   5   0   20.94    1.54
  -4  -5   0    1.23    0.62
  -4  -5   0    0.55    0.73
   4   5   0   -0.39    0.58
   4   5   0    0.37    0.43
   4   5   0    0.84    0.57
  -4   5   0    0.59    0.50
   5  -5   0    4.11    1.08
  -5  -5   0    6.17    1.38
  -5  -5   0    6.15    1.10
  -5  -5   0    3.84    1.11
   5   5   0    4.75    0.69
   5   5   0    5.19    1.07
  -5   5   0    5.48    0.92
  -6  -5   0  164.18    6.13
  -6  -5   0  168.04    6.42
  -6  -5   0  166.08    5.97
   6  -5   0  178.47    6.03
   6   5   0  163.08    5.90
  -6   5   0  175.67    6.09
  -6   5   0  169.07    5.88
   7  -5   0    6.60    1.25
  -7  -5   0    9.25    1.30
  -7  -5   0    8.35    1.65
  -7  -5   0    9.05    1.25
  -7   5   0    9.92    1.35
  -7   5   0    7.57    1.16
   7   5   0    7.34    1.24
  -8  -5   0   -0.11    0.74
  -8  -5   0    1.51    1.19
  -8  -5   0    1.11    1.49
   8  -5   0    0.97    0.79
  -8   5   0    1.02    0.98
   8   5   0    2.00    1.08
  -8   5   0    0.55    0.78
   0  -6   0    2.73    1.09
   0  -6   0    3.58    0.78
   0  -6   0    2.70    0.69
   0  -6   0    3.76    0.69
   0   6   0    3.05    1.00
   0   6   0    3.75    1.12
   0   6   0    2.09    0.99
  -1  -6   0   57.14    2.70
   1  -6   0   53.88    2.29
  -1  -6   0   52.87    2.34
  -1  -6   0   55.94    2.50
  -1  -6   0   53.69    2.41
   1  -6   0   56.42    2.76
   1  -6   0   55.18    2.47
  -1   6   0   53.62    2.79
   1   6   0   56.07    2.71
   1   6   0   53.18    2.73
   1   6   0   54.59    2.56
  -1   6   0   51.29    2.58
   2  -6   0    4.17    0.98
  -2  -6   0    4.17    0.84
  -2  -6   0    4.11    0.87
   2  -6   0    5.31    1.20
  -2  -6   0    3.58    0.93
  -2  -6   0    4.54    0.85
   2  -6   0    3.52    0.78
   2   6   0    4.05    1.10
  -2   6   0    3.72    1.22
   2   6   0    5.40    1.15
   2   6   0    3.96    0.93
  -2   6   0    4.99    0.82
   3  -6   0   73.93    3.52
  -3  -6   0   79.11    3.49
  -3  -6   0   81.29    3.33
  -3  -6   0   80.51    3.36
   3  -6   0   83.73    3.04
  -3  -6   0   80.03    3.44
   3  -6   0   82.50    3.54
   3   6   0   74.45    3.43
  -3   6   0   87.35    3.44
  -3   6   0   78.50    3.25
   3   6   0   84.06    3.22
   3   6   0   79.12    3.42
   4  -6   0    2.97    0.88
   4  -6   0    3.24    0.64
  -4  -6   0    2.15    1.16
  -4  -6   0    2.39    0.82
  -4  -6   0    3.84    1.17
   4   6   0    2.66    0.84
   4   6   0    2.00    0.76
  -4   6   0    3.97    0.95
  -5  -6   0   41.68    2.35
  -5  -6   0   42.61    2.30
  -5  -6   0   42.48    2.77
   5  -6   0   44.26    2.56
  -5   6   0   41.92    2.32
   5   6   0   36.75    1.95
   5   6   0   42.16    2.27
  -6  -6   0    1.95    1.22
   6  -6   0    1.59    1.16
  -6  -6   0    3.40    1.17
  -6  -6   0    1.15    1.35
  -6   6   0    0.72    1.17
   6   6   0    2.43    1.12
  -7  -6   0   26.80    1.97
  -7  -6   0   31.05    2.20
  -7  -6   0   28.52    2.36
   7  -6   0   29.41    2.43
  -7   6   0   30.07    2.21
   7   6   0   28.91    2.01
  -7   6   0   27.00    2.33
   0  -7   0    0.50    0.65
   0  -7   0   -0.11    1.12
   0  -7   0   -0.95    0.89
   0   7   0   -0.64    0.81
   0   7   0    0.43    1.01
   1  -7   0    0.54    1.17
  -1  -7   0    0.22    0.65
  -1  -7   0    0.62    1.03
  -1  -7   0    0.32    0.67
   1  -7   0    1.38    0.97
   1  -7   0   -0.38    0.80
  -1  -7   0    1.42    0.84
   1   7   0    0.65    1.01
   1   7   0    1.17    0.77
  -1   7   0    0.80    0.86
   1   7   0   -0.36    1.14
  -1   7   0    2.15    1.07
   2  -7   0   96.85    4.42
  -2  -7   0   97.78    4.16
  -2  -7   0  102.75    4.15
   2  -7   0   98.97    3.76
  -2  -7   0   96.77    3.99
  -2  -7   0  104.74    4.00
   2  -7   0  100.06    4.31
  -2   7   0  100.92    4.17
   2   7   0  106.93    4.13
   2   7   0  100.88    4.28
   2   7   0  107.21    4.08
  -2   7   0  108.48    4.16
  -3  -7   0    6.52    1.06
  -3  -7   0    5.98    1.30
  -3  -7   0    5.05    1.20
   3  -7   0    8.44    1.48
   3   7   0    6.86    1.14
  -3   7   0    7.24    1.49
   3   7   0    7.01    1.35
  -4  -7   0   20.18    1.75
  -4  -7   0   21.84    1.92
   4  -7   0   19.05    1.70
  -4  -7   0   21.62    1.94
   4   7   0   20.70    1.43
  -4   7   0   17.12    1.68
   4   7   0   17.53    1.81
  -5  -7   0   18.83    1.74
  -5  -7   0   16.58    1.86
   5  -7   0   17.56    1.63
  -5  -7   0   20.45    1.99
   5   7   0   16.56    1.82
  -5   7   0   17.87    1.94
  -6  -7   0   43.33    3.06
  -6  -7   0   44.35    2.57
   6  -7   0   43.07    2.93
  -6  -7   0   36.73    2.57
   6   7   0   40.00    2.52
  -6   7   0   44.54    2.94
   0  -8   0   15.29    1.71
   0  -8   0   13.04    1.32
   0  -8   0   14.91    1.84
   0   8   0   15.05    1.48
   0   8   0   12.34    1.54
  -1  -8   0   37.37    2.42
   1  -8   0   37.07    2.45
  -1  -8   0   38.10    2.37
  -1  -8   0   38.19    2.26
   1  -8   0   38.77    2.35
   1   8   0   44.55    2.78
  -1   8   0   52.76    3.03
   1   8   0   39.40    2.81
  -1   8   0   36.81    2.58
  -2  -8   0    0.50    0.91
   2  -8   0   -0.46    0.94
   2  -8   0    0.46    0.89
  -2  -8   0    0.47    1.20
  -2  -8   0    0.25    1.14
   2   8   0    1.38    1.25
  -2   8   0    0.90    1.40
   3  -8   0    5.05    1.23
  -3  -8   0    5.36    1.43
  -3  -8   0    7.08    1.28
   3  -8   0    5.97    1.05
  -3  -8   0    4.24    1.18
   3   8   0    3.07    1.39
  -3   8   0    6.19    1.63
 -10   0   1   -0.68    1.13
 -10   0   1   -1.58    0.93
  10   0  -1   -0.28    1.02
 -10   0   1   -0.38    0.61
  10   0  -1    0.10    0.89
   9   0  -1   51.58    2.54
  -9   0   1   54.74    2.39
  -9   0   1   51.40    2.52
  -9   0   1   61.48    3.04
   9   0  -1   54.45    2.82
  -9   0   1   51.89    2.41
  -8   0   1   -0.22    1.04
   8   0  -1    0.34    0.99
  -8   0   1   -1.98    0.78
   8   0  -1    0.23    0.69
  -8   0   1    0.42    0.63
  -7   0   1   99.18    3.88
  -7   0   1   94.51    3.63
   7   0  -1   92.34    3.40
  -7   0   1   97.15    3.42
   7   0  -1   94.25    3.75
  -6   0   1    0.32    0.93
   6   0  -1   -0.41    0.57
  -6   0   1   -0.03    0.49
  -5   0   1  985.09   28.41
  -5   0   1  945.20   28.27
   5   0  -1  882.47   28.17
   4   0  -1   -0.01    0.42
   4   0  -1   -0.77    0.32
  -4   0   1   -0.36    0.47
  -4   0   1   -0.11    0.48
  -4   0   1   -0.27    0.37
  -3   0   1  176.89    5.58
   3   0  -1  169.45    5.40
  -3   0   1  173.32    5.42
  -3   0   1  171.69    5.38
   3   0  -1  174.38    5.40
  -2   0   1   -0.07    0.37
   2   0  -1    0.35    0.34
   2   0  -1    0.27    0.33
  -2   0   1   -0.24    0.35
   1   0  -1  917.43   27.22
   1   0  -1  919.80   27.23
  -1   0   1  896.03   27.15
   1   0  -1  898.49   27.25
  -1   0   1  886.06   27.13
   0   0   1   -0.05    0.06
   0   0  -1    0.12    0.13
   0   0  -1    0.00    0.07
   0   0   1    0.05    0.06
   0   0  -1    0.04    0.07
   0   0  -1    0.05    0.07
   0   0  -1   -0.12    0.16
   0   0  -1   -0.02    0.05
   0   0   1   -0.04    0.06
  -1   0  -1  148.51    4.44
  -1   0  -1  148.38    4.53
  -1   0  -1  146.55    4.42
  -1   0  -1  145.14    4.44
  -2   0  -1    0.11    0.21
  -2   0  -1   -0.17    0.19
  -2   0  -1   -0.50    0.28
  -3   0  -1  323.52    9.63
   3   0   1  317.68    9.61
  -3   0  -1  321.60    9.69
  -3   0  -1  319.52    9.88
  -3   0  -1  323.01    9.63
  -3   0  -1  319.17    9.75
  -4   0  -1    0.17    0.41
  -4   0  -1   -0.22    0.28
   4   0   1    0.73    0.32
   4   0   1    0.07    0.23
  -4   0  -1   -0.09    0.28
  -4   0  -1   -0.02    0.41
   5   0   1   18.45    0.97
  -5   0  -1   18.00    0.92
  -5   0  -1   17.78    0.89
  -5   0  -1   18.19    1.15
  -5   0  -1   17.96    1.37
   5   0   1   18.03    0.92
   6   0   1    0.51    0.40
  -6   0  -1   -0.57    0.51
  -6   0  -1    0.61    0.63
   6   0   1   -0.21    0.41
  -6   0  -1    0.07    0.47
  -6   0  -1   -0.30    0.38
  -7   0  -1   54.08    2.30
  -7   0  -1   57.46    2.53
  -7   0  -1   56.56    2.18
   7   0   1   55.88    2.21
   8   0   1    0.39    0.59
  -8   0  -1   -0.26    0.74
  -8   0  -1   -0.67    0.44
  -8   0  -1   -0.21    0.66
  -9   0  -1    7.35    0.97
   9   0   1    6.75    0.95
  -9   0  -1    5.94    1.27
   9   0   1    4.81    1.18
 -10   0  -1    0.17    0.81
 -10   0  -1    1.42    1.18
  10   0   1   -0.36    0.79
  10  -1  -1   -0.31    1.30
 -10  -1   1    0.89    0.91
  10  -1  -1    1.24    0.98
 -10  -1   1    0.96    0.85
 -10  -1   1    1.06    1.35
 -10   1   1    0.94    1.01
 -10   1   1    1.69    1.04
  10   1  -1   -0.34    0.94
  -9  -1   1   36.48    2.15
  -9  -1   1   39.08    2.12
  -9  -1   1   41.82    2.46
   9  -1  -1   39.67    2.21
  -9   1   1   38.53    2.36
  -9   1   1   35.97    2.31
   9   1  -1   37.75    1.98
   9   1  -1   39.31    2.17
  -8  -1   1  154.79    5.36
  -8  -1   1  157.30    5.47
   8  -1  -1  152.39    5.39
  -8  -1   1  164.64    5.95
  -8   1   1  159.91    5.60
  -8   1   1  147.60    5.16
   8   1  -1  158.78    5.44
  -8   1   1  158.91    5.53
   8   1  -1  156.16    5.45
   8   1  -1  164.38    5.18
   7  -1  -1    9.84    0.98
  -7  -1   1    8.96    0.95
  -7  -1   1    8.79    1.03
  -7  -1   1   10.52    1.08
  -7  -1   1   11.10    1.51
   7   1  -1   10.23    1.06
   7   1  -1    9.41    1.02
   7   1  -1   10.49    0.82
  -7   1   1    8.63    1.06
  -7   1   1    8.61    1.16
  -6  -1   1   37.04    2.34
   6  -1  -1   40.00    1.80
  -6  -1   1   40.27    1.98
  -6  -1   1   40.01    1.87
  -6  -1   1   38.48    1.72
  -6   1   1   40.00    1.99
  -6   1   1   38.32    1.53
   6   1  -1   39.39    1.60
  -6   1   1   40.53    1.79
   6   1  -1   37.77    1.82
   6   1  -1   38.90    1.91
   5  -1  -1   69.00    2.48
  -5  -1   1   77.89    2.68
   5  -1  -1   74.33    2.61
  -5  -1   1   68.55    2.59
  -5  -1   1   77.72    3.06
  -5  -1   1   76.53    2.68
  -5   1   1   65.62    2.61
   5   1  -1   69.52    2.48
  -5   1   1   70.00    2.62
   5   1  -1   80.57    2.72
  -5   1   1   75.34    2.47
   5   1  -1   66.01    2.46
   5   1  -1   69.60    2.63
   4  -1  -1  372.43   12.44
  -4  -1   1  426.00   12.75
  -4  -1   1  387.48   12.52
   4  -1  -1  409.04   12.47
  -4  -1   1  414.51   12.54
  -4   1   1  434.91   12.55
   4   1  -1  418.66   12.52
   4   1  -1  402.39   12.45
   4   1  -1  410.53   12.50
  -4   1   1  419.13   12.43
   4   1  -1  403.27   12.42
  -4   1   1  418.93   12.54
  -3  -1   1   37.02    1.54
   3  -1  -1   40.91    1.53
  -3  -1   1   38.89    1.59
  -3  -1   1   38.86    1.89
   3  -1  -1   38.62    1.45
   3   1  -1   39.24    1.43
  -3   1   1   40.03    1.51
   3   1  -1   39.26    1.52
  -3   1   1   37.02    1.47
   3   1  -1   38.03    1.52
   3   1  -1   37.34    1.53
  -3   1   1   39.17    1.53
  -3   1   1   38.65    1.49
  -2  -1   1  236.86    7.28
  -2  -1   1  233.98    7.42
   2  -1  -1  238.01    7.26
   2  -1  -1  241.14    7.26
   2   1  -1  232.68    7.25
   2   1  -1  239.09    7.28
  -2   1   1  240.26    7.28
   2   1  -1  237.30    7.22
  -2   1   1  235.64    7.25
  -1  -1   1   46.77    1.57
   1  -1  -1   45.67    1.57
   1  -1  -1   47.63    1.56
   1  -1  -1   45.27    1.56
  -1   1   1   44.98    1.59
   1   1  -1   45.83    1.62
   1   1  -1   45.09    1.54
   1   1  -1   45.51    1.56
  -1   1   1   45.86    1.61
   0  -1  -1  255.88    7.76
   0  -1   1  261.33    7.74
   0  -1  -1  258.65    7.76
   0  -1  -1  252.25    7.75
   0  -1  -1  249.28    7.73
   0   1   1  253.58    7.74
   0   1  -1  264.56    7.74
   0   1  -1  260.08    7.77
   0   1  -1  259.54    7.76
   0   1   1  249.76    7.75
   1  -1   1    7.47    0.31
   1  -1   1    7.09    0.42
  -1  -1  -1    6.06    0.59
  -1  -1  -1    7.79    0.62
  -1  -1  -1    7.44    0.47
   1  -1   1    6.83    0.39
  -1  -1  -1    7.32    0.49
  -1  -1  -1    7.31    0.42
  -1   1  -1    7.00    0.40
  -1   1  -1    7.26    0.38
   1   1   1    7.41    0.43
  -1   1  -1    8.05    0.42
   1   1   1    7.43    0.44
   1   1   1    7.84    0.47
  -1   1  -1    7.92    0.61
  -1   1  -1    6.81    0.44
  -2  -1  -1  384.05   12.79
   2  -1   1  422.93   12.80
  -2  -1  -1  429.81   12.82
  -2  -1  -1  432.44   12.83
  -2  -1  -1  431.19   13.01
  -2  -1  -1  426.66   12.90
   2   1   1  432.62   12.77
  -2   1  -1  437.14   12.84
   2   1   1  436.02   12.80
  -2   1  -1  420.09   12.83
   2   1   1  452.15   12.75
   2   1   1  424.30   12.81
  -2   1  -1  420.25   12.81
  -2   1  -1  422.87   12.88
  -2   1  -1  433.84   12.81
  -3  -1  -1    0.03    0.28
  -3  -1  -1   -0.55    0.39
  -3  -1  -1   -0.07    0.25
   3  -1   1   -0.14    0.23
   3  -1   1    0.09    0.23
  -3  -1  -1   -0.13    0.24
   3   1   1   -0.09    0.24
  -3   1  -1   -0.21    0.25
  -3   1  -1   -0.19    0.13
  -3   1  -1   -0.28    0.24
   3   1   1   -0.08    0.11
   3   1   1    0.59    0.30
  -3   1  -1   -0.37    0.22
  -3   1  -1    0.01    0.33
  -4  -1  -1  200.81    6.24
  -4  -1  -1  202.41    6.22
   4  -1   1  193.60    6.18
  -4  -1  -1  202.15    6.30
  -4  -1  -1  201.07    6.52
   4  -1   1  203.87    6.18
   4   1   1  199.11    6.21
   4   1   1  193.30    6.20
  -4   1  -1  205.89    6.22
  -4   1  -1  201.81    6.21
  -4   1  -1  198.54    6.33
  -4   1  -1  202.30    6.09
  -4   1  -1  203.17    6.31
   4   1   1  202.91    6.07
   5  -1   1   63.32    2.29
  -5  -1  -1   66.41    2.33
   5  -1   1   65.83    2.27
  -5  -1  -1   65.35    2.29
  -5  -1  -1   64.00    2.77
  -5  -1  -1   65.40    2.35
  -5   1  -1   65.96    2.30
   5   1   1   65.35    2.29
   5   1   1   67.28    2.12
   5   1   1   64.48    2.30
  -5   1  -1   64.52    2.30
   5   1   1   63.08    2.34
  -5   1  -1   65.91    2.44
  -5   1  -1   67.58    2.50
  -5   1  -1   65.71    2.13
   6  -1   1   65.50    2.35
  -6  -1  -1   62.87    2.74
  -6  -1  -1   64.68    2.45
  -6  -1  -1   66.29    2.41
   6   1   1   63.01    2.44
  -6   1  -1   64.40    2.16
  -6   1  -1   63.83    2.51
   6   1   1   65.29    2.13
  -6   1  -1   61.23    2.42
   6   1   1   64.92    2.38
  -7  -1  -1   10.22    1.19
   7  -1   1   10.84    0.90
  -7  -1  -1   11.15    0.96
  -7  -1  -1   10.04    0.94
   7   1   1    9.30    0.88
  -7   1  -1    9.94    0.73
  -7   1  -1    9.47    1.03
  -7   1  -1   10.47    1.10
   7   1   1   11.82    0.98
   8  -1   1    7.77    0.88
  -8  -1  -1    8.34    0.89
  -8  -1  -1    6.84    1.11
  -8  -1  -1    7.93    0.91
   8   1   1    7.05    0.89
  -8   1  -1    8.31    1.11
   8   1   1    6.54    0.90
  -8   1  -1    6.36    0.97
  -9  -1  -1   10.93    1.58
  -9  -1  -1    9.04    1.05
   9  -1   1   10.77    1.08
  -9   1  -1   11.08    1.24
   9   1   1   12.02    1.12
  -9   1  -1   12.39    1.33
  10  -1   1   52.92    2.49
 -10  -1  -1   49.76    3.19
 -10  -1  -1   45.99    2.45
  10   1   1   48.54    2.49
 -10   1  -1   50.08    2.77
 -10   1  -1   48.19    2.61
 -10  -2   1    4.72    1.26
 -10  -2   1    2.77    1.06
 -10  -2   1    3.87    1.09
  10  -2  -1    4.42    1.14
  10   2  -1    2.44    1.08
 -10   2   1    4.23    1.13
  -9  -2   1   25.43    2.30
   9  -2  -1   23.94    1.59
  -9  -2   1   25.83    1.65
  -9  -2   1   23.65    1.83
  -9   2   1   25.69    1.72
   9   2  -1   20.21    1.83
  -9   2   1   23.19    1.65
  -8  -2   1   35.57    2.03
  -8  -2   1   38.51    2.12
   8  -2  -1   36.40    2.03
  -8  -2   1   33.90    2.65
   8   2  -1   32.61    1.82
  -8   2   1   38.79    2.16
  -8   2   1   37.96    1.93
  -7  -2   1   20.18    1.82
  -7  -2   1   23.19    1.59
  -7  -2   1   24.36    1.49
   7  -2  -1   23.05    1.59
  -7   2   1   24.51    1.47
  -7   2   1   25.20    1.73
   7   2  -1   21.41    1.21
   7   2  -1   25.57    1.45
  -6  -2   1    0.30    1.15
  -6  -2   1    0.67    0.68
  -6  -2   1    1.32    0.59
   6  -2  -1    2.18    0.74
   6   2  -1    0.88    0.69
  -6   2   1    1.51    0.73
   6   2  -1    1.13    0.49
  -6   2   1    2.18    0.70
  -6   2   1    1.78    0.61
  -6   2   1    0.89    0.44
   5  -2  -1   82.68    3.02
  -5  -2   1   88.58    3.44
  -5  -2   1   86.31    3.15
   5  -2  -1   91.40    3.17
  -5  -2   1   87.87    3.18
   5   2  -1   84.13    3.02
  -5   2   1   88.84    3.02
  -5   2   1   90.82    3.02
  -5   2   1   90.00    3.21
   5   2  -1   88.07    3.18
  -5   2   1   88.61    3.20
   5   2  -1   88.59    2.95
   4  -2  -1   12.13    0.99
  -4  -2   1   10.64    1.00
  -4  -2   1   12.85    0.98
  -4  -2   1   10.71    0.83
   4  -2  -1   10.77    0.83
  -4   2   1   10.50    0.88
  -4   2   1    9.92    0.83
  -4   2   1    9.33    0.74
   4   2  -1    9.47    0.70
   4   2  -1   10.91    0.80
  -4   2   1   11.06    0.74
   4   2  -1    9.66    0.71
  -3  -2   1   38.29    1.63
   3  -2  -1   40.40    1.67
  -3  -2   1   40.78    1.99
   3  -2  -1   41.01    1.56
  -3  -2   1   40.82    1.62
  -3   2   1   39.53    1.68
  -3   2   1   42.07    1.63
   3   2  -1   38.92    1.58
   3   2  -1   41.15    1.52
   3   2  -1   41.82    1.65
  -2  -2   1   17.86    1.34
   2  -2  -1   18.54    0.86
   2  -2  -1   18.29    1.02
  -2  -2   1   17.78    1.04
  -2  -2   1   16.53    1.09
   2  -2  -1   18.63    1.09
   2   2  -1   16.95    0.90
   2   2  -1   18.24    1.02
  -2   2   1   17.82    0.89
   2   2  -1   18.37    0.94
  -2   2   1   17.95    1.08
  -1  -2   1   40.90    1.65
  -1  -2   1   43.01    1.65
   1  -2  -1   40.30    1.52
   1  -2  -1   41.99    1.60
   1  -2  -1   42.85    1.44
  -1  -2   1   44.21    1.77
   1  -2  -1   44.88    1.68
   1   2  -1   42.17    1.56
   1   2  -1   42.39    1.64
  -1   2   1   41.20    1.57
  -1   2   1   43.98    1.71
   1   2  -1   42.89    1.63
   0  -2  -1   60.47    2.19
   0  -2   1   63.72    2.17
   0  -2  -1   64.99    2.22
   0  -2  -1   62.47    2.24
   0  -2   1   66.95    2.22
   0  -2   1   67.85    2.21
   0  -2  -1   64.55    2.19
   0   2  -1   65.26    2.27
   0   2  -1   63.16    2.23
   0   2  -1   65.06    2.23
   0   2   1   66.07    2.25
   0   2   1   65.66    2.29
   1  -2   1    4.13    0.35
  -1  -2  -1    4.53    0.43
  -1  -2  -1    4.04    0.49
  -1  -2  -1    4.33    0.43
   1  -2   1    4.33    0.47
  -1  -2  -1    4.98    0.59
   1   2   1    4.06    0.42
   1   2   1    4.80    0.45
  -1   2  -1    4.64    0.48
  -1   2  -1    4.23    0.55
   1   2   1    3.98    0.42
  -1   2  -1    4.97    0.40
  -2  -2  -1    6.65    0.62
   2  -2   1    3.40    0.30
  -2  -2  -1    4.43    0.43
  -2  -2  -1    3.69    0.53
   2  -2   1    3.48    0.39
   2  -2   1    4.28    0.51
  -2  -2  -1    3.08    0.46
  -2   2  -1    4.37    0.58
  -2   2  -1    3.42    0.41
   2   2   1    3.59    0.44
  -2   2  -1    3.22    0.37
   2   2   1    3.38    0.45
   2   2   1    3.28    0.36
  -3  -2  -1  435.64   12.14
  -3  -2  -1  378.97   12.29
  -3  -2  -1  380.68   11.96
  -3  -2  -1  384.60   12.17
   3  -2   1  399.70   12.06
  -3   2  -1  394.84   12.09
   3   2   1  400.33   11.91
   3   2   1  390.46   12.08
  -3   2  -1  386.83   11.94
  -3   2  -1  418.90   11.96
  -4  -2  -1   37.91    1.85
  -4  -2  -1   37.69    1.54
  -4  -2  -1   37.96    1.64
   4  -2   1   40.46    1.59
   4   2   1   39.57    1.58
  -4   2  -1   39.41    1.45
  -4   2  -1   40.42    1.60
  -4   2  -1   37.20    1.60
   4   2   1   40.77    1.30
  -5  -2  -1   -0.78    0.89
  -5  -2  -1    2.36    0.52
   5  -2   1    2.19    0.54
  -5  -2  -1    0.75    0.52
  -5   2  -1    2.07    0.46
  -5   2  -1    1.88    0.18
   5   2   1    1.79    0.23
  -5   2  -1    1.52    0.55
   5   2   1    1.84    0.52
  -5   2  -1    1.58    0.59
  -5   2  -1    1.53    0.42
  -6  -2  -1    7.59    0.81
   6  -2   1    7.24    0.76
  -6  -2  -1    6.80    0.87
  -6  -2  -1    7.34    1.06
   6   2   1    7.09    0.79
   6   2   1    7.52    0.60
  -6   2  -1    6.17    0.75
  -6   2  -1    7.35    0.83
  -6   2  -1    6.46    0.69
  -7  -2  -1  174.10    5.88
  -7  -2  -1  177.14    5.87
  -7  -2  -1  172.84    6.27
   7  -2   1  180.24    5.79
  -7   2  -1  171.95    5.81
  -7   2  -1  169.36    5.88
  -7   2  -1  180.14    5.84
   7   2   1  177.62    5.83
   8  -2   1   38.13    1.95
  -8  -2  -1   37.31    2.35
  -8  -2  -1   39.59    2.00
  -8  -2  -1   41.17    1.92
  -8   2  -1   36.41    1.87
  -8   2  -1   37.98    2.07
   8   2   1   36.45    1.96
  -9  -2  -1   46.85    2.35
  -9  -2  -1   48.86    2.40
   9  -2   1   48.35    2.32
  -9  -2  -1   49.41    2.83
  -9   2  -1   45.82    2.44
   9   2   1   47.50    2.37
 -10  -2  -1    4.07    1.02
 -10  -2  -1    5.85    1.68
 -10   2  -1    4.28    1.08
 -10  -3   1   15.74    1.71
  10  -3  -1   14.50    1.57
 -10  -3   1   12.97    2.11
 -10  -3   1   12.62    1.55
 -10   3   1   15.35    1.60
  10   3  -1   14.14    1.54
   9  -3  -1   17.17    1.55
  -9  -3   1   18.04    2.12
  -9  -3   1   15.99    1.56
  -9  -3   1   14.72    1.42
  -9   3   1   14.66    1.52
   9   3  -1   15.50    1.50
  -8  -3   1    5.78    1.48
   8  -3  -1    2.28    0.97
  -8  -3   1    2.25    0.95
  -8  -3   1    4.50    1.09
  -8   3   1    2.52    0.95
   8   3  -1    2.47    0.93
  -7  -3   1   51.10    2.36
   7  -3  -1   54.53    2.48
  -7  -3   1   55.40    2.66
  -7  -3   1   55.54    2.82
  -7   3   1   54.47    2.51
  -7   3   1   50.00    2.46
   7   3  -1   52.68    2.50
   7   3  -1   53.76    2.07
  -6  -3   1   32.51    1.82
  -6  -3   1   35.58    1.76
   6  -3  -1   33.36    1.92
  -6  -3   1   33.44    2.45
   6   3  -1   36.39    1.55
  -6   3   1   35.27    1.93
   6   3  -1   34.01    1.72
  -6   3   1   32.16    1.91
  -6   3   1   35.14    1.42
  -5  -3   1    2.74    0.87
  -5  -3   1    2.98    0.66
   5  -3  -1    4.01    0.81
   5  -3  -1    2.27    0.57
  -5  -3   1    1.34    1.14
  -5  -3   1    1.06    0.70
  -5   3   1    1.71    0.59
   5   3  -1    2.12    0.65
  -5   3   1    1.87    0.36
   5   3  -1    1.35    0.72
  -5   3   1    1.34    0.57
  -5   3   1    2.24    0.74
   4  -3  -1    4.47    0.65
   4  -3  -1    3.13    0.58
  -4   3   1    3.09    0.61
  -3  -3   1  291.39    9.14
   3  -3  -1  287.60    8.84
  -3  -3   1  291.56    9.05
  -3  -3   1  282.46    9.05
   3  -3  -1  297.79    9.02
   3  -3  -1  284.11    8.96
   3   3  -1  279.83    8.88
  -3   3   1  298.39    9.07
  -3   3   1  284.97    8.95
   3   3  -1  282.68    8.99
   3   3  -1  281.78    9.00
  -2  -3   1   62.11    2.37
  -2  -3   1   60.06    2.36
   2  -3  -1   62.08    2.34
   2  -3  -1   61.10    2.19
  -2  -3   1   65.04    2.40
   2  -3  -1   58.12    2.28
   2   3  -1   65.69    2.35
  -2   3   1   61.74    2.33
   2   3  -1   62.75    2.27
  -2   3   1   63.34    2.34
   2   3  -1   61.83    2.29
  -1  -3   1  100.84    3.40
   1  -3  -1  101.01    3.40
   1  -3  -1   99.59    3.15
   1  -3  -1   98.73    3.30
  -1  -3   1   98.87    3.35
   1  -3  -1   99.84    3.40
  -1  -3   1   99.08    3.36
   1   3  -1   98.70    3.39
   1   3  -1   98.14    3.35
  -1   3   1   97.71    3.38
   1   3  -1   97.87    3.33
  -1   3   1   95.98    3.36
   0  -3  -1   18.23    1.18
   0  -3  -1   18.87    1.04
   0  -3  -1   19.24    1.12
   0  -3   1   19.04    0.94
   0  -3  -1   19.99    0.99
   0  -3   1   19.77    1.22
   0  -3   1   20.20    1.02
   0  -3   1   21.89    0.95
   0   3  -1   21.50    1.26
   0   3   1   19.88    0.99
   0   3   1   18.84    1.19
   0   3  -1   20.50    1.05
   0   3   1   21.20    1.17
   0   3  -1   20.35    1.11
   1  -3   1  110.23    3.54
   1  -3   1  111.68    3.39
   1  -3   1  108.69    3.62
  -1  -3  -1  114.76    3.72
   1  -3   1  109.72    3.71
  -1  -3  -1  108.28    3.72
  -1  -3  -1  109.84    3.71
  -1  -3  -1  109.20    3.62
  -1   3  -1  113.11    3.75
  -1   3  -1  106.97    3.69
   1   3   1  110.33    3.60
   1   3   1  106.45    3.70
  -1   3  -1  108.11    3.60
   1   3   1  109.21    3.69
   2  -3   1  120.66    3.94
   2  -3   1  126.46    4.18
  -2  -3  -1  137.94    4.23
   2  -3   1  121.52    4.07
  -2  -3  -1  130.63    4.26
   2   3   1  125.61    4.03
   2   3   1  131.90    4.19
  -2   3  -1  121.57    4.19
  -2   3  -1  118.68    4.04
   2   3   1  125.21    4.12
  -3  -3  -1  163.62    5.24
   3  -3   1  161.51    5.23
  -3  -3  -1  163.13    5.59
   3  -3   1  168.01    5.32
  -3  -3  -1  159.58    5.41
  -3  -3  -1  164.66    5.38
   3  -3   1  163.63    5.07
   3   3   1  162.90    5.15
   3   3   1  164.77    5.29
   3   3   1  170.07    5.37
  -3   3  -1  172.15    5.22
  -3   3  -1  168.45    5.39
  -4  -3  -1   27.93    1.23
  -4  -3  -1   28.07    1.91
   4  -3   1   31.40    1.41
  -4  -3  -1   30.78    1.52
  -4  -3  -1   28.52    1.50
   4   3   1   28.61    1.14
  -4   3  -1   28.44    1.53
   4   3   1   28.80    1.49
  -4   3  -1   30.75    1.28
   5  -3   1    6.11    0.69
  -5  -3  -1    5.32    1.00
  -5  -3  -1    5.74    0.69
  -5   3  -1    5.74    0.76
  -5   3  -1    6.60    0.54
  -5   3  -1    4.86    0.81
   5   3   1    5.79    0.80
   5   3   1    5.58    0.47
  -6  -3  -1  110.64    3.87
  -6  -3  -1  109.72    4.35
  -6  -3  -1   95.83    3.76
   6  -3   1  108.29    3.76
   6   3   1  106.48    3.78
  -6   3  -1   99.59    3.73
  -6   3  -1  101.83    3.77
  -6   3  -1  105.43    3.47
   7  -3   1   12.34    1.11
  -7  -3  -1   11.57    1.38
  -7  -3  -1    9.71    1.08
  -7  -3  -1   10.07    1.21
  -7   3  -1   10.13    1.08
  -7   3  -1   11.25    1.11
   7   3   1   11.72    1.11
   8  -3   1    3.35    0.88
  -8  -3  -1    1.90    0.82
  -8  -3  -1    1.69    0.92
  -8  -3  -1    2.46    1.04
   8   3   1    1.61    0.82
  -8   3  -1    2.04    0.64
  -8   3  -1    2.39    0.83
  -9  -3  -1    2.53    1.15
  -9  -3  -1    1.99    0.94
   9  -3   1    1.97    0.96
  -9  -3  -1    2.33    0.90
   9   3   1    1.36    0.89
  -9   3  -1    2.23    0.70
  -9  -4   1    4.22    1.17
   9  -4  -1    2.74    1.21
  -9  -4   1    4.92    1.74
  -9  -4   1    5.96    1.08
  -9   4   1    3.37    1.09
   9   4  -1    4.46    1.22
   8  -4  -1    6.00    0.96
  -8  -4   1    4.88    0.90
  -8  -4   1    5.91    1.64
  -8  -4   1    3.35    0.93
  -8   4   1    4.64    0.91
  -8   4   1    3.65    1.03
   8   4  -1    5.47    0.95
  -7  -4   1    2.09    1.34
   7  -4  -1   -0.14    0.91
  -7  -4   1   -0.86    0.87
  -7  -4   1    0.54    0.74
  -7   4   1   -0.02    0.58
  -7   4   1    0.69    0.90
   7   4  -1   -0.79    0.86
   6  -4  -1  116.56    4.13
  -6  -4   1  103.28    4.18
  -6  -4   1  108.10    4.06
  -6  -4   1  105.95    4.33
  -6   4   1  108.54    4.13
   6   4  -1  106.19    3.99
   6   4  -1  106.77    3.69
  -6   4   1  104.69    4.01
   5  -4  -1  129.32    4.46
  -5  -4   1  124.47    4.36
   5  -4  -1  125.62    4.41
  -5  -4   1  129.44    4.92
  -5  -4   1  128.53    4.53
  -5  -4   1  127.63    4.64
  -5   4   1  125.90    4.50
   5   4  -1  126.17    4.23
  -5   4   1  126.30    4.33
   5   4  -1  126.61    4.47
   5   4  -1  115.49    4.34
  -4  -4   1  101.53    3.89
  -4  -4   1  105.98    3.88
   4  -4  -1  105.54    3.72
  -4  -4   1  103.33    4.10
   4  -4  -1  105.89    3.86
  -4  -4   1  102.93    3.73
   4   4  -1  103.90    3.83
   4   4  -1   99.10    3.70
  -4   4   1  105.77    3.90
   4   4  -1  102.85    3.59
  -4   4   1  105.45    3.68
   3  -4  -1    9.13    0.73
  -3  -4   1    5.17    1.07
   3  -4  -1    7.52    1.02
  -3  -4   1    7.07    0.94
  -3  -4   1    5.81    0.79
   3  -4  -1    7.24    0.86
  -3  -4   1    7.99    0.98
  -3   4   1    8.30    1.04
   3   4  -1    5.76    0.91
   3   4  -1    7.66    0.69
   3   4  -1    6.51    0.97
  -3   4   1    6.49    0.86
  -2  -4   1  153.59    5.09
   2  -4  -1  151.82    4.89
  -2  -4   1  150.02    5.05
  -2  -4   1  152.60    5.10
  -2  -4   1  149.20    5.06
   2  -4  -1  151.15    5.01
   2  -4  -1  145.32    5.06
  -2   4   1  154.02    5.14
   2   4  -1  143.49    4.91
   2   4  -1  145.85    4.99
  -2   4   1  147.54    5.02
   2   4  -1  150.40    5.11
  -1  -4   1   98.74    3.42
  -1  -4   1   96.80    3.35
   1  -4  -1   99.42    3.21
  -1  -4   1   97.48    3.56
   1  -4  -1   98.86    3.47
  -1  -4   1   98.52    3.55
   1  -4  -1   98.64    3.48
   1  -4  -1   98.56    3.42
   1   4  -1  100.36    3.62
  -1   4   1   99.43    3.61
  -1   4   1   99.87    3.52
   1   4  -1   95.17    3.47
   1   4  -1   95.35    3.50
   0  -4   1  126.99    4.26
   0  -4  -1  123.97    4.23
   0  -4  -1  123.10    4.20
   0  -4  -1  124.05    4.12
   0  -4  -1  127.60    4.34
   0  -4   1  124.22    4.33
   0  -4   1  127.00    4.04
   0  -4   1  123.40    4.14
   0   4  -1  124.57    4.26
   0   4   1  126.99    4.36
   0   4   1  124.84    4.31
   0   4  -1  124.64    4.39
   0   4  -1  122.44    4.25
   0   4   1  127.46    4.27
  -1  -4  -1  165.57    5.58
   1  -4   1  169.98    5.64
  -1  -4  -1  167.12    5.57
   1  -4   1  173.70    5.44
   1  -4   1  169.18    5.22
   1  -4   1  169.42    5.54
  -1  -4  -1  176.07    5.67
  -1  -4  -1  164.24    5.53
   1   4   1  168.23    5.62
   1   4   1  169.75    5.64
   1   4   1  171.74    5.52
  -1   4  -1  174.27    5.67
  -1   4  -1  167.61    5.54
  -1   4  -1  171.91    5.69
  -2  -4  -1    7.21    0.78
  -2  -4  -1    7.44    0.85
   2  -4   1    7.80    0.62
   2  -4   1    9.79    1.01
  -2  -4  -1    7.05    0.82
   2  -4   1    7.69    0.70
  -2  -4  -1    7.70    0.82
  -2   4  -1    5.95    0.94
   2   4   1    8.74    0.75
  -2   4  -1    8.04    0.81
   2   4   1    7.91    0.89
   2   4   1    7.83    0.78
  -2   4  -1    7.56    0.97
   3  -4   1   16.22    0.99
   3  -4   1   17.67    0.87
   3  -4   1   16.73    1.21
  -3  -4  -1   17.19    1.17
  -3  -4  -1   16.63    1.24
  -3  -4  -1   17.32    1.35
  -3   4  -1   17.10    1.12
  -3   4  -1   18.29    1.22
   3   4   1   23.72    1.10
   3   4   1   17.01    1.24
   3   4   1   17.98    1.17
  -4  -4  -1   83.78    3.24
  -4  -4  -1   83.94    3.24
  -4  -4  -1   84.08    3.00
  -4  -4  -1   84.82    3.55
   4  -4   1   90.88    3.16
  -4   4  -1   79.13    2.93
   4   4   1   87.51    2.88
   4   4   1   84.84    3.23
   4   4   1   79.02    3.07
  -4   4  -1   86.67    3.29
  -5  -4  -1   71.19    2.87
  -5  -4  -1   63.80    3.02
   5  -4   1   69.31    2.86
  -5  -4  -1   79.23    3.07
   5   4   1   64.70    2.78
   5   4   1   65.20    2.37
  -5   4  -1   70.71    2.88
  -6  -4  -1    7.07    1.19
  -6  -4  -1    6.99    1.42
   6  -4   1    7.32    1.02
  -6  -4  -1    6.72    1.02
   6   4   1    5.32    0.94
  -6   4  -1    5.88    0.83
  -6   4  -1    6.29    0.91
  -7  -4  -1    3.72    0.87
  -7  -4  -1    3.31    1.06
   7  -4   1    3.67    0.96
  -7  -4  -1    2.79    0.91
  -7   4  -1    2.99    0.67
   7   4   1    3.02    0.73
  -7   4  -1    1.55    0.87
  -8  -4  -1    3.39    1.12
   8  -4   1    3.49    1.02
  -8  -4  -1    3.17    1.50
  -8  -4  -1    1.82    0.99
  -8   4  -1    3.41    0.82
   8   4   1    3.39    0.99
  -8   4  -1    2.83    0.90
  -9  -4  -1   11.45    1.43
  -9  -4  -1   13.95    1.62
  -9  -4  -1   13.50    2.08
   9  -4   1   15.42    1.52
  -9   4  -1   10.28    1.14
  -9   4  -1   14.12    1.49
   9   4   1   14.80    1.51
  -8  -5   1   14.65    2.11
  -8  -5   1   20.14    1.76
   8  -5  -1   17.86    1.75
  -8  -5   1   15.33    1.48
  -8   5   1   15.67    1.43
  -8   5   1   18.28    1.78
   8   5  -1   16.74    1.52
  -7  -5   1   51.45    2.73
  -7  -5   1   48.40    3.21
   7  -5  -1   49.91    2.48
  -7  -5   1   50.51    2.85
  -7   5   1   47.14    2.60
  -7   5   1   46.86    2.48
   7   5  -1   48.22    2.65
  -6  -5   1    7.29    1.23
  -6  -5   1    5.55    1.02
  -6  -5   1    5.06    0.91
   6  -5  -1    3.71    1.13
  -6   5   1    4.05    1.14
   6   5  -1    4.94    0.91
   6   5  -1    5.15    0.79
   5  -5  -1   11.45    1.31
  -5  -5   1   12.01    1.19
  -5  -5   1    9.38    1.49
  -5  -5   1    9.98    1.10
  -5  -5   1    9.91    1.19
   5   5  -1   10.52    0.98
  -5   5   1   10.18    1.33
   5   5  -1    9.29    1.07
  -4  -5   1   18.59    1.56
  -4  -5   1   18.23    1.40
   4  -5  -1   17.33    1.01
  -4  -5   1   17.49    1.39
   4  -5  -1   15.42    1.45
  -4  -5   1   15.04    1.58
   4  -5  -1   15.91    1.41
   4   5  -1   19.19    1.49
  -4   5   1   17.92    1.44
   4   5  -1   16.63    1.32
   4   5  -1   15.84    1.12
  -4   5   1   18.11    1.45
  -3  -5   1   42.01    2.12
  -3  -5   1   43.62    2.38
  -3  -5   1   44.45    2.15
   3  -5  -1   44.34    2.39
   3  -5  -1   43.68    1.84
   3  -5  -1   45.08    2.04
  -3  -5   1   43.05    2.07
   3   5  -1   46.23    2.15
   3   5  -1   46.50    2.33
   3   5  -1   47.20    1.98
  -3   5   1   44.42    2.19
  -3   5   1   44.42    2.20
   2  -5  -1   76.62    3.11
  -2  -5   1   78.01    2.98
  -2  -5   1   78.09    3.13
  -2  -5   1   76.79    3.18
   2  -5  -1   75.74    2.91
   2  -5  -1   79.65    3.08
  -2  -5   1   77.30    3.03
  -2   5   1   74.24    3.24
   2   5  -1   80.87    3.25
   2   5  -1   77.29    3.04
   2   5  -1   79.04    3.18
  -2   5   1   78.99    3.12
  -1  -5   1   22.57    1.35
  -1  -5   1   20.78    1.77
   1  -5  -1   20.23    1.74
   1  -5  -1   22.55    1.28
  -1  -5   1   23.51    1.39
   1  -5  -1   21.40    1.05
   1  -5  -1   24.01    1.61
  -1  -5   1   23.30    1.60
  -1   5   1   23.85    1.51
   1   5  -1   22.05    1.63
  -1   5   1   21.27    1.39
   1   5  -1   21.94    1.49
   1   5  -1   22.71    1.39
   0  -5  -1    0.77    0.51
   0  -5  -1    2.01    0.90
   0  -5  -1   -0.33    0.48
   0  -5   1   -0.97    0.69
   0  -5   1    0.48    0.95
   0  -5   1    0.55    0.43
   0  -5  -1    0.11    0.52
   0  -5   1   -0.52    0.64
   0   5  -1   -0.83    0.70
   0   5   1    0.17    0.88
   0   5  -1    0.99    0.66
   0   5   1   -0.73    0.77
   0   5  -1    0.64    0.57
   1  -5   1  178.87    5.95
   1  -5   1  179.77    5.78
  -1  -5  -1  180.23    5.89
  -1  -5  -1  173.94    5.95
   1  -5   1  176.48    5.49
  -1  -5  -1  178.03    5.98
   1  -5   1  180.46    6.06
  -1  -5  -1  177.39    6.00
   1   5   1  172.46    6.03
  -1   5  -1  177.61    6.09
   1   5   1  173.68    5.93
   1   5   1  174.71    5.84
  -1   5  -1  176.45    5.97
  -1   5  -1  176.96    5.92
  -2  -5  -1   58.45    2.50
  -2  -5  -1   55.44    2.44
   2  -5   1   58.52    2.20
   2  -5   1   55.84    2.41
  -2  -5  -1   56.90    2.57
  -2  -5  -1   59.48    2.60
   2  -5   1   59.41    2.67
   2   5   1   57.65    2.61
  -2   5  -1   54.80    2.29
   2   5   1   54.43    2.23
  -2   5  -1   53.16    2.62
  -2   5  -1   56.02    2.66
   2   5   1   55.63    2.54
  -3  -5  -1   35.65    1.91
   3  -5   1   44.30    1.65
   3  -5   1   36.78    1.73
  -3   5  -1   50.55    2.33
  -3   5  -1   34.45    1.70
   3   5   1   33.15    1.89
   3   5   1   40.64    1.87
   4  -5   1   10.82    0.74
  -4  -5  -1   12.01    1.24
   4  -5   1   12.63    1.30
  -4  -5  -1   11.58    1.33
  -4  -5  -1   11.22    1.41
   4   5   1   11.35    0.97
   4   5   1   10.26    1.18
  -4   5  -1   10.74    1.27
  -5  -5  -1  122.12    4.69
  -5  -5  -1  113.91    4.44
  -5  -5  -1  121.31    4.88
   5  -5   1  121.75    4.53
   5   5   1  116.44    4.42
  -5   5  -1  120.13    4.57
   5   5   1  136.61    4.46
  -6  -5  -1    9.98    1.64
  -6  -5  -1   11.28    1.36
  -6  -5  -1   10.93    1.45
   6  -5   1    9.90    1.30
   6   5   1   10.37    1.25
  -6   5  -1    9.75    1.30
  -6   5  -1   10.46    1.00
  -7  -5  -1    1.49    1.12
  -7  -5  -1    0.06    0.62
   7  -5   1   -1.10    0.92
  -7  -5  -1    0.32    0.95
   7   5   1   -0.68    0.64
  -7   5  -1    0.67    0.59
  -7   5  -1   -0.47    0.96
  -8  -5  -1    7.02    1.77
  -8  -5  -1    7.77    1.32
  -8  -5  -1    8.07    1.26
   8  -5   1    7.67    1.32
  -8   5  -1   10.38    1.40
  -8   5  -1    9.15    1.24
   8   5   1    7.44    1.29
  -7  -6   1    0.31    1.46
  -7  -6   1    0.74    0.94
  -7  -6   1    0.86    0.83
   7  -6  -1    0.84    1.20
  -7   6   1    0.88    1.23
  -7   6   1    1.03    0.79
   7   6  -1    0.06    1.12
  -6  -6   1   13.71    1.69
  -6  -6   1   11.71    1.50
  -6  -6   1   13.11    1.62
   6  -6  -1   13.40    1.61
   6   6  -1   13.93    1.58
  -6   6   1   11.81    1.60
   5  -6  -1    0.30    1.14
  -5  -6   1    0.22    1.10
  -5  -6   1   -0.70    1.17
  -5  -6   1   -0.02    0.71
  -5   6   1   -0.43    0.77
   5   6  -1   -0.58    0.68
   5   6  -1   -0.20    0.72
   4  -6  -1   13.41    1.54
  -4  -6   1   14.06    1.37
  -4  -6   1   13.81    1.33
  -4  -6   1   13.33    1.52
   4  -6  -1   13.66    1.08
  -4  -6   1   14.78    1.44
  -4   6   1   14.91    1.22
   4   6  -1   12.92    1.47
  -4   6   1   13.34    1.58
   4   6  -1   13.97    1.25
  -3  -6   1    4.98    1.12
   3  -6  -1    4.61    0.95
   3  -6  -1    5.04    0.82
   3  -6  -1    5.68    1.04
  -3  -6   1    4.81    1.13
  -3  -6   1    5.45    0.94
  -3  -6   1    4.43    1.14
   3   6  -1    4.95    0.92
   3   6  -1    5.93    1.03
   3   6  -1    5.27    1.15
  -3   6   1    6.63    1.07
  -3   6   1    5.45    1.27
   2  -6  -1  103.72    3.76
  -2  -6   1  103.65    3.87
   2  -6  -1  104.33    4.09
  -2  -6   1   99.86    4.02
  -2  -6   1   94.69    3.81
   2  -6  -1  104.91    4.00
  -2  -6   1  100.44    4.04
   2   6  -1   99.21    3.93
   2   6  -1  102.57    3.91
   2   6  -1  102.12    4.03
  -2   6   1  100.55    4.12
  -2   6   1  102.09    3.85
  -1  -6   1    0.89    0.64
   1  -6  -1    1.03    0.57
  -1  -6   1    0.56    0.83
   1  -6  -1   -0.18    0.38
   1  -6  -1    0.19    1.02
  -1  -6   1    0.39    0.64
  -1  -6   1    0.07    0.72
   1  -6  -1   -0.14    0.85
   1   6  -1   -0.44    0.99
   1   6  -1    0.87    0.95
  -1   6   1   -0.30    0.71
  -1   6   1   -0.49    0.87
   1   6  -1   -0.12    0.90
   0  -6   1   -0.23    0.49
   0  -6   1    0.60    0.55
   0  -6  -1    0.33    0.54
   0  -6  -1    0.72    0.70
   0  -6   1   -0.53    0.82
   0  -6  -1    1.39    0.86
   0  -6  -1    0.52    0.85
   0   6  -1   -0.56    0.61
   0   6  -1    0.40    0.60
   0   6   1   -0.82    0.60
   0   6   1    2.11    1.06
   0   6  -1    0.10    1.02
  -1  -6  -1   15.88    1.29
  -1  -6  -1   17.54    1.49
   1  -6   1   15.17    1.51
  -1  -6  -1   14.09    1.29
  -1  -6  -1   14.35    1.18
   1  -6   1   15.91    1.38
   1  -6   1   14.71    1.20
  -1   6  -1   16.92    1.42
  -1   6  -1   13.87    1.32
   1   6   1   16.45    1.48
  -1   6  -1   11.92    1.49
   1   6   1   17.46    1.44
  -2  -6  -1   76.99    3.15
  -2  -6  -1   80.16    3.32
  -2  -6  -1   81.67    3.31
   2  -6   1   85.01    3.27
   2  -6   1   81.70    3.00
   2  -6   1   77.02    3.26
  -2  -6  -1   82.22    3.40
  -2   6  -1   77.59    3.10
   2   6   1   79.73    3.41
   2   6   1   72.64    3.19
  -2   6  -1   79.39    3.32
  -3  -6  -1    6.91    0.91
  -3  -6  -1    4.95    1.15
   3  -6   1    6.94    0.76
  -3  -6  -1    5.65    1.19
   3  -6   1    6.74    1.03
  -3  -6  -1    8.06    1.24
  -3   6  -1    7.26    1.30
   3   6   1    5.95    1.17
   3   6   1    6.85    0.95
   4  -6   1   56.15    2.73
  -4  -6  -1   61.23    3.03
  -4  -6  -1   63.55    2.81
  -4  -6  -1   59.10    2.86
  -4   6  -1   60.14    2.99
   4   6   1   55.39    2.45
   4   6   1   62.46    2.76
   5  -6   1    0.30    0.76
  -5  -6  -1    2.33    0.92
  -5  -6  -1    2.08    0.92
  -5  -6  -1    1.95    0.82
   5   6   1    0.57    0.72
  -5   6  -1    0.94    0.82
  -6  -6  -1   89.87    3.90
  -6  -6  -1   90.00    4.09
   6  -6   1   95.97    3.96
  -6  -6  -1   88.00    3.93
   6   6   1   90.40    3.91
  -6   6  -1   92.28    4.01
  -7  -6  -1   17.83    1.67
  -7  -6  -1   14.92    2.04
  -7  -6  -1   12.65    1.60
   7  -6   1   13.55    1.65
  -7   6  -1   14.35    1.33
   7   6   1   11.32    1.55
  -7   6  -1   11.98    1.63
   6  -7  -1    4.44    1.51
  -6  -7   1    4.39    1.24
  -6  -7   1    4.66    1.15
  -6  -7   1    4.47    1.21
   6   7  -1    2.97    1.37
  -6   7   1    3.89    1.51
  -5  -7   1    9.22    1.33
  -5  -7   1    8.88    1.34
   5  -7  -1   10.51    1.60
  -5  -7   1    7.24    1.50
  -5   7   1    7.67    1.55
   5   7  -1    8.66    1.21
   5   7  -1    8.27    1.48
   4  -7  -1    7.85    1.46
  -4  -7   1    6.05    1.34
  -4  -7   1    5.74    1.38
   4  -7  -1    6.80    0.93
  -4  -7   1    2.81    0.92
   4   7  -1    2.94    1.26
  -4   7   1    5.77    1.11
   4   7  -1    5.36    1.11
  -3  -7   1   77.49    3.46
   3  -7  -1   76.98    3.45
  -3  -7   1   74.51    3.60
  -3  -7   1   76.28    3.36
   3  -7  -1   78.96    3.10
  -3  -7   1   76.43    3.65
   3   7  -1   83.07    3.43
  -3   7   1   82.09    3.78
  -3   7   1   81.62    3.51
   3   7  -1   75.26    3.72
   3   7  -1   82.85    3.49
  -2  -7   1   19.11    1.61
  -2  -7   1   18.16    1.62
  -2  -7   1   23.48    2.02
  -2  -7   1   19.28    1.72
   2  -7  -1   18.23    1.48
   2  -7  -1   18.25    1.56
   2  -7  -1   20.80    1.84
   2   7  -1   19.11    1.77
  -2   7   1   17.95    1.86
   2   7  -1   20.39    1.86
  -2   7   1   21.63    1.79
   2   7  -1   19.67    1.56
  -1  -7   1    3.37    1.27
  -1  -7   1    3.36    0.77
   1  -7  -1    2.68    0.95
  -1  -7   1    2.56    0.86
   1  -7  -1    3.40    1.13
   1  -7  -1    2.48    0.91
  -1  -7   1    3.60    0.83
   1   7  -1    4.73    0.92
  -1   7   1    3.16    0.86
   1   7  -1    4.68    1.16
  -1   7   1    3.67    1.25
   1   7  -1    3.68    1.00
   0  -7  -1   10.45    1.33
   0  -7   1   11.47    1.41
   0  -7  -1   14.71    1.60
   0  -7   1   14.03    1.33
   0  -7  -1   14.68    1.54
   0  -7   1   11.78    1.33
   0   7  -1   13.66    1.31
   0   7  -1   14.22    1.53
   0   7  -1   13.63    1.66
   0   7   1   14.36    1.63
   0   7   1   12.86    1.50
  -1  -7  -1   81.23    3.70
  -1  -7  -1   83.22    3.33
  -1  -7  -1   89.69    3.54
   1  -7   1   81.13    3.77
   1  -7   1   84.88    3.49
  -1  -7  -1   81.99    3.62
   1  -7   1   84.10    3.28
   1   7   1   81.85    3.74
  -1   7  -1   85.86    3.60
  -1   7  -1   86.19    3.90
  -1   7  -1   80.95    3.74
   1   7   1   89.51    3.78
   2  -7   1   14.03    1.41
  -2  -7  -1   11.67    1.56
  -2  -7  -1   12.64    1.32
  -2  -7  -1   12.95    1.53
  -2  -7  -1   13.72    1.33
   2  -7   1   13.59    1.18
  -2   7  -1   14.19    1.48
   2   7   1   11.71    1.56
  -2   7  -1   15.54    1.74
  -3  -7  -1    8.16    1.14
  -3  -7  -1    4.82    0.94
   3  -7   1    6.20    0.87
  -3  -7  -1    9.01    1.22
   3  -7   1    7.06    1.43
  -3   7  -1    5.65    1.45
   3   7   1    4.84    1.31
  -4  -7  -1   30.11    2.09
   4  -7   1   34.55    2.18
  -4  -7  -1   36.20    2.20
  -4  -7  -1   32.89    2.46
  -4   7  -1   29.81    2.16
   4   7   1   33.10    2.41
  -5  -7  -1   18.30    1.87
  -5  -7  -1   17.54    1.70
   5  -7   1   17.10    1.64
  -5  -7  -1   19.83    2.04
  -5   7  -1   20.15    1.79
   5   7   1   23.65    2.00
  -3  -8   1    1.88    1.03
  -3  -8   1    0.60    1.27
   3  -8  -1    1.97    0.93
  -3  -8   1    2.11    1.25
   3  -8  -1    2.10    1.06
   3   8  -1    3.26    1.06
   3   8  -1    1.47    0.83
  -3   8   1    1.02    1.45
   2  -8  -1   22.12    1.89
  -2  -8   1   21.36    1.81
  -2  -8   1   20.75    1.91
  -2  -8   1   31.07    2.50
   2  -8  -1   22.52    1.90
   2   8  -1   33.90    2.31
   2   8  -1   21.17    2.04
   1  -8  -1    0.08    1.02
   1  -8  -1    0.72    0.85
  -1  -8   1   -0.61    1.05
   1  -8  -1   -0.67    1.28
  -1  -8   1   -2.29    1.27
  -1  -8   1    1.34    1.20
   1   8  -1    0.38    0.84
  -1   8   1    1.24    1.20
   1   8  -1    2.64    1.28
  -1   8   1    0.77    0.96
   1   8  -1   -0.25    0.90
   0  -8   1   59.32    2.98
   0  -8  -1   56.20    3.29
   0  -8  -1   70.40    3.18
   0  -8   1   56.31    3.04
   0  -8  -1   57.01    3.01
   0   8  -1   60.51    2.97
   0   8   1   60.48    3.39
   0   8  -1   68.86    3.54
   0   8   1   67.33    3.35
   1  -8   1    0.50    0.62
  -1  -8  -1   -1.10    1.21
  -1  -8  -1   -0.33    1.12
  -1  -8  -1    0.22    1.11
   1  -8   1    1.38    1.36
  -1   8  -1    0.63    1.40
   1   8   1    3.42    1.30
   2  -8   1    1.23    1.40
  -2  -8  -1    2.21    0.93
  -2  -8  -1    3.35    1.02
  -2  -8  -1    1.52    0.93
   2  -8   1    1.03    0.84
   2   8   1    3.19    1.34
  -2   8  -1    0.69    1.46
  -3  -8  -1    3.01    1.06
  -3  -8  -1    5.44    1.23
   3  -8   1    4.28    1.19
  -3  -8  -1    4.71    1.15
  -3   8  -1    3.85    1.21
   3   8   1    3.82    1.12
 -11   0   2    0.89    0.76
  11   0  -2   -0.69    1.09
  11   0  -2   -0.84    1.05
 -11   0   2   -1.86    1.11
 -11   0   2   -0.26    1.28
 -10   0   2   46.86    2.41
  10   0  -2   39.27    2.17
 -10   0   2   40.94    2.22
 -10   0   2   42.47    2.41
  10   0  -2   40.71    2.66
 -10   0   2   36.50    2.78
  -9   0   2   -0.09    0.73
   9   0  -2    0.70    0.88
  -9   0   2    1.99    0.90
  -9   0   2   -0.09    0.81
  -9   0   2   -0.90    0.92
   9   0  -2    0.70    0.79
   8   0  -2   35.74    1.99
   8   0  -2   34.67    1.99
  -8   0   2   30.04    1.74
  -8   0   2   31.69    2.13
  -8   0   2   38.22    2.51
   7   0  -2    0.96    0.70
  -7   0   2    0.64    0.81
   7   0  -2   -0.03    0.70
  -7   0   2   -0.70    0.53
   6   0  -2  224.34    6.58
  -6   0   2  193.29    6.26
  -6   0   2  208.11    6.76
   6   0  -2  176.70    6.28
  -6   0   2  188.21    6.46
   6   0  -2  197.47    6.43
  -5   0   2   -0.75    0.59
  -5   0   2    1.04    0.68
   5   0  -2    0.35    0.48
  -5   0   2    0.45    0.52
   5   0  -2    0.85    0.58
   5   0  -2    0.57    0.78
  -4   0   2    2.82    0.48
   4   0  -2    2.02    0.53
   4   0  -2    2.03    0.57
  -4   0   2    1.67    0.53
  -4   0   2    2.46    0.71
   4   0  -2    2.54    0.58
   3   0  -2    0.37    0.52
   3   0  -2    0.04    0.64
  -3   0   2   -0.07    0.38
  -3   0   2   -0.50    0.49
   3   0  -2    0.04    0.35
   2   0  -2   76.16    2.50
   2   0  -2   75.54    2.58
  -2   0   2   73.00    2.43
  -2   0   2   73.28    2.54
   2   0  -2   72.65    2.45
   1   0  -2   -0.16    0.22
   1   0  -2   -0.66    0.27
  -1   0   2   -0.09    0.18
  -1   0   2   -0.04    0.31
   1   0  -2   -0.11    0.23
   1   0  -2   -0.13    0.33
  -1   0   2   -0.01    0.23
   0   0  -2   41.47    1.30
   0   0   2   41.02    1.33
   0   0  -2   41.68    1.41
   0   0  -2   41.84    1.34
   0   0   2   41.60    1.33
   0   0   2   41.39    1.34
   0   0  -2   43.55    1.35
  -1   0  -2   -0.92    0.38
  -1   0  -2    0.03    0.18
  -1   0  -2   -0.06    0.22
  -2   0  -2   79.59    2.47
  -2   0  -2   79.54    2.69
  -2   0  -2   78.59    2.51
  -3   0  -2   -0.26    0.21
  -3   0  -2   -0.12    0.35
  -3   0  -2   -0.26    0.20
  -4   0  -2   34.47    1.17
  -4   0  -2   35.39    1.29
  -4   0  -2   36.26    1.70
  -4   0  -2   34.74    1.41
   4   0   2   34.88    1.16
  -4   0  -2   34.69    1.18
   5   0   2    0.62    0.34
  -5   0  -2    0.35    0.46
  -5   0  -2    0.37    0.38
  -5   0  -2    0.24    0.30
   5   0   2    0.05    0.30
  -5   0  -2   -0.38    0.66
  -6   0  -2    8.74    1.10
  -6   0  -2    8.43    0.69
   6   0   2    9.26    0.80
  -6   0  -2    8.63    0.68
  -7   0  -2   -0.40    0.83
   7   0   2   -0.88    0.51
  -7   0  -2   -0.01    0.45
   8   0   2   25.20    1.38
  -8   0  -2   24.26    1.97
  -9   0  -2    0.07    1.03
   9   0   2    0.29    0.63
  -9   0  -2   -1.03    0.57
 -10  -1   2   12.55    1.65
  10  -1  -2   16.80    1.40
  10  -1  -2   18.48    1.93
 -10  -1   2   15.06    1.57
 -10  -1   2   18.23    1.56
  10   1  -2   14.60    1.50
  10   1  -2   15.71    1.57
 -10   1   2   16.29    1.55
 -10   1   2   15.35    1.63
  -9  -1   2   64.34    3.04
  -9  -1   2   71.54    3.25
   9  -1  -2   71.28    3.11
  -9  -1   2   67.90    3.04
   9  -1  -2   72.36    3.58
  -9  -1   2   69.49    3.41
   9   1  -2   78.10    3.18
  -9   1   2   70.26    3.28
  -9   1   2   64.59    3.17
   9   1  -2   66.53    2.73
   9   1  -2   72.96    3.11
  -8  -1   2    1.72    0.87
  -8  -1   2    2.10    0.99
  -8  -1   2    3.66    1.01
  -8  -1   2    1.64    0.85
   8  -1  -2    1.83    0.89
  -8   1   2    1.60    0.70
   8   1  -2    1.40    0.87
  -8   1   2    3.06    1.08
   8   1  -2    1.18    0.62
   8   1  -2    2.15    0.87
  -7  -1   2    9.02    1.13
  -7  -1   2    5.40    0.79
  -7  -1   2    7.14    1.48
   7  -1  -2    5.96    0.94
   7   1  -2    8.00    0.99
   7   1  -2    8.70    0.84
  -7   1   2    6.61    1.21
  -7   1   2    8.66    0.92
   7   1  -2    7.95    1.08
  -6  -1   2    2.27    1.21
  -6  -1   2    1.33    0.69
   6  -1  -2    0.33    0.51
   6  -1  -2    0.43    0.49
  -6  -1   2    1.14    0.76
   6   1  -2    1.30    0.41
   6   1  -2    1.11    0.74
   6   1  -2    1.06    0.69
  -6   1   2    1.30    0.69
  -6   1   2    0.90    0.65
  -6   1   2    0.80    0.75
   6   1  -2    0.83    0.54
   5  -1  -2   57.39    2.30
   5   1  -2   67.36    2.33
  -4  -1   2   41.05    1.73
   4  -1  -2   39.20    1.61
   4  -1  -2   41.23    1.71
  -4  -1   2   39.98    2.21
  -4  -1   2   40.14    1.65
  -4  -1   2   42.31    1.76
   4   1  -2   40.15    1.66
  -4   1   2   39.10    1.71
   4   1  -2   40.20    1.62
   4   1  -2   41.99    1.72
   4   1  -2   38.21    1.71
  -4   1   2   40.77    1.64
  -3  -1   2  166.43    5.12
  -3  -1   2  161.68    5.14
  -3  -1   2  164.79    5.14
   3  -1  -2  157.45    5.08
   3  -1  -2  159.63    5.11
   3   1  -2  160.51    5.08
   3   1  -2  159.95    5.12
  -3   1   2  158.09    5.08
  -3   1   2  160.40    5.11
   3   1  -2  161.19    5.15
   3   1  -2  157.64    5.09
  -2  -1   2    8.07    0.62
   2  -1  -2    6.52    0.64
  -2  -1   2    8.45    0.76
   2  -1  -2    8.71    0.69
  -2  -1   2    8.33    0.65
   2   1  -2    8.25    0.74
   2   1  -2    7.97    0.63
  -2   1   2    8.33    0.68
   2   1  -2    7.85    0.74
  -1  -1   2  408.08   12.00
   1  -1  -2  390.08   11.99
   1  -1  -2  400.90   12.00
   1  -1  -2  391.42   11.98
  -1  -1   2  388.35   11.99
   1   1  -2  408.17   11.98
   1   1  -2  395.35   12.01
  -1   1   2  391.67   11.98
   1   1  -2  398.23   12.00
   0  -1   2  288.26    8.94
   0  -1   2  299.98    8.91
   0  -1  -2  296.15    9.02
   0  -1  -2  292.88    8.97
   0  -1  -2  301.68    8.94
   0  -1   2  304.89    8.92
   0  -1  -2  286.09    8.91
   0  -1  -2  278.47    8.92
   0   1   2  294.37    8.93
   0   1  -2  300.42    8.99
   0   1  -2  296.34    8.95
   0   1  -2  302.54    8.90
  -1  -1  -2    0.68    0.28
  -1  -1  -2    0.43    0.21
   1  -1   2    0.22    0.21
   1  -1   2    0.69    0.28
  -1  -1  -2   -0.40    0.49
  -1  -1  -2    0.14    0.29
  -1   1  -2    0.31    0.21
   1   1   2    0.56    0.21
  -1   1  -2    0.63    0.19
   1   1   2    0.77    0.23
  -1   1  -2    1.71    0.40
   2  -1   2   58.84    1.86
  -2  -1  -2   59.07    2.26
  -2  -1  -2   59.45    1.90
   2  -1   2   58.70    1.87
  -2  -1  -2   60.82    1.91
  -2  -1  -2   60.73    2.04
  -2   1  -2   60.06    1.88
   2   1   2   60.37    1.89
   2   1   2   58.08    1.88
  -2   1  -2   60.90    2.05
  -2   1  -2   56.79    1.92
  -2   1  -2   61.65    1.88
  -2   1  -2   60.61    2.05
   3  -1   2   11.58    0.50
  -3  -1  -2   12.08    0.57
  -3  -1  -2   11.91    0.54
  -3  -1  -2   11.38    0.79
  -3  -1  -2   12.05    0.98
   3   1   2   12.34    0.54
  -3   1  -2   11.63    0.39
  -3   1  -2   11.43    0.80
   3   1   2   10.84    0.54
  -3   1  -2   11.60    0.53
  -3   1  -2   11.99    0.68
  -3   1  -2   11.43    0.74
  -3   1  -2   12.49    0.53
  -4  -1  -2  190.03    6.04
  -4  -1  -2  197.69    5.89
   4  -1   2  192.90    5.84
  -4  -1  -2  191.04    6.29
  -4  -1  -2  190.54    5.91
   4  -1   2  184.51    5.85
   4   1   2  188.75    5.88
  -4   1  -2  194.34    5.89
  -4   1  -2  192.82    5.87
  -4   1  -2  192.37    6.12
  -4   1  -2  194.65    5.77
  -4   1  -2  187.72    5.99
  -5  -1  -2  135.82    4.36
   5  -1   2  135.29    4.29
  -5  -1  -2  138.35    4.33
  -5  -1  -2  135.01    4.85
   5  -1   2  133.87    4.31
  -5  -1  -2  137.56    4.48
  -5   1  -2  138.19    4.35
  -5   1  -2  135.01    4.18
   5   1   2  137.50    4.34
  -5   1  -2  136.51    4.61
  -5   1  -2  138.52    4.47
  -5   1  -2  134.76    4.33
  -6  -1  -2   91.11    3.16
   6  -1   2   94.09    3.09
  -6  -1  -2   88.04    3.20
  -6  -1  -2   87.47    3.55
  -6   1  -2   92.83    3.09
   6   1   2   89.86    3.12
   6   1   2   89.54    3.19
  -6   1  -2   94.25    3.43
  -6   1  -2   91.90    3.25
  -7  -1  -2   41.85    2.43
  -7  -1  -2   41.05    1.77
  -7  -1  -2   40.28    1.81
   7  -1   2   39.65    1.78
   7   1   2   41.48    1.75
   7   1   2   39.02    1.82
  -7   1  -2   40.29    2.08
  -7   1  -2   40.57    1.93
  -8  -1  -2   11.63    1.50
  -8  -1  -2   11.18    0.99
  -8  -1  -2   10.83    0.96
   8  -1   2   10.42    0.91
  -8   1  -2    7.98    1.14
   8   1   2   11.31    1.04
  -8   1  -2    9.76    1.05
   9  -1   2   10.49    1.01
  -9  -1  -2   10.94    1.57
  -9  -1  -2   12.51    1.15
  -9   1  -2   12.21    1.39
  -9   1  -2   10.30    1.19
   9   1   2   11.91    1.08
  10  -2  -2   26.17    2.15
 -10  -2   2   26.24    2.04
 -10  -2   2   22.98    1.74
 -10  -2   2   22.72    2.20
 -10   2   2   25.76    1.85
  10   2  -2   25.97    2.14
  -9  -2   2   40.69    3.03
   9  -2  -2   41.20    2.38
  -9  -2   2   42.08    2.39
  -9  -2   2   48.03    2.47
  -9   2   2   39.01    2.44
   9   2  -2   39.62    2.38
  -9   2   2   45.12    2.30
  -8  -2   2    1.62    0.69
   8  -2  -2    2.09    0.71
  -8  -2   2    4.27    1.47
  -8  -2   2    2.16    0.77
   8   2  -2    2.75    0.95
   8   2  -2    3.08    0.63
  -8   2   2    1.60    0.87
  -8   2   2    1.97    0.72
  -7  -2   2   24.92    2.11
   7  -2  -2   26.11    1.71
  -7  -2   2   22.67    1.46
  -7  -2   2   21.76    1.78
   7   2  -2   24.52    1.32
  -7   2   2   26.38    1.55
   7   2  -2   22.33    1.47
  -7   2   2   24.61    1.64
  -6  -2   2   23.74    1.59
   6  -2  -2   25.52    1.61
  -6  -2   2   25.04    2.27
  -6  -2   2   25.32    1.49
   6  -2  -2   24.80    1.39
  -6   2   2   24.47    1.42
  -6   2   2   26.49    1.40
  -6   2   2   25.99    1.58
   6   2  -2   24.83    1.28
   6   2  -2   24.72    1.41
   6   2  -2   24.52    1.62
   5  -2  -2   93.21    3.53
  -5  -2   2  103.31    3.64
  -5  -2   2  102.82    3.64
  -5  -2   2  105.99    4.10
   5  -2  -2  106.74    3.60
   5   2  -2   95.08    3.57
  -5   2   2  110.03    3.58
  -5   2   2  104.94    3.67
   5   2  -2  102.23    3.48
  -5   2   2  103.90    3.61
   5   2  -2  104.09    3.61
   4  -2  -2    3.30    0.62
   4  -2  -2    3.77    0.69
  -4  -2   2    2.80    0.54
  -4  -2   2    3.88    0.84
   4   2  -2    4.21    0.56
   4   2  -2    3.09    0.53
  -4   2   2    4.42    0.68
  -4   2   2    3.45    0.55
   4   2  -2    2.76    0.63
  -4   2   2    4.17    0.72
  -3  -2   2   26.74    1.83
  -3  -2   2   27.78    1.39
   3  -2  -2   28.45    1.26
   3  -2  -2   28.05    1.28
  -3   2   2   29.31    1.43
   3   2  -2   26.57    1.27
   3   2  -2   27.61    1.26
   3   2  -2   28.45    1.30
  -3   2   2   28.02    1.34
   2  -2  -2  474.76   14.13
   2  -2  -2  460.46   14.04
   2  -2  -2  457.53   14.09
  -2  -2   2  470.80   14.13
   2   2  -2  461.88   14.15
  -2   2   2  459.21   14.08
   2   2  -2  466.16   14.07
  -2   2   2  468.95   14.13
   2   2  -2  454.03   14.09
   1  -2  -2  573.51   17.40
  -1  -2   2  590.92   17.48
   1  -2  -2  574.42   17.45
   1  -2  -2  564.27   17.45
   1  -2  -2  587.74   17.49
  -1   2   2  582.94   17.50
   1   2  -2  574.83   17.50
   1   2  -2  571.95   17.44
   1   2  -2  579.08   17.47
  -1   2   2  586.03   17.47
   0  -2  -2    7.00    0.60
   0  -2   2    7.46    0.62
   0  -2   2    6.32    0.52
   0  -2  -2    6.43    0.53
   0  -2  -2    6.46    0.54
   0  -2  -2    6.84    0.61
   0   2  -2    7.02    0.59
   0   2  -2    6.81    0.64
   0   2   2    5.39    0.58
   0   2  -2    7.80    0.66
   0   2   2    6.51    0.61
   1  -2   2   66.86    2.08
   1  -2   2   64.57    2.15
  -1  -2  -2   63.76    2.38
  -1  -2  -2   64.10    2.32
  -1  -2  -2   64.03    2.23
  -1  -2  -2   67.44    2.18
  -1   2  -2   63.72    2.32
   1   2   2   63.85    2.19
   1   2   2   65.22    2.20
  -1   2  -2   64.85    2.25
  -1   2  -2   63.79    2.13
  -2  -2  -2  609.83   18.54
   2  -2   2  619.65   18.33
  -2  -2  -2  634.17   18.77
  -2  -2  -2  613.25   18.63
  -2   2  -2  590.37   18.39
   2   2   2  611.45   18.52
  -2   2  -2  624.85   18.54
  -2   2  -2  621.93   18.53
  -2   2  -2  616.03   18.63
  -3  -2  -2  238.86    7.20
  -3  -2  -2  233.54    7.48
   3  -2   2  229.81    7.14
   3  -2   2  234.07    7.15
  -3  -2  -2  234.36    7.20
  -3  -2  -2  230.96    7.30
  -3   2  -2  230.58    7.13
  -3   2  -2  225.42    7.28
  -3   2  -2  235.56    7.17
   3   2   2  230.79    7.17
  -3   2  -2  227.10    7.14
  -3   2  -2  235.07    7.18
  -4  -2  -2   46.61    1.76
   4  -2   2   44.91    1.68
  -4  -2  -2   45.28    2.25
  -4  -2  -2   45.05    1.85
   4  -2   2   47.12    1.71
  -4  -2  -2   49.29    1.76
  -4   2  -2   46.05    1.71
  -4   2  -2   44.29    1.76
  -4   2  -2   45.89    1.73
   4   2   2   45.41    1.73
  -4   2  -2   45.00    1.75
   5  -2   2    5.56    0.56
  -5  -2  -2    5.22    0.60
   5  -2   2    4.42    0.66
  -5  -2  -2    5.99    1.13
  -5  -2  -2    5.93    0.63
  -5  -2  -2    5.99    0.78
  -5   2  -2    4.65    0.60
  -5   2  -2    5.03    0.55
  -5   2  -2    4.95    0.56
  -5   2  -2    5.15    0.59
   5   2   2    4.28    0.57
  -6  -2  -2  154.12    5.61
  -6  -2  -2  151.49    5.16
   6  -2   2  153.87    4.99
  -6  -2  -2  150.22    5.03
  -6   2  -2  151.93    5.07
   6   2   2  152.29    5.02
  -6   2  -2  153.78    5.08
  -6   2  -2  151.49    4.99
  -7  -2  -2  134.81    4.45
   7  -2   2  129.17    4.35
  -7  -2  -2  123.74    4.89
  -7  -2  -2  129.08    4.54
  -7   2  -2  126.24    4.47
  -7   2  -2  131.43    4.40
   7   2   2  127.12    4.37
  -7   2  -2  124.42    4.46
  -8  -2  -2   90.26    3.48
   8  -2   2   94.19    3.43
  -8  -2  -2   93.15    4.01
  -8  -2  -2   95.66    3.58
   8   2   2   96.98    3.46
  -8   2  -2   92.73    3.56
  -8   2  -2   86.92    3.50
  -9   2  -2    6.60    1.02
 -10  -3   2    8.93    1.99
 -10  -3   2    8.60    1.45
 -10  -3   2    5.79    1.29
  10  -3  -2    5.00    1.30
  10   3  -2    7.76    1.13
 -10   3   2    5.87    1.06
  -9  -3   2   14.80    1.38
  -9  -3   2   14.83    1.80
   9  -3  -2   14.60    1.50
  -9  -3   2   14.81    1.46
  -9   3   2   13.47    1.46
   9   3  -2   14.09    1.50
  -8  -3   2  160.05    6.20
   8  -3  -2  151.76    5.50
  -8  -3   2  150.36    5.52
  -8  -3   2  156.55    5.58
   8   3  -2  150.10    5.13
   8   3  -2  158.22    5.50
  -8   3   2  158.75    5.57
   7  -3  -2   75.85    3.06
  -7  -3   2   71.01    3.19
  -7  -3   2   73.84    3.10
  -7  -3   2   66.27    3.33
   7   3  -2   70.08    2.67
   7   3  -2   71.62    3.06
  -7   3   2   73.09    2.66
  -7   3   2   68.60    2.89
  -6  -3   2   11.29    1.21
  -6  -3   2   13.15    1.32
  -6   3   2   19.11    1.52
  -6   3   2   12.84    1.20
   6   3  -2   11.68    0.99
   6   3  -2   19.50    1.52
   5  -3  -2   82.87    3.40
  -5  -3   2  100.83    4.04
  -5  -3   2   98.64    3.56
   5  -3  -2   99.32    3.46
  -5  -3   2   98.45    3.62
   5   3  -2   97.65    3.57
  -5   3   2   82.94    3.45
  -5   3   2  100.40    3.47
  -5   3   2  100.25    3.22
  -5   3   2  100.57    3.46
   5   3  -2   88.74    3.46
   5   3  -2   96.60    3.33
  -4  -3   2  313.85    9.85
   4  -3  -2  309.47    9.75
  -4  -3   2  315.26   10.00
  -4  -3   2  304.18    9.83
   4  -3  -2  314.15    9.76
   4   3  -2  305.06    9.65
  -4   3   2  315.32    9.82
   4   3  -2  311.39    9.78
  -4   3   2  310.50    9.72
   4   3  -2  307.90    9.80
  -3  -3   2  186.16    6.10
   3  -3  -2  189.19    5.96
  -3  -3   2  180.45    5.93
   3  -3  -2  183.45    5.82
  -3  -3   2  182.04    6.00
   3  -3  -2  185.56    5.92
   3   3  -2  183.17    5.86
  -3   3   2  185.06    5.97
  -3   3   2  179.41    5.88
   3   3  -2  177.59    5.95
   3   3  -2  180.02    5.95
  -2  -3   2  148.13    4.89
   2  -3  -2  147.76    4.88
  -2  -3   2  152.02    4.98
   2  -3  -2  147.48    4.91
   2  -3  -2  147.73    4.79
  -2  -3   2  150.30    4.90
   2   3  -2  151.51    4.87
   2   3  -2  146.22    4.88
  -2   3   2  152.58    4.90
   2   3  -2  148.46    4.92
  -2   3   2  146.28    4.91
  -1  -3   2  102.36    3.45
  -1  -3   2   95.81    3.34
   1  -3  -2   96.36    3.22
   1  -3  -2  100.42    3.35
   1  -3  -2  100.62    3.43
   1  -3  -2  100.99    3.36
  -1  -3   2   98.96    3.31
  -1   3   2   98.65    3.44
  -1   3   2   96.11    3.39
   1   3  -2   98.50    3.36
   1   3  -2   97.10    3.35
   1   3  -2   97.10    3.39
   0  -3  -2  115.02    3.82
   0  -3   2  116.97    3.82
   0  -3  -2  114.81    3.84
   0  -3   2  112.04    3.71
   0  -3  -2  112.59    3.80
   0  -3  -2  114.53    3.82
   0   3   2  111.90    3.85
   0   3  -2  118.10    3.80
   0   3  -2  117.52    3.91
   0   3  -2  112.77    3.88
   0   3   2  115.33    3.81
   1  -3   2  401.92   11.60
   1  -3   2  371.75   11.47
  -1  -3  -2  360.94   11.66
  -1  -3  -2  374.12   11.66
  -1  -3  -2  360.49   11.56
  -1  -3  -2  365.83   11.68
  -1   3  -2  410.20   11.73
  -1   3  -2  365.88   11.66
   1   3   2  368.52   11.62
  -1   3  -2  415.07   11.58
   1   3   2  369.13   11.61
   2  -3   2  106.19    3.54
   2  -3   2  105.14    3.28
  -2  -3  -2  102.51    3.42
  -2  -3  -2  102.84    3.55
  -2  -3  -2  102.71    3.64
  -2  -3  -2  107.20    3.75
   2  -3   2  102.24    3.40
   2   3   2  105.66    3.53
  -2   3  -2  103.50    3.65
  -2   3  -2  104.26    3.52
  -2   3  -2  105.61    3.39
   2   3   2  101.93    3.46
   3  -3   2   11.16    0.86
  -3  -3  -2    8.11    0.79
  -3  -3  -2   10.53    0.87
  -3  -3  -2    8.61    0.91
   3  -3   2    9.88    0.42
  -3  -3  -2    9.61    0.67
  -3   3  -2    9.66    0.85
   3   3   2   10.24    0.82
  -3   3  -2   10.05    0.97
  -3   3  -2   11.03    0.69
  -4  -3  -2   12.72    1.35
  -4  -3  -2   12.98    1.03
  -4  -3  -2   14.69    1.10
   4  -3   2   15.03    1.14
  -4   3  -2   13.67    1.02
   4   3   2   13.60    1.05
  -4   3  -2   14.40    1.10
   5  -3   2  311.95    9.52
  -5  -3  -2  307.49    9.59
  -5  -3  -2  298.79   10.01
  -5  -3  -2  309.20    9.74
  -5   3  -2  298.72    9.53
  -5   3  -2  298.89    9.31
  -5   3  -2  301.50    9.51
   5   3   2  307.05    9.55
   6  -3   2    9.23    0.92
  -6  -3  -2   10.29    1.12
  -6  -3  -2    7.24    0.90
  -6  -3  -2   10.23    1.47
   6   3   2   10.28    0.96
  -6   3  -2   10.33    0.95
  -6   3  -2    8.60    0.92
  -7  -3  -2    1.42    0.63
   7  -3   2    2.00    0.72
  -7  -3  -2    1.55    0.54
  -7  -3  -2    1.47    0.90
   7   3   2    1.45    0.71
  -7   3  -2    1.75    0.56
  -7   3  -2    2.01    0.72
  -8  -3  -2   11.22    1.55
  -8  -3  -2   14.81    1.41
   8  -3   2   14.47    1.24
  -8  -3  -2   13.59    1.24
   8   3   2   12.79    1.33
  -8   3  -2   15.53    1.27
  -8   3  -2   12.84    1.21
  -9  -3  -2   68.81    3.05
  -9  -3  -2   67.24    3.17
   9  -3   2   68.94    3.01
  -9  -3  -2   74.44    4.01
   9   3   2   72.51    3.06
   9  -4  -2   15.90    1.65
  -9  -4   2   12.52    2.05
  -9  -4   2   13.66    1.71
  -9  -4   2   16.55    1.52
  -9   4   2   14.05    1.56
   9   4  -2   12.60    1.38
  -8  -4   2    5.49    1.23
  -8  -4   2    7.10    1.36
   8  -4  -2    6.98    1.26
  -8  -4   2    5.59    1.29
  -8   4   2    6.34    1.17
   8   4  -2    7.21    1.24
  -7  -4   2   70.40    3.06
   7  -4  -2   72.11    3.18
  -7  -4   2   67.28    3.68
  -7  -4   2   70.64    3.30
   7   4  -2   71.68    3.20
   7   4  -2   68.61    2.70
  -7   4   2   71.66    2.97
  -7   4   2   73.03    3.21
   6  -4  -2  170.34    5.82
  -6  -4   2  167.69    5.99
  -6  -4   2  171.73    5.74
  -6  -4   2  163.61    6.17
  -6  -4   2  168.96    5.93
   6   4  -2  166.93    5.93
  -6   4   2  176.03    5.88
  -6   4   2  176.31    5.98
  -6   4   2  161.76    5.87
   6   4  -2  169.87    5.60
  -5  -4   2   48.25    2.42
  -5  -4   2   51.19    2.50
   5  -4  -2   44.29    2.19
  -5  -4   2   47.33    2.54
   5  -4  -2   50.43    2.22
   5   4  -2   49.89    2.09
  -5   4   2   49.76    2.23
  -5   4   2   48.11    2.26
   5   4  -2   48.87    2.41
   5   4  -2   46.48    2.34
   4  -4  -2  109.32    3.93
   4  -4  -2  107.56    3.87
  -4  -4   2  105.70    4.06
  -4  -4   2  113.66    4.08
  -4  -4   2  111.31    4.32
  -4   4   2  108.37    3.92
  -4   4   2  109.69    3.99
   4   4  -2  104.28    3.76
   4   4  -2  112.98    4.06
   4   4  -2  110.48    3.94
   3  -4  -2   12.37    1.18
   3  -4  -2   13.14    0.88
  -3  -4   2   12.68    1.06
  -3  -4   2   13.59    1.10
   3  -4  -2   13.29    1.12
  -3  -4   2   11.86    1.32
  -3   4   2   10.94    1.03
   3   4  -2   11.29    1.11
  -3   4   2   13.74    1.13
   3   4  -2   12.47    1.03
   3   4  -2   12.89    1.24
  -2  -4   2  325.33   10.05
  -2  -4   2  315.92   10.02
  -2  -4   2  312.26    9.96
   2  -4  -2  313.17    9.88
   2  -4  -2  325.89   10.05
   2  -4  -2  311.06   10.00
  -2   4   2  319.46   10.09
   2   4  -2  315.81   10.01
  -2   4   2  317.27   10.01
   2   4  -2  318.66   10.10
   2   4  -2  316.44    9.97
  -1  -4   2  134.89    4.55
   1  -4  -2  134.72    4.52
   1  -4  -2  132.04    4.59
   1  -4  -2  130.94    4.56
  -1  -4   2  137.48    4.53
   1  -4  -2  132.46    4.35
  -1  -4   2  136.34    4.50
   1   4  -2  134.15    4.59
  -1   4   2  135.34    4.60
  -1   4   2  136.01    4.60
   1   4  -2  132.10    4.68
   1   4  -2  132.85    4.55
   0  -4  -2  143.63    4.81
   0  -4   2  147.54    4.68
   0  -4   2  145.39    4.76
   0  -4  -2  150.46    4.91
   0  -4  -2  145.02    4.79
   0  -4   2  147.77    4.89
   0  -4  -2  143.68    4.85
   0   4   2  142.98    4.92
   0   4  -2  142.46    4.97
   0   4   2  148.98    4.87
   0   4  -2  143.84    4.83
   0   4  -2  140.99    4.87
  -1  -4  -2   10.60    0.97
   1  -4   2   10.29    0.67
  -1  -4  -2   11.39    1.03
  -1  -4  -2    9.97    0.93
   1  -4   2    8.98    0.69
  -1  -4  -2    9.53    0.86
   1  -4   2   11.38    0.83
   1  -4   2   10.22    1.04
   1   4   2   10.60    0.90
  -1   4  -2   10.87    0.92
  -1   4  -2   13.02    1.11
   1   4   2    9.54    0.84
  -1   4  -2    9.05    0.76
   2  -4   2   34.92    1.45
  -2  -4  -2   36.75    1.83
   2  -4   2   41.19    1.97
   2  -4   2   40.45    1.68
  -2  -4  -2   42.13    1.75
  -2  -4  -2   39.53    1.88
  -2  -4  -2   40.51    1.97
  -2   4  -2   35.81    1.76
   2   4   2   39.70    1.86
  -2   4  -2   36.89    1.65
  -2   4  -2   37.54    1.81
   2   4   2   39.88    1.77
  -3  -4  -2   16.36    1.42
  -3  -4  -2   17.54    1.25
   3  -4   2   15.32    0.72
   3  -4   2   14.73    0.95
  -3  -4  -2   15.43    1.05
   3  -4   2   16.84    1.44
  -3  -4  -2   16.02    1.28
  -3   4  -2   13.92    1.20
  -3   4  -2   15.84    1.06
  -3   4  -2   16.03    1.23
   3   4   2   16.78    1.10
   3   4   2   16.16    1.31
  -4  -4  -2   76.62    2.98
   4  -4   2   73.49    2.97
  -4  -4  -2   78.02    3.21
  -4  -4  -2   74.84    3.01
  -4   4  -2   76.15    3.01
   4   4   2   75.19    2.96
  -5  -4  -2    2.96    0.95
  -5  -4  -2    2.96    0.63
  -5  -4  -2    3.04    0.92
   5  -4   2    4.07    0.90
  -5   4  -2    3.29    0.85
  -5   4  -2    3.27    0.58
   5   4   2    3.07    0.80
  -6  -4  -2   10.00    1.53
  -6  -4  -2   11.59    1.32
   6  -4   2    9.83    1.09
  -6  -4  -2    9.27    1.09
  -6   4  -2   11.86    1.20
   6   4   2   10.74    1.10
  -6   4  -2   11.62    1.06
  -7  -4  -2    6.84    0.88
  -7  -4  -2    5.65    1.52
  -7  -4  -2    6.44    0.99
   7  -4   2    6.95    1.03
   7   4   2    7.11    1.05
  -7   4  -2    5.78    1.03
  -7   4  -2    6.62    0.80
   8  -4   2    8.07    1.13
  -8  -4  -2    7.48    1.13
  -8  -4  -2    8.76    1.35
  -8  -4  -2    7.49    1.74
   8   4   2    6.68    1.12
  -8   4  -2    9.87    1.12
  -8   4  -2    7.75    1.18
  -8  -5   2    0.20    0.74
   8  -5  -2    0.19    1.14
  -8  -5   2    1.53    0.92
  -8  -5   2   -1.66    1.44
  -8   5   2    1.90    1.13
  -8   5   2    0.31    0.72
   8   5  -2    1.87    1.12
   7  -5  -2   41.22    2.27
  -7  -5   2   39.02    2.36
  -7  -5   2   44.20    3.05
  -7  -5   2   41.81    2.31
   7   5  -2   40.94    2.26
  -7   5   2   40.50    2.30
   7   5  -2   40.99    1.98
  -7   5   2   42.22    2.47
  -6  -5   2   13.96    1.40
  -6  -5   2   13.59    1.49
   6  -5  -2   13.36    1.31
  -6  -5   2   13.12    1.74
   6   5  -2   16.25    1.23
   6   5  -2   14.69    1.48
  -6   5   2   12.50    1.50
  -5  -5   2   31.20    2.39
  -5  -5   2   26.67    1.92
  -5  -5   2   28.73    2.14
   5  -5  -2   30.42    1.86
  -5  -5   2   32.37    1.85
  -5   5   2   33.17    2.13
   5   5  -2   28.73    1.54
   5   5  -2   30.15    2.06
   5   5  -2   27.54    1.76
  -5   5   2   32.62    1.90
  -4  -5   2    7.94    1.19
  -4  -5   2    7.38    1.00
   4  -5  -2    9.04    0.91
   4  -5  -2    7.79    1.00
  -4  -5   2    8.53    1.36
  -4  -5   2    8.31    1.19
   4  -5  -2    8.21    0.95
   4   5  -2    8.52    1.01
  -4   5   2    9.57    1.13
   4   5  -2    9.07    1.22
   4   5  -2    3.89    1.10
  -4   5   2    8.50    1.05
   3  -5  -2   88.42    3.52
  -3  -5   2   87.12    3.47
  -3  -5   2   83.62    3.44
   3  -5  -2   85.34    3.39
  -3  -5   2   88.56    3.46
   3  -5  -2   84.29    3.17
  -3  -5   2   78.59    3.32
   3   5  -2   84.95    3.37
  -3   5   2   84.20    3.37
   3   5  -2   84.35    3.44
  -3   5   2   88.92    3.56
   3   5  -2   83.30    3.19
  -2  -5   2   56.70    2.50
  -2  -5   2   56.28    2.52
   2  -5  -2   56.59    2.26
   2  -5  -2   56.47    2.62
   2  -5  -2   53.08    2.52
  -2  -5   2   54.09    2.62
  -2  -5   2   55.96    2.41
   2   5  -2   49.81    2.43
  -2   5   2   52.99    2.37
  -2   5   2   54.15    2.47
   2   5  -2   60.15    2.53
   2   5  -2   54.28    2.37
  -1  -5   2    0.52    0.54
   1  -5  -2    0.30    0.58
   1  -5  -2    0.24    0.44
  -1  -5   2    0.07    0.68
  -1  -5   2   -0.65    0.65
  -1  -5   2    0.21    0.72
   1  -5  -2    0.28    0.88
   1  -5  -2    0.70    0.72
   1   5  -2    1.23    0.78
   1   5  -2    0.00    0.67
  -1   5   2    0.30    0.65
   1   5  -2    0.68    0.83
  -1   5   2    0.73    0.83
   0  -5  -2   93.50    3.56
   0  -5   2   93.38    3.52
   0  -5  -2   87.59    3.47
   0  -5  -2   95.44    3.35
   0  -5   2   94.87    3.31
   0  -5  -2   93.42    3.53
   0  -5   2   95.08    3.19
   0  -5   2   92.22    3.51
   0   5  -2   90.02    3.59
   0   5  -2   89.58    3.38
   0   5   2   96.13    3.61
   0   5  -2   92.91    3.57
   0   5   2   93.49    3.51
   1  -5   2   41.63    2.04
   1  -5   2   48.19    2.37
   1  -5   2   41.45    1.61
  -1  -5  -2   41.81    2.06
  -1  -5  -2   48.05    2.15
  -1  -5  -2   48.88    2.21
   1  -5   2   39.24    1.85
  -1  -5  -2   45.19    2.06
  -1   5  -2   49.12    2.38
  -1   5  -2   49.89    2.09
  -1   5  -2   44.33    2.13
   1   5   2   42.04    2.03
   1   5   2   47.40    2.29
  -2  -5  -2   35.39    1.92
  -2  -5  -2   24.40    1.49
  -2  -5  -2   34.84    1.95
   2  -5   2   23.15    1.33
   2  -5   2   32.01    1.64
  -2  -5  -2   32.44    1.93
   2  -5   2   34.06    2.03
  -2   5  -2   32.76    1.66
  -2   5  -2   30.90    1.98
  -2   5  -2   34.10    2.01
   2   5   2   34.45    1.93
   3  -5   2    9.75    0.72
  -3  -5  -2    8.80    1.14
  -3  -5  -2    9.80    1.10
  -3  -5  -2    8.83    0.96
  -3  -5  -2   11.46    1.11
   3  -5   2    9.42    1.22
  -3   5  -2    9.97    1.09
  -3   5  -2    8.37    1.19
   3   5   2    9.20    1.13
  -4  -5  -2   63.07    3.17
  -4  -5  -2   70.42    2.95
   4  -5   2   64.67    2.93
  -4  -5  -2   72.63    3.09
   4   5   2   70.05    2.93
  -4   5  -2   64.77    2.94
  -5  -5  -2   17.79    1.46
  -5  -5  -2   15.15    1.50
   5  -5   2   15.98    1.42
  -5  -5  -2   13.74    1.35
  -5   5  -2   15.76    1.43
   5   5   2   15.66    1.41
   6  -5   2    9.62    1.23
  -6  -5  -2    9.14    1.36
  -6  -5  -2    7.41    1.10
  -6  -5  -2    8.07    1.00
   6   5   2    6.97    1.14
  -6   5  -2    9.65    1.29
  -6   5  -2    8.22    1.03
   7  -5   2    0.30    0.97
  -7  -5  -2   -0.15    0.88
  -7  -5  -2   -0.29    0.72
  -7  -5  -2    0.50    1.38
   7   5   2    1.24    0.92
  -7   5  -2   -0.79    0.93
  -7   5  -2    1.20    0.81
  -7  -6   2    8.35    1.77
  -7  -6   2    4.97    1.36
  -7  -6   2    3.22    1.42
   7  -6  -2    4.98    1.41
   7   6  -2    5.54    1.38
  -7   6   2    8.05    1.52
  -7   6   2    7.18    1.35
  -6  -6   2    7.23    1.58
  -6  -6   2    6.08    1.36
   6  -6  -2    5.54    1.35
  -6  -6   2    6.84    1.46
  -6   6   2    6.72    1.40
   6   6  -2    6.66    0.86
   6   6  -2    5.60    1.31
   5  -6  -2   17.91    1.74
  -5  -6   2   10.90    1.51
  -5  -6   2   14.03    1.74
  -5  -6   2   16.77    1.56
  -5  -6   2   18.44    1.74
   5   6  -2   18.20    1.68
   5   6  -2   19.20    1.55
  -5   6   2   16.23    1.71
   4  -6  -2   17.97    1.45
   4  -6  -2   21.94    1.47
  -4  -6   2   21.26    1.67
  -4  -6   2   20.33    1.74
  -4  -6   2   20.56    1.79
   4  -6  -2   17.44    1.51
  -4  -6   2   19.36    1.56
   4   6  -2   19.49    1.66
  -4   6   2   21.55    1.86
   4   6  -2   19.40    1.72
  -4   6   2   24.03    1.83
   4   6  -2   20.21    1.69
   3  -6  -2   31.38    1.78
   3  -6  -2   33.44    2.05
  -3  -6   2   29.69    2.05
  -3  -6   2   27.88    2.08
   3  -6  -2   29.57    2.24
  -3  -6   2   29.59    1.85
  -3  -6   2   34.13    2.22
   3   6  -2   29.25    1.90
   3   6  -2   36.45    2.24
  -3   6   2   31.52    2.26
  -3   6   2   29.97    2.05
   3   6  -2   26.99    1.89
  -2  -6   2    0.12    0.64
  -2  -6   2    0.22    0.79
   2  -6  -2    0.38    0.54
  -2  -6   2   -0.89    1.00
   2  -6  -2    0.04    0.87
  -2  -6   2   -0.77    0.60
   2  -6  -2   -0.78    1.01
  -2   6   2   -0.49    0.92
   2   6  -2    0.10    0.64
   2   6  -2   -0.26    1.02
   2   6  -2    1.11    0.92
  -2   6   2   -1.32    0.66
  -1  -6   2    4.29    0.93
   1  -6  -2    2.89    0.57
  -1  -6   2    2.60    0.85
  -1  -6   2    1.59    0.67
  -1  -6   2    3.20    0.98
   1  -6  -2    2.24    0.70
   1  -6  -2    2.31    1.07
   1  -6  -2    2.27    0.73
   1   6  -2    3.11    0.76
  -1   6   2    3.21    1.06
   1   6  -2    3.12    0.86
   1   6  -2    3.10    1.04
   0  -6  -2   13.42    1.08
   0  -6   2   13.12    1.29
   0  -6   2   13.79    1.07
   0  -6   2   12.48    1.03
   0  -6  -2   11.40    1.32
   0  -6  -2   13.79    1.39
   0  -6   2   13.01    1.25
   0  -6  -2   12.54    1.28
   0   6   2   11.95    1.39
   0   6  -2   12.50    1.46
   0   6   2   12.01    1.37
   0   6  -2   12.36    1.13
   0   6  -2   12.20    1.24
  -1  -6  -2  119.12    4.44
   1  -6   2  108.27    4.37
  -1  -6  -2  124.32    4.52
  -1  -6  -2  121.90    4.43
   1  -6   2  121.99    4.19
  -1  -6  -2  106.88    4.27
   1  -6   2  113.87    4.27
  -1   6  -2  123.28    4.36
  -1   6  -2  120.86    4.48
   1   6   2  124.17    4.52
   1   6   2  118.94    4.53
  -1   6  -2  121.29    4.45
  -2  -6  -2   19.89    1.68
   2  -6   2   19.61    1.25
  -2  -6  -2   18.42    1.60
  -2  -6  -2   15.68    1.44
  -2  -6  -2   15.90    1.38
   2  -6   2   19.39    1.64
  -2   6  -2   22.13    1.77
  -2   6  -2   18.19    1.49
   2   6   2   18.00    1.55
  -2   6  -2   15.61    1.40
  -3  -6  -2   23.84    2.00
  -3  -6  -2   23.24    1.92
   3  -6   2   25.06    1.32
   3  -6   2   27.19    2.10
  -3  -6  -2   23.42    1.99
   3   6   2   25.97    2.01
  -3   6  -2   22.45    2.02
  -4  -6  -2    1.80    1.17
   4  -6   2    0.71    1.03
  -4  -6  -2    2.21    0.85
  -4  -6  -2    2.38    1.05
  -4   6  -2    1.84    1.12
   4   6   2    1.49    1.01
  -5  -6  -2   27.19    2.24
   5  -6   2   28.26    2.18
  -5  -6  -2   25.95    2.43
  -5  -6  -2   28.76    2.09
  -5   6  -2   26.48    2.13
   5   6   2   30.27    2.15
   6  -6   2    2.19    1.19
  -6  -6  -2    1.49    1.42
  -6  -6  -2    3.21    0.89
  -6  -6  -2    3.44    1.29
  -6   6  -2    2.16    0.91
  -6   6  -2    2.51    0.92
   6   6   2    2.74    1.12
  -6  -7   2   -0.50    0.95
   6  -7  -2    1.17    1.38
  -6  -7   2    0.57    1.38
  -6  -7   2    0.89    1.26
   6   7  -2    0.42    0.93
  -6   7   2    1.74    1.37
   6   7  -2    0.85    1.28
  -5  -7   2    3.47    1.04
   5  -7  -2    2.56    1.36
  -5  -7   2    2.37    1.32
  -5  -7   2    3.46    1.35
  -5   7   2    0.82    1.30
   5   7  -2    0.31    0.97
   5   7  -2    3.55    1.31
  -4  -7   2   50.03    2.85
  -4  -7   2   49.36    2.61
  -4  -7   2   49.25    2.78
   4  -7  -2   48.30    2.34
  -4  -7   2   46.06    2.77
   4  -7  -2   51.68    2.94
  -4   7   2   47.27    2.65
  -4   7   2   36.59    2.54
   4   7  -2   46.15    2.55
   4   7  -2   47.04    2.84
   3  -7  -2   57.42    2.78
   3  -7  -2   56.15    2.67
  -3  -7   2   59.58    2.88
  -3  -7   2   55.09    3.03
  -3  -7   2   59.65    3.02
  -3  -7   2   56.75    3.09
   3  -7  -2   57.86    3.14
   3   7  -2   56.65    2.69
   3   7  -2   59.79    2.91
  -3   7   2   59.89    3.01
   3   7  -2   61.63    3.14
  -3   7   2   57.99    2.93
  -2  -7   2    7.36    1.08
   2  -7  -2    9.03    1.39
   2  -7  -2    9.73    1.49
  -2  -7   2    7.52    1.11
   2  -7  -2    7.53    1.13
  -2  -7   2    6.57    1.24
  -2  -7   2    7.64    1.43
   2   7  -2    7.66    1.21
  -2   7   2    8.84    1.20
   2   7  -2    6.85    1.27
   2   7  -2    4.26    1.22
  -2   7   2    6.99    1.35
  -1  -7   2   21.47    1.90
   1  -7  -2   21.90    1.66
  -1  -7   2   22.55    1.82
   1  -7  -2   19.70    1.67
  -1  -7   2   19.38    1.59
   1  -7  -2   21.41    1.83
   1   7  -2   20.77    1.94
   1   7  -2   20.47    1.67
  -1   7   2   21.61    1.82
  -1   7   2   20.34    1.74
   1   7  -2   22.32    1.78
   0  -7  -2   30.25    2.14
   0  -7  -2   29.18    2.26
   0  -7   2   33.07    2.13
   0  -7  -2   28.42    1.93
   0  -7   2   31.14    1.93
   0  -7  -2   31.30    1.70
   0  -7   2   28.43    2.41
   0   7  -2   26.38    2.38
   0   7  -2   30.37    2.27
   0   7   2   30.50    2.29
   0   7  -2   30.96    1.88
   0   7   2   34.43    2.35
  -1  -7  -2   28.64    2.20
  -1  -7  -2   29.64    1.86
   1  -7   2   30.80    2.46
  -1  -7  -2   31.02    2.19
  -1  -7  -2   28.50    1.96
   1  -7   2   33.43    1.85
  -1   7  -2   29.87    2.00
  -1   7  -2   27.61    1.79
   1   7   2   32.32    2.32
  -1   7  -2   31.22    2.44
   2  -7   2    4.27    1.33
  -2  -7  -2    6.32    1.30
  -2  -7  -2    2.05    0.86
  -2  -7  -2    5.62    1.09
   2  -7   2    4.56    0.80
   2   7   2    3.77    1.24
  -2   7  -2    3.93    1.31
  -2   7  -2    6.39    1.42
   3  -7   2    9.14    1.54
  -3  -7  -2   10.63    1.51
  -3  -7  -2    8.81    1.26
  -3  -7  -2   12.54    1.51
   3   7   2    9.45    1.46
  -3   7  -2   11.36    1.64
  -4  -7  -2    8.53    1.50
  -4  -7  -2    8.12    1.50
   4  -7   2   15.88    1.72
  -4  -7  -2    6.63    1.40
  -4   7  -2   15.35    1.77
   4   7   2    9.27    1.49
   5  -7   2    2.84    1.33
  -5  -7  -2    4.59    1.11
  -5  -7  -2    3.13    1.06
  -5  -7  -2    2.53    1.26
  -5   7  -2    2.42    1.36
   5   7   2    1.66    1.22
  -3  -8   2    1.38    1.01
  -3  -8   2    0.36    0.89
  -3  -8   2   -0.16    0.92
  -3  -8   2    0.61    0.87
   3  -8  -2    0.91    0.94
   3  -8  -2    0.55    0.97
   3   8  -2   -0.26    1.15
  -3   8   2    2.18    1.49
  -3   8   2    0.18    0.82
   3   8  -2    3.92    1.39
   2  -8  -2   26.80    2.35
  -2  -8   2   31.90    2.30
  -2  -8   2   27.60    2.35
   2  -8  -2   29.71    2.13
   2  -8  -2   27.25    2.28
  -2  -8   2   26.44    2.13
  -2   8   2   27.92    2.21
   2   8  -2   24.57    2.04
   2   8  -2   29.47    2.41
  -2   8   2   26.69    2.20
   2   8  -2   30.01    2.24
  -1  -8   2   99.47    4.37
   1  -8  -2   92.20    3.86
  -1  -8   2   91.36    3.82
   1  -8  -2   96.81    4.30
   1  -8  -2   91.03    4.25
   1   8  -2   92.59    4.17
  -1   8   2   95.98    4.37
  -1   8   2   95.91    4.27
   1   8  -2   97.91    4.22
   1   8  -2   99.81    4.24
   0  -8  -2    1.06    1.28
   0  -8   2    0.10    0.96
   0  -8  -2   -0.31    0.77
   0  -8   2    1.53    1.00
   0  -8  -2    0.06    1.18
   0   8   2    1.10    0.90
   0   8  -2    0.46    1.26
   0   8  -2   -0.59    1.32
   0   8  -2    1.18    0.80
  -1  -8  -2   -0.40    0.79
   1  -8   2    0.55    1.33
   1  -8   2    0.49    0.61
  -1  -8  -2    1.40    0.89
   1   8   2    0.09    1.22
  -1   8  -2   -0.98    1.36
  -2  -8  -2   12.99    1.73
  -2  -8  -2   13.53    1.48
  -2  -8  -2   12.30    1.40
   2  -8   2    9.29    1.41
   2   8   2   10.59    1.39
  -2   8  -2   12.40    1.87
  11   0  -3   34.84    2.21
 -11   0   3   32.96    2.85
 -11   0   3   34.13    2.60
 -11   0   3   36.82    2.46
  11   0  -3   34.23    2.29
  10   0  -3   -1.35    1.02
 -10   0   3    0.46    1.01
  10   0  -3   -0.18    0.77
 -10   0   3    0.10    0.88
 -10   0   3   -0.42    1.08
 -10   0   3    0.14    0.92
  10   0  -3   -0.22    1.00
  -9   0   3   11.29    1.78
  -9   0   3    9.83    1.30
  -9   0   3   12.83    1.28
   9   0  -3   11.68    1.18
   9   0  -3   12.69    1.22
   9   0  -3   13.42    1.54
   8   0  -3   -0.04    0.86
  -8   0   3    0.20    0.60
  -8   0   3    1.25    0.93
   8   0  -3    0.59    1.04
  -8   0   3    1.10    0.94
  -7   0   3  111.21    3.89
  -7   0   3  109.45    4.01
   7   0  -3  111.60    4.06
   7   0  -3  114.95    4.15
  -7   0   3  112.48    4.01
   7   0  -3  109.89    3.92
  -7   0   3  103.24    4.27
  -6   0   3   -0.32    1.23
   6   0  -3    0.43    0.47
  -6   0   3   -0.19    0.51
   6   0  -3    0.47    0.91
   6   0  -3   -0.31    0.70
  -6   0   3    0.81    0.67
  -5   0   3   94.65    3.31
   5   0  -3   96.06    3.41
  -5   0   3   97.17    3.42
   5   0  -3   94.48    3.47
   5   0  -3   94.00    3.34
   4   0  -3   -0.66    0.53
   4   0  -3    0.50    0.68
  -4   0   3    1.35    0.57
   4   0  -3   -0.16    0.55
  -4   0   3   -0.10    0.42
   3   0  -3   55.09    2.11
   3   0  -3   54.38    2.23
  -3   0   3   57.35    2.15
  -3   0   3   54.82    2.07
  -3   0   3   53.68    2.06
   3   0  -3   56.39    2.17
   2   0  -3    0.05    0.37
  -2   0   3    0.33    0.39
  -2   0   3    0.07    0.30
   2   0  -3    0.65    0.49
  -2   0   3    0.19    0.35
   2   0  -3    0.70    0.61
  -1   0   3   90.80    2.93
   1   0  -3   92.63    3.06
  -1   0   3   90.20    3.03
   1   0  -3   92.23    3.05
   1   0  -3   92.79    2.98
  -1   0   3   95.49    3.01
   0   0  -3   -0.01    0.23
   0   0  -3   -0.02    0.22
   0   0  -3    0.04    0.12
   0   0  -3    0.21    0.25
   0   0   3   -0.10    0.20
   0   0   3    0.05    0.22
  -1   0  -3    5.72    0.47
  -1   0  -3    4.27    0.63
  -1   0  -3    6.23    0.53
  -2   0  -3   -0.27    0.19
  -2   0  -3   -0.26    0.24
  -2   0  -3    0.20    0.49
  -3   0  -3    5.18    0.41
  -3   0  -3    5.22    0.42
  -3   0  -3    5.11    0.72
  -4   0  -3    0.30    0.64
  -4   0  -3   -0.57    0.31
  -5   0  -3   13.31    0.74
  -5   0  -3   14.26    0.64
  -5   0  -3   12.64    1.16
   5   0   3   13.13    0.62
  -6   0  -3   -0.07    0.38
   6   0   3    0.38    0.34
  -6   0  -3   -0.01    0.39
  -6   0  -3    0.42    0.82
  -7   0  -3   26.62    1.91
  -8   0  -3    0.20    0.67
   8   0   3   -0.12    0.44
   9   0   3   38.97    1.99
  -9   0  -3   43.21    1.94
  -9   0  -3   40.86    2.63
 -11  -1   3    0.11    1.59
  11  -1  -3    0.36    1.16
 -11  -1   3    0.54    1.04
  11  -1  -3   -0.96    1.36
 -11  -1   3   -0.83    1.10
 -11   1   3   -1.01    1.09
 -11   1   3    0.13    0.82
 -11   1   3    0.92    1.27
  11   1  -3    0.90    1.20
  11   1  -3    0.04    1.06
 -10  -1   3   12.35    1.51
  10  -1  -3   15.86    1.57
  10  -1  -3   14.02    1.85
 -10  -1   3   12.08    1.68
 -10  -1   3   13.40    1.48
 -10  -1   3   19.36    1.80
 -10   1   3   16.48    1.82
  10   1  -3   16.90    1.63
  10   1  -3   16.89    1.60
  10   1  -3   17.84    1.64
 -10   1   3   14.64    1.41
  -9  -1   3    5.02    1.19
  -9  -1   3    4.13    0.83
   9  -1  -3    3.70    0.85
  -9  -1   3    1.69    0.96
  -9  -1   3    3.02    1.18
   9  -1  -3    3.15    1.39
   9   1  -3    3.63    1.08
   9   1  -3    4.15    0.85
   9   1  -3    3.35    1.05
  -9   1   3    2.24    0.81
  -9   1   3    6.24    1.35
   8  -1  -3   53.80    2.63
  -8  -1   3   42.56    3.01
  -8  -1   3   42.65    2.24
   8  -1  -3   46.93    2.42
  -8  -1   3   46.97    2.24
   8   1  -3   47.92    2.52
   8   1  -3   50.14    2.18
  -8   1   3   43.19    2.67
  -8   1   3   48.20    2.27
   8   1  -3   44.90    2.20
   7  -1  -3   43.69    2.16
  -7  -1   3   39.84    1.99
  -7  -1   3   41.14    2.13
   7  -1  -3   36.93    2.03
  -7  -1   3   36.81    2.40
   7   1  -3   37.25    1.98
   7   1  -3   42.45    1.93
   7   1  -3   41.86    1.95
  -7   1   3   40.68    2.50
  -7   1   3   41.02    1.91
   7   1  -3   43.04    2.15
  -7   1   3   41.89    2.20
   6  -1  -3   50.05    2.19
  -6  -1   3   43.62    2.17
  -6  -1   3   48.07    2.14
   6  -1  -3   45.06    1.96
  -6  -1   3   49.60    2.24
  -6  -1   3   44.40    2.48
  -6   1   3   47.29    2.20
  -6   1   3   43.75    2.54
   6   1  -3   48.45    2.11
  -6   1   3   48.47    2.09
   6   1  -3   49.90    2.32
   6   1  -3   47.23    2.19
   6   1  -3   41.57    1.99
  -5  -1   3   55.22    2.61
  -5  -1   3   58.11    2.36
   5  -1  -3   54.12    2.29
  -5  -1   3   56.09    2.33
  -5  -1   3   58.19    2.34
   5  -1  -3   54.51    2.27
  -5   1   3   54.97    2.17
   5   1  -3   57.01    2.22
   5   1  -3   53.72    2.20
   5   1  -3   56.71    2.42
  -5   1   3   59.44    2.35
   5   1  -3   53.61    2.32
  -4  -1   3   83.11    3.01
  -4  -1   3   81.88    2.94
   4  -1  -3   84.89    2.97
   4  -1  -3   81.11    2.97
  -4  -1   3   85.48    3.00
   4   1  -3   81.54    2.90
   4   1  -3   78.98    2.85
  -4   1   3   83.04    2.95
  -4   1   3   84.31    2.97
   4   1  -3   81.50    3.00
   4   1  -3   79.35    3.04
  -3  -1   3   25.49    1.29
   3  -1  -3   26.02    1.23
  -3  -1   3   27.62    1.47
   3  -1  -3   25.37    1.21
  -3  -1   3   28.42    1.38
   3   1  -3   27.69    1.35
  -3   1   3   25.25    1.36
   3   1  -3   25.79    1.39
  -3   1   3   27.12    1.20
   3   1  -3   26.09    1.19
  -2  -1   3    1.68    0.33
   2  -1  -3    1.52    0.54
  -2  -1   3    0.51    0.63
   2  -1  -3    1.77    0.54
   2  -1  -3    2.50    0.57
  -2  -1   3    1.77    0.53
  -2   1   3    1.48    0.42
   2   1  -3    1.72    0.47
   2   1  -3    1.30    0.49
   2   1  -3    1.47    0.52
  -1  -1   3  434.46   13.44
   1  -1  -3  444.80   13.46
   1  -1  -3  451.84   13.45
   1  -1  -3  419.29   13.46
   1  -1  -3  439.18   13.43
  -1  -1   3  460.24   13.43
  -1   1   3  446.76   13.43
   1   1  -3  443.73   13.48
   1   1  -3  455.86   13.41
   1   1  -3  446.70   13.46
   0  -1  -3  318.92    9.82
   0  -1  -3  316.01    9.94
   0  -1  -3  309.97    9.81
   0  -1   3  342.56    9.82
   0  -1   3  322.50    9.79
   0  -1  -3  362.66    9.79
   0  -1   3  322.38    9.76
   0  -1  -3  310.30    9.89
   0   1  -3  317.03    9.74
   0   1   3  311.57    9.79
   0   1  -3  329.26    9.81
   0   1  -3  314.17    9.88
   0   1  -3  346.14    9.85
   0   1   3  314.67    9.87
  -1  -1  -3    7.01    0.72
   1  -1   3    7.82    0.39
  -1  -1  -3    8.45    0.50
  -1  -1  -3    7.60    0.44
  -1  -1  -3    7.78    0.57
   1   1   3    8.58    0.49
  -1   1  -3    8.16    0.45
   1   1   3    7.55    0.47
  -1   1  -3    7.13    0.58
  -1   1  -3    8.28    0.31
  -1   1  -3    7.38    0.40
  -2  -1  -3    5.39    0.34
   2  -1   3    5.18    0.25
  -2  -1  -3    5.21    0.53
  -2  -1  -3    5.46    0.33
  -2  -1  -3    5.23    0.26
  -2  -1  -3    5.48    0.62
   2  -1   3    5.21    0.28
  -2   1  -3    5.26    0.51
  -2   1  -3    5.02    0.35
   2   1   3    5.37    0.34
   2   1   3    5.74    0.32
  -2   1  -3    5.93    0.28
  -2   1  -3    5.08    0.29
  -2   1  -3    5.46    0.57
   3  -1   3  146.93    4.53
  -3  -1  -3  154.07    4.61
  -3  -1  -3  150.61    4.83
  -3  -1  -3  156.04    4.60
  -3  -1  -3  152.36    5.10
   3  -1   3  146.37    4.53
   3   1   3  154.72    4.58
  -3   1  -3  149.98    4.56
  -3   1  -3  150.51    4.68
  -3   1  -3  150.51    4.89
   3   1   3  150.18    4.58
  -3   1  -3  151.25    4.56
  -3   1  -3  153.44    4.79
  -4  -1  -3  162.52    5.57
  -4  -1  -3  162.75    5.01
  -4  -1  -3  165.88    5.03
   4  -1   3  160.48    4.96
  -4  -1  -3  162.43    5.21
  -4   1  -3  162.02    5.12
  -4   1  -3  163.55    4.98
  -4   1  -3  166.18    5.00
   4   1   3  166.03    5.00
  -4   1  -3  161.20    5.35
   4   1   3  163.46    4.99
   5  -1   3   50.84    1.72
   5  -1   3   49.21    1.73
  -5  -1  -3   50.99    2.46
  -5  -1  -3   50.54    1.75
  -5  -1  -3   50.19    1.98
  -5  -1  -3   50.84    1.80
  -5   1  -3   50.95    1.62
  -5   1  -3   52.43    1.75
   5   1   3   50.59    1.77
  -5   1  -3   50.59    2.19
  -5   1  -3   48.76    1.91
  -5   1  -3   51.80    1.77
  -6  -1  -3    1.17    0.96
  -6  -1  -3    0.92    0.39
  -6  -1  -3    0.43    0.35
   6  -1   3    1.28    0.40
  -6   1  -3    1.42    0.55
   6   1   3    0.57    0.42
  -6   1  -3    1.27    0.42
  -6   1  -3    0.87    0.51
  -7  -1  -3    7.99    0.78
  -7  -1  -3    7.49    1.10
   7  -1   3    8.38    0.74
  -7  -1  -3    7.55    0.79
  -7   1  -3    6.78    0.90
   7   1   3    7.59    0.69
  -7   1  -3    7.83    0.84
  -8  -1  -3   29.25    2.30
  -8  -1  -3   26.89    1.48
   8  -1   3   30.71    1.56
   8   1   3   30.60    1.50
  -8   1  -3   29.24    1.95
  -9  -1  -3    6.83    1.53
   9  -1   3    6.18    0.91
  -9  -1  -3    7.70    0.93
   9   1   3    7.87    0.90
  -9   1  -3    8.61    1.26
  10  -2  -3    5.52    1.75
  10  -2  -3    5.25    1.26
 -10  -2   3    5.56    1.82
 -10  -2   3    6.10    1.33
 -10  -2   3    3.84    1.23
  10   2  -3    5.62    1.27
 -10   2   3    6.43    1.25
 -10   2   3    6.02    1.02
   9  -2  -3    3.23    1.08
  -9  -2   3    3.40    1.17
  -9  -2   3    3.80    0.96
  -9  -2   3    3.67    1.70
   9   2  -3    4.25    1.11
   9   2  -3    4.61    0.82
  -9   2   3    4.95    1.20
  -9   2   3    4.50    1.13
  -8  -2   3   26.48    1.71
  -8  -2   3   27.26    2.36
  -8  -2   3   25.59    1.72
   8  -2  -3   30.55    1.96
  -8   2   3   29.92    1.75
   8   2  -3   27.54    1.56
  -8   2   3   27.76    1.97
   8   2  -3   26.07    1.70
  -7  -2   3   79.20    3.22
  -7  -2   3   72.59    3.78
   7  -2  -3   79.56    3.14
  -7  -2   3   72.44    3.14
  -7   2   3   73.08    2.88
  -7   2   3   68.96    3.14
   7   2  -3   79.13    3.17
   7   2  -3   73.36    2.85
  -7   2   3   75.85    2.99
  -6  -2   3   65.73    2.67
  -6  -2   3   71.13    3.14
   6  -2  -3   60.10    2.56
   6  -2  -3   67.48    2.63
  -6   2   3   64.33    2.60
   6   2  -3   63.60    2.66
   6   2  -3   63.96    2.51
   6   2  -3   64.17    2.62
  -6   2   3   70.37    2.65
  -6   2   3   57.57    2.78
   5  -2  -3   21.12    1.38
   5  -2  -3   19.94    1.46
  -5  -2   3   21.01    1.87
  -5  -2   3   20.13    1.47
  -5   2   3   21.67    1.46
  -5   2   3   20.73    1.27
   5   2  -3   20.51    1.47
   5   2  -3   21.29    1.47
   5   2  -3   19.97    1.25
  -4  -2   3  196.01    6.70
   4  -2  -3  199.52    6.33
   4  -2  -3  193.03    6.26
  -4  -2   3  197.60    6.37
   4   2  -3  196.28    6.25
  -4   2   3  191.21    6.25
   4   2  -3  195.04    6.33
   4   2  -3  191.40    6.35
  -4   2   3  195.18    6.26
   3  -2  -3  581.28   17.79
  -3  -2   3  591.90   17.84
   3  -2  -3  598.26   17.83
  -3  -2   3  588.51   17.82
  -3   2   3  572.00   17.77
   3   2  -3  586.40   17.77
   3   2  -3  584.08   17.81
   3   2  -3  582.41   17.85
   2  -2  -3   72.72    2.56
   2  -2  -3   71.68    2.56
  -2  -2   3   68.12    2.66
   2  -2  -3   71.77    2.53
  -2  -2   3   73.58    2.55
   2   2  -3   72.61    2.53
  -2   2   3   73.51    2.62
   2   2  -3   71.55    2.66
   2   2  -3   71.46    2.56
  -2   2   3   75.00    2.61
   1  -2  -3    0.09    0.44
   1  -2  -3   -0.60    0.32
  -1  -2   3    0.28    0.59
   1  -2  -3   -0.03    0.47
  -1  -2   3    0.34    0.40
   1  -2  -3    0.30    0.35
   1   2  -3    0.46    0.52
  -1   2   3    0.76    0.47
   1   2  -3   -0.09    0.40
  -1   2   3    0.00    0.47
   1   2  -3    0.16    0.50
   0  -2  -3   58.00    2.12
   0  -2  -3   58.99    2.04
   0  -2   3   58.98    2.17
   0  -2  -3   57.72    2.13
   0  -2   3   62.66    2.03
   0  -2  -3   58.96    2.16
   0   2  -3   57.10    2.13
   0   2   3   59.67    2.12
   0   2  -3   60.51    2.16
   0   2  -3   61.37    2.04
  -1  -2  -3  464.78   14.76
  -1  -2  -3  515.87   14.46
  -1  -2  -3  468.04   14.68
  -1  -2  -3  519.50   14.52
  -1  -2  -3  471.35   14.60
  -1   2  -3  469.97   14.69
  -1   2  -3  477.88   14.61
   1   2   3  484.06   14.59
  -1   2  -3  470.46   14.47
  -2  -2  -3  234.25    7.27
  -2  -2  -3  235.95    7.54
   2  -2   3  233.99    7.22
  -2  -2  -3  229.33    7.39
  -2  -2  -3  234.92    7.26
   2  -2   3  236.86    7.05
   2   2   3  233.42    7.25
   2   2   3  248.83    7.38
  -2   2  -3  232.65    7.37
  -2   2  -3  238.13    7.24
  -2   2  -3  231.22    7.26
  -3  -2  -3  147.43    4.69
   3  -2   3  146.66    4.63
  -3  -2  -3  150.15    4.85
  -3  -2  -3  147.54    4.69
  -3  -2  -3  144.81    5.09
  -3   2  -3  150.24    4.67
   3   2   3  146.97    4.66
  -3   2  -3  149.21    4.65
   3   2   3  148.48    4.66
  -3   2  -3  150.46    4.85
  -3   2  -3  148.78    4.76
  -3   2  -3  145.36    4.63
  -4  -2  -3   65.71    2.51
   4  -2   3   65.49    2.22
   4  -2   3   61.47    2.21
  -4  -2  -3   67.59    2.28
  -4  -2  -3   63.26    2.27
  -4  -2  -3   65.85    2.84
  -4   2  -3   67.72    2.24
  -4   2  -3   66.42    2.37
   4   2   3   62.29    2.23
  -4   2  -3   63.36    2.27
   4   2   3   65.50    2.25
  -4   2  -3   64.58    2.45
  -4   2  -3   64.62    2.25
  -5  -2  -3   87.37    3.55
   5  -2   3   84.91    3.01
  -5  -2  -3   89.38    3.27
  -5  -2  -3   93.21    3.10
  -5   2  -3   92.22    3.03
   5   2   3   89.68    3.06
  -5   2  -3   90.80    3.09
  -5   2  -3   88.64    3.18
  -6  -2  -3   50.75    2.51
  -6  -2  -3   49.99    2.18
  -6  -2  -3   50.71    1.98
   6  -2   3   47.19    1.90
  -6   2  -3   50.14    2.14
   6   2   3   48.67    1.93
  -6   2  -3   50.14    1.94
  -6   2  -3   49.50    2.02
  -7  -2  -3  103.00    3.73
   7  -2   3  105.07    3.54
  -7  -2  -3  101.53    3.57
  -7  -2  -3  105.06    4.33
  -7   2  -3   92.00    3.56
   7   2   3   98.31    3.52
  -7   2  -3  100.99    3.52
  -7   2  -3  101.49    3.73
   8  -2   3    0.96    0.71
  -8  -2  -3    1.16    1.24
  -8  -2  -3    1.33    0.61
  -8  -2  -3    0.97    0.71
   8   2   3    0.68    0.58
  -9  -2  -3    3.63    0.77
   9  -2   3    2.80    0.94
  -9  -2  -3    2.58    1.47
   9   2   3    4.20    0.81
 -10  -3   3   39.58    2.52
 -10  -3   3   33.71    2.25
 -10  -3   3   39.48    3.32
  10  -3  -3   38.74    2.59
 -10   3   3   34.44    2.21
  10   3  -3   38.21    2.59
  -9  -3   3  111.16    4.55
  -9  -3   3  109.58    4.48
  -9  -3   3   98.58    5.03
   9  -3  -3  115.87    4.45
   9   3  -3  110.79    4.46
  -9   3   3  113.33    4.43
  -8  -3   3   22.23    2.29
  -8  -3   3   19.12    1.67
  -8  -3   3   20.23    1.88
   8  -3  -3   23.37    1.91
   8   3  -3   22.07    1.44
  -8   3   3   25.20    1.78
   8   3  -3   23.02    1.92
   7  -3  -3   10.07    1.04
  -6  -3   3  149.34    5.61
  -6  -3   3  152.17    5.34
  -6  -3   3  152.52    5.28
   6  -3  -3  148.93    5.25
   6  -3  -3  152.66    5.17
  -6   3   3  139.88    5.09
  -6   3   3  155.57    5.15
  -6   3   3  147.10    5.15
   6   3  -3  153.88    5.07
   6   3  -3  148.15    5.23
   6   3  -3  152.37    5.30
  -5  -3   3   99.19    3.83
   5  -3  -3  103.85    3.83
  -5  -3   3  105.27    4.20
  -5  -3   3  105.78    3.87
   5  -3  -3  112.12    3.94
   5   3  -3  108.25    3.74
   5   3  -3  106.22    3.92
  -5   3   3  109.58    3.87
  -5   3   3  106.14    3.88
  -5   3   3  103.43    3.74
   5   3  -3  105.44    3.92
  -4  -3   3   75.94    3.43
  -4  -3   3   72.12    2.93
   4  -3  -3   68.67    2.74
  -4  -3   3   75.04    2.94
   4  -3  -3   72.13    2.91
   4   3  -3   76.82    2.98
   4   3  -3   77.87    2.79
  -4   3   3   74.93    2.88
  -4   3   3   74.07    2.95
   4   3  -3   70.93    2.80
   3  -3  -3   48.69    1.97
  -3  -3   3   48.14    2.02
   3  -3  -3   48.28    2.11
  -3  -3   3   52.48    2.57
  -3  -3   3   48.26    2.13
   3  -3  -3   47.88    2.14
  -3   3   3   49.88    2.06
  -3   3   3   46.64    1.98
   3   3  -3   45.78    2.07
   3   3  -3   48.32    2.03
   3   3  -3   49.72    2.07
  -2  -3   3  124.21    4.15
   2  -3  -3  122.99    4.19
   2  -3  -3  122.07    4.09
   2  -3  -3  124.60    4.17
  -2  -3   3  123.52    4.16
   2   3  -3  120.88    4.12
  -2   3   3  126.46    4.19
   2   3  -3  119.84    4.19
  -2   3   3  124.67    4.19
   2   3  -3  121.03    4.14
  -1  -3   3   26.16    1.36
   1  -3  -3   28.04    1.35
   1  -3  -3   28.35    1.47
   1  -3  -3   26.86    1.41
  -1  -3   3   27.34    1.28
   1  -3  -3   27.83    1.31
   1   3  -3   28.31    1.50
   1   3  -3   29.57    1.55
  -1   3   3   29.66    1.35
   1   3  -3   28.86    1.36
  -1   3   3   29.80    1.35
   0  -3  -3  426.87   12.80
   0  -3  -3  411.72   12.76
   0  -3   3  424.75   12.64
   0  -3  -3  400.33   12.75
   0  -3  -3  431.10   12.72
   0  -3   3  421.35   12.71
   0   3   3  405.94   12.73
   0   3   3  408.35   12.73
   0   3  -3  422.36   12.68
   0   3  -3  413.80   12.79
   0   3  -3  401.15   12.78
   1  -3   3    5.74    0.51
  -1  -3  -3    6.07    0.60
  -1  -3  -3    6.63    0.80
  -1  -3  -3    5.88    0.67
   1  -3   3    5.87    0.49
  -1   3  -3    7.09    0.70
  -1   3  -3    6.25    0.54
   1   3   3    6.09    0.68
  -1   3  -3    6.79    0.65
  -2  -3  -3  110.43    3.79
  -2  -3  -3  106.38    3.64
   2  -3   3  108.90    3.33
  -2  -3  -3  108.51    3.90
  -2  -3  -3  106.75    3.48
  -2  -3  -3  102.66    3.25
  -2   3  -3  109.45    3.66
   2   3   3  104.75    3.58
  -2   3  -3  107.53    3.71
  -3  -3  -3   54.74    2.34
  -3  -3  -3   57.12    2.43
  -3  -3  -3   54.97    2.14
  -3   3  -3   53.71    2.15
   3   3   3   54.41    2.13
  -3   3  -3   56.36    2.23
   4  -3   3  154.67    4.91
  -4  -3  -3  148.68    5.13
  -4  -3  -3  144.52    5.30
  -4  -3  -3  151.87    4.95
   4   3   3  149.48    4.91
  -4   3  -3  147.70    5.04
  -4   3  -3  151.95    4.94
  -4   3  -3  148.26    4.83
  -5  -3  -3    4.27    0.69
   5  -3   3    3.62    0.70
  -5  -3  -3    5.41    1.21
  -5   3  -3    4.33    0.65
  -5   3  -3    4.48    0.70
   5   3   3    3.96    0.77
  -6  -3  -3    1.07    0.59
  -6  -3  -3   -0.17    1.10
  -6  -3  -3    0.34    0.74
   6  -3   3    0.99    0.62
  -6   3  -3    0.76    0.59
   6   3   3    1.89    0.62
  -6   3  -3    1.47    0.59
  -7  -3  -3   57.48    2.43
  -7  -3  -3   53.26    2.89
  -7  -3  -3   58.15    2.63
   7  -3   3   56.34    2.37
  -7   3  -3   52.86    2.34
  -7   3  -3   57.23    2.40
   7   3   3   59.02    2.42
  -8  -3  -3   51.02    2.54
  -8  -3  -3   51.73    2.39
  -8  -3  -3   52.54    3.29
   8  -3   3   50.99    2.44
  -8   3  -3   52.33    2.36
   8   3   3   49.92    2.34
  -9  -4   3    0.15    1.05
   9  -4  -3   -2.38    1.03
  -9  -4   3   -0.88    0.79
  -9  -4   3   -0.94    1.09
   9   4  -3   -1.11    1.07
  -9   4   3    1.57    1.06
  -8  -4   3    9.16    1.88
  -8  -4   3    9.88    1.28
   8  -4  -3    8.97    1.34
  -8  -4   3    6.72    1.12
   8   4  -3    6.97    1.13
  -8   4   3    6.47    1.25
   8   4  -3    9.48    1.02
  -7  -4   3  132.38    5.20
   7  -4  -3  147.96    5.18
  -7  -4   3  133.38    5.67
  -7  -4   3  139.59    5.17
  -7   4   3  145.36    5.13
   7   4  -3  137.13    4.82
   7   4  -3  135.05    5.05
   6  -4  -3   77.80    3.26
  -6  -4   3   79.93    3.29
  -6  -4   3   80.46    3.48
  -6  -4   3   80.52    3.63
   6  -4  -3   77.90    3.36
  -6   4   3   76.88    3.15
  -6   4   3   81.01    3.20
   6   4  -3   78.96    3.30
   6   4  -3   79.05    3.38
  -6   4   3   80.23    3.40
   6   4  -3   78.87    3.07
   5  -4  -3   24.95    1.66
   5  -4  -3   25.35    1.62
  -5  -4   3   26.99    1.65
  -5  -4   3   27.70    2.44
  -5  -4   3   21.90    1.60
   5   4  -3   24.48    1.38
  -5   4   3   25.19    1.72
   5   4  -3   24.15    1.80
   5   4  -3   23.34    1.58
  -5   4   3   25.87    1.90
   4  -4  -3    8.33    0.92
  -4  -4   3    8.39    0.96
  -4  -4   3    9.61    1.20
  -4  -4   3    7.59    1.06
   4  -4  -3    7.52    1.14
  -4   4   3    7.16    0.93
  -4   4   3    6.18    1.00
   4   4  -3    8.86    1.09
   4   4  -3    8.95    0.96
   4   4  -3    7.20    0.92
  -3  -4   3  148.22    5.13
   3  -4  -3  141.36    4.71
   3  -4  -3  135.26    4.77
  -3  -4   3  136.48    4.77
  -3  -4   3  139.43    4.87
   3  -4  -3  139.72    4.79
   3   4  -3  135.08    4.84
   3   4  -3  137.52    4.77
  -3   4   3  137.32    4.90
  -3   4   3  137.87    4.83
   3   4  -3  141.01    4.79
  -2  -4   3   49.67    2.14
   2  -4  -3   52.52    2.21
  -2  -4   3   51.72    2.52
   2  -4  -3   49.00    2.09
   2  -4  -3   54.75    2.23
  -2  -4   3   50.95    2.29
   2   4  -3   55.96    2.33
   2   4  -3   52.02    2.27
  -2   4   3   55.12    2.40
   2   4  -3   53.08    2.17
  -2   4   3   53.11    2.36
  -1  -4   3    2.07    0.67
   1  -4  -3    3.26    0.64
   1  -4  -3    2.43    0.56
  -1  -4   3    2.35    0.67
   1  -4  -3    1.92    0.44
   1  -4  -3    3.07    0.78
  -1  -4   3    2.65    0.87
   1   4  -3    2.16    0.60
   1   4  -3    2.85    0.68
  -1   4   3    1.20    0.74
   1   4  -3    2.61    0.68
  -1   4   3    2.38    0.77
   0  -4  -3    0.58    0.49
   0  -4   3    1.69    0.55
   0  -4   3    2.33    0.62
   0  -4  -3    1.32    0.62
   0  -4  -3   -0.19    0.47
   0  -4  -3    1.71    0.72
   0  -4   3    1.09    0.65
   0   4  -3    2.22    0.79
   0   4  -3    0.39    0.56
   0   4   3    2.02    0.70
   0   4  -3    2.84    0.63
   0   4   3    0.51    0.69
   1  -4   3   29.95    1.36
  -1  -4  -3   34.46    1.79
  -1  -4  -3   28.20    1.66
  -1  -4  -3   30.55    1.59
  -1  -4  -3   35.48    1.61
   1  -4   3   34.56    1.52
  -1   4  -3   29.14    1.58
  -1   4  -3   32.15    1.81
   1   4   3   34.28    1.62
  -1   4  -3   35.00    1.50
   1   4   3   28.18    1.69
  -2  -4  -3   34.23    1.93
   2  -4   3   33.10    1.80
  -2  -4  -3   31.96    1.70
   2  -4   3   31.30    1.40
  -2  -4  -3   32.51    1.82
   2  -4   3   30.85    1.23
  -2  -4  -3   28.73    1.48
   2   4   3   32.23    1.51
   2   4   3   32.51    1.69
  -2   4  -3   31.73    1.76
  -2   4  -3   31.24    1.37
  -2   4  -3   32.59    1.86
  -3  -4  -3    0.42    0.47
   3  -4   3   -0.52    0.73
  -3  -4  -3    0.08    0.65
  -3  -4  -3    0.20    0.57
   3  -4   3   -0.08    0.19
  -3   4  -3   -0.13    0.58
  -3   4  -3   -0.32    0.71
   3   4   3   -0.89    0.62
  -4  -4  -3   11.70    1.05
  -4  -4  -3   11.24    1.08
  -4  -4  -3    9.59    1.37
   4  -4   3   12.45    1.09
  -4   4  -3   10.01    1.04
  -4   4  -3   12.64    1.27
   4   4   3   10.15    1.00
  -5  -4  -3   66.40    3.16
  -5  -4  -3   72.33    3.07
   5  -4   3   74.33    2.86
  -5  -4  -3   71.90    2.87
  -5   4  -3   65.37    2.63
   5   4   3   73.65    2.86
  -5   4  -3   68.90    2.85
  -6  -4  -3   21.01    1.77
  -6  -4  -3   18.80    1.46
  -6  -4  -3   18.09    1.70
   6  -4   3   19.92    1.55
  -6   4  -3   18.75    1.50
  -6   4  -3   20.23    1.33
   6   4   3   20.96    1.33
  -7  -4  -3    1.73    0.76
   7  -4   3    3.84    0.93
  -7  -4  -3    2.65    0.82
  -7  -4  -3    3.97    1.42
   7   4   3    1.45    0.78
  -7   4  -3    2.56    0.85
  -8  -4  -3    2.32    1.20
  -8  -4  -3    0.85    1.01
  -8  -4  -3    2.61    0.90
   8  -4   3    2.85    0.97
  -8   4  -3    2.34    0.91
   8   4   3    2.75    1.06
   9  -5  -3   -1.55    0.78
  -9  -5   3    0.47    0.90
  -9  -5   3   -1.40    1.68
  -9  -5   3   -0.70    1.34
  -9   5   3   -0.70    1.13
   9   5  -3    0.84    0.93
  -8  -5   3   20.74    2.10
   8  -5  -3   23.26    1.82
  -8  -5   3   20.50    2.04
  -8  -5   3   21.37    1.98
  -8   5   3   23.00    1.87
   8   5  -3   19.10    1.85
   7  -5  -3    2.14    0.88
  -7  -5   3    0.09    0.83
  -7  -5   3    2.42    1.16
  -7  -5   3    0.64    1.53
   7   5  -3    2.51    1.13
   7   5  -3    1.28    0.79
  -7   5   3    1.04    0.85
  -7   5   3    1.69    1.09
   6  -5  -3   17.68    1.58
  -6  -5   3   11.88    1.27
  -6  -5   3   12.63    1.56
  -6  -5   3   10.66    1.78
   6   5  -3   12.19    1.23
  -6   5   3   13.00    1.29
   6   5  -3   12.35    1.19
  -6   5   3   11.47    1.29
  -5  -5   3   56.21    3.06
   5  -5  -3   55.24    2.52
  -5  -5   3   48.62    2.64
   5  -5  -3   51.01    2.74
  -5  -5   3   53.75    2.76
   5   5  -3   50.09    2.38
  -5   5   3   53.80    2.74
   5   5  -3   51.35    2.46
   5   5  -3   48.85    2.67
  -5   5   3   46.79    2.30
   4  -5  -3   15.77    1.33
   4  -5  -3   16.98    1.34
  -4  -5   3   16.52    1.53
  -4  -5   3   15.31    1.38
  -4  -5   3   17.52    1.70
   4  -5  -3   15.20    1.14
   4   5  -3   16.88    1.48
  -4   5   3   17.76    1.45
   4   5  -3   14.61    1.32
  -4   5   3   17.86    1.58
   4   5  -3   18.91    1.51
   3  -5  -3    9.74    1.03
   3  -5  -3    8.07    1.01
  -3  -5   3    8.55    1.00
   3  -5  -3    8.63    1.14
  -3  -5   3    9.33    1.29
  -3  -5   3    9.08    1.01
  -3   5   3    9.63    1.27
   3   5  -3    8.21    1.14
   3   5  -3    7.27    1.07
   3   5  -3    6.53    1.01
  -3   5   3    8.78    0.97
   2  -5  -3    0.53    0.85
  -2  -5   3    0.08    0.89
  -2  -5   3    1.81    0.82
   2  -5  -3    1.21    0.68
  -2  -5   3   -0.03    0.58
   2  -5  -3    1.94    0.78
   2   5  -3    0.87    0.83
  -2   5   3    0.58    0.91
   2   5  -3    1.38    0.74
   2   5  -3    1.24    0.61
  -2   5   3    0.89    0.91
  -1  -5   3   70.50    2.62
   1  -5  -3   66.46    2.85
   1  -5  -3   65.71    2.75
  -1  -5   3   68.52    2.79
  -1  -5   3   68.21    2.78
   1  -5  -3   68.07    2.55
   1  -5  -3   64.34    2.77
   1   5  -3   64.86    2.73
  -1   5   3   63.47    2.88
  -1   5   3   68.80    2.90
   1   5  -3   61.85    2.79
   1   5  -3   63.62    2.85
   0  -5   3   19.74    1.29
   0  -5  -3   11.50    1.05
   0  -5  -3   17.24    1.53
   0  -5  -3   13.31    1.21
   0  -5   3   22.47    1.45
   0  -5   3   16.64    1.28
   0   5  -3   20.32    1.41
   0   5   3   22.41    1.67
   0   5  -3   17.66    1.43
   0   5   3   21.67    1.56
   1  -5   3   67.14    2.37
  -1  -5  -3   69.13    2.90
   1  -5   3   63.95    2.51
  -1  -5  -3   65.13    2.82
   1  -5   3   65.82    2.66
   1  -5   3   71.98    2.99
  -1  -5  -3   66.93    2.73
  -1  -5  -3   70.09    2.90
   1   5   3   68.03    2.89
   1   5   3   68.63    2.79
  -1   5  -3   69.97    2.99
  -1   5  -3   63.73    2.61
  -1   5  -3   65.24    2.79
  -2  -5  -3    7.75    0.99
  -2  -5  -3    9.15    1.00
  -2  -5  -3   10.32    1.21
  -2  -5  -3    9.48    0.97
   2  -5   3   10.21    0.80
   2  -5   3   10.17    1.21
  -2   5  -3   10.62    0.91
  -2   5  -3    7.41    1.15
  -2   5  -3    9.43    1.23
   2   5   3    8.63    1.12
  -3  -5  -3   96.57    3.71
   3  -5   3   95.98    3.59
  -3  -5  -3   92.18    3.77
  -3  -5  -3   96.31    3.64
   3   5   3   96.72    3.60
  -3   5  -3   93.35    3.70
  -3   5  -3   99.79    3.77
  -4  -5  -3    5.46    1.01
  -4  -5  -3    6.09    0.96
   4  -5   3    6.03    1.09
  -4  -5  -3    7.12    1.34
  -4   5  -3    7.00    0.95
   4   5   3    5.19    1.00
  -5  -5  -3   32.96    2.18
  -5  -5  -3   31.50    1.95
  -5  -5  -3   32.80    2.48
   5  -5   3   31.07    1.79
  -5   5  -3   31.04    1.99
  -5   5  -3   29.87    1.55
   5   5   3   34.42    2.02
  -6  -5  -3   12.23    1.78
   6  -5   3   12.15    1.32
  -6  -5  -3   14.42    1.54
  -6  -5  -3   11.51    1.27
  -6   5  -3   12.11    1.11
  -6   5  -3   10.40    1.31
   6   5   3   10.67    1.25
  -7  -5  -3    3.83    1.21
  -7  -5  -3    2.57    1.14
   7  -5   3    3.51    1.09
  -7  -5  -3    3.12    0.99
  -7   5  -3    5.53    1.13
   7   5   3    2.61    0.98
  -7  -6   3    3.35    1.21
  -7  -6   3    3.99    1.12
  -7  -6   3    4.52    1.35
   7  -6  -3    0.66    1.23
  -7   6   3    0.19    0.90
   7   6  -3    2.49    0.97
   7   6  -3    1.53    0.87
  -7   6   3    3.83    1.26
  -6  -6   3    2.25    0.89
   6  -6  -3    0.94    1.23
  -6  -6   3    2.69    1.10
  -6  -6   3    1.49    1.24
   6   6  -3    2.21    0.93
  -6   6   3    1.82    1.24
   6   6  -3    2.45    1.21
  -5  -6   3   11.05    1.28
  -5  -6   3    8.74    1.30
  -5  -6   3   10.41    1.45
  -5  -6   3   11.28    1.50
   5  -6  -3   10.42    1.26
  -5   6   3    9.66    1.54
   5   6  -3   10.95    1.45
  -5   6   3   10.49    1.31
   5   6  -3    8.62    1.25
   5   6  -3   11.40    1.28
   4  -6  -3   40.03    2.18
   4  -6  -3   52.74    2.74
  -4  -6   3   38.84    2.23
  -4  -6   3   38.88    2.26
  -4  -6   3   40.81    2.25
   4  -6  -3   43.98    2.19
  -4  -6   3   39.41    2.56
   4   6  -3   47.70    2.67
  -4   6   3   38.90    2.39
   4   6  -3   52.79    2.44
  -4   6   3   37.45    2.53
   3  -6  -3   10.10    1.16
   3  -6  -3    8.94    1.39
   3  -6  -3    9.57    0.98
  -3  -6   3   10.40    1.14
  -3  -6   3    8.28    1.27
  -3  -6   3    7.99    1.13
  -3  -6   3    8.35    1.29
  -3   6   3   10.47    1.34
  -3   6   3    8.99    1.17
   3   6  -3    9.00    1.11
   3   6  -3    9.61    1.28
   3   6  -3    9.08    1.44
   2  -6  -3   47.33    2.55
   2  -6  -3   48.52    2.37
  -2  -6   3   48.19    2.33
  -2  -6   3   44.42    2.23
   2  -6  -3   48.74    2.61
  -2  -6   3   48.86    2.20
  -2  -6   3   47.34    2.41
  -2   6   3   46.73    2.39
   2   6  -3   47.77    2.72
   2   6  -3   44.94    2.45
  -2   6   3   47.92    2.59
   2   6  -3   49.89    2.34
  -1  -6   3    3.46    1.17
   1  -6  -3    1.78    0.76
   1  -6  -3    1.80    0.76
   1  -6  -3    1.59    0.59
  -1  -6   3    1.32    0.81
   1  -6  -3    2.00    0.90
  -1  -6   3    1.25    0.70
  -1  -6   3    1.49    0.89
   1   6  -3    1.00    0.65
  -1   6   3    1.64    0.74
   1   6  -3    2.25    0.99
   1   6  -3    2.29    1.16
  -1   6   3    2.31    1.03
   0  -6   3   32.52    2.26
   0  -6  -3   31.48    2.07
   0  -6  -3   30.16    2.02
   0  -6   3   32.48    1.92
   0   6   3   34.08    2.10
   0   6  -3   33.01    2.27
   0   6   3   30.12    2.14
   0   6  -3   36.98    1.97
   0   6  -3   31.79    2.17
  -1  -6  -3   12.46    1.37
   1  -6   3   11.48    0.99
  -1  -6  -3   10.51    1.07
   1  -6   3   10.55    1.40
  -1  -6  -3   13.47    1.39
  -1  -6  -3    9.50    1.17
  -1   6  -3   11.00    1.12
   1   6   3   12.08    1.38
  -1   6  -3   12.36    1.25
  -1   6  -3   11.52    1.44
  -2  -6  -3   86.69    3.66
   2  -6   3   93.32    3.83
  -2  -6  -3   95.78    3.83
  -2  -6  -3   98.40    3.82
   2  -6   3   89.11    3.25
   2   6   3   91.30    3.80
  -2   6  -3   87.68    3.83
  -2   6  -3   93.52    3.86
  -3  -6  -3    9.29    1.13
  -3  -6  -3    9.33    1.40
  -3  -6  -3   12.36    1.28
   3  -6   3   11.47    1.39
  -3   6  -3   11.21    1.47
  -3   6  -3   11.86    1.43
   3   6   3   10.52    1.15
  -4  -6  -3    5.90    1.35
  -4  -6  -3    5.62    1.17
   4  -6   3    5.87    1.21
  -4  -6  -3    4.70    0.98
   4   6   3    6.80    1.19
  -4   6  -3    5.80    1.26
  -5  -6  -3    0.28    0.79
   5  -6   3   -0.83    1.02
  -5  -6  -3   -0.06    0.68
  -5  -6  -3   -0.54    0.83
  -5   6  -3    0.01    1.02
   5   6   3    0.78    0.72
  -6  -6  -3   37.55    2.38
  -6  -6  -3   38.12    2.95
  -6  -6  -3   35.86    2.62
   6  -6   3   36.33    2.47
   6   6   3   37.03    2.45
  -6   6  -3   36.89    2.46
  -6  -7   3    1.52    1.51
  -6  -7   3    3.53    1.45
   6  -7  -3    2.69    1.45
  -6  -7   3   -0.20    0.92
   6   7  -3    1.47    1.32
  -6   7   3    0.98    1.02
   6   7  -3    2.83    1.04
  -5  -7   3   34.51    2.30
   5  -7  -3   30.08    2.27
  -5  -7   3   33.14    2.56
  -5  -7   3   31.69    2.58
  -5  -7   3   39.80    3.05
  -5   7   3   39.47    2.73
   5   7  -3   27.49    2.17
   5   7  -3   36.26    2.31
   4  -7  -3   14.17    1.76
  -4  -7   3   13.17    1.43
  -4  -7   3   12.30    1.65
   4  -7  -3   13.56    1.35
  -4  -7   3   11.82    1.55
  -4  -7   3   14.44    1.47
   4   7  -3   13.38    1.44
   4   7  -3   14.90    1.37
  -4   7   3   12.83    1.55
   4   7  -3   15.80    1.80
  -4   7   3   14.81    1.79
   3  -7  -3    9.61    1.23
  -3  -7   3   10.63    1.30
   3  -7  -3    8.13    1.48
   3  -7  -3    9.65    1.07
  -3  -7   3   10.06    1.42
  -3  -7   3    9.62    1.32
  -3  -7   3   11.28    1.33
   3   7  -3    9.08    1.16
   3   7  -3   11.93    1.65
   3   7  -3   11.38    1.50
  -3   7   3    9.93    1.56
  -3   7   3    9.43    1.46
  -2  -7   3    3.97    1.04
   2  -7  -3    3.90    0.95
  -2  -7   3    4.62    0.91
  -2  -7   3    6.01    1.00
   2  -7  -3    4.08    1.01
   2  -7  -3    5.02    0.90
  -2   7   3    8.81    1.39
   2   7  -3    5.30    1.41
   2   7  -3    3.53    0.98
   2   7  -3    5.08    1.22
  -2   7   3    7.49    1.40
   1  -7  -3    6.28    1.35
   1  -7  -3    8.41    1.26
  -1  -7   3    6.74    1.14
   1  -7  -3    7.68    1.37
  -1  -7   3    7.76    1.48
  -1  -7   3    6.17    1.02
  -1   7   3    6.61    1.09
   1   7  -3    4.83    1.41
  -1   7   3    7.27    1.13
   1   7  -3    6.35    1.24
   1   7  -3    7.26    1.37
   0  -7   3    2.90    1.30
   0  -7  -3    2.54    1.14
   0  -7  -3    0.42    1.07
   0  -7   3    1.62    0.64
   0  -7  -3    2.80    1.08
   0  -7  -3    3.22    0.84
   0   7  -3    3.86    1.02
   0   7   3    2.58    0.92
   0   7  -3   -0.11    0.86
   0   7  -3    4.39    1.22
  -1  -7  -3   19.09    1.54
   1  -7   3   17.18    1.33
  -1  -7  -3   20.65    1.75
   1  -7   3   14.67    1.73
  -1  -7  -3   18.18    1.62
   1   7   3   15.95    1.67
  -1   7  -3   14.42    1.70
  -1   7  -3   16.56    1.79
  -2  -7  -3    3.33    1.17
  -2  -7  -3    2.91    0.94
   2  -7   3    3.17    1.00
  -2  -7  -3    4.13    1.10
  -2   7  -3    2.78    1.32
   2   7   3    3.42    1.20
  -2   7  -3    3.10    0.99
  -3  -7  -3   34.37    2.43
  -3  -7  -3   38.15    2.43
  -3  -7  -3   27.17    2.07
   3  -7   3   28.15    2.40
   3   7   3   34.52    2.41
  -3   7  -3   28.57    2.41
  -4  -7  -3    4.46    1.31
  -4  -7  -3    4.06    1.40
   4  -7   3    7.82    1.51
  -4  -7  -3    6.59    1.18
   4   7   3    3.16    1.27
  -4   7  -3    5.79    1.47
   3  -8  -3   19.95    2.05
  -3  -8   3   18.62    2.02
  -3  -8   3   18.69    1.75
   3  -8  -3   17.02    1.65
  -3  -8   3   17.46    1.86
   3   8  -3   18.92    1.69
  -3   8   3   18.60    1.92
   3   8  -3   15.17    1.84
   3   8  -3   19.87    2.10
  -3   8   3   20.32    1.87
  -2  -8   3   14.37    1.46
   2  -8  -3   15.08    1.85
   2  -8  -3   12.88    1.78
  -2  -8   3   16.03    1.66
   2  -8  -3   16.64    1.65
   2   8  -3   15.73    1.81
  -2   8   3   19.48    1.94
   2   8  -3   17.47    1.61
   2   8  -3   16.24    2.01
  -2   8   3   15.58    1.92
   1  -8  -3   -0.92    0.79
  -1  -8   3   -1.84    1.29
   1  -8  -3    0.73    1.25
   1  -8  -3    0.71    1.13
  -1  -8   3   -1.62    0.94
  -1   8   3    0.27    1.25
   1   8  -3   -0.56    0.77
   1   8  -3    0.48    0.99
   1   8  -3   -1.32    1.19
   0  -8   3    1.07    0.66
   0  -8   3    0.69    1.00
   0  -8  -3   -0.99    1.06
   0  -8  -3    0.74    1.21
   0   8  -3   -0.45    0.84
   0   8   3   -0.62    1.23
   0   8  -3   -0.32    1.35
  -1  -8  -3   22.89    1.86
  -1  -8  -3   22.15    1.99
   1  -8   3   16.52    1.69
   1  -8   3   18.63    1.41
  -1   8  -3   20.18    2.03
  -1   8  -3   17.59    2.10
   1   8   3   17.73    1.70
 -11   0   4    1.45    1.17
  11   0  -4   -0.34    0.83
 -11   0   4    3.88    1.57
  11   0  -4    1.32    0.95
  11   0  -4   -0.85    1.11
 -11   0   4   -1.16    0.95
 -11   0   4    1.86    1.29
  10   0  -4   54.28    2.87
 -10   0   4   50.21    2.81
  10   0  -4   51.57    2.73
 -10   0   4   46.59    2.92
 -10   0   4   52.66    2.94
  10   0  -4   55.02    2.63
  -9   0   4   -0.01    0.68
  -9   0   4   -0.03    0.73
  -9   0   4    1.00    1.50
   9   0  -4    0.11    0.77
   9   0  -4    0.57    0.82
   9   0  -4    0.40    0.69
  -8   0   4  107.86    4.01
  -8   0   4   99.55    3.85
   8   0  -4  104.60    3.83
   8   0  -4   97.66    4.12
  -8   0   4   86.92    4.35
   7   0  -4    0.54    0.55
  -7   0   4    0.13    1.02
  -7   0   4   -0.50    0.57
  -7   0   4   -0.63    0.56
   7   0  -4   -0.35    0.81
  -7   0   4   -0.40    0.84
   7   0  -4   -1.04    0.69
   6   0  -4  197.37    6.61
  -6   0   4  207.37    6.63
  -6   0   4  200.14    6.65
   6   0  -4  196.52    6.73
   6   0  -4  199.57    6.67
  -6   0   4  207.30    6.69
   5   0  -4    0.10    0.68
  -5   0   4    0.33    0.54
   5   0  -4   -1.26    0.64
  -5   0   4   -0.42    0.47
   5   0  -4   -0.21    0.80
  -5   0   4   -0.53    0.64
   4   0  -4  108.39    3.64
  -4   0   4   99.71    3.65
   4   0  -4  104.01    3.68
   4   0  -4  103.98    3.57
  -4   0   4  103.83    3.67
  -4   0   4  102.60    3.57
  -3   0   4   -0.47    0.46
   3   0  -4    0.89    0.66
  -3   0   4    0.25    0.54
   3   0  -4   -0.17    0.58
   3   0  -4    1.03    0.55
  -3   0   4    0.37    0.62
   3   0  -4   -0.07    0.37
   2   0  -4  254.37    7.84
   2   0  -4  245.91    7.84
   2   0  -4  249.66    7.88
   2   0  -4  248.78    7.79
  -2   0   4  259.28    7.83
  -2   0   4  247.53    7.82
  -2   0   4  253.82    7.72
   1   0  -4    0.24    0.47
  -1   0   4    0.07    0.27
  -1   0   4   -0.15    0.44
  -1   0   4    0.33    0.34
   1   0  -4   -0.12    0.29
   1   0  -4   -0.06    0.31
   0   0  -4   67.28    2.17
   0   0   4   56.18    2.05
   0   0   4   58.29    2.02
   0   0  -4   61.66    2.05
   0   0   4   70.00    1.96
   0   0  -4   58.55    2.05
  -1   0  -4   -0.04    0.15
  -1   0  -4   -0.03    0.14
   1   0   4    0.02    0.13
   1   0   4   -0.09    0.13
  -1   0  -4    0.34    0.54
  -1   0  -4   -0.25    0.28
  -2   0  -4  132.90    4.45
  -2   0  -4  133.98    4.17
  -2   0  -4  133.34    4.21
  -3   0  -4    0.62    0.63
  -3   0  -4   -0.29    0.21
  -3   0  -4    0.43    0.36
  -4   0  -4  145.60    5.01
  -4   0  -4  144.07    4.58
   5   0   4   -0.05    0.13
  -5   0  -4    0.34    0.31
  -5   0  -4    0.06    0.16
  -5   0  -4    0.14    0.16
  -5   0  -4    1.76    0.82
   6   0   4   81.35    2.62
  -6   0  -4   81.51    3.40
  -7   0  -4    1.31    0.96
   7   0   4   -0.96    0.40
  -8   0  -4   24.51    1.29
  -8   0  -4   25.29    1.79
   8   0   4   21.26    1.24
  -9   0  -4    0.12    0.63
   9   0   4    1.02    0.66
  -9   0  -4    0.86    1.14
 -11  -1   4   16.14    1.54
 -11  -1   4   17.39    1.67
  11  -1  -4   17.83    2.07
 -11  -1   4   12.18    2.12
  11  -1  -4   17.50    1.82
 -11   1   4   17.01    1.77
  11   1  -4   13.67    1.71
 -11   1   4   17.74    1.83
 -11   1   4   14.59    1.54
  11   1  -4   17.80    1.66
 -10  -1   4    1.71    1.58
 -10  -1   4    0.36    0.77
 -10  -1   4   -0.18    1.01
  10  -1  -4    0.13    0.96
  10  -1  -4    0.75    1.08
 -10  -1   4    1.77    1.20
  10   1  -4    1.26    1.09
  10   1  -4    1.52    0.89
 -10   1   4    1.16    1.33
  10   1  -4    1.60    0.81
 -10   1   4    1.40    1.10
 -10   1   4    0.35    0.79
  -9  -1   4   76.02    3.85
   9  -1  -4   81.26    3.65
  -9  -1   4   83.31    3.66
   9  -1  -4   82.97    3.58
  -9  -1   4   83.74    3.47
   9   1  -4   85.51    3.61
   9   1  -4   81.18    3.65
   9   1  -4   89.20    3.37
  -9   1   4   70.90    3.80
  -9   1   4   90.24    3.66
   8  -1  -4   86.94    3.63
  -8  -1   4   85.74    3.37
  -8  -1   4   83.63    3.50
   8  -1  -4   81.07    3.33
  -8  -1   4   81.65    4.12
   8   1  -4   89.29    3.63
  -8   1   4   67.13    3.72
   8   1  -4   84.04    3.48
  -8   1   4   85.30    3.36
   8   1  -4   86.87    3.32
   7  -1  -4   31.75    2.55
  -6  -1   4   40.95    2.13
  -6  -1   4   42.76    2.16
  -6  -1   4   41.34    2.89
   6  -1  -4   40.37    2.05
  -6  -1   4   38.78    2.11
   6  -1  -4   43.32    2.16
   6  -1  -4   44.90    2.27
   6   1  -4   39.19    1.93
   6   1  -4   41.90    2.28
  -6   1   4   46.49    2.11
   6   1  -4   40.87    1.96
  -6   1   4   41.52    2.12
   6   1  -4   41.57    1.87
  -5  -1   4  291.65    9.14
   5  -1  -4  283.24    9.23
   5  -1  -4  292.58    9.17
  -5  -1   4  291.82    9.10
   5  -1  -4  286.19    9.13
  -5  -1   4  285.77    9.19
   5   1  -4  293.43    9.19
  -5   1   4  278.91    9.05
   5   1  -4  279.85    9.21
   5   1  -4  278.64    9.09
  -5   1   4  290.46    9.09
   5   1  -4  299.51    9.12
  -4  -1   4   47.60    1.94
   4  -1  -4   43.32    2.29
  -4  -1   4   44.97    2.02
   4  -1  -4   43.88    1.89
   4  -1  -4   45.97    1.91
  -4  -1   4   45.50    2.08
  -4   1   4   45.99    2.04
   4   1  -4   46.33    2.00
   4   1  -4   46.74    2.06
   4   1  -4   46.91    1.97
   4   1  -4   45.14    2.14
  -4   1   4   45.11    1.84
   3  -1  -4    4.45    0.71
  -3  -1   4    5.96    0.82
  -3  -1   4    6.59    0.63
   3  -1  -4    5.02    0.74
  -3  -1   4    5.20    0.62
   3  -1  -4    4.14    0.87
   3   1  -4    4.22    0.69
   3   1  -4    3.82    0.66
   3   1  -4    4.98    0.66
  -3   1   4    4.72    0.75
  -3   1   4    5.41    0.55
   2  -1  -4  302.04    9.26
   2  -1  -4  292.72    9.35
  -2  -1   4  305.22    9.27
   2  -1  -4  300.09    9.29
  -2  -1   4  301.30    9.29
  -2  -1   4  303.39    9.16
  -2   1   4  301.33    9.26
   2   1  -4  301.07    9.31
   2   1  -4  296.26    9.32
   2   1  -4  299.48    9.24
  -1  -1   4  551.87   16.54
   1  -1  -4  531.45   16.53
  -1  -1   4  528.34   16.38
   1  -1  -4  589.93   16.51
   1  -1  -4  566.96   16.57
  -1  -1   4  530.68   16.48
   1   1  -4  535.88   16.57
  -1   1   4  521.44   16.50
   1   1  -4  523.25   16.45
   1   1  -4  590.73   16.59
   0  -1  -4    9.94    0.66
   0  -1   4    9.84    0.66
   0  -1   4   10.01    0.74
   0  -1  -4   10.00    0.84
   0  -1  -4   10.05    0.54
   0  -1  -4    9.62    0.85
   0   1   4    9.72    0.65
   0   1  -4   10.06    0.47
   0   1  -4   10.08    0.81
   0   1  -4   11.36    0.72
   0   1  -4   10.35    0.61
  -1  -1  -4    0.18    0.42
   1  -1   4    0.28    0.22
  -1  -1  -4    0.74    0.25
   1  -1   4    0.29    0.23
  -1  -1  -4    0.10    0.57
  -1  -1  -4    0.36    0.26
  -1   1  -4    0.84    0.30
  -1   1  -4    0.03    0.28
   1   1   4    0.46    0.26
  -1   1  -4    0.35    0.19
   1   1   4    0.87    0.24
  -2  -1  -4   14.95    1.20
  -2  -1  -4   15.18    0.59
   2  -1   4   13.99    0.55
  -2  -1  -4   14.15    0.58
   2  -1   4   14.35    0.52
  -2  -1  -4   13.46    0.79
  -2   1  -4   14.71    0.55
  -2   1  -4   13.75    0.86
   2   1   4   13.77    0.59
  -2   1  -4   13.90    0.57
   2   1   4   14.71    0.58
  -2   1  -4   14.41    1.03
  -3  -1  -4  262.36    7.81
  -3  -1  -4  261.67    7.81
  -3  -1  -4  259.18    8.08
  -3  -1  -4  263.36    8.38
   3   1   4  258.29    7.78
   3   1   4  251.38    7.78
  -3   1  -4  254.99    7.74
  -3   1  -4  254.53    8.20
  -3   1  -4  266.88    7.74
  -3   1  -4  261.45    8.03
  -4  -1  -4    9.03    0.97
  -4  -1  -4    9.30    0.49
  -4  -1  -4    9.28    0.74
  -4  -1  -4    9.00    0.49
   4  -1   4    8.66    0.37
  -4   1  -4    9.52    0.84
  -4   1  -4    8.79    0.42
  -4   1  -4    9.99    0.76
  -4   1  -4    9.56    0.42
   4   1   4    9.12    0.47
   4   1   4    8.58    0.48
  -5  -1  -4   19.01    1.10
  -5  -1  -4   18.26    0.82
   5  -1   4   17.10    0.73
   5  -1   4   17.44    0.74
  -5  -1  -4   17.04    0.79
  -5  -1  -4   16.58    1.47
  -5   1  -4   17.34    0.76
  -5   1  -4   15.59    1.37
  -5   1  -4   17.49    0.75
   5   1   4   16.93    0.80
   6  -1   4    0.68    0.32
  -6   1  -4    1.05    0.34
  -7  -1  -4  106.82    4.42
  -7  -1  -4  112.72    3.78
   7  -1   4  108.60    3.70
   7   1   4  115.86    3.77
  -7   1  -4  122.70    4.36
   8  -1   4   11.84    1.04
  -8  -1  -4   12.14    1.63
  -8  -1  -4   12.18    0.99
  -8   1  -4   12.52    1.39
   8   1   4   11.13    0.92
  -9  -1  -4    6.79    1.29
  -9   1  -4    4.26    0.96
 -10  -2   4   12.33    1.62
  10  -2  -4   16.10    1.48
 -10  -2   4   11.50    1.77
  10  -2  -4   13.64    1.74
 -10  -2   4   14.53    1.48
 -10   2   4   13.71    1.42
  10   2  -4   12.76    1.60
  10   2  -4   12.90    1.28
 -10   2   4   13.70    1.68
  -9  -2   4   34.72    2.33
   9  -2  -4   29.38    2.25
  -9  -2   4   32.66    2.23
  -9  -2   4   30.86    2.70
   9  -2  -4   34.32    3.07
  -9   2   4   32.30    2.28
  -9   2   4   30.60    2.33
   9   2  -4   30.54    1.84
   9   2  -4   32.68    2.27
  -8  -2   4  111.45    4.38
  -8  -2   4  106.76    4.96
   8  -2  -4  113.57    4.32
   8   2  -4  114.81    4.08
  -8   2   4   95.76    4.17
  -8   2   4  119.42    4.22
   8   2  -4  116.34    4.37
   7  -2  -4    1.72    0.71
   7  -2  -4    2.88    0.66
  -7  -2   4    1.85    1.19
  -7  -2   4    2.23    0.95
  -7   2   4    1.31    1.20
  -7   2   4    2.24    0.85
   7   2  -4    2.46    0.69
  -7   2   4    3.89    1.00
   7   2  -4    2.34    0.58
   7   2  -4    2.51    0.97
   6  -2  -4   21.51    1.55
  -6  -2   4   18.73    2.08
  -6  -2   4   18.60    1.62
   6  -2  -4   20.08    1.67
   6   2  -4   21.29    1.42
   6   2  -4   20.34    1.38
   6   2  -4   20.81    1.68
  -6   2   4   19.77    1.61
  -6   2   4   22.62    1.66
   5  -2  -4  102.49    3.81
  -5  -2   4  106.96    3.82
   5  -2  -4  103.67    3.82
  -5  -2   4   96.83    4.42
  -5  -2   4  106.05    3.89
   5   2  -4  104.48    3.74
   5   2  -4  102.25    3.75
  -5   2   4  106.98    3.73
  -5   2   4  106.72    3.80
   5   2  -4  111.35    3.83
  -4  -2   4  431.52   13.52
   4  -2  -4  449.49   13.54
   4  -2  -4  435.58   13.49
  -4  -2   4  435.25   13.49
   4   2  -4  430.19   13.49
  -4   2   4  437.49   13.43
   4   2  -4  439.58   13.47
   4   2  -4  441.86   13.58
  -4   2   4  424.02   13.45
   3  -2  -4    1.17    0.64
  -3  -2   4    1.10    0.59
   3  -2  -4    0.51    0.64
  -3  -2   4    0.74    0.56
   3   2  -4    0.15    0.40
   3   2  -4    0.72    0.69
  -3   2   4    0.70    0.46
   3   2  -4    0.60    0.44
  -2  -2   4  103.30    3.54
   2  -2  -4  102.26    3.52
   2  -2  -4  102.36    3.53
   2  -2  -4  103.12    3.50
  -2  -2   4  103.32    3.53
  -2   2   4  105.52    3.51
   2   2  -4  101.25    3.51
   2   2  -4  102.95    3.49
   2   2  -4  103.24    3.57
  -1  -2   4  123.64    3.90
   1  -2  -4  121.90    4.00
  -1  -2   4  114.75    4.01
   1  -2  -4  119.29    4.02
   1  -2  -4  118.48    4.01
   1  -2  -4  113.83    3.92
  -1   2   4  122.41    3.97
   1   2  -4  120.84    3.89
   1   2  -4  120.14    3.99
   1   2  -4  122.97    4.04
   0  -2  -4  382.11   12.28
   0  -2  -4  407.35   12.09
   0  -2  -4  388.30   12.16
   0  -2   4  390.41   12.06
   0  -2  -4  412.14   12.26
   0  -2   4  390.20   12.14
   0  -2  -4  408.60   12.11
   0   2  -4  394.20   12.04
   0   2  -4  416.21   12.21
   0   2   4  398.17   12.14
   0   2  -4  393.61   12.24
  -1  -2  -4   29.01    1.18
  -1  -2  -4   33.00    1.32
  -1  -2  -4   32.37    1.41
   1  -2   4   30.64    1.36
  -1  -2  -4   32.17    1.65
  -1   2  -4   31.69    1.26
  -1   2  -4   33.21    1.34
   1   2   4   31.82    1.30
  -1   2  -4   30.83    1.49
  -2  -2  -4  183.22    5.63
  -2  -2  -4  186.49    6.11
  -2  -2  -4  187.69    5.79
  -2  -2  -4  179.38    5.95
   2  -2   4  183.52    5.72
  -2  -2  -4  184.37    5.77
  -2   2  -4  186.95    5.77
   2   2   4  188.36    5.76
   2   2   4  186.00    5.75
  -2   2  -4  183.64    5.74
  -2   2  -4  181.44    5.61
  -2   2  -4  184.62    5.94
  -3  -2  -4   64.92    2.22
  -3  -2  -4   63.22    2.20
  -3  -2  -4   64.23    2.47
  -3  -2  -4   62.25    2.63
   3  -2   4   62.96    2.15
  -3   2  -4   61.04    2.09
   3   2   4   65.07    2.19
  -3   2  -4   65.63    2.17
  -3   2  -4   68.00    2.39
   3   2   4   61.30    2.21
  -3   2  -4   65.98    2.23
  -4  -2  -4   44.58    2.37
  -4  -2  -4   45.13    1.69
   4  -2   4   43.97    1.61
  -4  -2  -4   46.34    1.68
  -4  -2  -4   44.33    1.97
  -4   2  -4   43.51    1.90
  -4   2  -4   46.13    1.66
   4   2   4   45.26    1.69
  -4   2  -4   43.22    1.68
  -4   2  -4   45.75    1.66
  -4   2  -4   46.22    1.92
   4   2   4   45.20    1.66
  -5  -2  -4    5.18    0.94
  -5  -2  -4    7.09    0.86
   5  -2   4    6.48    0.59
  -5  -2  -4    6.86    0.64
  -5   2  -4    6.54    0.62
  -5   2  -4    5.86    0.56
  -5   2  -4    6.56    0.83
   5   2   4    5.53    0.54
  -6  -2  -4   44.18    1.75
  -6  -2  -4   43.70    2.37
   6  -2   4   45.77    1.76
  -6  -2  -4   44.04    2.04
   6   2   4   43.74    1.72
  -6   2  -4   42.74    2.03
  -6   2  -4   39.57    1.68
  -6   2  -4   43.34    1.78
   7  -2   4   12.82    1.10
  -7  -2  -4   15.31    1.12
  -7  -2  -4   16.48    1.26
  -7  -2  -4   14.94    1.55
  -7   2  -4   12.65    1.04
   7   2   4   13.25    1.09
  -7   2  -4   14.02    1.24
   8  -2   4   -1.27    0.60
  -8  -2  -4   -0.07    0.50
  -8  -2  -4    1.07    1.30
  -8   2  -4    1.42    0.64
   8   2   4    0.55    0.52
 -10  -3   4   21.04    1.96
 -10  -3   4   21.36    2.07
 -10  -3   4   20.13    2.20
  10  -3  -4   19.27    1.89
  10   3  -4   23.43    2.01
 -10   3   4   19.59    1.72
  -9  -3   4    3.04    1.31
   9  -3  -4    1.76    0.86
  -9  -3   4    5.92    1.13
  -9  -3   4    2.39    1.16
   9   3  -4    2.71    0.84
   9   3  -4    3.80    1.23
  -9   3   4    4.63    1.24
  -8  -3   4    3.02    1.12
  -8  -3   4    4.39    1.32
   8  -3  -4    4.15    0.88
  -8   3   4    4.36    1.01
  -8   3   4    3.31    0.87
   8   3  -4    3.25    1.08
  -7  -3   4   76.79    3.61
   7  -3  -4   78.66    3.25
  -7  -3   4   69.80    3.30
  -7  -3   4   76.38    3.29
   7   3  -4   69.81    3.21
  -7   3   4   77.96    3.07
   7   3  -4   73.49    2.97
  -7   3   4   66.22    3.08
   7   3  -4   74.84    3.25
  -7   3   4   73.83    3.06
   6  -3  -4    1.13    0.70
  -6  -3   4   -1.43    1.50
  -6  -3   4    1.65    0.93
  -6  -3   4    0.80    1.03
   6  -3  -4    1.39    0.62
   6   3  -4    1.20    0.93
  -6   3   4    1.47    0.92
   6   3  -4    0.53    0.65
  -6   3   4    2.24    0.66
   6   3  -4    1.54    0.72
  -5  -3   4   43.86    2.30
   5  -3  -4   44.24    2.21
   5  -3  -4   45.22    2.29
  -5  -3   4   41.86    3.03
   5   3  -4   46.81    2.12
   5   3  -4   45.27    2.17
  -5   3   4   49.72    2.30
   5   3  -4   48.07    2.32
  -5   3   4   49.24    2.30
  -4  -3   4    3.39    0.67
   4  -3  -4    3.35    0.87
   4  -3  -4    3.71    0.67
  -4  -3   4    4.23    1.13
   4   3  -4    3.47    0.75
   4   3  -4    3.41    0.62
  -4   3   4    3.97    0.88
   4   3  -4    3.64    0.83
  -3  -3   4  221.12    7.30
   3  -3  -4  223.50    7.26
   3  -3  -4  228.03    7.22
   3  -3  -4  224.56    7.27
   3   3  -4  222.90    7.22
   3   3  -4  222.34    7.37
   3   3  -4  222.38    7.25
  -3   3   4  235.06    7.30
   2  -3  -4   46.65    1.89
   2  -3  -4   45.67    1.90
  -2  -3   4   47.46    1.89
   2  -3  -4   43.67    1.92
  -2   3   4   44.69    2.02
   2   3  -4   47.20    2.15
   2   3  -4   46.64    1.94
  -2   3   4   45.81    2.06
   2   3  -4   43.84    2.02
  -1  -3   4   74.86    2.61
   1  -3  -4   71.61    2.68
   1  -3  -4   75.70    2.76
   1  -3  -4   73.57    2.68
   1  -3  -4   72.29    2.72
   1   3  -4   73.70    2.79
   1   3  -4   70.59    2.56
  -1   3   4   70.31    2.73
  -1   3   4   72.02    2.69
   1   3  -4   72.92    2.73
   0  -3   4  113.08    3.46
   0  -3   4   98.32    3.45
   0  -3  -4   97.68    3.58
   0  -3  -4  122.15    3.66
   0  -3  -4   97.48    3.60
   0  -3  -4  117.63    3.54
   0   3  -4   99.50    3.57
   0   3  -4   94.61    3.59
   0   3  -4   99.82    3.43
   0   3   4   98.38    3.52
  -1  -3  -4   53.10    2.14
  -1  -3  -4   52.09    1.89
  -1  -3  -4   52.46    2.32
   1  -3   4   53.70    1.86
  -1  -3  -4   54.99    2.11
  -1  -3  -4   51.82    1.92
   1   3   4   53.34    2.10
  -1   3  -4   53.24    2.14
  -1   3  -4   53.55    1.87
  -1   3  -4   51.53    2.13
  -2  -3  -4   48.63    1.96
  -2  -3  -4   49.93    2.05
  -2  -3  -4   47.99    2.18
   2  -3   4   49.09    1.62
   2   3   4   46.74    1.94
  -2   3  -4   46.68    2.02
  -2   3  -4   49.78    1.99
  -3  -3  -4   82.20    3.32
  -3  -3  -4   78.26    2.82
  -3  -3  -4   77.90    3.05
  -3   3  -4   79.45    2.84
  -3   3  -4   75.44    2.63
   3   3   4   80.91    2.82
  -3   3  -4   78.16    2.95
   4  -3   4    2.65    0.61
  -4  -3  -4    1.78    0.79
  -4  -3  -4    1.32    0.52
  -4   3  -4    1.24    0.56
   4   3   4    1.29    0.53
  -4   3  -4    1.49    0.41
  -4   3  -4    1.89    0.76
  -5  -3  -4    6.87    1.27
  -5  -3  -4    6.94    0.74
  -5  -3  -4    6.55    0.82
   5  -3   4    6.29    0.72
  -5   3  -4    5.87    0.63
  -5   3  -4    5.76    0.71
   5   3   4    6.74    0.72
  -6  -3  -4  131.64    5.27
  -6  -3  -4  130.29    4.53
  -6  -3  -4  137.65    4.81
   6  -3   4  133.33    4.50
  -6   3  -4  133.18    4.51
   6   3   4  130.97    4.54
   7  -3   4   20.70    1.52
  -7  -3  -4   23.08    1.40
  -7  -3  -4   20.80    1.47
  -7  -3  -4   26.64    2.41
  -7   3  -4   19.84    1.35
   7   3   4   24.40    1.40
  -8  -3  -4    1.82    0.69
  -8  -3  -4    2.01    1.45
   8  -3   4    1.65    0.72
  -8  -3  -4    1.92    0.91
   8   3   4    2.98    0.84
  -8   3  -4    0.00    0.63
  -9  -4   4    4.52    1.32
   9  -4  -4    4.09    1.29
  -9  -4   4    2.48    1.08
  -9  -4   4    3.72    1.80
   9   4  -4    3.50    1.08
  -9   4   4    4.98    1.02
   9   4  -4    2.23    1.25
  -8  -4   4   15.74    1.61
  -8  -4   4   17.26    1.72
   8  -4  -4   21.24    1.78
  -8  -4   4   15.49    1.85
   8   4  -4   22.21    1.58
   8   4  -4   20.65    1.72
  -8   4   4   18.09    1.52
  -7  -4   4   44.55    2.52
   7  -4  -4   44.48    2.25
  -7  -4   4   42.79    2.36
  -7  -4   4   38.58    2.68
   7   4  -4   39.23    2.50
   7   4  -4   40.63    1.98
  -7   4   4   40.59    2.18
  -7   4   4   42.20    2.16
  -6  -4   4   15.48    1.42
   6  -4  -4   15.39    1.39
   6  -4  -4   16.19    1.49
  -6  -4   4   17.14    2.01
  -6  -4   4   14.99    1.39
   6   4  -4   15.12    1.49
   6   4  -4   17.23    1.55
  -6   4   4   15.02    1.29
   6   4  -4   15.43    1.29
  -6   4   4   15.41    1.39
   5  -4  -4    1.32    0.88
  -5  -4   4    0.58    1.01
   5  -4  -4    2.97    1.03
  -5  -4   4   -1.19    1.43
  -5  -4   4    0.00    0.65
  -5   4   4    1.62    0.67
   5   4  -4    0.76    0.67
   5   4  -4   -0.27    0.94
   5   4  -4    1.77    0.83
  -5   4   4    0.20    0.97
  -4  -4   4    1.65    0.98
  -4  -4   4    0.76    1.37
   4  -4  -4    1.82    0.93
  -4  -4   4   -0.79    0.79
   4  -4  -4    0.19    0.60
   4   4  -4    0.96    0.69
  -4   4   4    0.96    0.86
   4   4  -4   -0.98    0.72
   4   4  -4    1.00    0.82
  -4   4   4    0.09    0.88
   3  -4  -4   57.27    2.60
  -3  -4   4   58.25    2.59
  -3  -4   4   59.85    2.57
  -3  -4   4   55.04    3.07
   3  -4  -4   58.63    2.62
   3  -4  -4   61.10    2.49
   3   4  -4   57.77    2.42
   3   4  -4   56.98    2.55
  -3   4   4   57.50    2.63
  -3   4   4   60.03    2.48
   3   4  -4   61.07    2.56
   2  -4  -4   25.89    1.52
   2  -4  -4   28.19    1.53
   2  -4  -4   26.07    1.62
  -2  -4   4   30.91    1.65
  -2  -4   4   27.80    1.47
   2   4  -4   27.96    1.61
   2   4  -4   27.69    1.73
   2   4  -4   25.52    1.61
  -2   4   4   27.15    1.77
  -2   4   4   28.91    1.75
   1  -4  -4   17.62    1.37
   1  -4  -4   17.91    1.40
  -1   4   4   16.93    1.36
  -1   4   4   16.91    1.46
   1   4  -4   16.50    1.21
   0  -4   4   50.62    1.93
   0  -4  -4   53.29    2.16
   0  -4  -4   52.67    2.14
   0  -4  -4   49.07    2.26
   0  -4   4   49.51    2.06
   0  -4  -4   51.61    2.25
   0   4   4   52.44    2.18
   0   4  -4   48.85    2.18
   0   4  -4   47.24    1.94
   0   4  -4   50.06    2.18
   0   4   4   48.08    2.10
   1  -4   4   42.74    1.66
  -1  -4  -4   42.95    1.83
  -1  -4  -4   42.19    1.97
  -1  -4  -4   41.71    1.94
   1  -4   4   41.48    1.72
  -1  -4  -4   41.91    1.88
  -1   4  -4   43.32    1.71
  -1   4  -4   43.56    1.98
   1   4   4   40.67    2.01
  -1   4  -4   40.01    1.89
   1   4   4   41.38    1.83
  -2  -4  -4   62.97    2.82
   2  -4   4   61.13    2.08
  -2  -4  -4   63.55    2.46
  -2  -4  -4   60.83    2.08
  -2  -4  -4   59.74    2.66
   2   4   4   60.46    2.52
  -2   4  -4   61.05    2.57
  -2   4  -4   61.59    2.55
  -3  -4  -4    8.08    1.25
   3  -4   4    8.76    0.98
  -3  -4  -4    7.57    0.91
  -3  -4  -4    8.29    0.93
   3   4   4    8.63    0.94
  -3   4  -4    6.57    1.09
  -3   4  -4    8.00    0.98
  -4  -4  -4   99.05    4.16
   4  -4   4  101.56    3.67
  -4  -4  -4  100.30    3.91
  -4  -4  -4   98.72    3.69
  -4   4  -4  101.72    3.46
  -4   4  -4  103.78    3.71
   4   4   4  104.19    3.62
  -4   4  -4   97.30    3.85
   5  -4   4   69.17    2.86
  -5  -4  -4   72.94    2.90
  -5  -4  -4   70.86    3.29
  -5  -4  -4   79.19    3.07
   5   4   4   73.43    2.88
  -5   4  -4   71.54    2.69
  -5   4  -4   67.98    2.87
   6  -4   4    2.79    0.96
  -6  -4  -4    3.82    0.67
  -6  -4  -4    4.98    1.09
  -6  -4  -4    5.26    1.44
  -6   4  -4    5.49    0.90
   6   4   4    3.52    0.80
   7  -4   4    3.58    0.88
  -7  -4  -4    2.33    0.80
  -7  -4  -4    2.56    0.79
  -7  -4  -4    3.30    1.13
   7   4   4    2.62    0.82
  -7   4  -4    1.92    0.81
  -9  -5   4    2.23    1.73
  -9  -5   4   -0.02    1.41
   9  -5  -4    0.17    1.26
  -9  -5   4   -0.96    1.26
  -9   5   4   -0.23    0.88
   9   5  -4    1.55    1.33
   8  -5  -4   -1.44    0.76
  -8  -5   4   -0.22    1.30
  -8  -5   4    1.15    1.15
  -8  -5   4    2.44    1.72
  -8   5   4    2.03    0.85
   8   5  -4    1.31    1.22
   8   5  -4   -0.43    0.79
   7  -5  -4    2.56    0.93
  -7  -5   4    2.40    1.57
  -7   5   4    2.53    0.88
  -6  -5   4   89.99    4.12
  -6  -5   4   91.71    4.02
   6  -5  -4  103.39    4.04
  -6  -5   4   90.56    3.98
   6   5  -4   94.04    3.82
  -6   5   4   89.73    4.00
   6   5  -4   92.97    3.70
  -6   5   4   94.50    3.68
   6   5  -4   97.32    4.02
  -5  -5   4   -0.28    1.31
   5  -5  -4    1.38    0.93
  -5  -5   4    1.11    1.09
  -5  -5   4    0.55    0.98
   5  -5  -4   -0.18    1.02
   5   5  -4    1.43    1.08
   5   5  -4    0.25    0.84
   5   5  -4    1.22    0.71
  -5   5   4    1.34    0.78
  -5   5   4   -1.09    0.88
  -4  -5   4   87.39    3.70
   4  -5  -4   86.05    3.49
  -4  -5   4   86.55    3.51
  -4  -5   4   92.05    3.67
   4  -5  -4   88.03    3.41
   4  -5  -4   83.35    3.46
  -4   5   4   87.37    3.70
   4   5  -4   86.67    3.74
  -4   5   4   87.79    3.60
   4   5  -4   92.27    3.56
   4   5  -4   89.08    3.63
  -3  -5   4    3.15    1.26
  -3  -5   4    5.59    0.91
   3  -5  -4    6.51    0.95
   3  -5  -4    5.84    0.91
   3  -5  -4    6.58    0.84
  -3  -5   4    4.73    0.83
  -3   5   4    6.67    1.22
   3   5  -4    5.72    1.07
   3   5  -4    5.10    0.86
   3   5  -4    5.75    1.24
  -3   5   4    5.47    1.11
  -2  -5   4  182.67    6.28
   2  -5  -4  189.31    6.44
   2  -5  -4  188.83    6.43
   2  -5  -4  189.57    6.39
  -2  -5   4  188.16    6.43
  -2  -5   4  194.71    6.52
   2   5  -4  184.94    6.36
  -2   5   4  191.89    6.49
  -2   5   4  181.20    6.41
   2   5  -4  192.82    6.48
   2   5  -4  195.39    6.61
  -1  -5   4    8.19    0.96
   1  -5  -4    9.50    1.14
   1  -5  -4    9.42    1.18
   1  -5  -4    9.74    1.14
  -1  -5   4    6.26    1.07
   1  -5  -4    9.39    0.97
  -1  -5   4    7.09    0.82
   1   5  -4    8.91    1.02
   1   5  -4    7.33    1.21
   1   5  -4    8.97    1.19
  -1   5   4    8.14    1.17
  -1   5   4   10.85    1.17
   0  -5  -4  151.57    5.18
   0  -5  -4  145.94    5.21
   0  -5  -4  147.69    5.29
   0  -5   4  148.95    5.03
   0  -5   4  143.05    5.06
   0  -5   4  152.18    5.06
   0  -5  -4  154.60    5.23
   0   5   4  155.92    5.25
   0   5  -4  151.27    5.05
   0   5  -4  151.09    5.40
   0   5   4  151.92    5.29
   0   5  -4  147.41    5.26
  -1  -5  -4   26.55    1.78
  -1  -5  -4   26.13    1.81
  -1  -5  -4   26.54    1.63
  -1  -5  -4   26.18    1.62
   1  -5   4   28.33    1.37
   1  -5   4   27.91    1.50
  -1   5  -4   30.16    1.94
  -1   5  -4   27.50    1.45
  -1   5  -4   28.35    1.93
   1   5   4   28.33    1.85
  -2  -5  -4   18.37    1.56
  -2  -5  -4   17.05    1.30
  -2  -5  -4   18.71    1.53
   2  -5   4   18.05    1.03
   2  -5   4   22.39    1.75
   2   5   4   18.85    1.35
  -2   5  -4   19.23    1.50
  -2   5  -4   18.04    1.62
   3  -5   4    5.94    1.06
  -3  -5  -4    5.95    1.13
  -3  -5  -4    5.30    1.21
  -3  -5  -4    5.10    0.96
   3   5   4    5.03    0.81
  -3   5  -4    4.29    1.11
  -3   5  -4    4.14    0.84
  -4  -5  -4  148.36    5.38
   4  -5   4  146.63    5.16
  -4  -5  -4  141.47    5.17
  -4  -5  -4  143.11    5.45
  -4   5  -4  143.53    5.11
   4   5   4  147.87    5.17
  -4   5  -4  141.74    5.34
  -5  -5  -4   23.01    2.10
  -5  -5  -4   19.58    1.73
  -5  -5  -4   20.65    1.65
   5  -5   4   20.34    1.76
   5   5   4   20.34    1.56
  -5   5  -4   20.46    1.71
  -6  -5  -4    3.07    1.13
  -6  -5  -4    1.08    1.39
  -6  -5  -4    1.44    0.87
   6  -5   4    1.42    0.97
  -6   5  -4    1.65    0.95
   6   5   4    0.09    0.84
  -7  -6   4   42.47    2.55
   7  -6  -4   45.19    2.84
  -7  -6   4   38.39    3.13
  -7  -6   4   37.45    2.71
  -7   6   4   40.54    2.71
   7   6  -4   35.31    2.07
   7   6  -4   40.00    2.80
  -6  -6   4   -0.52    1.22
  -6  -6   4   -0.54    1.38
   6  -6  -4    2.50    1.27
  -6  -6   4    0.86    1.19
  -6  -6   4    0.72    0.84
  -6   6   4    0.58    1.22
   6   6  -4    0.97    0.92
   6   6  -4    1.91    1.25
  -5  -6   4   17.63    1.94
   5  -6  -4   17.26    1.50
   5  -6  -4   17.04    1.72
  -5  -6   4   15.54    1.72
   5   6  -4   16.38    1.81
   5   6  -4   14.82    1.44
  -5   6   4   15.59    1.58
   5   6  -4   15.80    1.53
  -5   6   4   13.57    1.50
  -4  -6   4   16.04    1.79
  -4  -6   4   16.47    1.51
   4  -6  -4   18.57    1.49
   4  -6  -4   20.80    1.80
   4  -6  -4   21.50    1.75
  -4  -6   4   17.74    1.60
  -4   6   4   17.25    1.59
   4   6  -4   18.72    1.66
   4   6  -4   19.22    1.63
  -4   6   4   18.71    1.68
   4   6  -4   15.22    1.62
  -3  -6   4  220.96    7.49
  -3  -6   4  221.18    7.60
   3  -6  -4  217.60    7.36
  -3  -6   4  225.90    7.54
   3  -6  -4  227.64    7.61
   3  -6  -4  228.94    7.66
   3   6  -4  223.61    7.66
  -3   6   4  214.18    7.47
  -3   6   4  210.29    7.55
   3   6  -4  219.30    7.46
   3   6  -4  215.64    7.45
   2  -6  -4   14.25    1.30
  -2  -6   4   12.93    1.18
   2  -6  -4   13.84    1.23
  -2  -6   4   15.44    1.39
   2  -6  -4   14.01    1.34
  -2  -6   4   13.31    1.25
   2   6  -4   10.93    1.30
   2   6  -4   13.42    1.47
  -2   6   4   12.04    1.44
   2   6  -4   14.58    1.63
  -2   6   4   12.79    1.47
   1  -6  -4   12.90    1.35
  -1  -6   4   17.22    1.53
   1  -6  -4   10.34    1.05
   0  -6   4    4.30    0.82
   0  -6   4    2.74    1.14
   0  -6  -4    5.04    0.93
   0  -6  -4    5.38    1.13
   0  -6  -4    6.26    1.17
   0  -6  -4    3.85    1.03
   0   6  -4    4.37    0.92
   0   6   4    3.39    1.13
   0   6  -4    5.90    1.22
   0   6  -4    5.43    0.99
  -1  -6  -4  164.59    5.69
  -1  -6  -4  156.88    5.74
  -1  -6  -4  156.40    5.73
   1  -6   4  159.05    5.74
   1  -6   4  153.42    5.28
  -1   6  -4  158.12    5.81
  -1   6  -4  155.50    5.80
   1   6   4  163.85    5.74
  -2  -6  -4   39.35    2.13
  -2  -6  -4   37.59    2.39
   2  -6   4   43.47    2.46
  -2  -6  -4   41.62    2.41
  -2   6  -4   41.71    2.45
  -2   6  -4   38.81    2.23
   2   6   4   36.71    2.10
  -3  -6  -4   53.79    2.71
  -3  -6  -4   55.74    2.94
  -3  -6  -4   52.52    2.62
   3  -6   4   53.79    2.77
  -3   6  -4   51.20    2.84
   3   6   4   50.34    2.68
  -3   6  -4   51.47    2.74
   4  -6   4    0.14    0.75
  -4  -6  -4    1.62    0.93
  -4  -6  -4    0.49    0.97
  -4  -6  -4    0.32    1.13
  -4   6  -4   -0.24    0.71
   4   6   4    0.31    0.96
  -5  -6  -4   59.24    3.33
   5  -6   4   50.90    2.83
  -5  -6  -4   55.13    2.66
  -5  -6  -4   52.73    2.79
   5   6   4   55.65    2.85
  -5   6  -4   56.61    2.70
  -6  -7   4   20.11    2.12
  -6  -7   4   17.94    2.05
   6  -7  -4   17.64    2.00
  -6  -7   4   15.65    1.94
   6   7  -4   20.26    1.79
   6   7  -4   16.26    1.71
  -6   7   4   17.00    1.82
  -5  -7   4    7.36    1.57
  -5  -7   4    9.92    1.39
   5  -7  -4    9.33    1.37
  -5  -7   4    8.20    1.58
  -5  -7   4   10.66    1.63
  -5   7   4   10.93    1.32
   5   7  -4    9.96    1.46
   5   7  -4   11.71    1.65
  -5   7   4   10.56    1.45
  -4  -7   4   23.16    2.14
   4  -7  -4   23.46    1.93
   4  -7  -4   23.20    1.89
  -4  -7   4   27.48    2.17
   4  -7  -4   24.59    2.07
  -4  -7   4   25.64    2.11
  -4  -7   4   23.51    2.04
  -4   7   4   24.87    2.05
   4   7  -4   24.02    1.90
  -4   7   4   25.00    2.20
   4   7  -4   27.62    2.50
   4   7  -4   25.66    2.10
  -3  -7   4    2.15    1.02
  -3  -7   4    1.44    0.87
   3  -7  -4    3.71    1.28
   3  -7  -4    1.38    0.75
  -3  -7   4    1.39    1.32
   3  -7  -4    1.73    1.20
  -3  -7   4    0.80    0.80
   3   7  -4    1.20    1.10
   3   7  -4    0.21    1.05
  -3   7   4    0.83    0.86
  -3   7   4    2.06    0.91
   3   7  -4    1.47    1.31
   2  -7  -4   41.67    2.42
  -2  -7   4   40.13    2.40
   2  -7  -4   39.81    2.31
   2  -7  -4   40.74    2.59
  -2  -7   4   40.31    2.24
  -2  -7   4   37.38    2.16
  -2  -7   4   40.43    2.37
   2   7  -4   37.48    2.55
  -2   7   4   41.81    2.39
   2   7  -4   37.35    2.43
   2   7  -4   40.75    2.77
  -2   7   4   39.17    2.58
   1  -7  -4   41.43    2.61
   1  -7  -4   37.78    2.53
   1  -7  -4   44.13    2.16
  -1  -7   4   43.14    2.30
   1  -7  -4   38.09    2.21
  -1  -7   4   38.99    2.73
   1   7  -4   41.61    2.39
   1   7  -4   40.76    2.77
  -1   7   4   41.69    2.37
   1   7  -4   41.12    2.60
   0  -7  -4    0.79    0.80
   0  -7  -4    1.51    0.85
   0  -7   4    1.78    1.25
   0  -7   4    1.76    0.85
   0  -7  -4    0.82    0.81
   0   7   4    1.98    0.84
   0   7  -4    2.63    1.33
   0   7  -4    0.68    1.22
  -1  -7  -4   25.90    1.95
  -1  -7  -4   26.33    2.15
   1  -7   4   24.63    2.05
   1  -7   4   26.22    1.60
  -1  -7  -4   25.69    2.18
  -1   7  -4   24.73    1.91
  -1   7  -4   29.94    2.35
   1   7   4   25.94    2.23
  -2  -7  -4   14.49    1.46
  -2  -7  -4   16.95    1.67
   2  -7   4   15.05    1.49
  -2  -7  -4   16.01    1.53
  -2   7  -4   13.09    1.48
   2   7   4   17.73    1.55
  -2   7  -4   12.98    1.46
  -3  -7  -4    2.56    0.90
  -3  -7  -4    0.61    0.83
  -3  -7  -4    2.51    0.98
   3  -7   4    1.63    0.96
   3   7   4    3.08    0.95
  -3   7  -4    2.78    1.04
  -3   7  -4    2.49    0.99
   4  -7   4   15.39    1.53
  -4  -7  -4   16.18    1.88
  -4  -7  -4   14.87    1.66
  -4  -7  -4   16.40    1.56
  -4   7  -4   13.97    1.57
   4   7   4   17.64    1.78
  -2  -8   4   -0.06    1.08
  -2  -8   4    1.31    1.03
   2  -8  -4    2.43    1.35
   2  -8  -4    0.61    1.29
   2  -8  -4    1.33    0.85
   2   8  -4    2.02    1.52
   2   8  -4    1.28    1.34
   2   8  -4    1.98    1.98
  -2   8   4    1.70    1.36
  -1  -8   4   13.11    1.46
  -1  -8   4   11.42    1.81
   1  -8  -4   10.36    1.55
   1  -8  -4   13.30    1.76
   1   8  -4   10.73    1.85
  -1   8   4   12.50    1.50
   1   8  -4   10.41    1.71
   0  -8   4   10.95    1.29
   0  -8  -4   11.15    1.40
   0  -8  -4   10.30    1.43
   0  -8   4   10.59    1.76
   0   8  -4    9.15    1.48
   0   8   4   12.99    1.76
   0   8  -4   11.93    1.76
  11   0  -5   20.36    1.79
  11   0  -5   20.08    1.91
 -11   0   5   17.88    1.72
 -11   0   5   19.87    1.99
  11   0  -5   19.99    1.88
 -11   0   5   16.61    2.01
 -10   0   5   -0.57    0.77
  10   0  -5    0.94    0.99
 -10   0   5   -1.01    1.56
 -10   0   5   -0.07    0.73
  10   0  -5    0.59    1.21
  10   0  -5   -0.37    0.75
   9   0  -5   46.29    2.90
  -9   0   5   50.61    2.76
   9   0  -5   49.55    2.51
  -9   0   5   43.82    3.25
  -9   0   5   48.97    2.49
   9   0  -5   46.29    2.43
   8   0  -5    0.20    0.95
  -8   0   5   -0.45    1.07
  -8   0   5   -0.10    0.92
   8   0  -5    0.96    0.85
  -8   0   5    1.61    0.74
  -8   0   5   -0.13    0.86
   8   0  -5    0.16    0.79
   7   0  -5   48.61    2.39
  -7   0   5   48.59    2.45
   7   0  -5   50.76    2.33
  -7   0   5   46.42    2.43
   7   0  -5   50.14    2.45
  -7   0   5   50.53    2.34
   7   0  -5   47.67    2.46
   6   0  -5    0.63    0.79
   6   0  -5    0.39    0.84
   6   0  -5    0.00    0.57
   6   0  -5    1.33    1.00
  -6   0   5    0.02    0.79
  -6   0   5   -0.36    0.81
  -6   0   5    0.27    0.63
   5   0  -5  224.10    7.13
   5   0  -5  210.13    7.23
   5   0  -5  215.85    7.11
  -5   0   5  212.00    6.99
  -5   0   5  220.75    7.13
   5   0  -5  221.03    7.18
  -5   0   5  220.44    7.07
  -4   0   5    0.11    0.73
   4   0  -5   -0.13    0.46
   4   0  -5   -0.17    0.55
  -4   0   5   -0.38    0.43
   4   0  -5    0.50    0.75
  -4   0   5   -0.15    0.56
   4   0  -5   -0.18    0.63
   3   0  -5    8.83    0.81
   3   0  -5    8.57    0.98
  -3   0   5    8.70    0.75
   3   0  -5    9.37    0.89
   3   0  -5    9.56    0.81
  -3   0   5    8.86    0.93
  -3   0   5    9.24    0.85
   2   0  -5    0.46    0.46
  -2   0   5    0.24    0.38
  -2   0   5    0.76    0.59
  -2   0   5    0.49    0.35
   2   0  -5    0.11    0.56
   2   0  -5   -0.02    0.40
  -1   0   5  426.40   13.61
   1   0  -5  452.70   13.66
  -1   0   5  440.42   13.56
   1   0  -5  448.49   13.70
   1   0  -5  428.02   13.53
  -1   0   5  494.92   13.51
   0   0   5    0.43    0.33
   0   0  -5   -0.17    0.31
   0   0  -5    0.63    0.42
   0   0   5   -0.10    0.15
   0   0   5    0.05    0.27
   0   0  -5   -0.27    0.27
  -1   0  -5   92.93    3.40
  -1   0  -5   93.58    3.11
  -1   0  -5   97.23    2.99
   1   0   5   94.49    2.96
  -1   0  -5   94.38    2.99
   1   0   5   94.31    2.96
  -2   0  -5    0.02    0.09
  -2   0  -5   -0.07    0.09
  -2   0  -5    0.13    0.46
  -2   0  -5    0.12    0.36
  -3   0  -5  483.56   15.08
  -3   0  -5  492.02   14.64
  -3   0  -5  480.20   14.71
  -4   0  -5    0.45    0.80
  -4   0  -5   -0.34    0.40
  -5   0  -5  159.52    5.15
  -5   0  -5  165.29    5.74
   6   0   5    0.25    0.24
  -6   0  -5    0.50    0.65
  -7   0  -5   72.62    3.31
   7   0   5   67.83    2.35
  -8   0  -5    0.03    0.42
  -8   0  -5   -1.12    0.68
   8   0   5    0.18    0.41
  11  -1  -5    1.73    1.27
 -11  -1   5   -0.13    1.70
 -11  -1   5   -1.12    0.84
 -11  -1   5    0.11    1.15
 -11  -1   5   -0.28    1.20
  11  -1  -5   -0.66    1.04
  11  -1  -5    0.44    1.46
 -11   1   5   -0.92    1.42
  11   1  -5    0.33    1.24
 -11   1   5    0.54    1.22
 -11   1   5   -1.54    1.20
  11   1  -5   -0.81    0.89
  11   1  -5    1.17    1.26
  10  -1  -5   67.65    3.78
 -10  -1   5   70.94    3.50
 -10  -1   5   67.11    4.09
  10  -1  -5   69.25    3.19
 -10  -1   5   72.50    3.46
 -10   1   5   72.29    3.43
  10   1  -5   70.27    3.54
 -10   1   5   66.64    3.44
 -10   1   5   65.87    3.20
  10   1  -5   70.43    3.13
  10   1  -5   73.22    3.45
   9  -1  -5    9.46    1.37
  -9  -1   5    8.24    1.16
  -9  -1   5    9.72    1.42
  -9  -1   5    9.37    1.61
   9  -1  -5   11.48    1.68
   9   1  -5    9.76    1.24
  -9   1   5   10.30    1.41
   9   1  -5    9.15    1.15
  -9   1   5   10.67    1.80
   9   1  -5   10.84    1.27
  -9   1   5    9.06    1.38
  -8  -1   5   46.46    2.54
   8  -1  -5   48.93    2.66
  -8  -1   5   43.95    2.52
  -8  -1   5   41.58    3.27
   8  -1  -5   48.22    2.57
  -8  -1   5   48.52    2.47
  -8   1   5   44.05    3.03
   8   1  -5   52.44    2.62
   8   1  -5   45.37    2.19
  -8   1   5   45.71    2.35
   8   1  -5   50.76    2.47
  -8   1   5   47.02    2.52
  -7  -1   5   41.43    2.33
   7  -1  -5   43.55    2.39
   7  -1  -5   44.68    2.82
  -7  -1   5   44.30    2.38
  -7  -1   5   46.56    2.40
   7  -1  -5   41.25    2.23
  -7  -1   5   46.58    3.26
   7   1  -5   40.01    2.35
   7   1  -5   40.78    2.50
  -7   1   5   44.90    2.35
  -7   1   5   43.79    2.08
   7   1  -5   44.71    2.14
   7   1  -5   43.76    2.22
   6  -1  -5  189.91    6.44
  -6  -1   5  198.88    6.46
   6  -1  -5  192.87    6.69
  -6  -1   5  191.87    6.35
  -6  -1   5  192.58    6.38
   6  -1  -5  187.40    6.43
   6   1  -5  191.71    6.44
   6   1  -5  187.25    6.46
  -6   1   5  186.46    6.30
   6   1  -5  194.91    6.39
   6   1  -5  185.12    6.46
  -6   1   5  187.22    6.40
   5  -1  -5    0.78    0.57
  -5  -1   5    0.69    0.51
  -5  -1   5    1.27    0.89
   5  -1  -5    1.04    0.74
  -5  -1   5   -0.12    0.51
   5  -1  -5   -0.38    0.54
   5   1  -5   -0.39    0.86
  -5   1   5    0.07    0.72
   5   1  -5    0.42    0.75
   5   1  -5    0.55    0.57
   5   1  -5   -0.07    0.71
  -5   1   5   -0.08    0.79
   4  -1  -5   48.45    2.24
  -4  -1   5   50.61    2.08
  -4  -1   5   52.05    2.34
   4  -1  -5   46.57    2.18
  -4  -1   5   50.96    2.11
   4  -1  -5   51.23    2.12
   4   1  -5   47.24    2.14
  -4   1   5   55.04    2.30
   4   1  -5   50.62    2.20
   4   1  -5   49.02    2.17
  -4   1   5   51.06    2.01
  -3  -1   5   -0.17    0.39
  -3  -1   5    0.25    0.51
   3  -1  -5    1.35    0.62
   3  -1  -5   -0.09    0.44
  -3  -1   5    0.21    0.34
   3  -1  -5    0.13    0.51
   3   1  -5   -0.23    0.46
  -3   1   5    0.56    0.54
   3   1  -5    0.28    0.54
   3   1  -5   -0.54    0.59
  -3   1   5   -0.47    0.66
   2  -1  -5  335.11   10.19
  -2  -1   5  323.53   10.06
   2  -1  -5  321.79   10.27
  -2  -1   5  332.07   10.25
   2  -1  -5  334.96   10.26
  -2  -1   5  325.01   10.17
  -2   1   5  333.40   10.22
   2   1  -5  336.70   10.28
   2   1  -5  335.18   10.29
  -2   1   5  328.14   10.21
   2   1  -5  326.84   10.15
   1  -1  -5  105.37    3.47
  -1  -1   5   99.68    3.15
   1  -1  -5  104.05    3.29
  -1  -1   5   98.55    3.26
   1  -1  -5   94.81    3.33
  -1  -1   5  105.07    3.42
  -1   1   5   98.38    3.36
   1   1  -5  100.61    3.24
  -1   1   5  101.98    3.29
   1   1  -5   95.98    3.39
   1   1  -5   97.62    3.41
   0  -1  -5    6.14    0.83
   0  -1  -5    7.55    0.74
   0  -1   5    6.51    0.60
   0  -1  -5    7.52    0.62
   0  -1  -5    6.61    0.57
   0   1   5    7.83    0.67
   0   1  -5    6.78    0.59
   0   1  -5    7.65    0.59
   0   1  -5    7.39    0.63
  -1  -1  -5   22.07    0.96
   1  -1   5   21.81    0.88
  -1  -1  -5   22.69    0.92
  -1  -1  -5   21.88    1.26
  -1  -1  -5   20.61    1.06
   1  -1   5   21.40    0.97
  -1   1  -5   21.25    0.94
   1   1   5   21.20    0.90
  -1   1  -5   21.64    1.13
   1   1   5   21.53    0.95
  -1   1  -5   22.35    0.89
  -2  -1  -5  438.25   13.26
  -2  -1  -5  425.23   13.49
  -2  -1  -5  438.84   13.02
   2  -1   5  436.26   12.97
   2  -1   5  416.97   12.97
  -2  -1  -5  438.51   13.03
  -2   1  -5  435.40   12.99
  -2   1  -5  427.04   13.01
  -2   1  -5  446.57   13.23
   2   1   5  429.84   12.99
   2   1   5  428.35   13.00
   3  -1   5    0.39    0.13
  -3  -1  -5    0.35    0.33
  -3  -1  -5    0.21    0.78
  -3  -1  -5    0.33    0.19
   3  -1   5    0.21    0.12
  -3  -1  -5    0.00    0.15
  -3   1  -5    0.22    0.13
  -3   1  -5   -0.07    0.17
  -3   1  -5   -0.93    0.62
  -3   1  -5    0.43    0.42
   3   1   5    0.03    0.16
   3   1   5    0.31    0.18
  -4  -1  -5    2.53    0.29
  -4  -1  -5    2.77    0.26
  -4  -1  -5    1.14    0.91
  -4  -1  -5    2.10    0.57
  -4   1  -5    2.59    0.19
   4   1   5    2.60    0.24
  -4   1  -5    2.14    0.20
  -4   1  -5    3.23    0.51
   4   1   5    2.84    0.27
  -4   1  -5    1.95    0.78
  -5  -1  -5   38.34    1.34
  -5   1  -5   37.23    1.28
  -6  -1  -5  141.37    5.22
   6  -1   5  138.92    4.36
  -6  -1  -5  145.38    4.71
  -6  -1  -5  142.61    4.45
  -6   1  -5  139.60    5.10
   6   1   5  139.07    4.42
  -6   1  -5  136.87    4.39
  -7  -1  -5   18.65    1.67
   7  -1   5   15.38    0.94
  -7  -1  -5   17.40    0.97
  -7   1  -5   16.85    1.55
   7   1   5   16.55    0.94
  -7   1  -5   17.61    0.94
  -8  -1  -5    2.02    0.54
  -8  -1  -5    2.41    1.30
   8  -1   5    2.52    0.60
  -8   1  -5    0.40    1.03
   8   1   5    2.10    0.60
 -10  -2   5    8.00    1.22
  10  -2  -5    7.24    1.44
 -10  -2   5    6.22    2.01
 -10  -2   5    7.05    1.18
  10  -2  -5    7.15    1.87
 -10   2   5    7.88    1.58
  10   2  -5    8.14    1.17
 -10   2   5    6.57    1.42
  10   2  -5    7.53    1.41
  -9  -2   5  100.74    5.02
   9  -2  -5  112.86    4.92
  -9  -2   5  105.21    4.26
   9  -2  -5  110.12    4.40
  -9   2   5   96.77    4.25
   9   2  -5  111.27    4.26
   9   2  -5  107.40    4.09
  -9   2   5  104.24    4.16
   8  -2  -5    0.39    1.01
   8  -2  -5    5.10    1.52
  -8  -2   5    1.37    0.74
  -8  -2   5    0.69    1.67
  -8   2   5    1.70    1.32
   8   2  -5    0.54    0.79
  -8   2   5    2.04    0.90
   8   2  -5    1.72    0.76
  -8   2   5    2.84    1.06
  -7  -2   5    4.74    1.08
   7  -2  -5    5.95    1.20
  -7  -2   5    4.57    1.13
   7  -2  -5    4.49    1.04
  -7  -2   5    5.72    1.43
   7  -2  -5    5.71    1.17
   7   2  -5    4.22    0.87
  -7   2   5    6.89    0.92
   7   2  -5    5.42    1.11
   7   2  -5    4.57    0.96
  -7   2   5    3.91    1.05
  -6  -2   5    2.78    1.07
   6  -2  -5    5.41    1.39
  -6  -2   5    3.46    0.97
   6  -2  -5    5.49    1.04
   6  -2  -5    4.21    0.99
  -6  -2   5    3.37    0.78
  -6   2   5    5.05    1.01
   6   2  -5    3.67    0.83
  -6   2   5    4.65    0.99
   6   2  -5    4.89    0.91
   6   2  -5    3.14    0.98
   5  -2  -5  337.84   11.19
   5  -2  -5  350.28   11.02
   5  -2  -5  352.86   11.06
  -5  -2   5  343.27   10.99
  -5  -2   5  348.91   11.05
  -5   2   5  352.18   10.96
   5   2  -5  361.87   11.13
  -5   2   5  341.55   10.95
   5   2  -5  350.25   10.98
   5   2  -5  339.17   10.96
   4  -2  -5   12.15    1.17
   4  -2  -5   14.31    1.22
  -4  -2   5   14.29    1.09
  -4  -2   5   13.25    1.26
   4  -2  -5   12.34    1.13
  -4   2   5   12.91    1.17
   4   2  -5   13.48    1.13
   4   2  -5   13.35    1.13
  -4   2   5   12.63    0.97
   4   2  -5   11.83    1.09
   3  -2  -5  151.53    5.02
  -3  -2   5  150.66    5.02
   3  -2  -5  151.09    5.02
  -3  -2   5  148.67    5.02
   3  -2  -5  142.98    5.08
  -3   2   5  150.28    4.99
   3   2  -5  151.93    4.98
   3   2  -5  150.25    5.01
   3   2  -5  152.48    5.08
  -2  -2   5    2.27    0.54
  -2  -2   5    2.94    0.60
   2  -2  -5    2.54    0.51
   2  -2  -5    2.63    0.63
   2  -2  -5    2.48    0.59
  -2   2   5    1.42    0.48
   2   2  -5    1.40    0.51
   2   2  -5    2.80    0.57
   2   2  -5    1.83    0.66
   1  -2  -5  132.03    4.30
   1  -2  -5  131.67    4.38
   1  -2  -5  131.42    4.40
   1  -2  -5  125.89    4.37
  -1  -2   5  132.03    4.24
  -1  -2   5  136.60    4.43
   1   2  -5  132.04    4.43
   1   2  -5  134.26    4.41
   1   2  -5  127.18    4.23
  -1   2   5  133.23    4.36
   0  -2  -5    5.01    0.57
   0  -2  -5    5.28    0.47
   0  -2  -5    4.90    0.83
   0  -2   5    5.51    0.69
   0  -2  -5    4.75    0.61
   0  -2  -5    5.03    0.73
   0   2  -5    4.98    0.66
   0   2  -5    5.47    0.44
   0   2   5    4.67    0.60
   0   2  -5    6.07    0.65
   1  -2   5  116.01    3.84
  -1  -2  -5  114.35    3.98
  -1  -2  -5  115.68    4.16
  -1  -2  -5  114.75    3.99
  -1  -2  -5  114.60    3.80
  -1   2  -5  115.10    3.83
  -1   2  -5  117.45    3.98
  -1   2  -5  119.03    3.77
   1   2   5  116.46    3.78
  -2  -2  -5   12.31    1.00
  -2  -2  -5   13.44    1.17
   2  -2   5   14.21    0.88
   2  -2   5   13.38    0.73
  -2  -2  -5   14.18    0.81
  -2  -2  -5   13.97    0.93
  -2   2  -5   13.67    0.75
   2   2   5   12.26    0.79
  -2   2  -5   12.82    1.00
  -2   2  -5   12.64    0.82
  -2   2  -5   15.39    0.47
   2   2   5   12.62    0.82
  -3  -2  -5    2.71    0.73
   3  -2   5    2.73    0.39
  -3  -2  -5    1.94    0.44
  -3  -2  -5    2.99    0.69
  -3  -2  -5    3.85    0.48
   3   2   5    2.73    0.43
  -3   2  -5    2.82    0.40
   3   2   5    2.43    0.45
  -3   2  -5    2.81    0.48
  -3   2  -5    3.07    0.23
  -3   2  -5    2.92    0.53
  -4  -2  -5    0.90    0.35
  -4  -2  -5    1.75    0.66
  -4  -2  -5    2.24    0.77
   4   2   5    0.91    0.41
  -4   2  -5    0.80    0.66
  -4   2  -5    0.85    0.30
  -4   2  -5    0.36    0.57
  -4   2  -5    0.99    0.41
  -5  -2  -5   26.26    1.19
  -5  -2  -5   24.55    1.77
  -5  -2  -5   24.29    1.52
  -5   2  -5   26.28    1.58
   5   2   5   25.79    1.18
  -6  -2  -5    1.00    0.65
   6  -2   5    0.30    0.44
  -6  -2  -5    0.07    0.36
  -6  -2  -5    2.03    0.85
  -6   2  -5   -0.21    0.43
   6   2   5    0.78    0.45
  -6   2  -5    0.95    0.74
  -7  -2  -5    2.81    0.59
  -7  -2  -5    0.36    0.86
   7  -2   5    0.48    0.51
  -7  -2  -5    1.69    0.72
  -7   2  -5    1.77    0.84
   7   2   5    2.94    0.58
  -7   2  -5    1.29    0.45
  -8  -2  -5    0.98    1.36
   8  -2   5    1.78    0.63
  -8  -2  -5    0.94    0.60
  -8   2  -5    0.81    0.57
   8   2   5    1.57    0.54
 -10  -3   5    2.31    1.26
 -10  -3   5   -0.53    1.31
 -10  -3   5   -0.66    1.79
  10  -3  -5   -0.72    1.23
  10  -3  -5    1.58    1.91
 -10   3   5    0.44    1.22
  10   3  -5    2.41    0.95
  10   3  -5    1.20    1.24
  -9  -3   5   16.73    1.62
  -9  -3   5   14.09    2.26
   9  -3  -5   15.40    1.66
  -9  -3   5   15.03    1.65
   9   3  -5   15.26    1.66
   9   3  -5   15.61    1.40
  -9   3   5   15.02    1.45
  -8  -3   5   30.91    2.37
  -8  -3   5   32.92    2.81
   8  -3  -5   29.22    1.97
  -8  -3   5   32.20    2.04
   8   3  -5   35.78    2.08
  -8   3   5   32.28    2.27
  -8   3   5   32.11    2.30
   8   3  -5   36.26    2.01
  -7  -3   5   -0.08    0.98
  -7  -3   5   -0.58    1.67
   7  -3  -5    0.23    0.99
   7  -3  -5    0.18    0.88
  -7   3   5   -0.45    0.88
   7   3  -5   -0.01    0.69
   7   3  -5    0.28    0.70
   7   3  -5    0.28    0.57
  -7   3   5    0.39    0.96
  -6  -3   5   42.03    2.16
   6  -3  -5   43.43    2.28
  -6  -3   5   42.31    2.80
   6  -3  -5   40.62    2.36
   6   3  -5   44.34    2.19
   6   3  -5   43.09    2.42
   6   3  -5   40.52    2.38
  -6   3   5   41.55    2.09
  -6   3   5   43.64    2.32
  -5  -3   5   24.40    1.49
   5  -3  -5   22.01    1.76
   5  -3  -5   19.64    1.66
  -5   3   5   23.17    1.73
   5   3  -5   19.60    1.44
   5   3  -5   22.25    1.55
  -5   3   5   22.94    1.49
   5   3  -5   21.06    1.60
  -4  -3   5   32.08    1.86
   4  -3  -5   30.15    1.66
   4  -3  -5   34.24    1.73
   4   3  -5   29.57    1.62
  -4   3   5   35.03    2.00
   4   3  -5   33.44    1.84
   4   3  -5   30.42    1.99
   3  -3  -5    0.94    0.74
   3  -3  -5    0.28    0.56
  -3  -3   5    2.49    0.57
   3   3  -5    0.25    0.53
   3   3  -5    1.55    0.71
  -3   3   5    0.65    0.58
   3   3  -5    1.56    0.89
   2  -3  -5   37.35    1.85
   2  -3  -5   35.58    1.79
   2  -3  -5   34.67    1.67
  -2  -3   5   38.09    1.71
   2   3  -5   38.10    1.97
   2   3  -5   35.37    1.68
   2   3  -5   35.97    1.86
  -2   3   5   36.71    1.88
   1  -3  -5    0.76    0.50
   1  -3  -5    1.02    0.65
   1  -3  -5    3.15    0.73
  -1   3   5    2.05    0.72
   0  -3  -5   12.48    0.93
   0  -3  -5   11.10    0.81
   0  -3  -5    9.47    0.89
   0  -3   5   10.99    0.76
   0  -3  -5    9.06    0.98
   0  -3  -5    9.09    1.03
   0   3  -5    9.60    0.73
   0   3  -5   10.06    0.97
   0   3  -5    9.51    1.01
   0   3   5    8.37    0.88
  -1  -3  -5  121.91    3.92
  -1  -3  -5  121.48    4.25
  -1  -3  -5  123.12    4.46
  -1  -3  -5  120.75    3.95
  -1  -3  -5  121.24    4.17
  -1   3  -5  121.38    4.20
  -1   3  -5  127.64    4.33
   1   3   5  127.60    4.17
   2  -3   5   70.01    2.31
  -2  -3  -5   72.46    2.95
  -2  -3  -5   68.97    2.59
  -2  -3  -5   76.50    2.88
   2   3   5   71.87    2.63
  -2   3  -5   72.69    2.67
  -2   3  -5   68.49    2.83
  -3  -3  -5    0.64    0.50
  -3  -3  -5    0.29    0.53
  -3  -3  -5    1.67    0.96
  -3   3  -5    0.37    0.56
  -3   3  -5    1.06    0.75
   3   3   5    1.27    0.53
  -3   3  -5    1.27    0.29
  -4  -3  -5    0.05    0.48
  -4  -3  -5   -0.01    0.50
  -4  -3  -5    1.76    0.79
  -4   3  -5    0.57    0.53
  -4   3  -5    0.58    0.74
   4   3   5    0.41    0.59
  -5  -3  -5   36.30    1.65
   5  -3   5   37.39    1.71
  -5  -3  -5   37.48    2.47
  -5  -3  -5   36.00    1.99
  -5   3  -5   36.47    1.65
   5   3   5   36.92    1.73
  -6  -3  -5    1.12    0.54
  -6  -3  -5    4.26    1.31
   6  -3   5    1.20    0.58
   6   3   5    0.87    0.54
  -6   3  -5    0.47    0.52
  -7  -3  -5   29.20    2.46
  -7  -3  -5   27.82    1.86
  -7  -3  -5   28.99    1.61
   7  -3   5   27.36    1.62
   7   3   5   28.24    1.50
  -7   3  -5   26.30    1.59
   9  -4  -5    3.39    1.00
  -9  -4   5    4.11    1.34
  -9  -4   5    3.58    1.86
  -9  -4   5    4.95    1.18
   9   4  -5    4.41    1.39
   9   4  -5    3.96    1.01
  -9   4   5    5.29    1.39
  -8  -4   5   30.79    2.18
   8  -4  -5   34.84    2.43
  -8  -4   5   34.26    2.89
  -8  -4   5   30.61    2.08
  -8   4   5   30.88    2.01
   8   4  -5   30.51    2.00
   8   4  -5   29.52    2.06
   7  -4  -5    3.25    0.89
  -7  -4   5    1.56    1.65
  -7  -4   5    1.10    1.11
  -7  -4   5    3.25    0.99
   7   4  -5    2.15    1.26
  -7   4   5    2.03    0.81
   7   4  -5    1.16    0.83
  -7   4   5    2.34    0.78
   7   4  -5    2.15    0.93
  -6  -4   5    3.16    0.96
  -6  -4   5    4.21    0.92
  -6  -4   5    4.78    1.74
   6  -4  -5    4.54    1.15
   6  -4  -5    4.62    1.07
   6   4  -5    4.26    1.02
  -6   4   5    3.42    0.84
   6   4  -5    6.54    1.19
  -6   4   5    3.75    0.83
   6   4  -5    2.57    0.87
   5  -4  -5    2.26    1.04
  -5  -4   5    1.75    1.61
   5  -4  -5    2.44    0.96
  -5  -4   5    2.71    1.10
  -5  -4   5    2.71    0.79
   5   4  -5    2.92    1.00
   5   4  -5    1.41    0.66
   5   4  -5    1.50    0.80
  -5   4   5    1.84    0.74
   4  -4  -5   32.10    1.79
  -4  -4   5   28.70    1.92
  -4  -4   5   35.90    2.84
   4  -4  -5   32.29    2.02
  -4  -4   5   31.35    1.79
  -4   4   5   34.22    2.14
   4   4  -5   34.31    1.97
   4   4  -5   31.15    2.16
   4   4  -5   32.05    1.77
   3  -4  -5   17.29    1.58
   3  -4  -5   18.00    1.38
  -3  -4   5   15.04    1.20
  -3  -4   5   15.69    1.23
   3  -4  -5   16.89    1.24
   3   4  -5   14.25    1.47
   3   4  -5   16.76    1.46
   3   4  -5   17.56    1.40
  -3   4   5   16.10    1.39
   2  -4  -5   29.45    1.73
   2  -4  -5   20.18    1.46
   2  -4  -5   27.90    1.72
  -2   4   5   32.77    1.86
   1  -4  -5   36.40    1.86
   1  -4  -5   36.26    1.79
   1  -4  -5   34.96    1.94
  -1  -4   5   34.64    1.72
  -1  -4   5   36.47    1.65
   1  -4  -5   36.13    1.90
   1   4  -5   37.78    2.09
   1   4  -5   33.63    1.69
  -1   4   5   38.17    1.99
   1   4  -5   39.14    2.06
   0  -4  -5  115.11    4.11
   0  -4   5  115.62    4.07
   0  -4  -5  120.90    4.30
   0  -4   5  119.78    4.02
   0  -4  -5  125.59    4.41
   0  -4  -5  123.96    4.27
   0   4   5  119.14    4.21
   0   4  -5  122.74    4.41
   0   4  -5  121.97    4.06
   0   4  -5  124.75    4.40
  -1  -4  -5   12.63    1.12
   1  -4   5   16.15    0.94
  -1  -4  -5   16.03    1.07
  -1  -4  -5   16.70    1.29
  -1  -4  -5   12.67    1.33
  -1  -4  -5   12.88    1.11
  -1   4  -5   13.65    1.21
   1   4   5   12.87    1.09
  -1   4  -5   16.76    1.37
  -2  -4  -5   30.03    1.98
   2  -4   5   25.99    1.10
  -2  -4  -5   26.18    1.58
  -2  -4  -5   30.98    1.85
  -2   4  -5   26.49    1.48
   2   4   5   26.59    1.61
  -2   4  -5   27.06    1.82
  -3  -4  -5   19.95    1.38
  -3  -4  -5   20.98    1.61
  -3  -4  -5   19.00    1.41
  -3   4  -5   22.44    1.48
   3   4   5   22.10    1.43
  -3   4  -5   18.35    1.41
   4  -4   5   80.64    3.06
  -4  -4  -5   79.10    3.36
  -4  -4  -5   80.37    3.10
  -4  -4  -5   77.90    3.47
   4   4   5   79.93    3.07
  -4   4  -5   78.53    3.10
  -4   4  -5   80.05    3.32
   5  -4   5   30.41    1.75
  -5  -4  -5   30.34    2.51
  -5  -4  -5   34.92    1.91
  -5  -4  -5   35.34    1.80
   5   4   5   32.90    1.78
  -6  -4  -5    1.49    1.35
  -6  -4  -5    1.69    0.75
  -6  -4  -5    0.26    0.66
   6  -4   5    0.75    0.74
  -6   4  -5    1.09    0.74
   6   4   5    2.20    0.73
   7  -4   5    5.15    0.95
  -7  -4  -5    1.91    1.56
  -7  -4  -5    5.48    0.99
  -7  -4  -5    5.69    0.92
   7   4   5    4.80    0.90
  -7   4  -5    6.75    1.09
   8  -5  -5    4.83    1.36
  -8  -5   5    3.10    1.39
  -8  -5   5    6.45    1.90
  -8  -5   5    2.98    1.17
  -8   5   5    4.29    1.33
   8   5  -5    3.25    1.04
   8   5  -5    6.40    1.47
   7  -5  -5  163.29    5.97
  -7  -5   5  154.31    6.22
  -7  -5   5  165.91    6.09
  -7  -5   5  153.58    6.03
   7   5  -5  162.23    6.01
  -7   5   5  153.84    5.74
   7   5  -5  155.73    5.69
   6  -5  -5    2.98    0.84
  -6  -5   5    2.23    1.59
  -6  -5   5    2.94    1.14
  -6  -5   5    1.21    1.23
   6  -5  -5    2.09    0.88
   6   5  -5    2.32    0.98
   6   5  -5    2.22    0.94
  -6   5   5    2.74    1.10
   6   5  -5    3.36    0.91
   5  -5  -5   51.33    2.66
  -5  -5   5   53.11    2.80
  -5  -5   5   51.73    3.21
  -5  -5   5   50.65    2.69
   5  -5  -5   46.76    2.46
   5   5  -5   52.03    2.41
   5   5  -5   51.01    2.84
  -5   5   5   51.72    2.74
   5   5  -5   50.37    2.50
  -4  -5   5    4.31    1.17
   4  -5  -5    5.46    1.01
   4  -5  -5    4.37    0.89
  -4  -5   5    6.46    1.58
  -4  -5   5    5.10    0.89
   4  -5  -5    5.77    1.18
  -4   5   5    5.21    1.16
   4   5  -5    5.74    0.92
  -4   5   5    4.04    0.88
   4   5  -5    4.28    1.01
   4   5  -5    5.22    1.11
  -3  -5   5  120.97    4.73
  -3  -5   5  117.53    4.27
   3  -5  -5  114.13    4.24
   3  -5  -5  117.00    4.38
   3  -5  -5  113.23    4.41
  -3  -5   5  117.16    4.31
   3   5  -5  115.08    4.44
  -3   5   5  121.33    4.50
   3   5  -5  115.07    4.34
  -3   5   5  119.58    4.38
   3   5  -5  112.28    4.42
  -2  -5   5    4.38    0.98
   2  -5  -5    6.46    1.06
  -2  -5   5    3.54    0.98
   2  -5  -5    3.69    0.77
   2  -5  -5    4.47    1.08
  -2  -5   5    2.87    0.67
  -2   5   5    6.02    1.04
   2   5  -5    3.21    1.13
   2   5  -5    4.04    1.06
   2   5  -5    6.37    0.95
  -2   5   5    4.19    1.08
   1  -5  -5  146.87    5.18
   1  -5  -5  144.66    5.32
  -1  -5   5  141.83    5.12
  -1  -5   5  156.21    5.13
   1  -5  -5  151.35    5.20
   1  -5  -5  146.40    5.29
  -1   5   5  147.44    5.24
   1   5  -5  150.86    5.36
   1   5  -5  149.75    5.11
   1   5  -5  151.21    5.33
  -1   5   5  149.01    5.22
   0  -5  -5   12.58    1.27
   0  -5   5   11.67    0.98
   0  -5  -5    9.67    1.19
   0  -5  -5    8.55    0.89
   0  -5  -5    9.37    1.14
   0   5  -5    9.79    1.28
   0   5  -5    9.03    0.92
   0   5  -5    9.78    1.26
   0   5   5    9.05    1.18
  -1  -5  -5   53.55    2.53
   1  -5   5   45.41    1.92
  -1  -5  -5   46.42    2.22
  -1  -5  -5   45.37    2.29
  -1   5  -5   59.47    2.65
  -1   5  -5   48.56    2.30
   1   5   5   46.08    2.20
  -2  -5  -5   19.91    1.86
  -2  -5  -5   19.44    1.50
  -2  -5  -5   20.42    1.40
  -2   5  -5   19.97    1.54
   2   5   5   21.19    1.44
  -2   5  -5   19.43    1.68
  -3  -5  -5   53.69    2.85
  -3  -5  -5   51.58    2.47
   3  -5   5   51.20    2.50
  -3  -5  -5   44.75    2.38
  -3   5  -5   50.12    2.69
   3   5   5   52.66    2.45
  -3   5  -5   48.19    2.29
   4  -5   5    6.16    1.09
  -4  -5  -5    7.77    1.28
  -4  -5  -5    6.86    1.08
  -4  -5  -5    7.98    1.49
   4   5   5    5.26    1.03
  -4   5  -5   10.31    1.37
  -4   5  -5    5.28    1.06
   5  -5   5   12.90    1.32
  -5  -5  -5   11.84    1.50
  -5  -5  -5    9.24    1.19
  -5  -5  -5   11.65    1.25
  -5   5  -5   10.96    1.26
   5   5   5   12.30    1.27
  -6  -5  -5   10.49    1.87
   6  -5   5   10.67    1.27
  -6  -5  -5   11.44    1.28
  -6  -5  -5   10.69    1.26
   6   5   5   10.23    1.22
  -6   5  -5   10.44    1.28
  -7  -6   5    1.25    1.27
  -7  -6   5    4.02    1.74
   7  -6  -5    4.10    1.43
  -7  -6   5    0.16    1.37
   7   6  -5    5.80    1.23
  -7   6   5    1.73    1.35
   7   6  -5    6.83    1.48
   6  -6  -5   31.38    2.18
  -6  -6   5   34.08    2.28
  -6  -6   5   33.55    2.94
  -6  -6   5   33.51    2.24
   6   6  -5   34.00    2.63
   6   6  -5   35.41    2.34
  -6   6   5   34.10    2.50
   5  -6  -5   21.02    1.71
  -5  -6   5   23.09    2.05
   5  -6  -5   21.13    1.83
  -5  -6   5   24.02    2.15
  -5  -6   5   21.51    1.76
   5   6  -5   18.24    1.74
  -5   6   5   23.88    2.02
   5   6  -5   20.78    1.80
  -5   6   5   21.95    1.86
   5   6  -5   21.50    1.80
   4  -6  -5  172.66    6.14
  -4  -6   5  163.12    6.03
  -4  -6   5  166.44    6.07
  -4  -6   5  161.42    5.98
   4  -6  -5  160.04    5.91
   4  -6  -5  168.31    5.91
   4   6  -5  168.86    6.02
   4   6  -5  164.27    6.03
  -4   6   5  165.48    6.14
  -4   6   5  163.43    5.94
   4   6  -5  163.88    6.09
   3  -6  -5   18.51    1.75
  -3  -6   5   22.59    1.60
  -3  -6   5   19.37    1.57
   3  -6  -5   20.18    1.74
  -3  -6   5   18.94    1.68
   3  -6  -5   19.08    1.61
  -3   6   5   21.33    1.67
   3   6  -5   19.32    1.71
  -3   6   5   20.07    1.79
   3   6  -5   23.09    1.83
   3   6  -5   22.80    1.91
  -2  -6   5    0.20    0.96
   2  -6  -5    2.50    0.78
  -2  -6   5    1.62    0.91
  -2  -6   5    1.24    0.68
   2  -6  -5    2.86    1.05
   2  -6  -5    2.85    0.88
   2   6  -5    2.40    0.71
   2   6  -5    0.79    1.18
   2   6  -5    1.51    0.79
  -2   6   5    2.13    1.03
  -2   6   5    2.55    1.15
   1  -6  -5    1.88    0.94
  -1  -6   5    1.69    0.63
   1  -6  -5    2.26    0.86
   1  -6  -5    3.63    1.05
   1  -6  -5    1.91    0.80
  -1  -6   5    2.43    0.92
   1   6  -5    1.00    0.62
   1   6  -5    3.23    1.14
  -1   6   5    2.43    0.85
   1   6  -5    1.54    0.85
   0  -6  -5  166.21    5.97
   0  -6   5  170.73    5.60
   0  -6  -5  167.95    5.91
   0  -6  -5  160.98    5.82
   0   6   5  163.95    5.83
   0   6  -5  163.94    6.04
   0   6  -5  158.22    5.97
   1  -6   5   13.31    1.02
  -1  -6  -5   13.43    1.47
  -1  -6  -5   14.41    1.52
   1  -6   5   11.99    1.49
  -1  -6  -5   12.54    1.44
  -1   6  -5   11.19    1.50
   1   6   5   14.11    1.45
  -1   6  -5   11.39    1.49
  -2  -6  -5   10.61    1.46
   2  -6   5    8.34    1.35
  -2  -6  -5   10.34    1.35
  -2  -6  -5   11.17    1.48
  -2   6  -5   12.98    1.50
  -2   6  -5    9.64    1.28
   2   6   5    9.12    1.30
  -3  -6  -5    1.53    1.12
   3  -6   5    0.37    1.05
  -3  -6  -5    0.44    0.82
  -3  -6  -5    1.48    0.94
   3   6   5   -0.13    0.97
  -3   6  -5   -0.92    1.10
  -3   6  -5    0.96    0.79
  -4  -6  -5   22.52    1.89
  -4  -6  -5   20.19    2.03
  -4  -6  -5   22.37    1.82
   4  -6   5   20.98    1.77
  -4   6  -5   20.06    1.72
   4   6   5   21.99    1.77
  -4   6  -5   17.56    1.72
   5  -6   5    1.54    1.11
  -5  -6  -5    0.63    1.39
  -5  -6  -5    1.37    1.19
  -5  -6  -5    0.49    0.69
  -5   6  -5   -1.02    1.03
   5   6   5    1.45    1.01
  -5  -7   5    0.16    1.33
   5  -7  -5    0.05    1.28
  -5  -7   5   -1.68    1.21
  -5  -7   5   -0.38    0.95
  -5  -7   5    0.17    1.21
  -5   7   5   -0.43    0.85
   5   7  -5    1.86    1.45
  -5   7   5   -0.48    0.82
   5   7  -5    0.87    1.14
   5   7  -5    0.84    1.28
  -4  -7   5    0.41    0.84
   4  -7  -5    0.48    1.15
   4  -7  -5    2.00    1.29
   4  -7  -5    1.51    0.79
  -4  -7   5    1.22    1.23
  -4  -7   5    1.25    1.16
  -4  -7   5   -0.99    1.32
   4   7  -5   -0.32    1.37
   4   7  -5   -0.51    0.76
   4   7  -5   -0.49    0.77
  -4   7   5    0.64    1.23
  -4   7   5   -0.07    0.84
   3  -7  -5   24.71    1.96
   3  -7  -5   29.18    1.87
   3  -7  -5   26.74    2.32
  -3  -7   5   23.97    2.08
  -3  -7   5   24.44    2.13
  -3  -7   5   27.08    2.18
   3   7  -5   27.77    2.21
   3   7  -5   26.69    1.96
  -3   7   5   27.44    2.18
  -3   7   5   26.32    2.34
   3   7  -5   27.68    2.37
   2  -7  -5   29.16    2.34
  -2  -7   5   28.95    2.18
   2  -7  -5   28.72    2.20
  -2  -7   5   26.10    2.24
  -2  -7   5   32.29    1.90
   2  -7  -5   28.22    2.33
  -2   7   5   31.96    2.52
   2   7  -5   30.54    2.22
   2   7  -5   30.05    2.19
   2   7  -5   30.85    2.06
   1  -7  -5    9.78    1.51
  -1  -7   5    9.43    1.18
  -1  -7   5    6.70    1.50
   1  -7  -5    8.30    1.13
   1  -7  -5    9.27    1.40
   1   7  -5    6.72    1.43
   1   7  -5    7.57    1.54
  -1   7   5    8.21    1.46
   0  -7   5   12.85    1.22
   0  -7  -5   12.30    1.35
   0  -7   5   11.04    1.62
   0  -7  -5   12.99    1.45
   0  -7  -5   11.56    1.55
   0   7  -5    8.39    1.29
   0   7  -5   10.46    1.65
   0   7   5    9.26    1.27
  -1  -7  -5   64.86    3.29
  -1  -7  -5   68.38    3.20
   1  -7   5   64.71    3.10
  -1  -7  -5   63.19    3.32
   1   7   5   72.11    3.38
  -1   7  -5   66.05    3.18
  -1   7  -5   60.39    3.12
   2  -7   5    0.64    1.25
  -2  -7  -5    0.40    0.82
  -2  -7  -5    0.43    1.12
  -2  -7  -5    1.36    1.16
  -2   7  -5    1.08    1.28
  -2   7  -5   -0.08    0.86
   2   7   5    1.23    1.19
  -3  -7  -5   16.62    1.78
   3  -7   5   14.97    1.80
  -3  -7  -5   13.49    1.77
  -3  -7  -5   13.86    1.74
  -3   7  -5   12.16    1.50
   3   7   5   13.53    1.67
  -3   7  -5   15.19    1.77
  11   0  -6   -2.41    1.35
 -11   0   6   -1.06    1.76
  11   0  -6   -0.30    1.06
 -11   0   6    0.11    0.88
  11   0  -6    0.46    0.88
 -11   0   6   -0.89    0.83
 -10   0   6   39.99    3.31
  10   0  -6   39.78    3.03
  10   0  -6   39.53    2.35
 -10   0   6   39.08    2.37
 -10   0   6   37.42    2.64
  10   0  -6   39.11    2.22
  -9   0   6   -0.57    0.75
  -9   0   6    0.26    0.76
  -9   0   6   -1.48    1.62
   9   0  -6    1.43    0.92
   9   0  -6    0.22    1.08
   9   0  -6    0.46    0.72
   8   0  -6   33.79    2.19
  -8   0   6   33.88    2.20
   8   0  -6   34.61    2.17
  -8   0   6   32.88    2.23
   8   0  -6   30.75    2.11
  -8   0   6   36.90    2.30
   8   0  -6   33.71    2.00
   7   0  -6    0.66    0.99
   7   0  -6    0.53    0.94
   7   0  -6    0.01    0.65
   7   0  -6    0.05    0.78
  -7   0   6    1.54    0.96
  -7   0   6    0.15    0.98
  -7   0   6   -0.43    0.61
   6   0  -6  243.85    7.90
  -6   0   6  244.55    7.85
  -6   0   6  226.91    7.90
  -6   0   6  235.97    7.98
   6   0  -6  247.12    7.95
   6   0  -6  241.05    7.88
   6   0  -6  241.56    8.12
  -5   0   6   -0.44    0.74
   5   0  -6   -0.73    0.63
   5   0  -6   -0.16    0.77
  -5   0   6    0.01    0.50
   5   0  -6    0.84    0.80
  -5   0   6    0.06    0.92
   5   0  -6   -0.49    0.59
   4   0  -6   16.62    1.18
   4   0  -6   16.28    1.36
  -4   0   6   15.49    1.31
   4   0  -6   15.20    1.31
  -4   0   6   16.96    1.23
   4   0  -6   17.32    1.43
  -4   0   6   16.55    1.34
  -3   0   6    0.07    0.35
  -3   0   6    0.59    0.42
   3   0  -6   -0.39    0.68
  -3   0   6    0.12    0.71
   3   0  -6   -0.35    0.66
   3   0  -6    0.69    0.58
  -2   0   6 1000.00   28.83
   2   0  -6  958.82   29.03
  -2   0   6  975.97   28.95
  -2   0   6  984.85   29.00
   2   0  -6  911.60   28.88
   2   0  -6  938.36   29.03
   1   0  -6    0.29    0.26
  -1   0   6   -0.25    0.26
  -1   0   6    0.28    0.50
   1   0  -6    0.66    0.52
   1   0  -6    0.13    0.35
  -1   0   6    0.22    0.27
   0   0  -6   24.09    1.13
   0   0  -6   26.00    1.17
   0   0   6   25.42    0.93
   0   0  -6   26.47    1.28
   0   0   6   24.38    1.16
   1   0   6   -0.18    0.12
   1   0   6   -0.11    0.28
  -1   0  -6   -0.12    0.38
  -1   0  -6    0.11    0.25
   1   0   6   -0.02    0.26
  -1   0  -6   -0.44    0.32
  -2   0  -6  468.27   14.01
  -2   0  -6  473.01   14.02
  -2   0  -6  474.46   14.19
  -2   0  -6  458.82   14.57
   2   0   6  462.58   13.99
   2   0   6  465.70   13.99
  -3   0  -6    0.01    0.57
  -3   0  -6    0.15    0.08
  -3   0  -6    0.09    0.31
  -4   0  -6  206.95    7.05
  -5   0  -6   -1.40    0.87
  -6   0  -6  107.69    4.36
  -7   0  -6    0.11    1.04
  -7   0  -6    0.45    0.32
  11  -1  -6   18.72    1.81
 -11  -1   6   13.43    1.79
 -11  -1   6   14.52    1.84
 -11  -1   6   14.85    2.02
  11  -1  -6   16.46    1.85
  11  -1  -6   12.71    1.69
  11   1  -6   12.84    1.60
 -11   1   6   11.01    1.48
  11   1  -6   15.07    1.61
 -11   1   6   15.63    2.23
 -11   1   6   12.26    1.50
  11   1  -6   11.29    1.49
  10  -1  -6   13.45    1.63
 -10  -1   6   13.29    1.47
 -10  -1   6   16.37    2.29
 -10  -1   6   12.84    1.43
  10  -1  -6   13.87    1.46
 -10   1   6   14.00    1.51
  10   1  -6   12.35    1.50
 -10   1   6   14.65    1.50
  10   1  -6   15.06    1.71
  10   1  -6   14.74    1.82
 -10   1   6   15.73    2.13
  -9  -1   6   65.94    3.06
  -9  -1   6   63.63    3.31
   9  -1  -6   67.79    3.11
   9  -1  -6   80.20    3.85
  -9  -1   6   62.63    4.04
   9   1  -6   74.23    3.57
   9   1  -6   72.76    3.16
  -9   1   6   64.11    3.05
  -9   1   6   66.05    3.14
   9   1  -6   68.50    2.98
  -9   1   6   71.88    3.85
  -8  -1   6   11.51    1.17
   8  -1  -6    9.58    1.34
  -8  -1   6   11.58    2.13
   8  -1  -6   10.67    1.38
  -8  -1   6    9.77    1.13
  -8  -1   6   10.62    1.41
   8  -1  -6   11.61    1.18
   8   1  -6   10.71    1.51
   8   1  -6   11.39    1.37
  -8   1   6    8.85    1.09
   8   1  -6   11.79    1.33
  -8   1   6    9.74    1.19
  -8   1   6   11.75    1.33
   8   1  -6    9.73    1.33
   7  -1  -6   53.53    2.74
  -7  -1   6   55.01    2.78
   7  -1  -6   54.61    2.49
  -7  -1   6   50.82    2.73
   7  -1  -6   57.55    2.78
  -7  -1   6   55.60    2.47
   7   1  -6   56.85    2.56
  -7   1   6   50.85    2.43
  -7   1   6   54.80    2.73
   7   1  -6   51.25    2.65
   7   1  -6   56.42    2.55
  -7   1   6   54.08    2.70
   7   1  -6   52.75    2.60
   6  -1  -6  136.17    4.84
   6  -1  -6  131.93    4.92
  -6  -1   6  136.23    4.74
  -6  -1   6  133.03    4.87
   6  -1  -6  140.38    4.89
  -6  -1   6  127.64    4.72
  -6   1   6  129.37    4.64
   6   1  -6  136.17    4.92
   6   1  -6  132.92    4.83
   6   1  -6  134.62    4.80
  -6   1   6  127.15    4.70
   5  -1  -6   64.74    2.86
   5  -1  -6   68.01    2.84
  -5  -1   6   63.14    2.94
  -5  -1   6   65.03    2.69
   5  -1  -6   71.34    2.91
  -5  -1   6   68.90    2.87
  -5   1   6   67.33    2.60
   5   1  -6   65.25    2.94
  -5   1   6   70.24    2.87
   5   1  -6   63.32    2.79
  -5   1   6   64.95    2.91
   5   1  -6   64.96    2.68
  -4  -1   6   27.77    1.50
  -4  -1   6   26.65    1.63
   4  -1  -6   28.17    1.55
   4  -1  -6   28.60    1.68
   4  -1  -6   28.34    1.71
  -4  -1   6   24.58    1.86
  -4   1   6   28.51    1.50
   4   1  -6   28.97    1.65
   4   1  -6   28.77    1.83
   4   1  -6   27.29    1.68
  -4   1   6   26.55    1.53
  -4   1   6   24.60    1.54
  -3  -1   6  316.99   10.09
   3  -1  -6  317.38   10.07
  -3  -1   6  323.17    9.95
  -3  -1   6  315.95   10.16
   3  -1  -6  330.38   10.21
   3  -1  -6  318.27   10.26
  -3   1   6  329.88   10.17
  -3   1   6  329.71   10.16
   3   1  -6  325.45   10.23
  -3   1   6  320.83   10.01
   3   1  -6  328.65   10.09
   3   1  -6  318.77   10.18
  -2  -1   6  116.64    4.04
   2  -1  -6  123.19    4.31
   2  -1  -6  125.82    4.22
   2  -1  -6  119.12    4.08
  -2  -1   6  124.05    3.95
  -2  -1   6  136.90    4.27
  -2   1   6  128.32    4.21
   2   1  -6  120.94    4.05
   2   1  -6  122.59    4.19
  -2   1   6  123.05    4.10
  -2   1   6  117.73    3.99
   2   1  -6  121.77    4.25
  -1  -1   6  146.27    4.48
  -1  -1   6  142.53    4.76
   1  -1  -6  143.62    4.79
   1  -1  -6  145.95    4.59
  -1  -1   6  142.05    4.58
   1  -1  -6  147.13    4.76
  -1   1   6  143.51    4.73
   1   1  -6  148.80    4.84
   1   1  -6  145.13    4.55
  -1   1   6  143.14    4.62
   1   1  -6  144.58    4.79
   0  -1  -6   93.90    3.24
   0  -1  -6   98.28    3.25
   0  -1   6   96.89    3.26
   0   1   6   96.41    3.22
   0   1  -6   95.13    3.32
   0   1  -6   99.49    3.22
   0   1  -6   94.02    3.28
  -1  -1  -6  280.42    8.50
   1  -1   6  272.42    8.49
  -1  -1  -6  273.26    8.53
  -1  -1  -6  276.76    8.68
  -1  -1  -6  277.36    8.94
   1  -1   6  273.33    8.45
   1   1   6  270.42    8.48
  -1   1  -6  280.29    8.53
  -1   1  -6  277.27    8.66
  -1   1  -6  280.70    8.48
   1   1   6  281.81    8.48
   2  -1   6    1.67    0.35
  -2  -1  -6    1.04    0.28
  -2  -1  -6    1.36    0.35
   2  -1   6    1.27    0.26
  -2  -1  -6    0.09    0.84
  -2  -1  -6    1.07    0.55
   2   1   6    0.68    0.31
  -2   1  -6    1.34    0.28
  -2   1  -6    0.88    0.34
  -2   1  -6    1.09    0.51
   2   1   6    1.19    0.31
  -3  -1  -6    6.54    0.65
   3  -1   6    6.15    0.44
  -3  -1  -6    6.05    1.10
  -3  -1  -6    6.44    0.44
  -3  -1  -6    6.45    0.48
   3  -1   6    6.42    0.38
  -3   1  -6    6.44    0.69
  -3   1  -6    6.72    0.41
   3   1   6    5.87    0.47
  -3   1  -6    6.64    0.84
   3   1   6    6.99    0.47
  -3   1  -6    6.88    0.48
  -4  -1  -6   36.61    1.69
   4  -1   6   38.16    1.20
  -4  -1  -6   38.97    1.31
  -4  -1  -6   36.55    1.29
   4  -1   6   37.29    1.22
  -4  -1  -6   36.53    2.05
  -4   1  -6   38.12    1.25
  -4   1  -6   36.40    1.59
  -4   1  -6   36.16    1.22
  -4   1  -6   39.96    2.07
   4   1   6   37.59    1.27
  -5  -1  -6  153.96    5.11
  -5  -1  -6  153.05    4.74
  -5  -1  -6  154.14    5.70
   5   1   6  150.85    4.72
  -5   1  -6  152.48    5.48
  -5   1  -6  150.53    4.68
  -5   1  -6  161.17    4.75
  -6  -1  -6    5.46    0.45
  -6  -1  -6    3.83    1.20
   6  -1   6    4.75    0.40
  -6   1  -6    5.09    1.11
  -6   1  -6    4.77    0.44
   6   1   6    5.21    0.44
  -7  -1  -6    0.41    0.31
  -7  -1  -6   -0.03    1.16
   7   1   6   -0.63    0.36
  -7   1  -6    0.19    0.35
  -7   1  -6   -0.12    0.92
 -10  -2   6   96.48    5.08
  10  -2  -6   97.67    4.30
  10  -2  -6   96.53    4.86
 -10  -2   6   95.27    4.29
  10   2  -6   96.65    3.98
 -10   2   6   99.72    4.49
 -10   2   6   93.84    4.01
  10   2  -6   96.33    4.30
   9  -2  -6   20.94    1.87
   9  -2  -6   24.75    2.35
  -9  -2   6   20.59    1.92
  -9  -2   6   25.50    2.33
  -9   2   6   21.22    1.87
   9   2  -6   23.36    1.79
  -9   2   6   23.24    2.22
   9   2  -6   21.45    1.92
   8  -2  -6   33.53    2.46
   8  -2  -6   34.78    2.40
  -8  -2   6   37.88    2.34
  -8  -2   6   37.91    2.96
  -8  -2   6   35.42    2.36
   8   2  -6   37.36    2.15
  -8   2   6   33.12    2.22
  -8   2   6   37.28    2.31
   8   2  -6   32.16    1.88
   8   2  -6   33.82    2.36
  -7  -2   6   26.37    1.71
  -7  -2   6   28.42    2.64
   7  -2  -6   24.68    1.91
   7  -2  -6   26.92    2.15
  -7  -2   6   26.19    1.77
  -7  -2   6   25.68    2.15
   7  -2  -6   24.82    2.09
  -7   2   6   27.35    1.70
   7   2  -6   27.71    2.05
   7   2  -6   25.57    1.76
  -7   2   6   23.48    1.68
   7   2  -6   24.38    1.61
  -6  -2   6  117.82    4.30
  -6  -2   6  114.24    4.42
   6  -2  -6  107.36    4.23
  -6  -2   6  116.70    4.15
   6  -2  -6  116.67    4.71
   6  -2  -6  116.89    4.26
  -6   2   6  115.46    4.35
  -6   2   6  110.69    4.26
   6   2  -6  116.55    4.33
   6   2  -6  118.41    4.30
   6   2  -6  115.40    4.35
  -5  -2   6   57.05    2.58
   5  -2  -6   62.36    2.78
  -5  -2   6   58.97    2.67
   5  -2  -6   63.84    3.15
  -5  -2   6   62.70    2.62
   5  -2  -6   63.09    2.79
   5   2  -6   61.30    2.87
   5   2  -6   63.23    2.72
  -5   2   6   61.80    2.66
   5   2  -6   61.54    2.73
  -5   2   6   59.63    2.82
  -4  -2   6  119.29    4.52
   4  -2  -6  124.59    4.43
   4  -2  -6  122.57    4.66
  -4  -2   6  128.19    4.44
   4  -2  -6  123.56    4.49
  -4   2   6  124.57    4.34
   4   2  -6  127.09    4.47
  -4   2   6  123.83    4.38
   4   2  -6  122.86    4.36
   4   2  -6  126.57    4.33
   3  -2  -6   54.99    2.42
   3  -2  -6   57.72    2.38
  -3  -2   6   51.99    2.19
   3  -2  -6   61.71    2.46
  -3  -2   6   52.32    2.34
   3   2  -6   54.20    2.36
  -3   2   6   59.93    2.48
   3   2  -6   53.90    2.27
   3   2  -6   55.93    2.30
  -2  -2   6   12.80    0.90
   2   2  -6   19.36    1.22
   2   2  -6   20.08    1.10
  -1  -2   6    0.00    0.34
  -1  -2   6    0.84    0.70
   1  -2  -6    0.54    0.47
   1  -2  -6   -0.31    0.37
   1  -2  -6    0.32    0.60
   1  -2  -6    0.42    0.44
   1   2  -6    0.87    0.67
   1   2  -6    0.10    0.46
  -1   2   6    0.16    0.59
   1   2  -6    0.17    0.35
   0  -2   6   64.04    2.46
   0  -2  -6   64.88    2.75
   0  -2  -6   62.84    2.34
   0  -2  -6   64.17    2.47
   0   2  -6   65.83    2.47
   0   2  -6   64.83    2.55
   0   2   6   61.37    2.38
  -1  -2  -6  112.14    3.72
   1  -2   6  110.48    3.79
  -1  -2  -6  116.12    3.82
  -1  -2  -6  112.29    3.98
  -1  -2  -6  114.16    3.79
  -1  -2  -6  113.07    4.13
   1   2   6  112.13    3.76
  -1   2  -6  113.32    3.91
  -1   2  -6  113.58    3.73
  -1   2  -6  117.32    3.82
  -2  -2  -6    2.12    0.35
   2  -2   6    1.61    0.37
   2  -2   6    1.97    0.59
  -2  -2  -6    1.81    0.68
  -2  -2  -6    0.80    0.88
  -2  -2  -6    2.05    0.47
  -2  -2  -6    1.78    0.43
   2   2   6    1.48    0.51
  -2   2  -6    2.11    0.44
  -2   2  -6    1.03    0.53
  -2   2  -6    2.21    0.67
   2   2   6    1.66    0.68
   3  -2   6    2.02    0.52
  -3  -2  -6    1.76    0.46
  -3  -2  -6    2.18    0.56
  -3  -2  -6    2.85    0.79
   3   2   6    3.11    0.49
  -3   2  -6    1.27    0.39
  -3   2  -6    1.88    0.67
  -4  -2  -6    9.97    0.77
  -4  -2  -6    9.16    1.37
  -4  -2  -6    9.95    1.01
   4   2   6   11.36    0.72
  -4   2  -6   11.36    0.78
  -4   2  -6   13.06    1.03
  -5  -2  -6    3.95    0.48
  -5  -2  -6    4.60    0.98
  -5  -2  -6    5.02    0.84
  -5   2  -6    4.57    0.48
   5   2   6    5.22    0.55
  -6  -2  -6   25.52    1.25
  -6  -2  -6   28.54    2.32
  -6  -2  -6   27.29    1.65
   6  -2   6   27.57    1.26
  -6   2  -6   27.04    1.82
   6   2   6   26.58    1.25
  -6   2  -6   26.96    1.23
  -7  -2  -6    5.77    0.65
   7  -2   6    4.36    0.60
  -7  -2  -6    7.11    1.58
   7   2   6    5.39    0.65
  -7   2  -6    4.63    0.59
 -10  -3   6    4.58    1.57
 -10  -3   6    3.48    1.05
  10  -3  -6    1.53    1.39
 -10  -3   6    3.78    2.03
  10  -3  -6    5.97    1.61
 -10   3   6    1.95    1.00
  10   3  -6    2.05    0.79
  10   3  -6    2.46    1.03
  -9  -3   6    1.95    0.93
   9  -3  -6    3.01    1.44
  -9  -3   6    0.37    1.84
   9  -3  -6    4.06    1.31
   9   3  -6    2.43    1.23
  -9   3   6    2.51    1.28
  -9   3   6    4.56    1.69
   9   3  -6    2.91    1.04
   8  -3  -6   -1.06    0.73
  -8  -3   6   -0.19    1.05
   8  -3  -6   -1.50    1.57
  -8  -3   6   -0.53    1.24
   8   3  -6    0.06    1.09
   8   3  -6    1.24    0.94
  -8   3   6   -0.24    0.66
  -8   3   6   -0.04    1.07
  -7  -3   6   42.04    2.52
   7  -3  -6   40.66    2.27
  -7  -3   6   47.54    3.49
   7  -3  -6   42.07    3.15
   7  -3  -6   46.13    2.47
  -7   3   6   43.71    2.48
   7   3  -6   43.39    2.58
   7   3  -6   44.26    2.55
  -7   3   6   43.05    2.48
   7   3  -6   46.35    2.39
   6  -3  -6    1.95    0.75
  -6  -3   6    1.59    1.00
   6  -3  -6    2.78    0.79
   6  -3  -6    1.48    1.38
  -6   3   6    2.16    1.04
   6   3  -6    2.93    0.85
  -6   3   6    1.96    0.74
   6   3  -6    2.40    0.76
   6   3  -6    2.55    0.94
  -5  -3   6   47.43    2.42
   5  -3  -6   47.15    2.45
   5  -3  -6   50.56    2.45
  -5  -3   6   46.56    2.69
   5  -3  -6   47.19    2.94
  -5   3   6   46.97    2.28
   5   3  -6   49.32    2.40
   5   3  -6   46.71    2.23
  -5   3   6   47.14    2.19
   5   3  -6   43.48    2.32
   4  -3  -6   47.06    2.42
   4  -3  -6   47.63    2.38
  -4  -3   6   46.98    2.16
   4  -3  -6   46.42    2.33
  -4  -3   6   49.45    2.59
  -4   3   6   45.38    2.20
   4   3  -6   50.33    2.37
   4   3  -6   47.75    2.31
   4   3  -6   45.38    2.28
   3  -3  -6  132.43    4.77
  -3  -3   6  133.17    4.85
   3  -3  -6  141.05    4.72
   3  -3  -6  144.31    4.83
  -3  -3   6  133.12    4.68
   3   3  -6  134.44    4.64
  -3   3   6  121.99    4.64
   3   3  -6  143.97    4.82
   3   3  -6  128.82    4.85
  -2  -3   6   19.40    1.25
   2  -3  -6   19.75    1.71
  -2  -3   6   18.52    1.47
   2  -3  -6   20.06    1.51
   2  -3  -6   18.03    1.47
   2  -3  -6   20.05    1.38
   2   3  -6   19.33    1.30
   2   3  -6   19.82    1.24
  -2   3   6   18.54    1.56
   2   3  -6   19.08    1.60
  -1  -3   6   24.46    1.70
  -1  -3   6   20.49    1.05
   1  -3  -6   21.81    1.30
   1  -3  -6   22.02    1.53
   1  -3  -6   19.60    1.29
   1  -3  -6   22.71    1.45
   1   3  -6   20.20    1.33
   1   3  -6   21.05    1.14
  -1   3   6   24.41    1.52
   1   3  -6   19.86    1.53
   0  -3  -6   64.12    2.54
   0  -3  -6   71.91    2.71
   0  -3  -6   69.19    2.47
   0  -3   6   68.92    2.78
   0  -3  -6   68.46    2.95
   0  -3  -6   70.26    2.74
   0   3  -6   68.10    2.66
   0   3  -6   72.19    2.75
   0   3  -6   70.57    2.38
   0   3   6   70.17    2.61
  -1  -3  -6   33.39    1.54
  -1  -3  -6   34.65    1.73
  -1  -3  -6   35.80    2.11
   1   3   6   34.11    1.68
  -1   3  -6   33.35    1.87
  -1   3  -6   36.23    1.74
  -2  -3  -6   78.01    3.34
  -2  -3  -6   75.85    3.08
  -2  -3  -6   77.46    2.83
  -2  -3  -6   75.15    2.57
   2  -3   6   73.20    2.50
   2   3   6   76.84    2.82
  -2   3  -6   77.36    3.06
  -2   3  -6   79.37    2.86
  -3  -3  -6   30.19    1.90
  -3  -3  -6   28.48    1.62
  -3  -3  -6   30.35    1.48
  -3   3  -6   30.34    1.77
  -3   3  -6   30.96    1.51
   3   3   6   31.46    1.58
  -4  -3  -6    3.51    0.93
  -4  -3  -6    2.56    0.57
  -4  -3  -6    4.38    0.95
   4   3   6    2.99    0.59
  -4   3  -6    4.71    0.75
  -4   3  -6    3.18    0.86
   5  -3   6    4.03    0.63
  -5   3  -6    5.47    0.70
  -5   3  -6    4.76    0.94
   6  -3   6   60.36    2.42
  -6  -3  -6   61.64    2.47
  -6  -3  -6   62.64    2.80
  -6  -3  -6   58.95    3.12
   6   3   6   61.61    2.46
  -6   3  -6   61.24    2.39
  -7  -3  -6    3.90    0.81
   7  -3   6    3.75    0.70
  -7  -3  -6    4.08    0.68
  -7  -3  -6    4.15    1.22
  -7   3  -6    4.29    0.71
   7   3   6    4.80    0.72
   9  -4  -6    9.84    1.32
  -9  -4   6    9.18    1.72
  -9  -4   6    5.41    1.98
  -9  -4   6    7.39    1.52
  -9   4   6    9.11    1.54
   9   4  -6   10.05    1.32
   9   4  -6    7.34    1.49
  -8  -4   6    5.76    1.10
  -8  -4   6    5.27    1.20
   8  -4  -6    7.07    1.42
  -8  -4   6    3.96    1.87
  -8   4   6    6.03    1.36
   8   4  -6    4.11    1.13
   8   4  -6    6.34    1.41
  -7  -4   6   17.40    1.60
  -7  -4   6   13.84    2.25
   7  -4  -6   15.62    1.68
  -7  -4   6   17.74    1.59
   7  -4  -6   16.41    1.65
  -7   4   6   17.19    1.47
   7   4  -6   15.31    1.54
   7   4  -6   17.53    1.60
  -7   4   6   20.13    1.69
   7   4  -6   18.12    1.73
  -6  -4   6    5.31    1.21
   6  -4  -6    6.04    0.99
  -6  -4   6    8.14    1.54
   6  -4  -6    5.12    1.21
   6   4  -6    3.95    0.93
   6   4  -6    5.75    1.07
  -6   4   6    4.87    0.93
  -6   4   6    4.84    1.19
   6   4  -6    4.97    1.10
   5  -4  -6   45.57    2.51
  -5  -4   6   48.64    2.54
   5  -4  -6   48.32    2.55
  -5  -4   6   49.07    2.90
   5   4  -6   46.64    2.44
   5   4  -6   48.47    2.32
  -5   4   6   43.33    2.31
   5   4  -6   46.77    2.46
  -4  -4   6    1.28    0.65
   4  -4  -6    2.97    0.76
   4  -4  -6    2.49    0.76
  -4   4   6    2.49    1.05
   4   4  -6    2.29    0.96
   4   4  -6    1.22    1.13
   4   4  -6    2.63    0.93
   3  -4  -6   61.98    2.82
  -3  -4   6   61.27    2.68
   3  -4  -6   58.99    2.57
   3  -4  -6   62.51    2.62
   3   4  -6   61.14    2.65
  -3   4   6   62.10    2.87
   3   4  -6   64.09    2.98
   3   4  -6   60.53    2.82
   2  -4  -6   11.50    1.09
  -2  -4   6   11.27    0.98
   1  -4  -6  108.90    3.93
   1  -4  -6  102.59    3.92
  -1  -4   6  106.49    3.80
  -1  -4   6  107.29    3.77
   1  -4  -6  107.80    4.05
   1  -4  -6  108.67    3.85
   1  -4  -6  110.19    4.06
  -1   4   6  103.39    3.88
   1   4  -6  107.66    3.74
   1   4  -6  104.88    3.99
   1   4  -6  113.68    4.13
   0  -4  -6   59.57    2.63
   0  -4   6   61.03    2.37
   0  -4  -6   68.31    2.86
   0  -4  -6   61.40    2.74
   0  -4  -6   51.58    2.52
   0  -4  -6   63.58    2.47
   0   4  -6   63.88    2.80
   0   4  -6   63.01    2.74
   0   4   6   60.18    2.50
  -1  -4  -6    7.77    0.94
  -1  -4  -6    7.11    1.11
  -1  -4  -6    8.26    1.03
   1  -4   6    6.65    0.72
  -1   4  -6    6.11    1.01
   1   4   6    6.94    0.96
  -1   4  -6    6.48    1.09
  -2  -4  -6    5.77    0.86
  -2  -4  -6    6.67    1.03
  -2  -4  -6    4.86    0.82
  -2   4  -6    4.79    1.02
   2   4   6    4.74    0.69
  -2   4  -6    4.20    0.73
  -3  -4  -6  144.86    5.16
  -3  -4  -6  145.00    5.01
  -3  -4  -6  143.17    5.50
  -3   4  -6  143.71    5.00
  -3   4  -6  142.33    5.13
   3   4   6  147.61    4.98
  -4  -4  -6   86.86    3.59
  -4  -4  -6   89.02    3.97
  -4  -4  -6   87.50    3.31
   4   4   6   80.01    3.24
  -4   4  -6   85.48    3.53
  -4   4  -6   87.20    3.29
  -5  -4  -6    1.09    0.94
   5  -4   6    1.06    0.71
  -5  -4  -6    0.04    0.65
  -5  -4  -6    3.35    0.74
   5   4   6    1.06    0.68
  -5   4  -6    0.91    0.94
  -5   4  -6    0.56    0.67
  -6  -4  -6    4.68    1.54
   6  -4   6    5.09    0.89
  -6  -4  -6    5.32    0.93
  -6  -4  -6    4.66    0.88
  -6   4  -6    4.60    0.86
   6   4   6    4.68    0.96
  -8  -5   6   59.92    3.61
  -8  -5   6   63.86    4.08
  -8  -5   6   67.90    3.55
   8  -5  -6   67.62    3.51
  -8   5   6   65.30    3.43
   8   5  -6   68.76    3.20
   8   5  -6   60.51    3.44
   7  -5  -6    0.44    1.21
  -7  -5   6    1.35    1.26
  -7  -5   6   -0.88    1.28
  -7  -5   6    1.28    1.19
   7   5  -6    0.47    1.04
  -7   5   6    1.03    1.12
   7   5  -6    0.26    1.17
  -7   5   6   -0.26    0.82
  -6  -5   6   31.06    2.03
  -6  -5   6   30.99    2.52
  -6  -5   6   31.50    2.12
   6  -5  -6   31.32    1.99
   6  -5  -6   35.61    2.41
   6   5  -6   32.62    2.41
  -6   5   6   30.65    2.36
   6   5  -6   28.51    2.12
   6   5  -6   28.36    2.12
  -5  -5   6    1.82    1.63
  -5  -5   6    0.01    0.68
   5  -5  -6    0.50    1.04
  -5  -5   6    2.05    1.16
   5  -5  -6    1.54    1.09
  -5   5   6    0.34    0.78
   5   5  -6   -0.86    1.15
   5   5  -6    0.67    0.74
   5   5  -6    0.20    1.03
  -4  -5   6  122.71    5.14
   4  -5  -6  116.63    4.57
  -4  -5   6  122.87    4.65
   4  -5  -6  113.54    4.45
  -4  -5   6  127.16    4.68
   4   5  -6  116.05    4.66
   4   5  -6  122.26    4.55
  -4   5   6  124.62    4.73
   4   5  -6  121.72    4.50
  -3  -5   6   24.85    1.62
   3  -5  -6   26.12    1.95
  -3  -5   6   27.37    1.80
   3  -5  -6   18.65    1.60
   3  -5  -6   26.41    1.91
  -3  -5   6   22.53    2.09
   3   5  -6   23.52    1.73
  -3   5   6   21.36    1.70
   3   5  -6   24.78    1.81
   3   5  -6   25.33    1.98
  -2  -5   6   12.76    1.19
   2  -5  -6   10.74    1.08
   2  -5  -6   10.75    1.13
   2  -5  -6   11.22    1.35
  -2  -5   6   10.90    1.04
   2   5  -6   11.46    1.48
   2   5  -6   11.38    1.12
  -2   5   6   12.78    1.39
   2   5  -6   12.19    1.41
   1  -5  -6    5.73    1.12
   1  -5  -6    6.29    0.97
   1  -5  -6    4.20    0.80
   1  -5  -6    6.27    1.13
  -1  -5   6    5.20    0.90
   1   5  -6    5.86    1.22
  -1   5   6    4.30    1.09
   1   5  -6    6.86    1.20
   1   5  -6    4.57    0.92
   0  -5  -6   41.76    2.10
   0  -5  -6   43.41    2.37
   0  -5  -6   42.34    2.03
   0  -5  -6   41.65    2.34
   0  -5   6   40.37    1.91
   0   5  -6   45.52    2.42
   0   5   6   41.52    2.10
   0   5  -6   40.51    2.40
  -1  -5  -6   26.95    1.82
   1  -5   6   31.49    1.42
  -1  -5  -6   29.21    1.81
  -1  -5  -6   29.34    1.70
  -1   5  -6   30.01    1.99
   1   5   6   29.46    1.70
  -1   5  -6   26.77    2.04
  -2  -5  -6    9.67    1.18
  -2  -5  -6    9.51    1.33
  -2  -5  -6    9.24    1.22
   2   5   6    9.99    1.19
  -2   5  -6    7.76    1.08
  -2   5  -6    9.54    1.27
  -3  -5  -6    9.25    1.35
  -3  -5  -6    8.54    1.49
  -3  -5  -6    9.65    1.03
  -3   5  -6    7.00    1.12
  -3   5  -6   10.86    1.42
   3   5   6    8.17    1.12
  -4  -5  -6   65.29    3.50
   4  -5   6   65.65    2.92
  -4  -5  -6   64.42    2.98
  -4  -5  -6   65.55    2.91
   4   5   6   65.74    2.91
  -4   5  -6   66.19    3.17
  -4   5  -6   65.18    2.94
  -5  -5  -6   12.12    1.84
  -5  -5  -6   14.25    1.58
   5  -5   6   11.50    1.29
  -5  -5  -6   10.69    1.11
   5   5   6   11.29    1.25
  -5   5  -6   12.06    1.30
  -7  -6   6   28.65    2.36
   7  -6  -6   25.43    2.20
  -7  -6   6   25.35    2.61
  -7  -6   6   23.73    2.04
  -7   6   6   26.25    2.23
   7   6  -6   23.81    2.10
   7   6  -6   24.00    1.86
  -6  -6   6   12.93    1.52
   6  -6  -6   14.68    1.73
  -6  -6   6   13.63    2.07
   6  -6  -6   14.29    1.77
  -6  -6   6   13.36    1.77
   6   6  -6   10.89    1.56
  -6   6   6   14.34    1.72
   6   6  -6   12.96    1.84
   6   6  -6   14.69    1.75
  -5  -6   6   70.11    3.56
   5  -6  -6   74.11    3.55
   5  -6  -6   80.61    3.62
  -5  -6   6   72.51    3.35
  -5  -6   6   75.47    3.95
   5   6  -6   77.70    3.57
   5   6  -6   70.92    3.47
   5   6  -6   74.26    3.75
  -5   6   6   67.94    3.30
   4  -6  -6    4.05    1.14
   4  -6  -6    3.96    0.96
  -4  -6   6    5.88    1.05
  -4  -6   6    5.92    1.56
   4  -6  -6    5.74    1.30
  -4  -6   6    4.25    1.22
  -4   6   6    5.04    1.34
   4   6  -6    3.71    1.09
   4   6  -6    3.28    0.92
   4   6  -6    4.17    0.98
   3  -6  -6    5.84    1.28
   3  -6  -6    9.83    1.23
   3  -6  -6    6.83    1.24
  -3  -6   6    5.43    1.42
  -3  -6   6    7.18    1.26
   3   6  -6    8.74    1.04
   3   6  -6    4.75    1.43
  -3   6   6    7.50    1.40
   3   6  -6    7.61    1.32
   2  -6  -6    0.65    0.77
   2  -6  -6    0.11    0.72
  -2  -6   6    0.12    0.90
  -2  -6   6    1.13    1.15
   2  -6  -6    0.18    0.91
  -2   6   6    0.16    1.07
   2   6  -6    1.38    0.88
   2   6  -6   -0.42    1.18
   2   6  -6    0.94    0.79
   1  -6  -6   38.64    2.46
  -1  -6   6   47.24    2.22
   1  -6  -6   43.17    2.27
  -1  -6   6   38.92    2.36
   1  -6  -6   40.72    2.30
  -1   6   6   37.61    2.49
   1   6  -6   44.78    2.67
   1   6  -6   39.82    2.55
   0  -6  -6    1.37    1.05
   0  -6  -6    0.86    0.72
   0  -6  -6    1.58    1.06
   0  -6   6   -0.19    0.65
   0   6  -6    2.79    1.18
   0   6   6    0.30    1.02
   0   6  -6    2.60    1.14
  -1  -6  -6    5.18    1.01
  -1  -6  -6    6.16    1.26
  -1  -6  -6    5.51    0.99
  -1   6  -6    5.49    1.29
   1   6   6    5.53    0.98
  -1   6  -6    4.47    1.27
   2  -6   6    0.27    0.78
  -2  -6  -6    0.05    1.07
  -2  -6  -6   -0.28    0.93
  -2  -6  -6   -1.60    1.04
  -2   6  -6    1.15    1.08
   2   6   6    0.77    0.99
  -2   6  -6    0.53    0.83
   3  -6   6   28.77    2.25
  -3  -6  -6   30.09    2.08
  -3  -6  -6   32.36    2.13
  -3  -6  -6   30.75    2.53
   3   6   6   28.11    2.13
  -3   6  -6   29.99    2.23
  -3   6  -6   31.93    2.42
  -4  -6  -6    1.53    1.01
  -4  -6  -6    3.06    1.26
   4  -6   6    0.45    0.79
  -4  -6  -6    1.09    1.36
  -4   6  -6    1.45    0.94
  -4   6  -6    3.52    1.17
   4   6   6    2.71    1.09
  -5  -7   6    1.60    1.02
  -5  -7   6    2.76    1.33
  -5  -7   6    4.93    1.57
   5  -7  -6    2.60    1.05
   5  -7  -6    2.74    1.01
   5   7  -6    1.88    1.19
  -5   7   6    2.55    1.39
   5   7  -6    1.38    0.94
   5   7  -6    2.61    0.99
   4  -7  -6   55.32    2.87
  -4  -7   6   50.98    3.06
   4  -7  -6   50.58    2.61
  -4  -7   6   49.08    2.96
   4  -7  -6   55.13    3.09
   4   7  -6   47.30    2.93
  -4   7   6   51.94    3.17
   4   7  -6   50.81    3.02
   4   7  -6   43.00    3.27
  -3  -7   6    1.42    1.09
   3  -7  -6    0.99    0.88
   3  -7  -6   -0.80    0.79
  -3  -7   6   -0.31    1.13
   3  -7  -6    1.98    1.14
   3   7  -6    2.07    1.11
   3   7  -6    1.06    0.93
  -3   7   6   -0.20    1.27
   2  -7  -6    0.82    0.82
   2  -7  -6    2.52    1.26
  -2  -7   6    2.89    1.01
  -2   7   6    2.11    1.31
   2   7  -6    3.85    1.45
   2   7  -6    1.91    0.92
   1  -7  -6    0.18    0.78
  -1  -7   6    1.87    0.91
   1  -7  -6    1.33    1.21
   1   7  -6    0.35    1.23
  -1   7   6    0.26    0.85
   1   7  -6   -0.65    0.89
   0  -7   6   58.38    3.20
   0  -7  -6   51.86    3.01
   0  -7  -6   53.60    3.03
   0  -7  -6   52.66    2.63
   0   7  -6   52.63    2.89
   0   7   6   51.95    3.04
   0   7  -6   56.71    3.14
  -1  -7  -6    1.74    0.98
  -1  -7  -6    3.70    1.22
  -1  -7  -6    2.17    0.94
   1  -7   6    1.76    1.36
  -1   7  -6    2.66    1.04
   1   7   6    3.55    1.25
  -1   7  -6    2.68    1.42
  -2  -7  -6   21.82    1.86
   2  -7   6   19.08    1.94
  -2  -7  -6   19.73    1.72
  -2  -7  -6   18.08    1.92
  -2   7  -6   18.54    1.76
   2   7   6   20.06    1.76
  -2   7  -6   18.74    1.95
  10   0  -7    0.33    1.20
  10   0  -7   -0.93    0.91
  10   0  -7   -0.86    1.05
 -10   0   7   -0.05    0.86
 -10   0   7   -0.29    1.25
 -10   0   7    0.10    0.82
   9   0  -7   38.12    2.15
  -9   0   7   30.23    2.34
   9   0  -7   33.78    2.51
   9   0  -7   36.61    2.91
  -9   0   7   36.74    2.46
  -9   0   7   35.47    2.75
  -9   0   7   33.96    2.48
   8   0  -7   -0.48    0.67
  -8   0   7    0.62    0.76
  -8   0   7   -0.11    1.03
   8   0  -7   -0.95    0.98
  -8   0   7   -0.65    0.97
   8   0  -7    0.89    1.21
   8   0  -7   -0.63    0.98
  -7   0   7  168.57    5.77
   7   0  -7  172.85    5.99
   7   0  -7  168.76    6.02
   7   0  -7  169.25    6.07
  -7   0   7  161.05    5.84
  -7   0   7  162.76    5.92
   7   0  -7  169.42    5.97
   6   0  -7   -0.29    0.62
   6   0  -7    0.09    0.69
   6   0  -7    0.03    0.78
  -6   0   7    0.79    1.03
  -6   0   7    0.09    0.87
  -6   0   7   -1.37    0.79
   6   0  -7    0.00    0.89
   5   0  -7    1.29    0.62
  -5   0   7    1.88    0.58
  -5   0   7   -0.75    0.77
  -5   0   7   -0.78    1.00
   5   0  -7    0.26    0.76
   5   0  -7   -1.03    0.55
   5   0  -7    0.64    0.95
  -4   0   7    0.45    0.50
   4   0  -7   -0.36    0.68
  -4   0   7    0.73    0.64
   4   0  -7    0.77    0.58
   4   0  -7   -0.96    0.58
  -4   0   7    0.37    0.44
   3   0  -7  362.74   11.00
  -3   0   7  349.36   10.87
   3   0  -7  359.93   11.16
  -3   0   7  348.67   11.01
   3   0  -7  339.55   11.12
  -3   0   7  356.23   11.10
   2   0  -7   -0.05    0.41
   2   0  -7    0.20    0.46
  -2   0   7   -0.07    0.43
   2   0  -7   -0.13    0.64
  -2   0   7   -1.09    0.65
  -2   0   7    0.07    0.39
   1   0  -7  103.73    3.62
   1   0  -7  105.62    3.35
  -1   0   7  103.68    3.38
   1   0  -7  107.00    3.72
  -1   0   7  108.16    3.66
   0   0  -7    0.79    0.42
   0   0   7    0.44    0.48
   0   0  -7    0.33    0.46
   0   0  -7    0.84    0.54
   0   0   7    0.20    0.21
   1   0   7  127.27    4.06
  -1   0  -7  125.10    4.19
   1   0   7  125.37    4.03
  -1   0  -7  128.94    4.08
  -1   0  -7  124.23    4.07
  -2   0  -7    0.27    0.24
  -2   0  -7    0.15    0.49
  -2   0  -7    0.20    0.31
  -2   0  -7    0.12    0.86
   2   0   7    0.17    0.35
   2   0   7   -0.12    0.26
  -3   0  -7  105.91    3.89
  -3   0  -7   88.76    2.96
   3   0   7  102.64    3.01
  -3   0  -7   90.77    3.15
  -3   0  -7   95.13    2.97
   3   0   7   87.24    2.93
  -4   0  -7    0.11    0.14
  -4   0  -7    0.09    0.14
  -4   0  -7    0.30    0.68
  -5   0  -7    0.16    0.69
  -6   0  -7    1.53    1.09
  -7   0  -7   14.08    1.52
 -10  -1   7   13.40    1.65
 -10  -1   7   11.56    1.82
  10  -1  -7   13.90    1.65
 -10  -1   7   10.23    1.38
  10  -1  -7   12.19    1.90
 -10   1   7    8.11    1.28
 -10   1   7   10.55    1.58
  10   1  -7   10.62    1.44
  10   1  -7   12.01    1.65
 -10   1   7   12.23    2.10
   9  -1  -7    0.47    1.14
  -9  -1   7    1.67    1.37
   9  -1  -7    2.53    1.08
  -9  -1   7    1.43    1.22
  -9  -1   7    2.40    1.18
  -9  -1   7    3.40    1.25
  -9   1   7    0.37    1.24
   9   1  -7    2.31    0.92
  -9   1   7    1.93    0.92
  -9   1   7    3.41    1.24
   9   1  -7    0.84    1.06
   9   1  -7    2.55    1.37
   8  -1  -7   57.38    2.78
  -8  -1   7   62.85    3.07
   8  -1  -7   63.52    2.88
  -8  -1   7   63.37    2.99
   8  -1  -7   59.12    3.07
  -8  -1   7   66.51    3.13
  -8   1   7   61.20    3.08
   8   1  -7   59.46    2.83
   8   1  -7   58.21    3.01
  -8   1   7   57.35    2.99
  -8   1   7   60.58    2.76
   8   1  -7   59.72    2.94
  -7  -1   7  105.51    4.04
  -7  -1   7  109.89    4.18
   7  -1  -7  105.01    4.35
   7  -1  -7  109.07    4.19
   7  -1  -7  112.23    4.33
  -7  -1   7  107.18    4.21
   7   1  -7  112.25    4.37
   7   1  -7  113.64    4.33
   7   1  -7  108.74    4.25
  -7   1   7  105.58    4.27
  -7   1   7  108.32    4.32
  -7   1   7  110.75    4.08
  -6  -1   7   74.73    3.34
  -6  -1   7   73.41    3.10
   6  -1  -7   76.69    3.09
  -6  -1   7   76.86    2.97
   6  -1  -7   72.98    3.55
   6  -1  -7   72.90    3.12
  -6   1   7   73.90    3.11
  -6   1   7   76.58    3.33
   6   1  -7   79.82    3.26
   6   1  -7   71.58    3.21
   6   1  -7   74.11    3.16
  -6   1   7   71.72    3.23
  -5  -1   7    9.23    1.00
   5  -1  -7    9.46    1.17
  -5  -1   7   10.66    1.18
   5  -1  -7   10.02    1.08
   5  -1  -7    8.45    1.34
  -5  -1   7    9.50    1.29
   5   1  -7    8.88    0.98
  -5   1   7    9.34    1.24
   5   1  -7   11.39    1.15
  -5   1   7   11.26    1.08
  -5   1   7   10.34    0.95
   5   1  -7    8.95    1.19
   4  -1  -7   78.83    3.15
  -4  -1   7   80.98    3.14
  -4  -1   7   83.56    3.33
   4  -1  -7   81.66    3.26
   4  -1  -7   82.58    3.16
  -4  -1   7   82.71    2.98
  -4   1   7   75.40    3.10
  -4   1   7   80.86    3.08
   4   1  -7   85.59    3.26
   4   1  -7   77.74    3.31
   4   1  -7   81.92    3.12
  -4   1   7   77.26    2.93
  -3  -1   7   14.06    1.03
   3  -1  -7   14.94    1.34
  -3  -1   7   14.16    1.24
  -3  -1   7   14.81    0.99
   3  -1  -7   14.60    1.24
   3  -1  -7   15.42    1.23
   3  -1  -7   13.88    1.23
  -3   1   7   13.11    1.23
   3   1  -7   14.63    1.18
  -3   1   7   15.68    1.25
   3   1  -7   15.15    1.25
  -3   1   7   15.36    1.18
   3   1  -7   15.33    1.32
  -2  -1   7    2.23    0.83
  -2  -1   7    3.21    0.54
   2  -1  -7    2.67    0.56
   2  -1  -7    5.00    0.82
  -2  -1   7    3.73    0.47
   2  -1  -7    6.05    0.85
  -2   1   7    4.26    0.61
   2   1  -7    3.18    0.64
  -2   1   7    3.89    0.63
   2   1  -7    2.64    0.65
  -2   1   7    2.86    0.78
   2   1  -7    4.34    0.57
   1  -1  -7   12.75    1.04
   1  -1  -7   13.88    0.79
   1  -1  -7   13.22    1.10
  -1  -1   7   14.13    1.05
   1   1  -7   13.93    0.74
   1   1  -7   13.78    1.08
  -1   1   7   13.84    1.18
   1   1  -7   15.62    1.16
   0  -1  -7  210.82    6.52
   0  -1  -7  206.41    6.54
   0  -1   7  199.32    6.50
   0   1  -7  208.38    6.63
   0   1  -7  205.32    6.54
   0   1   7  207.38    6.48
   0   1  -7  193.29    6.61
   1  -1   7   -0.05    0.37
  -1  -1  -7   -0.19    0.86
  -1  -1  -7    0.33    0.48
   1  -1   7   -0.43    0.41
  -1  -1  -7   -0.02    0.39
   1   1   7   -0.77    0.46
  -1   1  -7    0.47    0.55
   1   1   7   -0.20    0.36
  -1   1  -7   -0.50    0.40
  -1   1  -7    0.27    0.32
  -2  -1  -7    2.37    0.39
   2  -1   7    2.41    0.46
  -2  -1  -7    3.19    0.47
  -2  -1  -7    3.01    0.80
  -2  -1  -7    2.25    0.68
  -2   1  -7    2.26    0.60
   2   1   7    2.56    0.44
  -2   1  -7    2.38    0.34
  -2   1  -7    1.56    0.46
  -3  -1  -7   16.49    1.42
   3  -1   7   15.28    0.73
  -3  -1  -7   10.92    0.67
  -3  -1  -7   16.18    1.16
   3   1   7   11.04    0.67
  -3   1  -7   15.63    1.04
  -3   1  -7   14.63    0.78
  -3   1  -7   11.42    0.63
  -4  -1  -7   44.55    1.57
   4  -1   7   44.61    1.53
  -4  -1  -7   47.76    2.01
  -4  -1  -7   51.60    2.67
  -4   1  -7   47.73    2.44
  -4   1  -7   43.47    1.86
   4   1   7   44.25    1.55
  -4   1  -7   43.96    1.55
  -5  -1  -7    3.19    0.68
   5  -1   7    3.18    0.36
  -5  -1  -7    3.32    0.93
  -5  -1  -7    2.96    0.33
   5   1   7    3.79    0.35
  -5   1  -7    4.05    0.86
  -5   1  -7    2.74    0.31
  -6  -1  -7    2.62    0.36
  -6  -1  -7    4.37    1.32
  -6   1  -7    2.86    0.33
  -6   1  -7    1.88    1.04
  -7  -1  -7   27.01    2.46
  -7  -1  -7   21.20    0.96
  -7   1  -7   20.92    1.90
 -10  -2   7   55.52    4.01
  10  -2  -7   51.30    3.33
  10  -2  -7   55.49    2.88
 -10  -2   7   56.77    2.94
  10   2  -7   52.43    2.87
 -10   2   7   57.60    3.56
 -10   2   7   48.08    2.82
  10   2  -7   53.96    3.19
 -10   2   7   48.37    3.03
  -9  -2   7   47.03    3.80
  -9  -2   7   51.28    2.71
   9  -2  -7   52.70    3.55
   9  -2  -7   47.87    2.65
   9   2  -7   51.69    2.97
  -9   2   7   52.69    2.91
   9   2  -7   49.00    2.70
  -8  -2   7    4.80    1.33
  -8  -2   7    2.96    1.12
  -8  -2   7    2.76    1.20
   8  -2  -7    5.85    1.24
   8  -2  -7    4.04    1.24
   8  -2  -7    4.56    0.95
  -8  -2   7    2.63    1.44
  -8   2   7    5.58    1.23
   8   2  -7    3.83    0.92
   8   2  -7    5.10    1.01
   8   2  -7    5.29    1.28
  -8   2   7    1.63    1.13
  -7  -2   7   26.10    1.74
   7  -2  -7   27.93    2.10
  -7  -2   7   29.69    2.33
  -7  -2   7   27.34    1.82
   7  -2  -7   27.41    2.14
   7  -2  -7   32.18    2.22
  -7   2   7   25.70    1.73
   7   2  -7   28.50    2.02
  -7   2   7   27.63    2.15
   7   2  -7   29.19    2.15
   7   2  -7   27.95    1.89
  -6  -2   7   36.76    2.23
   6  -2  -7   37.80    2.31
  -6  -2   7   41.23    1.95
  -6  -2   7   39.36    2.18
   6  -2  -7   34.56    2.29
   6  -2  -7   37.08    2.31
  -6   2   7   39.93    2.11
   6   2  -7   34.94    1.98
  -6   2   7   36.99    1.95
   6   2  -7   35.36    2.38
   6   2  -7   38.94    2.29
   5  -2  -7   53.14    3.06
  -5  -2   7   61.25    2.54
  -5  -2   7   56.79    2.91
  -5  -2   7   59.66    2.56
   5  -2  -7   57.38    2.77
   5  -2  -7   57.02    2.71
   5   2  -7   60.54    2.59
   5   2  -7   57.57    2.67
   5   2  -7   58.20    2.68
  -5   2   7   60.43    2.64
  -5   2   7   58.91    2.83
   4  -2  -7   51.82    2.24
   4  -2  -7   53.68    2.48
  -4  -2   7   51.22    2.39
   4  -2  -7   45.93    2.27
  -4  -2   7   51.31    2.32
   4   2  -7   55.60    2.49
   4   2  -7   49.65    2.30
   4   2  -7   51.22    2.56
  -4   2   7   47.85    2.27
  -4   2   7   48.29    2.50
   3  -2  -7    5.39    0.94
   3  -2  -7    4.54    0.82
  -3  -2   7    0.54    0.95
  -3  -2   7    2.39    0.68
   3  -2  -7    3.95    0.76
   3   2  -7    1.75    0.93
   3   2  -7    3.56    0.89
   3   2  -7    3.71    0.71
   2  -2  -7   75.75    2.91
   2  -2  -7   75.13    2.83
  -2  -2   7   76.32    2.77
  -2  -2   7   78.12    3.10
   2  -2  -7   76.54    3.13
   2   2  -7   77.94    2.98
   2   2  -7   75.58    3.05
  -2   2   7   78.63    2.91
   2   2  -7   77.76    2.75
  -2   2   7   73.67    2.85
   1  -2  -7   44.28    1.90
  -1  -2   7   48.94    2.17
   1  -2  -7   42.20    1.78
  -1   2   7   43.94    2.04
   1   2  -7   43.91    2.10
  -1   2   7   44.46    1.78
   1   2  -7   46.30    2.14
   1   2  -7   46.51    1.67
   0  -2  -7    4.77    0.61
   0  -2  -7    4.06    0.66
   0  -2  -7    6.72    0.91
   0  -2   7    5.25    0.83
   0   2   7    6.02    0.74
   0   2  -7    5.10    0.85
   0   2  -7    4.44    0.78
  -1  -2  -7   53.40    2.73
   1  -2   7   58.20    2.28
  -1  -2  -7   58.39    2.14
  -1  -2  -7   57.45    2.48
  -1  -2  -7   57.59    2.22
  -1   2  -7   57.06    2.27
   1   2   7   60.50    2.22
  -1   2  -7   57.83    2.43
  -2  -2  -7   32.41    1.77
   2  -2   7   34.38    1.52
  -2  -2  -7   32.83    1.45
  -2  -2  -7   34.50    1.97
  -2  -2  -7   32.58    1.31
  -2   2  -7   33.43    1.61
  -2   2  -7   33.09    1.48
   2   2   7   31.75    1.51
  -3  -2  -7    2.12    0.44
   3  -2   7    2.00    0.55
  -3  -2  -7    2.54    0.76
  -3  -2  -7    3.09    1.12
  -3   2  -7    1.05    0.49
  -3   2  -7    2.15    0.44
   3   2   7    3.61    0.55
  -4  -2  -7    5.72    0.61
  -4  -2  -7    6.28    0.92
  -4  -2  -7    6.49    1.33
  -4   2  -7    6.58    0.86
  -4   2  -7    6.19    0.62
   4   2   7    7.38    0.63
  -5  -2  -7   30.87    2.40
  -5  -2  -7   28.18    1.69
  -5  -2  -7   27.30    1.27
   5   2   7   27.11    1.26
  -5   2  -7   27.19    1.23
  -6  -2  -7   26.06    2.14
  -6  -2  -7   30.76    1.34
   6  -2   7   29.25    1.30
   6   2   7   27.89    1.31
  -6   2  -7   29.81    1.28
 -10  -3   7   -1.24    1.94
 -10  -3   7    2.73    1.44
  10  -3  -7    2.81    2.07
  10  -3  -7    2.92    1.40
 -10   3   7    2.78    1.08
  10   3  -7    2.03    1.38
  10   3  -7    0.99    1.10
  -9  -3   7   21.99    2.07
   9  -3  -7   22.41    1.92
  -9  -3   7   23.01    2.68
   9  -3  -7   24.25    2.29
   9   3  -7   20.54    1.81
   9   3  -7   21.38    2.01
  -9   3   7   18.91    1.87
   8  -3  -7   88.72    3.78
  -8  -3   7   90.28    4.38
   8  -3  -7   87.04    4.58
  -8  -3   7   88.29    3.84
   8   3  -7   83.52    3.94
  -8   3   7   91.81    3.91
  -8   3   7   93.98    3.91
   8   3  -7   93.84    4.03
   8   3  -7   89.21    3.81
  -7  -3   7    2.22    0.87
   7  -3  -7    2.44    1.15
   7  -3  -7    4.67    1.19
  -7  -3   7    1.60    1.85
   7  -3  -7    2.70    1.14
   7   3  -7    2.95    1.11
   7   3  -7    3.21    1.20
  -7   3   7    3.89    0.92
   7   3  -7    2.14    1.20
  -7   3   7    3.62    0.88
   6  -3  -7    3.23    1.10
   6  -3  -7    6.47    1.21
  -6  -3   7    5.42    1.09
  -6  -3   7    6.43    1.19
   6  -3  -7    5.93    1.00
   6   3  -7    3.90    0.89
  -6   3   7    6.41    1.25
   6   3  -7    6.19    0.96
  -6   3   7    5.94    0.93
   6   3  -7    4.92    1.30
  -5  -3   7  117.55    4.44
   5  -3  -7  122.78    4.54
   5  -3  -7  118.68    4.48
   5  -3  -7  111.31    4.74
  -5  -3   7  121.31    4.64
  -5   3   7  121.00    4.38
   5   3  -7  116.04    4.31
   5   3  -7  116.24    4.35
  -5   3   7  115.29    4.37
   5   3  -7  113.41    4.59
  -4  -3   7   96.56    4.00
   4  -3  -7  106.91    3.87
   4  -3  -7  103.49    4.14
   4  -3  -7  101.71    3.91
  -4  -3   7   93.65    3.67
  -4   3   7   97.75    3.90
   4   3  -7   99.78    3.75
   4   3  -7   93.22    3.97
   4   3  -7   94.16    3.85
   3  -3  -7   56.50    2.58
  -3  -3   7   56.02    2.55
   3  -3  -7   57.94    2.50
   3  -3  -7   56.74    2.55
  -3  -3   7   56.24    2.44
   3   3  -7   56.94    2.42
  -3   3   7   57.26    2.50
   3   3  -7   58.22    2.67
   3   3  -7   57.33    2.58
  -2  -3   7    6.57    0.78
  -2  -3   7    7.92    0.99
   2  -3  -7    6.97    1.08
   2  -3  -7    9.06    1.00
   2  -3  -7    7.98    1.08
   2   3  -7    7.56    0.98
   2   3  -7    7.50    0.80
   2   3  -7    8.68    1.11
  -2   3   7    8.67    1.09
   1  -3  -7   75.39    3.05
   1  -3  -7   70.86    2.69
   1  -3  -7   77.13    2.95
   1  -3  -7   68.08    2.77
  -1  -3   7   70.89    3.03
   1   3  -7   73.48    2.61
   1   3  -7   72.08    3.01
  -1   3   7   74.77    2.94
   1   3  -7   74.05    3.04
   0  -3  -7  104.79    4.01
   0  -3  -7  104.29    4.17
   0  -3   7  103.42    3.80
   0  -3  -7  109.94    3.83
   0   3  -7  112.86    4.05
   0   3  -7  112.33    3.95
   0   3   7  106.48    3.86
  -1  -3  -7  162.26    5.80
  -1  -3  -7  165.75    5.36
  -1  -3  -7  163.27    5.68
   1  -3   7  162.37    5.49
  -1  -3  -7  160.25    5.48
  -1   3  -7  168.53    5.62
  -1   3  -7  165.43    5.51
   1   3   7  165.75    5.46
  -2  -3  -7    7.68    0.83
  -2  -3  -7    5.60    1.01
  -2  -3  -7    8.61    0.95
  -2   3  -7    8.81    1.07
   2   3   7    8.39    0.84
  -2   3  -7    6.96    0.85
  -3  -3  -7    3.84    1.22
  -3  -3  -7    4.47    0.80
  -3  -3  -7    3.82    0.67
   3   3   7    3.50    0.64
  -3   3  -7    3.29    0.68
  -3   3  -7    3.77    0.89
  -4  -3  -7   84.77    3.85
  -4  -3  -7   74.29    2.91
  -4  -3  -7   81.92    3.34
  -4   3  -7   82.69    3.00
   4   3   7   82.28    2.98
  -4   3  -7   76.70    3.11
  -5  -3  -7   64.83    2.49
  -5  -3  -7   57.45    3.39
  -5  -3  -7   59.69    2.67
   5   3   7   64.04    2.47
  -5   3  -7   61.89    2.39
  -5   3  -7   60.52    2.72
  -6  -3  -7    3.50    1.45
   6  -3   7    1.38    0.56
  -6  -3  -7    1.69    0.66
  -6  -3  -7    1.80    0.68
  -6   3  -7    1.26    0.65
   6   3   7    1.43    0.65
  -9  -4   7    2.01    1.98
   9  -4  -7    0.98    1.52
  -9  -4   7    4.07    1.54
   9  -4  -7    1.27    1.36
  -9  -4   7    3.08    1.36
  -9   4   7    3.38    1.37
   9   4  -7    0.90    0.82
   9   4  -7    1.69    0.99
  -8  -4   7   28.60    2.45
  -8  -4   7   31.04    2.45
   8  -4  -7   39.61    3.07
  -8  -4   7   31.31    2.94
   8  -4  -7   30.67    2.55
  -8   4   7   30.79    2.42
   8   4  -7   31.79    2.55
  -8   4   7   28.84    2.19
   8   4  -7   29.07    1.97
  -7  -4   7   57.32    3.08
   7  -4  -7   54.29    3.26
  -7  -4   7   57.31    3.40
   7  -4  -7   56.13    3.09
   7  -4  -7   59.64    3.03
   7   4  -7   57.69    2.91
   7   4  -7   55.29    2.89
  -7   4   7   54.93    3.03
  -7   4   7   53.87    2.70
   7   4  -7   59.54    2.87
  -6  -4   7   34.22    2.15
   6  -4  -7   36.88    2.55
   6  -4  -7   36.31    2.41
  -6  -4   7   40.85    2.88
   6  -4  -7   40.55    2.20
   6   4  -7   34.69    2.25
  -6   4   7   38.49    2.56
   6   4  -7   39.79    2.47
   6   4  -7   37.18    2.12
  -6   4   7   37.99    2.39
   5  -4  -7   12.96    1.48
  -5  -4   7   15.15    1.36
   5  -4  -7   14.93    1.41
   5  -4  -7   17.19    1.64
   5   4  -7   17.32    1.71
   5   4  -7   15.47    1.37
  -5   4   7   15.62    1.60
   5   4  -7   18.96    1.55
   4  -4  -7   22.70    1.90
   4  -4  -7   18.36    1.81
   4  -4  -7   27.59    1.96
   4   4  -7   26.46    1.82
   4   4  -7   24.85    1.80
   4   4  -7   25.06    1.94
  -3  -4   7   81.07    3.25
   3  -4  -7   83.05    3.47
   3  -4  -7   87.36    3.34
   3  -4  -7   82.17    3.58
   3   4  -7   73.91    3.53
   3   4  -7   77.39    3.29
  -3   4   7   82.59    3.48
   3   4  -7   82.46    3.22
   2  -4  -7  145.52    5.06
   2  -4  -7  143.90    5.15
   2  -4  -7  142.71    5.22
   2  -4  -7  150.41    5.18
   2   4  -7  139.98    5.17
  -2   4   7  141.90    5.10
   2   4  -7  147.62    4.96
   2   4  -7  150.32    5.25
   1  -4  -7  156.53    5.64
   1  -4  -7  155.13    5.46
   1  -4  -7  160.89    5.61
   1   4  -7  167.23    5.73
  -1   4   7  159.32    5.58
   1   4  -7  160.06    5.67
   0  -4   7    0.70    0.59
   0  -4  -7    1.53    1.01
   0  -4  -7    1.61    0.82
   0  -4  -7    1.26    0.94
   0  -4  -7    1.34    0.58
   0   4  -7    2.02    0.71
   0   4  -7    1.57    0.69
   0   4   7    0.33    0.83
  -1  -4  -7   45.65    2.51
  -1  -4  -7   38.10    2.07
  -1  -4  -7   38.69    2.07
   1  -4   7   41.96    1.70
  -1   4  -7   44.26    2.15
  -1   4  -7   42.78    2.17
   1   4   7   41.82    1.95
  -2  -4  -7   61.72    2.90
  -2  -4  -7   58.64    2.60
  -2  -4  -7   64.32    3.18
   2   4   7   61.00    2.63
  -2   4  -7   63.06    2.74
  -2   4  -7   63.00    2.68
  -3  -4  -7   78.31    3.61
  -3  -4  -7   84.95    3.53
  -3  -4  -7   82.84    3.21
   3   4   7   77.32    3.17
  -3   4  -7   85.89    3.49
  -3   4  -7   83.82    3.23
  -4  -4  -7   12.63    1.26
  -4  -4  -7   12.69    1.49
  -4  -4  -7   14.90    1.27
  -4   4  -7   11.57    1.13
   4   4   7   11.61    1.11
  -4   4  -7   12.91    1.22
  -5  -4  -7    9.63    1.74
   5  -4   7   10.62    1.05
  -5  -4  -7    7.22    1.25
  -5  -4  -7    9.81    1.04
  -5   4  -7    9.76    1.32
   5   4   7   11.22    1.09
  -5   4  -7    8.82    1.03
  -8  -5   7    7.13    1.59
   8  -5  -7    6.97    1.60
  -8  -5   7    8.17    2.20
  -8  -5   7    8.12    1.41
  -8   5   7    8.30    1.32
   8   5  -7    7.21    1.31
   8   5  -7    7.65    1.43
  -7  -5   7    6.64    1.20
   7  -5  -7    5.13    1.42
  -7  -5   7    4.59    1.21
  -7  -5   7    5.53    1.53
   7  -5  -7    6.03    1.42
  -7   5   7    6.81    1.46
   7   5  -7    4.94    1.06
   7   5  -7    8.13    1.33
  -7   5   7    6.77    1.39
   7   5  -7    5.18    1.41
   6  -5  -7   17.09    1.77
  -6  -5   7   19.87    1.94
  -6  -5   7   19.81    1.82
  -6  -5   7   20.11    2.03
   6  -5  -7   17.23    1.59
   6   5  -7   21.50    1.86
  -6   5   7   17.01    1.79
   6   5  -7   17.57    1.94
   6   5  -7   19.52    1.72
  -5  -5   7   11.19    1.46
   5  -5  -7    9.49    1.24
   5  -5  -7   11.61    1.49
  -5  -5   7   11.58    2.10
  -5  -5   7    7.74    1.47
   5   5  -7   10.30    1.68
   5   5  -7   10.36    1.20
   5   5  -7   10.91    1.50
  -5   5   7   13.21    1.61
   4  -5  -7   45.45    2.45
  -4  -5   7   46.18    2.34
   4  -5  -7   47.34    2.63
  -4  -5   7   46.68    2.64
   4   5  -7   44.89    2.62
  -4   5   7   49.62    2.77
   4   5  -7   48.92    2.56
   4   5  -7   49.32    2.90
   3  -5  -7    2.53    0.81
   3  -5  -7    2.69    0.87
   3  -5  -7    4.58    1.20
   3  -5  -7    2.55    0.98
  -3  -5   7    1.02    0.97
   3   5  -7    1.69    0.80
   3   5  -7    3.31    1.25
  -3   5   7    3.18    0.92
   3   5  -7    3.10    0.89
   2  -5  -7    1.98    1.03
   2  -5  -7    1.34    0.98
   2  -5  -7   -0.09    0.83
  -2  -5   7    0.23    0.85
   2  -5  -7    0.20    0.70
  -2   5   7    0.19    0.69
   2   5  -7    1.18    0.79
   2   5  -7    0.27    0.79
   1  -5  -7   12.88    1.44
  -1  -5   7   16.26    1.27
   1  -5  -7   14.81    1.35
   1   5  -7   14.40    1.38
  -1   5   7   14.94    1.30
   1   5  -7   13.57    1.52
   0  -5  -7   55.21    2.86
   0  -5  -7   55.65    2.58
   0  -5  -7   64.24    2.92
   0  -5   7   53.95    2.34
   0   5  -7   54.98    2.67
   0   5   7   57.32    2.57
   0   5  -7   55.51    2.63
  -1  -5  -7    1.55    0.90
  -1  -5  -7    0.59    0.78
  -1  -5  -7    0.22    0.70
  -1   5  -7   -0.10    0.96
   1   5   7    0.17    0.87
  -1   5  -7    0.60    1.02
  -2  -5  -7   18.26    1.57
  -2  -5  -7   20.41    1.91
  -2  -5  -7   19.52    1.64
   2   5   7   19.23    1.70
  -2   5  -7   20.13    1.49
  -2   5  -7   23.66    2.00
  -3  -5  -7   35.86    2.14
  -3  -5  -7   36.92    2.39
  -3  -5  -7   35.41    2.08
   3   5   7   35.71    2.11
  -3   5  -7   37.37    2.44
  -3   5  -7   37.49    2.18
  -4  -5  -7   18.74    1.90
  -4  -5  -7   20.01    1.68
  -4  -5  -7   22.70    1.92
   4  -5   7   22.95    1.79
  -4   5  -7   20.84    1.77
  -4   5  -7   23.52    1.88
   4   5   7   22.67    1.74
  -7  -6   7   -1.24    1.20
  -7  -6   7   -1.11    1.77
  -7  -6   7   -0.26    1.44
   7  -6  -7   -1.50    1.28
  -7   6   7    0.77    1.32
   7   6  -7    1.28    1.29
   7   6  -7   -0.64    0.81
  -7   6   7   -0.38    0.95
   6  -6  -7   11.88    1.72
  -6  -6   7   13.00    1.71
  -6  -6   7   10.21    2.05
   6  -6  -7   13.62    1.53
  -6  -6   7    9.43    1.69
  -6   6   7   15.99    1.85
   6   6  -7   14.87    1.70
   6   6  -7   12.10    1.46
   6   6  -7   13.70    1.70
  -5  -6   7    3.48    1.70
  -5  -6   7   -0.41    1.19
  -5  -6   7    0.77    1.12
   5  -6  -7    1.02    0.88
   5  -6  -7    0.83    0.86
   5   6  -7    0.57    1.40
   5   6  -7   -0.23    1.17
   5   6  -7    0.65    0.82
  -5   6   7   -0.50    1.21
  -4  -6   7    0.19    1.10
   4  -6  -7    1.35    1.09
  -4  -6   7    1.10    1.46
   4  -6  -7    1.02    0.85
   4   6  -7    0.94    1.03
  -4   6   7    1.27    1.24
   4   6  -7   -0.09    1.30
   4   6  -7    1.21    1.20
   3  -6  -7   -0.38    0.78
  -3  -6   7   -0.67    0.97
   3  -6  -7   -0.09    0.98
  -3  -6   7    0.97    0.75
   3  -6  -7   -1.34    0.69
   3   6  -7    0.54    1.27
   3   6  -7   -0.27    1.13
  -3   6   7   -0.47    1.17
   2  -6  -7    8.15    1.40
  -2  -6   7    6.49    1.14
   2  -6  -7    5.39    1.28
   2  -6  -7    8.24    1.32
  -2  -6   7    5.88    1.48
  -2   6   7    7.65    1.40
   2   6  -7    7.16    1.39
   2   6  -7    5.80    1.45
  -1  -6   7    5.77    0.83
   1  -6  -7    2.31    1.17
  -1  -6   7    3.79    1.29
   1  -6  -7    2.91    0.93
   1   6  -7    3.26    0.98
  -1   6   7    6.13    1.30
   1   6  -7    4.56    1.07
   0  -6  -7   17.27    1.68
   0  -6  -7   16.50    1.64
   0  -6  -7   15.09    1.48
   0  -6   7   15.80    1.42
   0   6   7   14.03    1.55
   0   6  -7   15.13    1.65
   0   6  -7   14.24    1.50
  -1  -6  -7    0.12    0.79
  -1  -6  -7    0.07    1.13
  -1  -6  -7    1.79    0.80
  -1   6  -7    0.72    0.83
  -1   6  -7    0.69    0.84
   1   6   7    1.20    1.09
  -2  -6  -7    3.30    1.11
  -2  -6  -7    5.92    1.45
  -2  -6  -7    4.81    1.33
  -2   6  -7    5.04    1.03
  -2   6  -7    4.74    1.36
   2   6   7    5.28    1.18
  -3  -6  -7    4.27    1.08
   3  -6   7    3.05    1.21
  -3  -6  -7    3.76    1.53
  -3  -6  -7    3.09    1.12
  -3   6  -7    3.02    1.08
   3   6   7    6.48    1.24
  -3   6  -7    4.14    1.25
  -4  -7   7   17.48    1.87
   4  -7  -7   15.30    1.92
   4  -7  -7   15.18    1.57
  -4  -7   7   16.22    1.97
   4   7  -7   13.97    1.59
   4   7  -7   15.62    2.11
  -4   7   7   14.05    1.62
  -3  -7   7    7.25    1.37
   3  -7  -7    5.19    1.38
   3  -7  -7    6.15    1.24
  -3  -7   7    9.03    1.49
   3   7  -7    8.98    1.34
  -3   7   7    6.06    1.58
   3   7  -7    9.67    1.82
  -2  -7   7   -0.97    0.97
   2  -7  -7   -0.27    1.23
   2  -7  -7   -0.88    1.17
  -2   7   7    0.53    1.26
   2   7  -7    0.95    1.28
   2   7  -7    0.41    0.99
  -1  -7   7   20.65    1.77
   1  -7  -7   28.40    2.36
   1  -7  -7   22.51    1.92
   1   7  -7   20.25    1.87
  -1   7   7   23.82    2.08
   1   7  -7   23.78    2.10
   0  -7  -7   17.71    1.69
   0  -7  -7   14.67    1.80
   0  -7  -7   18.11    1.79
   0   7   7   15.01    1.59
   0   7  -7   15.30    1.93
   0   7  -7   16.61    1.73
  10   0  -8    1.29    1.27
 -10   0   8   -0.90    1.27
  10   0  -8    0.87    1.16
  10   0  -8    1.05    1.48
 -10   0   8    0.43    0.89
 -10   0   8    0.73    0.91
  -9   0   8   -1.12    1.11
   9   0  -8   -1.16    1.33
   9   0  -8    0.42    0.84
   9   0  -8   -1.50    0.70
  -9   0   8   -1.47    1.13
  -9   0   8   -1.52    1.07
  -8   0   8   62.95    3.19
   8   0  -8   62.83    2.97
  -8   0   8   61.90    3.01
   8   0  -8   61.24    3.46
   8   0  -8   61.22    2.92
   8   0  -8   68.10    3.20
  -8   0   8   60.95    3.13
  -7   0   8    0.54    0.98
  -7   0   8    1.50    0.70
   7   0  -8    0.58    0.99
  -7   0   8    1.18    0.82
   7   0  -8    1.18    1.06
   7   0  -8   -0.71    0.82
   7   0  -8    0.83    1.05
   6   0  -8   67.58    2.92
   6   0  -8   69.97    3.23
  -6   0   8   71.42    2.97
  -6   0   8   66.92    3.23
   6   0  -8   70.97    3.00
   6   0  -8   64.39    3.14
  -6   0   8   71.58    3.12
  -5   0   8    0.86    0.76
   5   0  -8    0.41    0.81
   5   0  -8    0.41    0.75
  -5   0   8    0.96    0.83
   5   0  -8   -0.25    0.90
  -5   0   8    1.34    0.80
  -4   0   8   72.13    3.20
  -4   0   8   80.78    2.87
   4   0  -8   82.62    3.05
   4   0  -8   69.99    3.16
  -4   0   8   72.20    3.01
   4   0  -8   69.45    3.12
  -3   0   8    0.64    0.87
   3   0  -8    0.35    0.87
   3   0  -8    0.31    0.79
  -3   0   8    0.11    0.52
  -3   0   8    0.72    0.60
   3   0  -8   -0.05    0.56
  -2   0   8  108.05    3.84
   2   0  -8  111.55    3.64
   2   0  -8  109.92    3.96
  -2   0   8  104.92    3.65
   2   0  -8  105.77    3.95
  -2   0   8  110.41    3.59
   1   0  -8   -0.70    0.42
  -1   0   8   -0.16    0.65
   1   0  -8   -0.06    0.45
  -1   0   8   -0.09    0.28
   0   0  -8   18.09    1.18
   0   0   8   17.80    0.70
   0   0  -8   16.63    1.08
   0   0   8   18.14    1.21
  -1   0  -8   -0.26    0.49
  -1   0  -8   -0.10    0.43
   1   0   8    0.11    0.45
  -2   0  -8   95.82    3.44
   2   0   8  106.41    3.46
  -2   0  -8  114.86    3.63
  -3   0  -8   -1.01    0.97
   3   0   8   -0.41    0.34
  -3   0  -8    0.18    0.30
  -4   0  -8   12.44    0.65
  -4   0  -8   11.83    1.50
   4   0   8   12.47    0.64
  -5   0  -8    0.37    0.20
  -5   0  -8   -0.19    1.09
  -6   0  -8   14.45    1.74
 -10  -1   8   -0.25    0.84
  10  -1  -8    0.94    0.90
 -10  -1   8    0.85    1.44
  10  -1  -8    0.41    1.27
  10  -1  -8   -0.18    1.57
 -10  -1   8   -1.26    1.20
  10   1  -8    1.57    1.20
 -10   1   8    0.57    1.27
 -10   1   8    2.30    1.30
 -10   1   8    0.62    1.79
  10   1  -8    0.17    1.25
  -9  -1   8   18.87    1.82
   9  -1  -8   14.66    1.71
   9  -1  -8   16.64    1.79
   9  -1  -8   14.55    1.71
  -9  -1   8   16.99    1.82
  -9  -1   8   16.50    1.71
  -9   1   8   17.86    1.78
  -9   1   8   15.59    1.56
   9   1  -8   13.63    1.48
   9   1  -8   14.56    1.63
  -9   1   8   13.44    1.45
   8  -1  -8   10.81    1.46
  -8  -1   8    9.14    1.26
   8  -1  -8    9.95    1.25
   8  -1  -8   10.11    1.25
  -8  -1   8    9.57    1.28
  -8  -1   8    9.99    1.35
   8  -1  -8   10.13    1.45
   8   1  -8    9.86    1.47
   8   1  -8    9.59    1.18
  -8   1   8    8.94    1.46
  -8   1   8    9.77    1.42
  -8   1   8   11.56    1.24
   8   1  -8   10.57    1.50
  -7  -1   8    0.34    1.18
  -7  -1   8    1.63    1.07
   7  -1  -8    0.39    1.08
  -7  -1   8    0.19    0.68
   7  -1  -8    1.69    0.83
   7  -1  -8    0.88    1.09
   7  -1  -8    1.78    1.32
  -7   1   8    2.53    1.11
  -7   1   8    1.47    0.99
   7   1  -8    1.00    0.77
   7   1  -8    2.15    0.84
   7   1  -8    1.78    0.89
  -7   1   8    1.01    1.13
  -6  -1   8    3.35    1.03
  -6  -1   8    2.84    0.92
   6  -1  -8    1.81    1.05
   6  -1  -8    3.61    1.00
   6  -1  -8    2.24    1.02
   6  -1  -8    2.58    1.12
  -6  -1   8    2.70    1.23
   6   1  -8    4.22    1.06
  -6   1   8    2.51    0.96
  -6   1   8    2.60    0.93
   6   1  -8    3.23    0.81
   6   1  -8    1.65    1.15
  -6   1   8    3.48    1.05
   5  -1  -8   90.59    3.46
   5  -1  -8   87.44    3.53
   5  -1  -8   89.03    3.58
  -5  -1   8   94.52    3.32
  -5  -1   8   94.00    3.83
   5  -1  -8   91.65    3.74
  -5  -1   8   90.14    3.49
  -5   1   8   90.79    3.73
  -5   1   8   86.15    3.32
   5   1  -8   90.96    3.79
   5   1  -8   88.37    3.66
  -5   1   8   88.30    3.60
   5   1  -8   90.07    3.56
   4  -1  -8    6.21    1.07
  -4  -1   8    6.69    1.18
  -4  -1   8    6.68    0.81
   4  -1  -8    5.86    0.97
  -4  -1   8    5.99    0.94
   4  -1  -8    5.46    1.10
  -4   1   8    4.81    1.08
   4   1  -8    6.07    1.14
   4   1  -8    5.25    0.85
  -3  -1   8    6.20    0.68
   3  -1  -8    5.30    0.81
   3  -1  -8    4.95    0.78
   3  -1  -8    5.94    1.05
  -3  -1   8    4.17    0.81
  -3  -1   8    4.74    0.75
   3   1  -8    5.08    0.73
  -3   1   8    4.94    0.75
   3   1  -8    5.05    0.84
   3   1  -8    4.42    0.97
  -3   1   8    5.51    0.81
  -3   1   8    7.00    1.06
  -2  -1   8   28.99    1.38
  -2  -1   8   32.13    1.89
   2  -1  -8   30.44    1.43
   2  -1  -8   27.30    1.74
   2  -1  -8   31.38    1.76
  -2  -1   8   32.21    1.29
  -2   1   8   28.12    1.41
  -2   1   8   29.00    1.44
   2   1  -8   31.21    1.38
  -2   1   8   29.12    1.79
   2   1  -8   32.93    1.82
   2   1  -8   30.91    1.64
  -1  -1   8   63.87    2.64
   1  -1  -8   63.78    2.60
   1  -1  -8   65.92    2.59
  -1   1   8   63.12    2.58
  -1   1   8   62.06    2.33
   1   1  -8   66.56    2.64
   1   1  -8   67.37    2.69
   0  -1   8    0.82    0.64
   0  -1  -8   -0.05    0.52
   0  -1  -8    0.74    0.57
   0   1  -8    1.04    0.49
   0   1   8    0.89    0.59
   0   1  -8   -0.40    0.60
  -1  -1  -8   17.95    1.07
   1  -1   8   17.28    1.16
  -1  -1  -8   16.35    1.05
  -1   1  -8   17.08    1.26
   1   1   8   18.14    1.09
  -1   1  -8   15.89    1.11
  -2  -1  -8  119.68    3.91
  -2  -1  -8  116.35    4.50
   2  -1   8  117.19    3.88
  -2  -1  -8  118.02    3.89
  -2   1  -8  117.10    4.10
  -2   1  -8  118.51    3.94
   2   1   8  120.24    3.89
  -3  -1  -8   24.24    1.13
   3   1   8   27.08    1.21
  -4  -1  -8   21.29    0.94
   4  -1   8   19.21    0.94
  -4  -1  -8   19.05    1.69
   4   1   8   19.34    0.94
  -4   1  -8   20.53    0.90
  -5  -1  -8    5.81    1.41
  -5  -1  -8    4.88    0.44
  -5   1  -8    5.11    0.42
  -6  -1  -8   23.51    0.98
  -6  -1  -8   23.87    2.16
  -6   1  -8   24.22    2.16
  10  -2  -8   26.21    2.26
 -10  -2   8   25.37    2.90
  10  -2  -8   20.87    2.57
 -10  -2   8   23.48    2.02
 -10   2   8   24.13    2.23
 -10   2   8   25.39    2.24
 -10   2   8   26.31    2.23
  10   2  -8   21.77    2.14
  10   2  -8   22.97    1.84
  -9  -2   8    9.75    1.58
  -9  -2   8    6.29    2.20
   9  -2  -8    8.88    1.60
   9  -2  -8    6.31    1.44
  -9  -2   8    6.03    1.19
  -9  -2   8    7.24    1.39
  -9   2   8    8.46    1.19
   9   2  -8    6.57    1.45
  -9   2   8    9.26    1.51
   9   2  -8    8.56    1.42
  -9   2   8    9.29    1.58
   8  -2  -8    4.59    1.24
  -8  -2   8    4.05    1.27
  -8  -2   8    5.21    1.12
   8  -2  -8    3.10    1.24
  -8  -2   8    4.50    0.93
   8  -2  -8    4.99    1.28
   8   2  -8    4.96    1.33
  -8   2   8    2.74    0.97
   8   2  -8    3.41    1.20
  -8   2   8    3.16    0.96
   8   2  -8    4.91    1.22
  -8   2   8    2.05    1.13
   7  -2  -8   35.23    2.42
   7  -2  -8   38.70    2.46
  -7  -2   8   35.31    2.37
  -7  -2   8   35.88    2.01
   7  -2  -8   34.18    2.09
  -7  -2   8   39.15    2.63
  -7   2   8   37.21    2.20
  -7   2   8   37.46    2.40
   7   2  -8   37.55    2.10
   7   2  -8   32.52    2.38
   7   2  -8   36.15    2.22
  -7   2   8   39.67    2.33
   6  -2  -8   29.88    2.57
  -6  -2   8   29.16    2.06
  -6  -2   8   34.99    2.44
   6  -2  -8   30.53    1.86
   6  -2  -8   28.05    2.17
  -6  -2   8   29.99    1.72
   6   2  -8   30.31    2.26
  -6   2   8   32.60    2.05
  -6   2   8   31.36    1.96
  -6   2   8   31.10    2.10
   6   2  -8   29.44    2.12
   6   2  -8   31.85    1.86
   5  -2  -8    8.72    1.20
   5  -2  -8    9.44    1.30
   5  -2  -8    9.25    1.49
  -5  -2   8    9.79    1.21
  -5  -2   8    9.45    1.05
  -5  -2   8    9.30    1.19
   5   2  -8    9.40    1.01
  -5   2   8    8.93    0.97
  -5   2   8    8.29    1.18
  -5   2   8   10.13    1.16
   5   2  -8    8.90    1.26
   5   2  -8   10.19    1.21
   4  -2  -8   56.32    2.65
   4  -2  -8   54.78    2.52
  -4  -2   8   55.31    2.45
  -4  -2   8   49.47    2.76
   4  -2  -8   55.75    2.69
  -4   2   8   60.51    2.49
  -4   2   8   55.10    2.54
  -4   2   8   53.36    2.49
   4   2  -8   52.76    2.46
   4   2  -8   51.63    2.28
   4   2  -8   51.93    2.75
  -3  -2   8  108.17    3.92
  -3  -2   8  112.74    4.29
   3  -2  -8  107.42    4.00
   3  -2  -8  109.67    4.34
   3  -2  -8  112.46    4.20
   3   2  -8  127.53    4.38
  -3   2   8  108.77    4.05
   3   2  -8  106.97    4.10
   3   2  -8  116.10    3.91
  -3   2   8  109.37    3.89
  -3   2   8  117.97    4.22
   2  -2  -8    1.07    0.80
   2  -2  -8    0.73    0.54
  -2  -2   8   -0.03    0.62
   2  -2  -8    2.28    0.89
   2   2  -8    0.54    0.62
   2   2  -8    0.76    0.56
  -2   2   8    0.32    0.48
  -2   2   8   -0.02    0.79
   2   2  -8    0.66    0.62
   1  -2  -8   24.99    1.51
  -1  -2   8   25.53    1.73
   1  -2  -8   19.17    1.48
   1   2  -8   23.60    1.43
   1   2  -8   23.85    1.44
  -1   2   8   22.49    1.36
   0  -2  -8   57.77    2.36
   0  -2  -8   56.30    2.32
   0  -2   8   56.53    2.45
   0   2  -8   56.41    2.52
   0   2  -8   55.81    2.42
   0   2   8   58.95    2.37
  -1  -2  -8   86.31    3.69
  -1  -2  -8   87.14    3.42
  -1  -2  -8   94.48    3.30
  -1  -2  -8   91.33    3.19
   1  -2   8   94.09    3.32
  -1   2  -8   96.08    3.50
  -1   2  -8   91.06    3.33
   1   2   8   94.07    3.29
  -2  -2  -8   56.90    2.55
   2  -2   8   58.79    2.26
  -2  -2  -8   52.91    2.20
  -2  -2  -8   60.30    2.79
   2   2   8   55.57    2.20
  -2   2  -8   59.53    2.50
  -2   2  -8   60.98    2.27
   3  -2   8    0.69    0.56
  -3  -2  -8   -0.52    1.08
  -3  -2  -8    0.44    0.52
  -3  -2  -8    1.70    0.77
   3   2   8    0.77    0.53
  -3   2  -8    0.73    0.68
  -3   2  -8    0.62    0.44
  -4  -2  -8   81.17    2.81
  -4  -2  -8   75.38    3.77
  -4  -2  -8   83.26    3.24
  -4   2  -8   84.32    3.13
  -4   2  -8   76.62    2.77
   4   2   8   80.37    2.81
  -5  -2  -8   98.49    3.42
  -5  -2  -8  100.04    4.35
  -5  -2  -8  101.36    3.84
  -5   2  -8  102.49    3.38
   5   2   8  101.70    3.41
  -6  -2  -8   63.94    2.33
  -6  -2  -8   65.27    3.73
  -6   2  -8   62.07    2.26
  -9  -3   8   34.43    2.65
   9  -3  -8   35.48    2.85
  -9  -3   8   40.52    3.72
   9  -3  -8   37.70    2.39
   9   3  -8   34.94    2.73
   9   3  -8   30.84    2.42
  -9   3   8   37.37    2.65
   8  -3  -8    1.70    1.23
  -8  -3   8    2.82    0.95
   8  -3  -8    1.01    0.91
  -8  -3   8    1.97    1.45
   8  -3  -8    2.41    1.71
  -8   3   8    2.63    1.27
   8   3  -8    2.67    1.28
   8   3  -8    3.49    1.28
   8   3  -8    3.11    1.18
  -8   3   8    3.46    1.27
  -7  -3   8    5.71    1.49
  -7  -3   8    4.61    1.03
   7  -3  -8    5.52    1.67
   7  -3  -8    7.17    1.37
   7  -3  -8    4.65    1.31
   7   3  -8    3.20    1.34
   7   3  -8    4.32    1.26
  -7   3   8    5.45    1.03
   7   3  -8    6.00    1.27
  -7   3   8    6.57    1.33
   6  -3  -8  140.25    5.29
  -6  -3   8  137.87    5.34
   6  -3  -8  129.32    5.15
   6  -3  -8  139.90    5.54
  -6  -3   8  137.54    5.21
   6   3  -8  143.63    5.10
   6   3  -8  134.18    5.20
  -6   3   8  138.64    4.99
   6   3  -8  139.83    5.24
  -6   3   8  141.52    5.29
   5  -3  -8   90.36    3.73
   5  -3  -8   87.34    3.76
   5  -3  -8   93.51    4.13
  -5  -3   8   91.40    3.75
  -5  -3   8   93.52    4.01
   5   3  -8   88.09    3.79
   5   3  -8   95.69    3.63
   5   3  -8   92.04    3.83
  -5   3   8   95.87    3.71
  -5   3   8   97.35    3.93
   4  -3  -8   72.58    3.01
  -4  -3   8   78.27    3.46
   4  -3  -8   73.56    3.14
   4  -3  -8   70.24    3.47
  -4  -3   8   77.13    3.13
   4   3  -8   76.00    2.98
   4   3  -8   74.63    3.42
   4   3  -8   79.34    3.31
  -4   3   8   72.96    3.32
   3  -3  -8   10.70    1.09
   3  -3  -8    8.63    1.06
   3  -3  -8    7.18    1.22
  -3  -3   8    8.38    0.94
  -3  -3   8    7.55    1.09
   3   3  -8    7.29    1.05
   3   3  -8    8.19    0.94
   3   3  -8    7.28    1.22
  -3   3   8    7.11    0.98
  -2  -3   8   69.40    3.03
   2  -3  -8   63.30    2.63
   2  -3  -8   61.95    2.95
   2  -3  -8   67.73    2.78
   2   3  -8   67.36    2.83
  -2   3   8   64.34    2.73
   2   3  -8   67.11    2.96
   1  -3  -8  168.04    5.68
   1  -3  -8  161.62    5.81
   1  -3  -8  169.16    5.73
  -1  -3   8  159.93    5.64
   1   3  -8  170.04    5.80
   1   3  -8  166.60    5.83
  -1   3   8  168.14    5.71
   0  -3  -8  126.43    4.49
   0  -3  -8  128.41    4.40
   0  -3  -8  126.07    4.66
   0  -3   8  124.46    4.53
   0   3  -8  125.76    4.55
   0   3  -8  127.03    4.65
   0   3   8  127.96    4.48
  -1  -3  -8    3.46    0.91
   1  -3   8    4.49    0.91
  -1  -3  -8    3.35    0.76
  -1  -3  -8    4.10    0.62
  -1  -3  -8    4.43    0.79
   1   3   8    2.85    0.76
  -1   3  -8    4.04    0.69
  -1   3  -8    5.03    0.99
  -2  -3  -8    8.28    0.89
  -2  -3  -8    8.72    1.20
  -2  -3  -8   12.21    1.23
  -2   3  -8   10.45    1.17
   2   3   8    9.61    0.92
  -3  -3  -8  143.23    5.11
  -3  -3  -8  144.29    5.63
  -3  -3  -8  144.73    4.86
   3   3   8  141.82    4.83
  -3   3  -8  145.06    4.86
  -3   3  -8  138.90    5.09
  -4  -3  -8   21.35    1.74
  -4  -3  -8   20.14    2.05
  -4  -3  -8   20.33    1.27
  -4   3  -8   20.40    1.28
   4   3   8   21.81    1.32
  -4   3  -8   22.11    1.67
  -5  -3  -8    0.80    1.02
  -5  -3  -8    1.78    0.93
  -5  -3  -8    0.96    0.53
   5   3   8    1.60    0.59
  -5   3  -8    1.09    0.66
  -9  -4   8    5.08    1.73
  -9  -4   8    6.17    1.58
  -9  -4   8    4.80    2.22
   9  -4  -8    3.99    1.67
   9  -4  -8    5.83    1.58
   9   4  -8    6.06    1.45
  -9   4   8    4.49    1.51
   9   4  -8    6.74    1.60
  -8  -4   8  108.31    5.46
  -8  -4   8  108.77    4.59
   8  -4  -8  111.75    4.75
   8  -4  -8  119.23    5.48
   8   4  -8  104.45    4.70
   8   4  -8  113.56    4.77
   8   4  -8  107.46    4.55
  -8   4   8  106.04    4.59
  -8   4   8  109.72    4.43
   7  -4  -8   54.68    2.99
  -7  -4   8   49.33    2.96
   7  -4  -8   52.63    3.76
   7  -4  -8   47.86    2.70
  -7  -4   8   43.81    3.85
   7   4  -8   56.91    3.08
   7   4  -8   46.53    2.59
  -7   4   8   56.13    2.94
   7   4  -8   54.60    3.12
  -7   4   8   53.62    3.04
   6  -4  -8   27.24    2.25
   6  -4  -8   33.30    2.34
   6  -4  -8   27.02    2.41
  -6  -4   8   28.42    1.92
  -6   4   8   25.47    1.84
   6   4  -8   27.88    2.22
   6   4  -8   27.15    2.22
   6   4  -8   25.93    2.20
  -6   4   8   31.29    2.08
   5  -4  -8    6.50    1.21
   5  -4  -8    4.57    1.12
   5  -4  -8    6.93    1.29
  -5   4   8    3.37    0.94
   5   4  -8    5.73    0.99
   4  -4  -8  166.82    6.41
  -4  -4   8  177.40    6.26
   4  -4  -8  191.36    6.41
   4  -4  -8  184.44    6.52
   4   4  -8  181.74    6.61
   4   4  -8  182.54    6.42
  -4   4   8  189.39    6.53
   4   4  -8  186.87    6.31
   3  -4  -8   53.65    3.01
   3  -4  -8   59.03    2.75
   3  -4  -8   60.41    2.93
   3   4  -8   62.45    2.96
   3   4  -8   59.57    3.02
  -3   4   8   60.87    2.95
   3   4  -8   61.46    2.60
   2  -4  -8   77.37    3.32
   2  -4  -8   71.72    3.08
   2  -4  -8   78.57    3.31
  -2   4   8   77.71    3.31
   2   4  -8   80.64    3.40
   2   4  -8   68.52    3.32
   1  -4  -8   16.03    1.30
   1  -4  -8   13.58    1.47
   1  -4  -8   13.36    1.34
   1   4  -8   15.47    1.48
   1   4  -8   14.03    1.32
  -1   4   8   14.22    1.35
   0  -4  -8   22.33    2.04
   0  -4  -8   19.13    1.63
   0  -4  -8   21.85    1.85
   0   4  -8   23.79    1.91
   0   4  -8   22.24    1.77
   0   4   8   22.03    1.73
  -1  -4  -8   21.16    1.42
  -1  -4  -8   22.55    1.89
  -1  -4  -8   23.83    1.84
   1   4   8   25.98    1.72
  -1   4  -8   23.22    1.73
  -1   4  -8   26.56    1.96
  -2  -4  -8   98.12    3.77
  -2  -4  -8   95.48    3.88
  -2  -4  -8  102.31    4.36
  -2   4  -8   98.30    3.71
   2   4   8  100.64    3.77
  -2   4  -8  100.53    4.02
  -3  -4  -8   12.68    1.57
  -3  -4  -8   13.08    1.09
  -3  -4  -8   12.14    1.43
  -3   4  -8   13.57    1.22
   3   4   8   14.01    1.21
  -3   4  -8   13.34    1.27
  -4  -4  -8    4.92    1.19
  -4  -4  -8    3.66    0.82
  -4  -4  -8    3.57    1.12
  -4   4  -8    3.43    1.10
   4   4   8    3.81    0.83
  -4   4  -8    4.98    0.90
  -8  -5   8    5.74    1.77
  -8  -5   8    5.53    1.69
  -8  -5   8    5.47    1.23
   8  -5  -8    7.87    2.42
   8  -5  -8    7.05    1.30
  -8   5   8    6.17    1.49
   8   5  -8    6.83    1.19
  -8   5   8    7.51    1.30
   8   5  -8    8.52    1.65
   7  -5  -8   20.44    1.80
  -7  -5   8   19.17    2.21
   7  -5  -8   24.69    2.36
   7  -5  -8   21.33    2.07
  -7  -5   8   22.74    2.07
  -7  -5   8   20.20    1.88
  -7   5   8   24.34    2.13
   7   5  -8   19.48    2.11
   7   5  -8   14.93    1.82
  -7   5   8   18.44    1.90
   7   5  -8   20.46    1.80
   6  -5  -8   11.54    1.64
  -6  -5   8    8.62    1.23
   6  -5  -8    8.74    1.54
   6  -5  -8   10.31    1.58
  -6  -5   8    8.36    1.61
  -6  -5   8    7.20    2.12
   6   5  -8    5.92    1.16
  -6   5   8   11.03    1.66
   6   5  -8    8.58    1.37
   6   5  -8    8.01    1.42
  -5  -5   8   47.43    2.54
   5  -5  -8   49.95    2.76
   5  -5  -8   46.63    2.59
   5  -5  -8   49.10    3.32
   5   5  -8   46.67    2.47
  -5   5   8   47.89    2.62
   5   5  -8   43.40    2.51
   5   5  -8   51.41    3.07
  -4  -5   8    4.94    0.99
   4  -5  -8    6.09    1.17
   4  -5  -8    3.94    1.13
   4  -5  -8    6.01    1.08
   4   5  -8    4.40    1.11
   4   5  -8    4.50    1.08
  -4   5   8    5.25    1.10
   4   5  -8    3.27    0.96
   3  -5  -8   -0.44    1.10
   3  -5  -8   -0.10    0.75
  -3  -5   8    0.52    0.97
   3   5  -8   -0.66    1.07
  -3   5   8    1.22    1.09
   3   5  -8   -1.74    1.15
  -2  -5   8    4.04    1.01
   2  -5  -8    3.26    0.87
   2  -5  -8    1.35    1.08
  -2   5   8    2.91    1.16
   2   5  -8    2.44    1.26
   1  -5  -8   51.88    2.72
   1  -5  -8   48.99    2.58
  -1  -5   8   54.98    2.44
   1   5  -8   53.22    2.87
  -1   5   8   52.80    2.77
   1   5  -8   56.74    2.91
   0  -5  -8   -0.15    1.03
   0  -5   8    1.63    0.68
   0  -5  -8    0.45    0.66
   0  -5  -8    0.67    0.83
   0   5   8    0.24    0.68
   0   5  -8   -0.19    1.07
   0   5  -8   -1.64    0.98
  -1  -5  -8    5.37    1.12
  -1  -5  -8    5.33    1.23
  -1  -5  -8    5.69    1.14
   1   5   8    5.67    1.12
  -1   5  -8    4.71    1.14
  -1   5  -8    5.53    1.27
  -2  -5  -8    6.60    1.33
  -2  -5  -8    6.12    1.49
  -2  -5  -8    5.53    1.07
  -2   5  -8    6.63    1.11
  -2   5  -8    3.74    0.86
   2   5   8    4.71    1.08
  -3  -5  -8    9.90    1.48
  -3  -5  -8    5.14    1.27
  -3  -5  -8    7.82    1.16
  -3   5  -8    8.68    1.43
  -3   5  -8    5.83    1.14
   3   5   8    8.04    1.17
   6  -6  -8    2.90    1.34
  -6  -6   8    0.16    0.99
   6  -6  -8    0.74    1.33
  -6  -6   8    2.34    1.89
   6  -6  -8    1.42    0.97
  -6   6   8    0.39    0.98
   6   6  -8    3.12    1.53
   6   6  -8   -0.56    0.89
   6   6  -8    3.33    1.31
   5  -6  -8    8.68    1.56
  -5  -6   8    2.16    1.28
   5  -6  -8    5.71    1.33
   5  -6  -8    2.98    1.21
   5   6  -8    0.85    1.47
  -5   6   8    2.27    1.07
   5   6  -8    7.54    1.48
   5   6  -8    3.52    1.19
  -4  -6   8    5.58    1.81
   4  -6  -8    2.95    1.48
  -4  -6   8    2.22    1.20
   4  -6  -8    2.16    1.00
   4   6  -8    2.42    1.46
   4   6  -8    2.58    1.01
  -4   6   8    3.16    1.39
  -3  -6   8   -0.14    1.12
   3  -6  -8    2.19    1.25
   3  -6  -8    0.88    1.22
  -3  -6   8    1.33    0.80
   3  -6  -8    1.83    1.15
   3   6  -8    2.07    0.93
   3   6  -8   -0.60    1.31
  -3   6   8    2.20    1.27
  -2  -6   8   11.45    1.32
   2  -6  -8   10.42    1.54
   2  -6  -8    9.56    1.48
   2  -6  -8   11.40    1.53
  -2   6   8   11.57    1.38
   2   6  -8    8.47    1.34
   2   6  -8    9.66    1.57
  -1  -6   8   14.45    1.33
   1  -6  -8   17.61    1.78
   1  -6  -8   17.26    1.80
   1   6  -8   16.71    1.63
  -1   6   8   16.44    1.72
   1   6  -8   14.43    1.73
   0  -6  -8    1.27    1.19
   0  -6  -8   -0.22    0.79
   0  -6  -8    0.44    0.76
   0   6   8   -0.22    0.75
   0   6  -8   -0.44    1.17
   0   6  -8   -1.84    1.11
  -1  -6  -8    6.95    1.22
  -1  -6  -8    8.77    1.19
  -1  -6  -8    8.40    1.54
  -1   6  -8    8.94    1.51
   1   6   8    8.93    1.38
  -1   6  -8    6.00    1.44
  -2  -6  -8   -0.44    1.37
  -2  -6  -8    0.96    0.78
  -2  -6  -8    0.56    0.90
   2   6   8    1.55    1.12
  -2   6  -8    1.04    0.95
  -2   6  -8    0.75    0.84
 -10   0   9    0.03    0.88
  10   0  -9    1.62    1.38
  10   0  -9    1.62    1.27
  10   0  -9    1.60    1.22
 -10   0   9   -1.00    1.19
   9   0  -9   97.55    4.38
  -9   0   9   92.90    4.07
   9   0  -9   95.13    4.35
   9   0  -9   94.50    4.04
  -9   0   9   96.35    4.08
   9   0  -9   93.26    4.24
  -9   0   9   93.41    4.20
  -8   0   9    0.41    0.79
  -8   0   9    0.06    1.02
   8   0  -9    1.20    1.23
   8   0  -9   -0.73    0.78
  -8   0   9    2.23    1.27
   8   0  -9   -0.84    0.94
   8   0  -9   -2.93    1.02
   7   0  -9   92.48    3.98
   7   0  -9   93.02    3.93
  -7   0   9   96.07    3.87
  -7   0   9  100.21    4.10
  -7   0   9  104.92    4.24
   7   0  -9   96.64    3.89
   6   0  -9   -0.86    0.97
  -6   0   9    1.54    1.15
   6   0  -9   -0.55    0.63
  -6   0   9   -0.44    0.85
   6   0  -9    1.27    0.82
  -6   0   9    0.97    0.92
   5   0  -9    1.40    0.74
   5   0  -9    2.22    0.82
  -5   0   9   -0.09    0.78
   4   0  -9   -0.15    0.90
   4   0  -9   -0.46    0.66
   4   0  -9   -0.32    0.50
  -4   0   9   -0.18    0.67
  -4   0   9    0.12    0.63
  -4   0   9    0.02    0.73
  -3   0   9  345.06   11.03
  -3   0   9  353.54   10.75
   3   0  -9  350.59   11.10
   3   0  -9  340.38   10.82
   3   0  -9  344.31   11.09
  -2   0   9   -0.36    0.56
  -2   0   9   -0.23    0.38
   2   0  -9   -1.30    0.75
   2   0  -9   -0.37    0.56
   1   0  -9   -0.34    0.71
  -1   0   9    0.65    0.35
   1   0  -9   -0.81    0.66
  -1   0   9   -0.01    0.49
   0   0  -9    1.49    0.66
   0   0   9   -0.52    0.61
   0   0  -9    0.44    0.61
  -1   0  -9   59.63    2.32
  -1   0  -9   60.50    2.40
   1   0   9   59.32    2.32
  -2   0  -9    0.28    0.50
   2   0   9    0.23    0.51
  -2   0  -9   -0.12    0.47
  -3   0  -9   17.77    0.99
   3   0   9   17.33    1.00
   4   0   9   -0.33    0.35
  -4   0  -9    0.37    0.35
  -5   0  -9   29.29    2.42
  -5   0  -9   25.76    1.06
 -10  -1   9   39.63    2.54
 -10  -1   9   40.47    3.43
  10  -1  -9   39.70    3.03
  10  -1  -9   39.22    2.46
  10  -1  -9   40.76    2.92
 -10  -1   9   38.88    2.77
 -10   1   9   34.35    2.47
 -10   1   9   35.90    2.75
  10   1  -9   43.43    2.77
  10   1  -9   44.32    2.99
   9  -1  -9   10.05    1.33
   9  -1  -9    9.06    1.55
   9  -1  -9    8.95    1.93
  -9  -1   9    9.24    1.33
  -9  -1   9    8.03    1.38
  -9  -1   9   10.61    1.36
   9   1  -9   10.03    1.29
  -9   1   9   10.85    1.62
  -9   1   9    8.52    1.60
   9   1  -9   10.38    1.59
  -9   1   9    9.32    1.30
   8  -1  -9    2.79    1.31
  -8  -1   9    3.54    1.24
   8  -1  -9    4.17    1.27
  -8  -1   9    3.73    0.91
   8  -1  -9    4.19    1.28
  -8  -1   9    4.19    1.13
   8  -1  -9    3.40    1.01
   8   1  -9    4.18    1.03
  -8   1   9    3.47    0.99
  -8   1   9    5.02    1.21
   8   1  -9    2.87    1.23
   8   1  -9    4.64    1.35
  -8   1   9    1.37    1.17
  -7  -1   9    1.77    0.79
   7  -1  -9    2.45    0.87
  -7  -1   9    2.26    0.76
   7  -1  -9    1.95    1.37
  -7  -1   9    0.71    1.24
   7  -1  -9    2.32    0.90
   7  -1  -9    2.33    0.91
   7   1  -9    5.47    1.23
  -7   1   9    3.73    1.28
  -7   1   9    2.77    0.85
  -7   1   9    4.29    1.16
   7   1  -9    2.93    0.91
   7   1  -9    2.28    1.24
  -6  -1   9  105.64    4.27
  -6  -1   9  108.07    4.08
  -6  -1   9  107.40    4.29
   6  -1  -9  108.93    4.66
   6  -1  -9  108.38    4.28
   6  -1  -9  103.07    4.35
   6  -1  -9  111.93    4.48
   6   1  -9  112.87    4.40
  -6   1   9  111.81    4.23
   6   1  -9  106.74    4.48
  -6   1   9  113.43    4.48
  -6   1   9  116.73    4.19
   6   1  -9  107.19    4.26
  -5  -1   9   29.89    1.77
   5  -1  -9   23.33    1.83
   5  -1  -9   37.46    2.08
  -5  -1   9   29.16    2.01
   5  -1  -9   36.51    2.56
   5  -1  -9   30.60    1.90
  -5  -1   9   38.13    1.89
  -5   1   9   31.15    2.31
   5   1  -9   30.47    2.13
   5   1  -9   27.95    1.95
  -5   1   9   33.34    1.83
  -5   1   9   39.57    1.99
   5   1  -9   33.31    1.99
  -4  -1   9   12.02    1.15
   4  -1  -9   10.49    1.15
   4  -1  -9   12.09    1.18
   4  -1  -9   10.95    1.34
  -4  -1   9   11.86    0.99
  -4  -1   9   10.58    1.40
  -4   1   9   11.79    0.96
   4   1  -9   13.01    1.14
   4   1  -9   10.60    1.37
  -4   1   9   10.57    1.16
   4   1  -9   10.60    1.14
  -4   1   9   11.77    1.17
   3  -1  -9   69.90    2.99
   3  -1  -9   66.34    2.96
  -3  -1   9   66.88    2.83
   3  -1  -9   68.02    2.65
  -3  -1   9   66.98    2.48
  -3   1   9   62.96    2.95
   3   1  -9   68.24    2.60
   3   1  -9   68.73    2.86
   3   1  -9   63.15    2.80
  -3   1   9   69.29    2.62
  -2  -1   9  128.32    4.15
   2  -1  -9  132.69    4.67
   2  -1  -9  130.29    4.58
  -2  -1   9  122.08    4.64
   2   1  -9  133.90    4.72
  -2   1   9  130.38    4.30
   2   1  -9  131.55    4.62
  -2   1   9  124.95    4.61
  -1  -1   9    0.20    0.78
   1  -1  -9    0.75    0.74
   1  -1  -9    1.94    0.72
   1   1  -9    1.68    0.80
   1   1  -9    0.87    0.58
  -1   1   9    0.59    0.75
  -1   1   9    0.55    0.50
   0  -1  -9   29.04    1.59
   0  -1   9   29.78    1.71
   0  -1  -9   31.91    1.63
   0   1  -9   30.32    1.74
   0   1   9   30.53    1.65
   0   1   9   30.56    1.28
   0   1  -9   30.93    1.68
   1  -1   9   71.88    2.81
  -1  -1  -9   78.55    2.81
  -1  -1  -9   74.25    2.79
  -1   1  -9   77.24    2.98
  -1   1  -9   77.34    2.85
   1   1   9   74.49    2.85
  -2  -1  -9   48.30    2.08
   2  -1   9   58.02    2.20
   2   1   9   57.18    2.18
  -2   1  -9   55.07    2.15
  -3  -1  -9   16.52    1.00
   3  -1   9   14.79    1.02
  -3  -1  -9   13.60    1.71
  -3   1  -9   15.39    1.00
  -3   1  -9   18.60    1.48
   3   1   9   14.92    1.02
   4  -1   9   27.38    1.25
  -4  -1  -9   29.00    1.26
  -4  -1  -9   29.13    2.47
   4   1   9   30.27    1.32
  -4   1  -9   29.16    1.29
  -5  -1  -9    8.78    1.65
  -5  -1  -9    7.43    0.66
  -5   1  -9    6.65    0.58
  -9  -2   9   15.87    1.65
  -9  -2   9   15.86    1.68
  -9  -2   9   14.99    1.66
   9  -2  -9   15.18    1.82
   9  -2  -9   16.87    1.94
   9   2  -9   16.01    1.81
  -9   2   9   14.72    1.60
   9   2  -9   13.64    1.49
  -9   2   9   11.09    1.65
  -9   2   9   13.19    1.74
   8  -2  -9   10.62    1.58
  -8  -2   9   10.58    1.41
   8  -2  -9    7.44    1.26
  -8  -2   9    8.41    1.49
  -8  -2   9    8.91    1.38
   8  -2  -9    8.64    1.57
  -8   2   9    8.60    1.21
   8   2  -9   10.51    1.28
   8   2  -9    9.03    1.28
   8   2  -9   10.54    1.66
  -8   2   9    8.64    1.51
  -8   2   9    9.97    1.59
   7  -2  -9    0.12    1.12
  -7  -2   9    0.15    0.99
  -7  -2   9   -0.09    1.28
   7  -2  -9   -0.17    1.36
  -7  -2   9    0.45    0.68
   7  -2  -9    1.50    1.13
   7   2  -9    1.76    1.13
  -7   2   9    0.85    1.08
   7   2  -9    0.75    0.89
  -7   2   9    1.08    0.78
   7   2  -9    0.10    0.73
  -7   2   9   -0.01    1.21
   6  -2  -9   25.32    2.22
  -6  -2   9   28.40    1.90
   6  -2  -9   23.91    2.07
  -6  -2   9   28.62    2.14
   6  -2  -9   27.10    2.11
  -6  -2   9   27.49    1.78
  -6   2   9   26.68    1.72
  -6   2   9   29.22    1.84
   6   2  -9   28.04    1.88
  -6   2   9   29.71    2.00
   6   2  -9   28.67    2.31
   6   2  -9   25.46    2.05
   5  -2  -9   45.09    2.89
  -5  -2   9   42.90    2.67
   5  -2  -9   32.87    2.17
   5  -2  -9   49.72    2.46
  -5  -2   9   44.08    2.16
  -5   2   9   40.89    2.34
   5   2  -9   37.99    2.32
   5   2  -9   42.56    2.47
  -5   2   9   48.64    2.65
   5   2  -9   48.25    2.37
  -4  -2   9   15.56    1.21
   4  -2  -9   19.21    1.63
   4  -2  -9   16.09    1.48
   4  -2  -9   17.13    1.38
  -4  -2   9   19.27    1.68
   4   2  -9   17.15    1.33
  -4   2   9   18.08    1.34
  -4   2   9   14.35    1.54
  -4   2   9   16.69    1.40
   4   2  -9   15.66    1.52
   4   2  -9   17.34    1.53
   3  -2  -9   19.51    1.44
  -3  -2   9   17.82    1.60
   3  -2  -9   18.33    1.43
   3  -2  -9   18.25    1.66
   3  -2  -9   19.68    1.34
  -3   2   9   17.60    1.53
  -3   2   9   17.46    1.44
   3   2  -9   16.16    1.57
   3   2  -9   20.66    1.61
  -2  -2   9   12.62    1.34
   2  -2  -9   14.16    1.21
   2  -2  -9   13.96    1.19
   2   2  -9   14.41    1.22
   2   2  -9   13.89    1.37
  -2   2   9   13.59    1.17
   1  -2  -9  132.95    4.76
   1  -2  -9  136.28    4.78
  -1  -2   9  137.64    4.85
   1   2  -9  135.21    4.89
   1   2  -9  135.10    4.86
  -1   2   9  134.05    4.77
   0  -2  -9   51.14    2.19
   0  -2  -9   50.95    2.26
   0  -2   9   50.53    2.35
   0   2  -9   52.20    2.34
   0   2   9   51.04    2.27
   0   2  -9   46.49    2.38
  -1  -2  -9   71.85    2.66
   1  -2   9   69.00    2.79
  -1  -2  -9   69.20    2.76
   1   2   9   72.33    2.77
  -1   2  -9   73.48    2.84
  -1   2  -9   72.76    2.97
   2  -2   9    8.93    0.89
  -2  -2  -9    8.35    0.82
  -2  -2  -9    8.39    1.23
   2   2   9    8.07    0.84
  -2   2  -9    8.42    0.87
  -2   2  -9    7.60    1.04
  -3  -2  -9   32.26    1.91
  -3  -2  -9   29.92    2.46
  -3  -2  -9   29.39    1.44
   3  -2   9   30.85    1.58
  -3   2  -9   31.18    1.79
   3   2   9   29.47    1.46
  -3   2  -9   27.87    1.51
  -4  -2  -9   19.84    1.22
  -4  -2  -9   34.31    2.60
  -4  -2  -9   18.67    1.41
  -4   2  -9   19.43    1.22
   4   2   9   22.00    1.26
  -5  -2  -9   85.21    3.07
  -5  -2  -9   88.36    4.10
   5   2   9   86.88    3.06
  -5   2  -9   89.98    3.04
  -9  -3   9   10.87    1.96
   9  -3  -9   10.95    1.82
  -9  -3   9    9.43    1.40
   9  -3  -9    8.90    1.70
  -9   3   9    7.57    1.56
   9   3  -9    8.44    1.63
  -9   3   9   11.89    1.75
  -9   3   9    9.32    1.37
   9   3  -9    9.72    1.59
  -8  -3   9   20.46    1.86
   8  -3  -9   15.25    1.82
   8  -3  -9   21.06    2.39
  -8  -3   9   18.40    1.94
   8  -3  -9   17.16    1.69
   8   3  -9   16.33    1.98
   8   3  -9   20.42    1.94
   8   3  -9   19.68    1.92
  -8   3   9   22.93    1.83
  -8   3   9   15.90    1.87
   7  -3  -9   45.05    2.52
  -7  -3   9   45.69    2.51
   7  -3  -9   48.29    2.86
   7  -3  -9   44.07    2.89
  -7  -3   9   56.10    3.14
   7   3  -9   48.55    2.81
  -7   3   9   49.32    2.75
   7   3  -9   45.45    2.52
  -7   3   9   42.60    2.91
   7   3  -9   41.39    2.90
   6  -3  -9   27.82    2.29
   6  -3  -9   30.80    2.82
  -6  -3   9   34.97    2.64
   6  -3  -9   29.74    1.94
  -6  -3   9   27.83    2.13
   6   3  -9   35.83    2.23
   6   3  -9   30.19    2.27
  -6   3   9   26.50    2.04
   6   3  -9   28.50    1.88
  -6   3   9   29.50    2.17
   5  -3  -9   48.10    2.64
   5  -3  -9   51.54    2.61
  -5  -3   9   49.60    2.94
  -5  -3   9   54.50    2.65
   5  -3  -9   48.34    3.08
   5   3  -9   50.41    2.78
  -5   3   9   51.22    2.61
   5   3  -9   50.26    2.67
   5   3  -9   51.80    2.60
  -5   3   9   56.70    2.65
   4  -3  -9   16.87    1.71
  -4  -3   9   17.41    1.70
   4  -3  -9   18.47    1.51
   4  -3  -9   16.54    1.52
  -4   3   9   16.29    1.29
   4   3  -9   16.66    1.38
   4   3  -9   15.86    1.43
   4   3  -9   17.52    1.74
  -4   3   9   17.38    1.63
   3  -3  -9    4.57    1.13
   3  -3  -9    5.33    0.97
  -3  -3   9    4.13    1.23
  -3   3   9    5.24    1.14
   3   3  -9    3.82    0.94
   3   3  -9    3.68    0.88
  -2  -3   9  102.59    3.87
   2  -3  -9   96.41    3.84
   2  -3  -9   99.02    3.93
   2   3  -9  100.70    3.91
   2   3  -9  103.49    3.93
  -2   3   9  101.36    3.94
  -1  -3   9   22.64    1.87
   1  -3  -9   22.94    1.50
   1  -3  -9   24.28    1.66
   1   3  -9   21.24    1.81
   1   3  -9   23.85    1.79
  -1   3   9   22.84    1.76
   0  -3  -9   15.94    1.51
   0  -3  -9   16.86    1.43
   0  -3  -9   17.15    1.31
   0  -3   9   13.52    1.36
   0   3   9   16.17    1.33
   0   3  -9   19.00    1.56
   0   3  -9   16.88    1.54
  -1  -3  -9   25.86    2.27
   2  -3   9   44.74    2.18
  -2  -3  -9   47.30    2.47
  -2  -3  -9   44.64    2.60
  -2  -3  -9   43.88    2.10
  -2   3  -9   48.85    2.44
  -2   3  -9   45.82    2.15
   2   3   9   45.75    2.14
  -3  -3  -9    0.59    0.90
  -3  -3  -9    0.80    1.26
  -3  -3  -9    0.91    0.61
  -3   3  -9    0.07    0.61
   3   3   9    1.01    0.64
  -3   3  -9   -0.17    0.82
  -4  -3  -9    5.93    1.13
  -4  -3  -9    7.20    1.68
  -4  -3  -9    6.38    0.82
  -4   3  -9    6.04    1.05
   4   3   9    8.03    0.86
  -4   3  -9    6.47    0.83
   8  -4  -9   41.63    2.54
   8  -4  -9   38.99    3.06
  -8  -4   9   41.87    3.27
   8  -4  -9   36.45    2.76
  -8  -4   9   40.71    2.55
   8   4  -9   39.49    2.71
   8   4  -9   40.80    2.89
  -8   4   9   42.33    2.83
   8   4  -9   34.28    2.91
  -8   4   9   40.34    2.91
   7  -4  -9   10.51    1.41
   7  -4  -9   10.81    1.72
   7  -4  -9   11.02    1.64
  -7  -4   9   14.76    1.52
  -7   4   9    9.59    1.65
   7   4  -9    9.70    1.55
   7   4  -9   10.41    1.39
  -7   4   9   12.54    1.62
   7   4  -9   13.66    1.88
   6  -4  -9    6.01    1.64
  -6  -4   9    6.16    1.03
   6  -4  -9    6.04    1.30
   6  -4  -9    4.98    1.10
   6   4  -9    5.22    1.47
   6   4  -9    5.64    1.06
  -6   4   9    4.10    0.97
  -6   4   9    3.03    1.36
   6   4  -9    4.99    1.21
   5  -4  -9   34.99    2.34
   5  -4  -9   32.95    2.42
   5  -4  -9   34.58    2.41
   5   4  -9   36.23    2.28
  -5   4   9   31.55    2.53
   5   4  -9   32.23    2.11
  -5   4   9   33.79    2.30
   5   4  -9   32.82    1.96
   4  -4  -9   33.59    2.60
   4  -4  -9   34.60    2.38
   4  -4  -9   31.37    2.24
   4   4  -9   35.19    2.51
  -4   4   9   37.42    2.49
   4   4  -9   33.68    2.10
   3  -4  -9   25.18    1.80
  -3  -4   9   30.54    2.19
   3  -4  -9   26.96    2.18
  -3   4   9   24.37    1.80
   3   4  -9   27.13    1.88
   3   4  -9   26.30    2.21
   2  -4  -9   28.95    2.10
   2  -4  -9   32.55    2.11
   2   4  -9   30.55    2.20
  -2   4   9   29.65    2.16
   2   4  -9   27.66    2.17
   1  -4  -9    0.98    1.03
   1  -4  -9    1.10    0.94
  -1   4   9    1.35    0.97
   1   4  -9    3.11    1.07
   1   4  -9    1.22    0.79
   0  -4  -9   20.03    1.77
   0  -4  -9   24.32    1.74
   0   4   9   20.38    1.51
   0   4  -9   20.92    1.78
   0   4  -9   24.06    1.87
  -1  -4  -9    5.63    1.01
  -1  -4  -9    5.82    1.17
  -1  -4  -9    4.27    1.20
  -1   4  -9    5.59    1.20
  -1   4  -9    4.95    1.06
   1   4   9    6.26    1.05
  -2  -4  -9    3.12    0.89
  -2  -4  -9    3.36    1.13
  -2  -4  -9    2.19    1.37
  -2   4  -9    2.86    0.91
   2   4   9    3.01    0.87
  -2   4  -9    2.36    1.10
  -3  -4  -9    5.23    0.96
  -3  -4  -9    5.72    1.03
  -3  -4  -9    4.37    1.22
  -3   4  -9    6.21    1.00
   3   4   9    5.85    0.99
  -3   4  -9    6.57    1.04
  -7  -5   9   -0.71    2.00
   7  -5  -9    0.85    0.95
  -7  -5   9    0.01    1.03
   7  -5  -9    1.62    1.33
   7  -5  -9    1.85    1.95
  -7   5   9    2.30    1.38
   7   5  -9    0.55    1.48
  -7   5   9    2.04    1.42
   7   5  -9   -0.21    0.91
   7   5  -9   -0.63    1.24
   6  -5  -9   24.27    2.41
   6  -5  -9   21.32    1.98
  -6  -5   9   22.32    2.07
  -6  -5   9   19.59    2.69
   6  -5  -9   20.26    2.07
   6   5  -9   22.56    1.99
   6   5  -9   22.88    2.26
  -6   5   9   22.30    2.13
  -6   5   9   20.27    1.74
   6   5  -9   20.84    1.85
   5  -5  -9    6.52    1.67
   5  -5  -9    6.85    1.37
   5  -5  -9    5.47    1.42
   5   5  -9    3.37    1.35
  -5   5   9    4.82    1.17
   5   5  -9    1.73    1.40
   4  -5  -9    3.40    0.96
   4  -5  -9    1.35    1.33
   4   5  -9    0.69    1.00
   4   5  -9    0.86    0.88
  -4   5   9    2.43    0.95
   3  -5  -9   11.54    1.35
  -3  -5   9   11.95    1.41
   3  -5  -9   10.18    1.55
   3   5  -9   11.54    1.61
   3   5  -9   10.81    1.67
  -3   5   9   13.10    1.60
   2  -5  -9    6.92    1.17
   2  -5  -9    6.87    1.11
  -2  -5   9    5.73    1.10
   2  -5  -9    4.71    1.33
  -2   5   9    5.95    1.06
   2   5  -9    7.14    1.47
   2   5  -9    6.14    1.38
  -1  -5   9   25.03    1.75
   1  -5  -9   25.56    2.06
   1  -5  -9   26.84    1.93
  -1   5   9   26.93    2.16
   1   5  -9   25.35    2.08
   1   5  -9   28.65    2.22
   0  -5  -9    0.77    0.98
   0  -5  -9   -0.06    1.11
   0   5  -9    0.00    1.12
   0   5  -9   -0.10    0.76
   0   5   9    0.10    0.72
  -1  -5  -9   12.91    1.80
  -1  -5  -9    9.58    1.16
  -1  -5  -9   14.07    1.67
   1   5   9   12.34    1.43
  -1   5  -9   11.66    1.37
  -1   5  -9   11.41    1.43
  -2  -5  -9    1.45    0.71
  -2  -5  -9    3.19    1.50
  -2  -5  -9    3.97    1.26
  -2   5  -9    0.60    1.12
   2   5   9    0.94    0.96
  -2   5  -9    0.89    1.03
  -5  -6   9    1.85    1.31
   5  -6  -9    0.63    1.14
   5  -6  -9    1.62    1.34
  -5  -6   9   -0.56    1.88
  -5   6   9    0.09    1.41
   5   6  -9    1.23    1.56
   5   6  -9    1.80    1.36
  -4  -6   9   13.42    1.70
  -4  -6   9   14.51    2.31
   4  -6  -9   16.08    1.68
   4  -6  -9   19.73    1.88
  -4   6   9   15.49    1.90
   4   6  -9   13.85    1.87
   4   6  -9   17.13    2.16
   3  -6  -9    1.66    1.26
   3  -6  -9    1.20    1.27
  -3  -6   9    1.80    0.82
  -3   6   9    1.37    1.32
   3   6  -9    2.02    1.49
   3   6  -9    0.10    0.92
  -2  -6   9    4.88    1.09
   2  -6  -9    5.80    1.17
   2  -6  -9    6.46    1.19
   2   6  -9    4.58    1.19
  -2   6   9    4.68    1.43
   2   6  -9    5.67    1.48
   1  -6  -9    7.23    1.51
   1  -6  -9    6.62    1.15
  -1   6   9    7.17    1.18
   1   6  -9    6.74    1.54
   1   6  -9    7.50    1.31
   0  -6  -9   66.02    3.14
   0  -6  -9   70.75    3.32
   0   6  -9   65.32    3.47
   0   6   9   63.43    3.36
   0   6  -9   66.00    3.55
  -9   0  10   -1.87    1.14
   9   0 -10    0.93    0.91
  -9   0  10   -0.48    0.82
  -9   0  10   -0.63    1.31
   9   0 -10   -0.12    0.89
   9   0 -10    1.75    1.32
  -8   0  10  199.40    7.13
   8   0 -10  191.24    6.98
   8   0 -10  190.75    6.94
  -8   0  10  192.22    6.70
  -8   0  10  192.06    6.96
   8   0 -10  190.94    7.01
  -7   0  10    1.51    0.94
  -7   0  10    0.05    0.65
   7   0 -10   -0.52    0.73
   7   0 -10   -0.36    0.86
  -7   0  10   -1.34    0.96
   7   0 -10    1.97    1.18
  -6   0  10   39.85    1.96
  -6   0  10   37.41    2.31
   6   0 -10   34.04    2.22
   6   0 -10   36.46    2.20
   6   0 -10   38.45    2.34
  -6   0  10   36.91    2.27
  -5   0  10    1.17    0.79
   5   0 -10    0.60    0.60
   5   0 -10    0.08    0.79
  -5   0  10    1.79    0.88
   5   0 -10    0.50    1.01
  -4   0  10  169.61    6.13
   4   0 -10  178.92    6.22
  -4   0  10  171.87    5.66
   4   0 -10  167.07    6.04
   3   0 -10   -0.83    0.59
   3   0 -10   -1.05    0.89
  -3   0  10   -0.34    0.50
  -3   0  10    0.42    0.99
   2   0 -10    1.77    0.68
   2   0 -10    3.15    0.73
  -2   0  10    3.03    0.50
  -2   0  10    3.60    0.99
   1   0 -10   -0.94    0.71
   1   0 -10   -0.49    0.71
  -1   0  10    0.97    0.78
   0   0 -10   88.92    3.37
   0   0 -10   87.87    3.33
   0   0  10   85.32    3.29
  -1   0 -10   -0.50    0.56
  -1   0 -10    0.49    0.60
   1   0  10    0.92    0.74
   2   0  10    5.98    0.72
  -2   0 -10    6.56    0.76
  -3   0 -10    0.29    0.49
   3   0  10    0.44    0.50
  -4   0 -10   68.80    2.46
   9  -1 -10    2.61    1.41
   9  -1 -10   -0.35    0.89
  -9  -1  10   -0.42    0.82
  -9  -1  10   -0.62    1.23
   9  -1 -10    1.73    1.76
   9  -1 -10    0.06    1.22
  -9  -1  10   -0.81    1.39
  -9   1  10    0.13    1.33
  -9   1  10   -0.70    0.81
   9   1 -10    0.96    1.24
   9   1 -10   -0.56    0.87
  -9   1  10    1.61    1.25
   9   1 -10   -2.05    1.24
   8  -1 -10   -0.77    1.19
  -8  -1  10    0.38    1.09
  -8  -1  10    0.55    0.73
  -8  -1  10   -0.10    0.95
   8  -1 -10    0.80    1.16
   8  -1 -10    1.92    1.15
   8  -1 -10   -1.44    1.14
  -8   1  10    0.52    0.81
   8   1 -10    1.98    1.31
   8   1 -10   -0.09    0.85
   8   1 -10    1.57    1.15
  -8   1  10    0.57    0.78
  -8   1  10   -0.96    1.26
   7  -1 -10  118.07    4.85
  -7  -1  10  120.85    4.64
   7  -1 -10  129.28    5.38
   7  -1 -10  122.23    4.96
  -7  -1  10  126.34    5.05
  -7  -1  10  119.27    4.85
   7  -1 -10  121.42    4.71
   7   1 -10  119.80    4.90
   7   1 -10  121.38    4.93
  -7   1  10  128.70    4.92
  -7   1  10  124.74    4.71
  -7   1  10  122.14    5.01
   7   1 -10  126.98    4.88
   6  -1 -10   17.71    1.53
   6  -1 -10   14.21    1.46
   6  -1 -10   16.67    1.79
  -6  -1  10   17.81    1.84
   6  -1 -10   18.36    1.99
  -6  -1  10   16.90    1.47
  -6  -1  10   19.78    1.47
   6   1 -10   16.30    1.52
  -6   1  10   14.98    1.54
   6   1 -10   17.82    1.82
  -6   1  10   17.24    1.32
   6   1 -10   15.08    1.46
  -6   1  10   15.13    1.54
  -5  -1  10    4.70    1.04
   5  -1 -10    5.01    1.04
   5  -1 -10    6.26    1.29
   5  -1 -10    4.21    0.95
  -5  -1  10    4.05    0.84
   5   1 -10    5.02    0.99
  -5   1  10    5.85    0.99
  -5   1  10    3.77    1.26
   5   1 -10    5.11    0.83
   5   1 -10    6.57    1.08
   4  -1 -10   32.90    2.22
   4  -1 -10   35.05    1.97
  -4  -1  10   33.14    2.31
  -4  -1  10   28.67    1.63
   4   1 -10   33.45    2.24
  -4   1  10   30.23    1.77
  -4   1  10   34.49    2.29
   4   1 -10   31.62    2.18
   3  -1 -10  155.06    5.47
   3  -1 -10  144.94    5.40
  -3  -1  10  142.68    5.39
  -3  -1  10  152.42    4.90
   3   1 -10  155.37    5.39
  -3   1  10  142.08    4.99
  -3   1  10  152.32    5.41
   3   1 -10  155.53    5.49
  -2  -1  10    0.49    0.90
   2  -1 -10    1.92    0.90
   2  -1 -10    0.22    0.83
   2   1 -10    0.57    0.90
  -2   1  10    2.02    0.56
  -2   1  10    0.73    0.88
   2   1 -10    2.53    0.95
  -1  -1  10   36.42    2.11
   1  -1 -10   38.87    2.03
   1  -1 -10   39.01    2.04
   1   1 -10   38.96    2.12
   1   1 -10   37.55    2.08
  -1   1  10   38.80    2.06
   0  -1 -10    4.46    0.81
   0  -1  10    2.24    0.82
   0  -1 -10    2.73    0.76
   0   1  10    4.15    0.82
   0   1 -10    3.40    0.82
   0   1 -10    3.07    0.84
  -1  -1 -10  126.06    4.48
  -1  -1 -10  131.77    4.57
   1  -1  10  133.33    4.60
  -1   1 -10  135.74    4.69
  -1   1 -10  123.85    4.54
   1   1  10  137.24    4.52
   2  -1  10    7.69    0.91
  -2  -1 -10   10.22    0.89
  -2   1 -10    7.93    0.92
   2   1  10    8.33    0.83
  -2   1 -10   10.31    1.05
   3  -1  10   12.28    1.10
  -3  -1 -10   13.23    0.95
   3   1  10   14.71    1.12
  -3   1 -10   13.98    0.98
  -4  -1 -10    3.44    0.57
   4   1  10    4.79    0.61
  -9  -2  10    0.30    1.08
   9  -2 -10    2.29    1.63
   9  -2 -10    1.65    0.99
   9  -2 -10    1.22    1.34
   9  -2 -10    1.77    1.34
  -9  -2  10    0.83    0.92
  -9   2  10    2.66    1.02
  -9   2  10    1.04    0.96
   9   2 -10    2.28    1.48
  -9   2  10    0.66    1.00
   9   2 -10    1.60    1.33
   9   2 -10    0.58    1.29
   8  -2 -10    2.16    1.23
  -8  -2  10    0.50    1.02
  -8  -2  10    1.85    0.92
   8  -2 -10    1.09    1.21
  -8  -2  10    1.54    1.09
   8  -2 -10    1.01    0.96
   8  -2 -10    0.68    1.26
   8   2 -10    1.06    1.38
  -8   2  10    0.24    1.20
   8   2 -10   -0.03    0.85
  -8   2  10   -1.39    1.28
  -8   2  10   -0.92    1.11
   8   2 -10   -1.11    1.10
  -7  -2  10    4.10    0.99
   7  -2 -10    5.74    1.64
   7  -2 -10    4.58    1.27
  -7  -2  10    6.59    1.56
   7  -2 -10    4.63    1.33
  -7  -2  10    4.60    1.08
   7  -2 -10    5.58    1.46
  -7   2  10    5.38    1.02
   7   2 -10    4.15    1.07
  -7   2  10    4.92    1.13
   7   2 -10    5.29    1.26
  -7   2  10    6.03    1.24
   7   2 -10    6.42    1.40
  -6  -2  10   97.10    3.98
   6  -2 -10   97.19    3.79
   6  -2 -10   87.01    3.91
   6  -2 -10  104.87    4.47
   6  -2 -10   86.59    4.02
  -6   2  10   96.73    4.15
   6   2 -10   90.63    3.89
   6   2 -10   89.96    3.97
  -6   2  10   91.38    4.06
  -6   2  10   91.64    3.65
   6   2 -10   97.26    3.92
   5  -2 -10    0.69    1.10
   5  -2 -10    0.36    0.88
  -5  -2  10    0.60    0.89
   5  -2 -10   -0.13    0.88
   5  -2 -10    1.14    1.04
  -5   2  10    0.30    0.79
   5   2 -10    0.37    0.86
  -5   2  10    0.40    0.62
   5   2 -10   -0.09    0.73
   5   2 -10    1.74    1.22
  -4  -2  10   25.10    1.86
   4  -2 -10   25.36    2.03
   4  -2 -10   26.22    1.99
   4   2 -10   22.03    1.76
  -4   2  10   24.08    1.89
  -4   2  10   23.57    1.70
   4   2 -10   23.25    1.88
  -3  -2  10    8.99    1.13
   3  -2 -10    9.77    1.29
   3  -2 -10    9.64    1.12
  -3   2  10   10.20    1.11
   3   2 -10   10.07    1.19
   3   2 -10    8.18    1.29
  -3   2  10   11.03    1.03
   2  -2 -10   69.16    2.98
  -2  -2  10   75.10    3.27
   2  -2 -10   71.32    3.12
   2   2 -10   73.36    3.22
  -2   2  10   71.26    2.78
   2   2 -10   72.25    3.22
  -2   2  10   73.24    3.14
   1  -2 -10   -1.21    0.69
  -1  -2  10    0.88    0.93
   1  -2 -10    0.39    0.78
  -1   2  10    0.49    0.84
   1   2 -10   -0.46    0.83
   1   2 -10    1.01    0.90
   0  -2 -10  114.43    4.21
   0  -2  10  108.96    4.23
   0  -2 -10  118.82    4.17
   0   2  10  117.28    4.21
   0   2 -10  115.07    4.29
   0   2 -10  120.70    4.40
  -1  -2 -10    2.20    0.73
   1  -2  10    2.71    0.82
   1   2  10    3.12    0.79
  -1   2 -10    2.79    0.74
  -1   2 -10    2.34    0.80
  -2  -2 -10    3.23    0.70
   2  -2  10    3.43    0.79
  -2   2 -10    3.87    0.91
  -2   2 -10    3.67    0.73
   2   2  10    5.00    0.81
   3  -2  10    1.44    0.73
  -3  -2 -10    0.22    0.52
   3   2  10    0.75    0.57
  -3   2 -10    0.33    0.55
  -4  -2 -10   65.14    3.81
  -4  -2 -10   67.11    2.63
  -4   2 -10   66.86    2.60
   4   2  10   72.17    2.65
   8  -3 -10   -0.49    1.22
  -8  -3  10   -0.74    1.03
  -8  -3  10    0.58    0.87
   8  -3 -10   -0.75    1.26
   8  -3 -10    0.12    1.19
   8   3 -10    0.23    0.87
   8   3 -10   -0.31    1.36
   8   3 -10   -0.38    1.20
  -8   3  10   -0.46    1.33
  -8   3  10    1.91    0.94
  -8   3  10   -1.83    1.20
   7  -3 -10    3.42    1.28
  -7  -3  10    5.60    1.58
   7  -3 -10    4.96    1.44
   7  -3 -10    5.32    1.72
  -7  -3  10    4.99    1.25
   7   3 -10    4.12    1.26
  -7   3  10    3.10    1.08
   7   3 -10    2.30    1.28
   7   3 -10    2.75    1.48
  -7   3  10    4.53    1.31
  -7   3  10    7.40    1.33
   6  -3 -10   25.00    2.24
   6  -3 -10   30.22    2.26
   6  -3 -10   24.30    1.97
  -6  -3  10   31.09    2.66
   6   3 -10   29.26    2.52
  -6   3  10   26.68    2.16
  -6   3  10   29.86    2.17
   6   3 -10   28.85    2.01
   6   3 -10   26.72    2.16
  -5  -3  10    9.41    1.61
   5  -3 -10    8.71    1.48
   5  -3 -10   11.28    1.65
   5  -3 -10   10.22    1.39
   5   3 -10    9.26    1.60
   5   3 -10    9.69    1.25
  -5   3  10    9.72    1.31
  -5   3  10    8.56    1.27
  -4  -3  10    5.30    1.11
   4  -3 -10    5.83    1.28
   4  -3 -10    6.40    1.35
  -4   3  10    5.28    1.08
   4   3 -10    7.05    1.32
  -4   3  10    6.13    1.33
   4   3 -10    6.09    1.19
   3  -3 -10   13.30    1.49
   3  -3 -10   13.46    1.57
  -3  -3  10   12.99    1.57
   3   3 -10   11.05    1.49
  -3   3  10   14.26    1.54
   3   3 -10   16.52    1.65
   2  -3 -10    1.36    0.96
   2  -3 -10    0.10    0.85
  -2  -3  10   -0.45    1.07
  -2   3  10    2.18    1.02
   2   3 -10    0.93    1.03
   2   3 -10    0.18    1.00
   1  -3 -10    0.82    0.63
  -1  -3  10    0.89    0.75
   1  -3 -10    0.06    0.75
   1   3 -10   -0.83    0.90
  -1   3  10    0.31    0.89
   1   3 -10    0.77    0.70
   0   3  10   10.56    1.18
   0   3 -10    8.38    1.23
   1  -3  10   24.33    1.80
  -1  -3 -10   18.73    1.54
   1   3  10   24.41    1.67
  -1   3 -10   20.64    1.57
  -1   3 -10   23.32    1.48
   2  -3  10    1.56    0.84
  -2  -3 -10    1.48    0.72
   2   3  10    1.23    0.75
  -2   3 -10    1.46    0.94
  -2   3 -10    0.87    0.77
  -3  -3 -10    2.25    1.49
  -3  -3 -10   -0.07    0.93
  -3  -3 -10    0.42    0.64
  -3   3 -10   -0.18    0.87
   3   3  10   -0.99    0.80
  -3   3 -10    0.35    0.68
   7  -4 -10   20.39    2.09
   7  -4 -10   21.95    2.45
   7  -4 -10   21.84    1.89
  -7   4  10   22.73    2.13
   7   4 -10   21.57    2.08
  -7   4  10   19.43    1.69
   7   4 -10   19.27    1.92
   7   4 -10   21.47    2.22
   6  -4 -10    3.80    1.26
   6  -4 -10    5.11    1.44
   6  -4 -10    2.95    0.94
  -6   4  10    4.84    1.16
  -6   4  10    4.53    0.99
   6   4 -10    4.06    1.49
   6   4 -10    2.35    0.95
   5  -4 -10   46.43    2.87
  -5  -4  10   52.33    3.13
   5  -4 -10   44.08    2.72
  -5   4  10   48.13    3.01
   5   4 -10   48.03    2.72
   5   4 -10   48.24    2.65
  -5   4  10   44.99    2.68
   4  -4 -10   -0.86    1.07
  -4  -4  10    0.43    0.99
   4  -4 -10    1.60    1.15
   4   4 -10    0.17    0.87
   4   4 -10   -0.58    1.09
  -4   4  10    0.38    0.85
   3  -4 -10    5.29    1.25
  -3  -4  10    6.44    1.18
   3  -4 -10    7.97    1.34
   3   4 -10    6.97    1.17
  -3   4  10    8.67    1.41
   3   4 -10    6.40    1.12
   2  -4 -10    5.28    0.99
  -2  -4  10    5.26    1.39
   2   4 -10    5.30    1.32
   2   4 -10    6.53    1.09
  -2   4  10    4.79    1.01
   1  -4 -10    7.31    1.21
   1  -4 -10    6.31    1.06
  -1   4  10    5.83    1.21
   1   4 -10    4.55    1.00
   1   4 -10    4.91    0.98
   0  -4 -10   16.14    1.49
   0   4  10   15.84    1.49
   0   4 -10   12.84    1.58
   0   4 -10   17.23    1.60
  -1  -4 -10   13.01    1.33
  -1  -4 -10    8.51    1.46
  -1   4 -10    9.28    1.29
   1   4  10   12.31    1.32
  -1   4 -10   10.02    1.44
  -2  -4 -10    2.78    1.52
  -2  -4 -10    2.66    0.87
  -2  -4 -10    0.47    0.81
  -2   4 -10    2.47    1.13
  -2   4 -10    2.17    0.96
   2   4  10    0.37    0.88
   6  -5 -10   22.65    2.01
   6  -5 -10   22.40    2.48
  -6   5  10   21.57    1.83
  -6   5  10   23.66    2.23
   6   5 -10   20.85    2.05
   6   5 -10   20.38    1.88
   5  -5 -10   10.02    1.64
   5  -5 -10    8.25    1.75
   5   5 -10    7.63    1.58
   5   5 -10    7.39    1.72
  -5   5  10    9.90    1.68
   4  -5 -10   42.73    2.55
   4  -5 -10   44.39    2.96
   4   5 -10   43.89    2.61
   4   5 -10   47.33    3.04
  -4   5  10   45.29    2.97
   3  -5 -10    5.68    1.31
   3  -5 -10    6.03    1.39
   3   5 -10    7.03    1.55
  -3   5  10    6.51    1.18
   3   5 -10    5.04    1.47
  -2  -5  10  105.53    4.25
   2  -5 -10  110.50    4.61
  -2   5  10  113.40    4.61
   2   5 -10  113.06    4.57
   2   5 -10  110.78    4.75
   1  -5 -10    1.19    1.11
  -1   5  10    0.31    1.10
   1   5 -10    0.76    1.18
   1   5 -10    1.19    0.87
   0  -5 -10   18.83    1.89
   0  -5 -10   19.21    1.75
   0   5  10   16.56    1.66
   0   5 -10   17.90    1.86
   0   5 -10   15.65    1.74
  -1  -5 -10    1.13    1.27
  -1  -5 -10    3.48    1.11
  -1   5 -10    1.55    1.15
  -9   0  11   59.81    3.21
  -9   0  11   57.58    3.12
   9   0 -11   60.34    3.54
   9   0 -11   59.95    3.45
   9   0 -11   60.71    3.46
  -9   0  11   64.02    3.29
   8   0 -11   -0.53    1.12
  -8   0  11   -3.13    0.98
   8   0 -11    1.01    1.35
   8   0 -11    0.38    1.24
  -8   0  11    0.69    1.02
  -7   0  11   24.36    1.94
   7   0 -11   18.75    1.81
   7   0 -11   19.21    1.93
  -7   0  11   19.59    1.78
   7   0 -11   23.74    1.80
   6   0 -11    0.60    0.87
   6   0 -11    0.65    1.09
  -6   0  11    0.79    0.62
  -6   0  11    0.08    1.26
  -5   0  11   19.20    1.40
  -5   0  11   18.71    1.83
   5   0 -11   16.30    1.80
   5   0 -11   17.98    1.76
   4   0 -11    1.15    0.83
  -4   0  11   -1.44    1.08
  -4   0  11    0.65    0.65
   4   0 -11    1.64    1.04
   3   0 -11   12.29    1.41
   3   0 -11    9.91    1.42
  -3   0  11   13.53    1.46
  -3   0  11   11.65    0.93
  -2   0  11    0.34    0.67
   2   0 -11    0.23    0.91
   2   0 -11   -1.44    0.79
  -1   0  11   37.33    2.17
   1   0 -11   38.29    2.15
   1   0 -11   43.32    2.21
   0   0 -11   -0.13    0.70
   0   0  11    0.81    0.95
   0   0 -11    0.17    0.73
  -1   0 -11   82.97    3.24
   1   0  11   85.59    3.20
  -1   0 -11   79.73    3.20
   2   0  11    0.07    0.57
  -2   0 -11   -0.07    0.55
   3   0  11   33.36    1.74
  -3   0 -11   37.31    1.76
  -9  -1  11    5.06    1.48
  -9  -1  11    5.79    1.75
   9  -1 -11    2.65    1.41
   9  -1 -11    4.03    1.47
  -9  -1  11    4.15    1.27
   9  -1 -11    5.75    1.58
   9  -1 -11    6.47    2.14
   9   1 -11    2.31    1.35
  -9   1  11    3.17    1.05
   9   1 -11    3.79    1.18
   9   1 -11    4.46    1.19
  -9   1  11    2.99    1.07
  -9   1  11    4.60    1.25
   8  -1 -11   47.42    2.99
   8  -1 -11   47.20    2.75
  -8  -1  11   51.84    3.27
  -8  -1  11   48.57    2.73
   8  -1 -11   48.06    3.14
  -8   1  11   50.35    2.82
   8   1 -11   43.84    2.67
   8   1 -11   48.36    2.64
  -8   1  11   53.78    3.22
   8   1 -11   47.48    3.16
   7  -1 -11    2.41    1.31
  -7  -1  11    0.76    0.97
   7  -1 -11    1.21    1.11
  -7  -1  11    0.38    0.97
   7  -1 -11    1.26    0.94
  -7   1  11   -0.30    0.97
   7   1 -11   -0.55    1.12
   7   1 -11    1.14    0.77
   7   1 -11    0.78    1.36
  -7   1  11    0.57    1.31
   6  -1 -11    1.80    0.96
   6  -1 -11    4.05    1.07
  -6  -1  11    3.54    1.44
  -6  -1  11    5.43    1.02
  -6   1  11    4.43    0.83
  -6   1  11    6.48    1.50
   6   1 -11    3.84    1.01
   6   1 -11    5.23    1.42
  -5  -1  11    3.17    1.01
  -5  -1  11    3.12    0.81
   5  -1 -11    2.09    0.94
   5  -1 -11    3.93    1.23
  -5   1  11    3.19    1.30
  -5   1  11    3.97    0.74
   5   1 -11    5.23    1.05
   5   1 -11    4.10    1.04
   4  -1 -11  127.69    5.03
   4  -1 -11  126.08    4.87
  -4  -1  11  134.31    5.04
  -4  -1  11  130.23    4.44
   4   1 -11  129.82    5.07
  -4   1  11  124.40    4.53
  -4   1  11  135.36    5.03
   4   1 -11  128.32    5.01
   3  -1 -11   28.68    2.05
   3  -1 -11   26.65    2.07
  -3  -1  11   28.90    2.17
   3   1 -11   31.60    2.15
   3   1 -11   26.94    2.12
  -3   1  11   26.65    1.56
  -3   1  11   28.33    2.15
  -2  -1  11   -0.27    0.99
   2  -1 -11   -0.68    0.60
   2  -1 -11   -0.76    0.55
  -2   1  11   -1.45    0.90
   2   1 -11   -0.15    0.64
   2   1 -11   -1.21    0.83
  -1  -1  11    7.39    1.14
   1  -1 -11    8.30    1.07
   1  -1 -11    7.33    1.11
   1   1 -11    7.77    1.18
   1   1 -11    6.70    1.09
  -1   1  11    7.51    1.13
   0  -1 -11   52.81    2.41
   0  -1 -11   51.80    2.37
   0  -1  11   51.72    2.44
   0   1 -11   51.18    2.50
   0   1  11   52.22    2.42
   0   1 -11   47.76    2.41
  -1  -1 -11   14.11    1.28
   1  -1  11   13.05    1.14
  -1   1 -11   11.50    1.12
  -1   1 -11   12.22    1.23
   1   1  11   13.74    1.15
   2  -1  11   10.65    0.99
  -2  -1 -11   11.11    1.03
   2   1  11   11.47    1.00
  -2   1 -11   11.61    1.03
  -3  -1 -11   31.48    1.64
   3  -1  11   29.85    1.68
   3   1  11   29.05    1.65
  -3   1 -11   30.21    1.54
   8  -2 -11    2.90    1.05
   8  -2 -11    3.88    1.76
  -8  -2  11    2.16    1.51
   8  -2 -11    1.38    1.32
   8  -2 -11    1.32    1.22
   8   2 -11    0.75    1.00
  -8   2  11    2.13    0.90
  -8   2  11    1.92    1.44
   8   2 -11    0.66    1.27
   7  -2 -11   70.15    3.15
   7  -2 -11   74.50    3.68
  -7  -2  11   67.65    3.34
   7  -2 -11   63.97    3.29
   7  -2 -11   65.14    3.45
  -7   2  11   76.26    3.29
  -7   2  11   56.97    3.18
   7   2 -11   63.87    3.20
   7   2 -11   58.58    3.53
   7   2 -11   62.16    3.28
   6  -2 -11    0.32    1.03
  -6  -2  11    1.32    1.40
   6  -2 -11    0.52    1.23
   6  -2 -11   -1.10    1.07
  -6   2  11    0.51    0.89
   6   2 -11    2.30    1.36
  -6   2  11    2.86    0.80
   6   2 -11   -0.08    0.81
  -5  -2  11   50.89    3.12
   5  -2 -11   58.91    3.08
   5  -2 -11   56.16    3.01
  -5   2  11   51.27    2.62
   5   2 -11   55.63    3.13
   5   2 -11   57.25    2.84
  -5   2  11   55.78    3.10
   4  -2 -11   20.11    1.79
  -4  -2  11   15.55    1.69
   4  -2 -11   18.76    1.79
   4   2 -11   20.18    1.84
   4   2 -11   16.29    1.72
  -4   2  11   18.70    1.34
  -4   2  11   16.92    1.71
   3  -2 -11   16.75    1.64
   3  -2 -11   15.99    1.42
  -3  -2  11   14.32    1.60
  -3   2  11   15.39    1.21
   3   2 -11   11.08    1.55
   3   2 -11   16.33    1.65
  -3   2  11   18.59    1.65
   2  -2 -11    3.75    1.01
   2  -2 -11    3.31    1.06
  -2  -2  11    5.98    1.26
  -2   2  11    4.68    0.78
   2   2 -11    2.60    0.87
  -2   2  11    4.08    1.12
   2   2 -11    3.69    1.13
   1  -2 -11  129.26    4.68
  -1  -2  11  123.88    4.69
   1  -2 -11  124.11    4.52
  -1   2  11  120.37    4.60
   1   2 -11  122.75    4.72
   1   2 -11  126.67    4.68
   0  -2 -11    9.13    1.01
   0  -2 -11    8.01    1.09
   0  -2  11    8.92    1.21
   0   2  11    7.69    1.09
   0   2 -11   10.74    1.27
   0   2 -11   10.79    1.21
   1  -2  11    0.52    0.83
  -1  -2 -11    2.50    0.78
   1   2  11    1.66    0.83
  -1   2 -11    3.53    0.88
  -1   2 -11    2.38    0.96
  -2  -2 -11    1.14    0.68
   2  -2  11    2.24    0.81
  -2   2 -11    2.02    0.76
  -2   2 -11    0.25    0.84
   2   2  11    2.40    0.75
   8  -3 -11   13.42    1.95
  -8   3  11    9.20    1.33
   8   3 -11   13.44    1.68
   7  -3 -11    8.00    1.91
  -7  -3  11    6.49    1.40
   7  -3 -11    7.81    1.34
   7   3 -11    6.83    1.32
  -7   3  11    8.82    1.68
  -7   3  11    5.75    1.38
   7   3 -11    7.07    1.27
  -6  -3  11   -0.08    1.01
   6  -3 -11   -0.53    0.87
   6  -3 -11    1.49    1.48
   6   3 -11   -2.58    1.10
  -6   3  11    0.58    1.08
   6   3 -11    2.04    1.05
  -6   3  11   -0.31    0.92
   5  -3 -11   11.90    1.63
   5  -3 -11    9.15    1.56
  -5  -3  11   10.23    1.70
   5   3 -11   10.19    1.43
   5   3 -11   10.22    1.60
  -5   3  11   10.04    1.63
   4  -3 -11   26.49    2.25
   4  -3 -11   25.25    2.01
  -4  -3  11   24.24    2.05
  -4   3  11   28.55    2.34
   4   3 -11   22.58    1.90
  -4   3  11   24.86    1.62
   4   3 -11   24.00    2.10
  -3  -3  11    0.64    1.20
   3  -3 -11    0.91    0.99
   3  -3 -11    1.43    1.09
   3   3 -11   -1.13    1.09
   3   3 -11   -0.17    0.78
  -3   3  11    0.53    1.09
  -3   3  11    0.57    0.59
  -2  -3  11   18.58    1.72
   2  -3 -11   14.78    1.54
   2  -3 -11   14.59    1.49
   2   3 -11   14.31    1.58
   2   3 -11   12.33    1.39
  -2   3  11   14.85    1.51
   1  -3 -11    1.01    0.92
   1  -3 -11    1.47    0.82
  -1  -3  11    2.61    0.87
  -1   3  11    2.77    0.79
   1   3 -11    2.79    1.12
   1   3 -11    3.54    1.13
   0  -3  11   10.94    1.33
   0  -3 -11   10.78    1.27
   0   3 -11    9.76    1.40
   0   3 -11   10.03    1.32
   0   3  11   12.79    1.30
  -1  -3 -11    0.39    0.79
   1  -3  11   -0.05    0.92
   1   3  11    1.13    0.85
  -1   3 -11    0.69    0.96
  -1   3 -11    0.64    0.83
   2  -3  11   17.63    1.58
  -2  -3 -11   18.33    1.49
   2   3  11   17.73    1.57
  -2   3 -11   18.53    1.58
  -2   3 -11   15.42    1.59
  -6  -4  11    5.91    1.78
   6  -4 -11    7.50    1.60
   6  -4 -11    7.34    1.80
  -6   4  11    8.93    1.69
   6   4 -11    9.67    1.66
  -6   4  11    6.00    1.11
   6   4 -11    8.06    1.45
  -5  -4  11    0.45    1.51
   5  -4 -11    1.37    1.40
   5  -4 -11    0.09    1.25
   5   4 -11    0.35    1.25
  -5   4  11    1.54    0.83
   5   4 -11   -0.48    1.35
  -5   4  11    1.05    1.35
   4  -4 -11    8.92    1.29
   4  -4 -11   10.60    1.64
  -4  -4  11   10.29    1.77
   4   4 -11    7.00    1.51
  -4   4  11    9.78    1.60
   4   4 -11   12.97    1.76
  -4   4  11   11.33    1.22
  -3  -4  11    3.65    1.45
   3  -4 -11    1.94    0.89
  -3   4  11    2.77    0.94
   3   4 -11    1.60    1.22
   3   4 -11    2.59    1.28
  -2  -4  11   21.56    2.01
   2  -4 -11   23.15    1.73
   2  -4 -11   19.48    1.70
  -2   4  11   21.73    1.86
   2   4 -11   20.38    1.78
   2   4 -11   19.51    1.91
   1  -4 -11    1.53    0.77
   1  -4 -11    1.39    0.97
  -1  -4  11    0.78    1.20
   1   4 -11    2.82    1.24
  -1   4  11    2.81    1.14
   1   4 -11    2.27    1.16
   0  -4 -11    1.20    0.72
   0   4 -11    0.32    0.74
   0   4 -11    0.61    0.79
   0   4  11    0.33    1.00
   3  -5 -11   94.06    4.21
   3   5 -11   87.35    4.07
   3   5 -11   91.62    4.31
  -3   5  11   92.47    4.23
   2  -5 -11   -0.92    1.17
   2   5 -11   -1.75    1.28
   8   0 -12   -0.68    1.27
   8   0 -12    1.91    1.46
  -8   0  12    2.95    1.20
  -8   0  12    2.09    1.10
  -7   0  12    0.39    0.95
   7   0 -12   -1.33    0.88
   7   0 -12    2.13    0.99
  -7   0  12   -2.76    1.28
  -6   0  12    2.61    0.93
   6   0 -12    2.03    0.97
   6   0 -12   -1.11    1.28
  -6   0  12    1.20    1.37
  -5   0  12   -0.84    0.83
  -5   0  12    0.42    0.72
   5   0 -12    0.54    0.82
   5   0 -12    0.98    0.92
   4   0 -12   46.18    2.75
   4   0 -12   46.53    2.82
  -4   0  12   51.60    2.92
  -3   0  12   -0.47    1.05
   3   0 -12   -0.82    1.01
   3   0 -12   -0.32    0.94
   2   0 -12    1.20    1.00
  -2   0  12    1.76    1.05
   2   0 -12    0.50    0.93
   1   0 -12    1.73    0.91
   1   0 -12    0.47    0.83
  -1   0  12   -1.59    0.89
   0   0  12   86.14    3.46
   0   0 -12   84.75    3.45
   0   0 -12   80.17    3.40
  -1   0 -12    0.44    0.72
   1   0  12    0.60    0.80
   8  -1 -12   41.48    2.98
  -8  -1  12   43.38    2.62
  -8  -1  12   45.41    3.26
   8  -1 -12   43.29    3.09
  -8   1  12   44.80    3.18
   8   1 -12   36.11    2.52
   8   1 -12   36.48    3.01
  -8   1  12   40.62    2.65
   7  -1 -12    3.24    1.11
   7  -1 -12    1.07    1.37
  -7  -1  12    3.37    1.19
  -7  -1  12    3.45    1.05
   7   1 -12   -0.20    1.39
   7   1 -12    1.95    1.34
  -7   1  12    1.04    1.07
  -7   1  12    1.96    1.46
  -6  -1  12   -1.49    0.75
   6  -1 -12    1.54    1.20
   6  -1 -12    1.40    1.35
  -6  -1  12   -2.28    1.31
   6   1 -12   -1.34    1.29
  -6   1  12    0.45    1.35
   6   1 -12    0.36    1.23
  -6   1  12   -0.02    0.87
  -5  -1  12   23.72    2.08
   5  -1 -12   24.98    2.09
   5  -1 -12   23.52    1.93
  -5  -1  12   22.21    1.61
   5   1 -12   23.32    2.11
   5   1 -12   27.51    2.29
  -5   1  12   24.66    1.75
  -5   1  12   23.50    1.97
  -4  -1  12   74.30    3.62
   4  -1 -12   78.09    3.60
   4  -1 -12   75.62    3.37
   4   1 -12   77.93    3.66
  -4   1  12   71.67    2.88
   4   1 -12   70.68    3.36
  -4   1  12   80.94    3.63
   3  -1 -12   -0.70    0.95
  -3  -1  12    1.50    1.13
   3  -1 -12    0.17    0.73
  -3   1  12    1.16    1.09
   3   1 -12    1.78    1.11
   3   1 -12   -1.05    1.00
   2  -1 -12   26.02    2.00
  -2  -1  12   26.67    2.11
   2  -1 -12   25.72    1.74
   2   1 -12   24.28    1.76
   2   1 -12   26.79    1.82
  -2   1  12   30.64    2.13
   1  -1 -12   26.32    1.68
   1  -1 -12   24.39    1.89
  -1  -1  12   27.88    2.06
   1   1 -12   29.40    1.99
  -1   1  12   27.05    2.01
   1   1 -12   27.21    2.01
   0  -1 -12   15.72    1.51
   0  -1  12   14.73    1.40
   0  -1 -12   13.79    1.34
   0   1 -12   13.13    1.21
   0   1  12   13.72    1.45
   0   1 -12   13.96    1.28
  -1  -1 -12    1.68    0.78
   1  -1  12    1.32    1.00
  -1   1 -12    0.17    0.81
   1   1  12    2.39    0.85
  -1   1 -12    1.27    0.77
   7  -2 -12   37.90    2.55
  -7  -2  12   43.32    2.75
   7  -2 -12   40.07    3.06
  -7   2  12   51.06    3.20
   7   2 -12   43.65    2.63
  -7   2  12   41.49    2.60
   7   2 -12   40.41    3.06
  -6  -2  12   99.01    4.56
   6  -2 -12  101.59    4.54
   6  -2 -12  103.03    4.47
  -6   2  12   97.74    4.49
   6   2 -12   97.69    4.53
   6   2 -12   95.02    4.23
  -6   2  12   98.65    4.04
   5  -2 -12   26.49    2.17
   5  -2 -12   26.03    2.32
  -5  -2  12   25.06    2.17
   5   2 -12   21.94    2.12
   5   2 -12   22.25    1.91
  -5   2  12   22.29    1.60
  -5   2  12   23.13    2.06
   4  -2 -12    1.81    1.22
   4  -2 -12    0.17    1.09
  -4  -2  12   -0.73    0.85
   4   2 -12   -1.04    1.11
  -4   2  12    1.04    1.21
   4   2 -12    1.77    0.97
  -4   2  12    0.18    0.78
  -3  -2  12    9.12    1.49
   3  -2 -12    5.13    1.21
   3  -2 -12    6.91    1.12
  -3   2  12    7.93    1.11
   3   2 -12    8.22    1.41
   3   2 -12    6.17    1.38
  -3   2  12    8.86    1.31
   2  -2 -12   72.31    3.30
   2  -2 -12   70.04    3.23
  -2  -2  12   67.55    3.35
   2   2 -12   72.30    3.39
   2   2 -12   72.24    3.40
  -2   2  12   70.78    3.29
  -1  -2  12   66.36    3.17
   1  -2 -12   68.60    3.01
   1  -2 -12   67.68    2.95
  -1   2  12   66.10    3.10
   1   2 -12   65.59    3.13
   1   2 -12   63.96    3.00
   0  -2  12   11.78    1.37
   0  -2 -12   10.96    1.27
   0   2 -12   11.04    1.24
   0   2  12   11.43    1.31
   0   2 -12   13.18    1.39
   1  -2  12    2.25    1.00
  -1  -2 -12    4.09    0.93
  -1   2 -12    0.91    1.00
   1   2  12    4.37    1.11
  -1   2 -12    4.60    1.16
  -6  -3  12    0.49    1.09
   6  -3 -12    0.71    1.12
   6  -3 -12    0.75    1.41
   6  -3 -12    0.57    0.92
  -6   3  12    1.78    0.81
   6   3 -12   -0.75    1.44
  -6   3  12   -0.25    0.99
   6   3 -12    0.99    1.34
   5  -3 -12   48.96    2.89
  -5  -3  12   43.89    3.06
   5  -3 -12   40.07    2.85
   5   3 -12   42.02    2.89
   5   3 -12   42.96    2.65
  -5   3  12   44.11    2.50
  -5   3  12   42.32    2.97
  -4  -3  12    6.02    1.54
   4  -3 -12    3.94    1.36
   4  -3 -12    4.95    1.28
  -4   3  12    5.45    1.40
  -4   3  12    5.55    1.09
   4   3 -12    7.75    1.58
   4   3 -12    3.34    1.06
   3  -3 -12   54.08    2.83
  -3  -3  12   58.20    3.20
   3  -3 -12   55.05    2.98
   3   3 -12   58.04    3.16
  -3   3  12   58.70    3.10
  -3   3  12   54.08    2.61
   3   3 -12   58.24    3.17
   2  -3 -12    4.85    1.12
   2  -3 -12    5.76    1.03
  -2  -3  12    6.78    1.42
   2   3 -12    3.88    1.29
  -2   3  12    7.21    1.09
   2   3 -12    5.33    1.34
   1  -3 -12   16.18    1.56
   1   3 -12   10.38    1.52
   1   3 -12   14.41    1.44
   0  -3  12   38.65    2.42
   0  -3 -12   35.64    2.02
   0   3 -12   32.67    2.41
   0   3  12   37.51    2.29
   0   3 -12   35.79    2.33
   4  -4 -12    1.79    1.36
  -4  -4  12    3.90    1.64
   4  -4 -12    1.88    1.25
   4   4 -12    1.99    1.44
  -4   4  12    4.46    1.19
   4   4 -12    2.92    1.50
  -4   4  12    2.52    1.46
   3  -4 -12   17.22    1.86
   3  -4 -12   21.29    1.89
  -3  -4  12   16.03    2.02
  -3   4  12   17.12    1.85
   3   4 -12   13.93    1.61
   3   4 -12   16.01    1.97
  -3   4  12   14.66    1.35
   6   0 -13    0.30    1.27
   6   0 -13    0.89    0.99
  -6   0  13    0.59    0.98
  -6   0  13    0.75    0.87
   5   0 -13   29.64    2.56
  -5   0  13   30.38    2.64
   5   0 -13   29.91    2.51
   4   0 -13    1.41    0.86
   4   0 -13   -0.25    1.17
  -4   0  13    1.26    1.26
   3   0 -13   15.55    1.66
   3   0 -13   14.46    1.63
  -3   0  13   12.19    1.62
   2   0 -13    1.54    1.08
   2   0 -13   -0.58    0.95
  -2   0  13    0.91    1.10
   1   0 -13    6.08    1.20
  -1   0  13    5.77    1.02
   1   0 -13    5.44    0.94
  -6  -1  13    9.99    1.83
   6  -1 -13   10.50    1.72
   6  -1 -13    9.92    1.76
   6   1 -13   13.30    1.91
   6   1 -13   12.40    1.78
  -6   1  13   10.16    1.85
  -6   1  13   10.54    1.33
   5  -1 -13   31.22    2.25
  -5  -1  13   31.98    2.72
   5  -1 -13   29.38    2.49
  -5   1  13   26.86    2.23
   5   1 -13   33.86    2.57
   5   1 -13   32.32    2.67
   4  -1 -13    9.15    1.50
  -4  -1  13    9.30    1.57
   4  -1 -13    7.39    1.52
   4   1 -13   10.50    1.61
  -4   1  13   10.58    1.64
   4   1 -13    8.61    1.32
   3  -1 -13    9.09    1.42
  -3  -1  13    8.36    1.23
   3  -1 -13    8.92    1.45
   3   1 -13    7.95    1.20
  -3   1  13    8.84    1.45
   3   1 -13    6.37    1.40
  -2  -1  13   31.91    2.35
   2  -1 -13   34.46    2.33
   2  -1 -13   31.80    1.99
   2   1 -13   32.64    2.33
   2   1 -13   28.43    2.01
  -2   1  13   30.65    2.00
  -1  -1  13    0.11    1.03
   1  -1 -13    0.21    0.96
   1  -1 -13    0.49    0.64
   1   1 -13    0.19    0.71
  -1   1  13   -1.43    0.98
   1   1 -13    0.52    0.97
   5  -2 -13    4.94    1.54
   5  -2 -13    5.87    1.46
  -5  -2  13    4.86    1.26
   5   2 -13    5.01    1.24
  -5   2  13    4.51    1.51
   5   2 -13    3.36    1.09
  -5   2  13    4.66    1.06
   4  -2 -13   12.05    1.64
   4  -2 -13   13.78    1.54
  -4  -2  13   11.88    1.74
   4   2 -13   12.43    1.78
   4   2 -13   14.56    1.79
  -4   2  13   11.84    1.45
   3  -2 -13   25.87    2.25
  -3  -2  13   27.48    2.04
   3  -2 -13   24.67    2.02
   3   2 -13   23.58    1.95
  -3   2  13   24.95    2.10
   3   2 -13   27.73    2.34
  -2  -2  13   12.59    1.61
   2  -2 -13    9.16    1.48
   2  -2 -13   14.04    1.38
  -2   2  13   10.46    1.28
   2   2 -13   13.41    1.66
   2   2 -13   10.81    1.59
   0   0   0    0.00    0.00
;
loop_
_symmetry_equiv_pos_as_xyz
'x, y, z'
'-x+1/2, y+1/2, -z+1/2'
'-x, -y, -z'
'x-1/2, -y-1/2, z-1/2'
loop_
_atom_site_label
_atom_site_type_symbol
_atom_site_fract_x
_atom_site_fract_y
_atom_site_fract_z
_atom_site_U_iso_or_equiv
_atom_site_adp_type
_atom_site_occupancy
_atom_site_site_symmetry_order
_atom_site_calc_flag
_atom_site_refinement_flags_posn
_atom_site_refinement_flags_adp
C1 C 0.8459(5) 0.8605(6) 0.0556(4) 0.0135(9) Uani 1 1 d . .
H1A H 0.829405 0.748205 -0.003779 0.016 Uiso 1 1 calc R U
H1B H 0.761046 0.955493 0.017227 0.016 Uiso 1 1 calc R U
C2 C 1.0033(5) 0.9569(7) 0.0653(5) 0.0161(9) Uani 1 1 d . .
H2A H 1.026596 1.061638 0.130534 0.019 Uiso 1 1 calc R U
H2B H 1.08805 0.858779 0.092568 0.019 Uiso 1 1 calc R U
C3 C 1.0101(5) 0.6347(6) 0.2781(5) 0.0159(9) Uani 1 1 d . .
H3A H 1.099731 0.726063 0.299326 0.019 Uiso 1 1 calc R U
H3B H 1.008373 0.57436 0.359135 0.019 Uiso 1 1 calc R U
C4 C 1.0364(6) 0.4748(7) 0.1909(5) 0.0211(11) Uani 1 1 d . .
H4A H 0.944865 0.38881 0.163986 0.032 Uiso 1 1 calc R U
H4B H 1.129277 0.398705 0.237502 0.032 Uiso 1 1 calc R U
H4C H 1.051959 0.534207 0.115137 0.032 Uiso 1 1 calc R U
S1 S 0.82801(12) 0.77426(15) 0.20816(10) 0.0114(2) Uani 1 1 d . .
Cl1 Cl 0.86868(13) 0.86481(17) 0.55188(11) 0.0201(3) Uani 1 1 d . .
Cu1 Cu 0.86726(7) 1.03648(8) 0.35674(6) 0.01739(19) Uani 1 1 d . .
loop_
_atom_site_aniso_label
_atom_site_aniso_U_11
_atom_site_aniso_U_22
_atom_site_aniso_U_33
_atom_site_aniso_U_23
_atom_site_aniso_U_13
_atom_site_aniso_U_12
C1 0.015(2) 0.012(2) 0.012(2) 0.0031(17) 0.0019(18) 0.0011(17)
C2 0.017(2) 0.014(2) 0.016(3) 0.0000(19) 0.0050(19) -0.0023(19)
C3 0.012(2) 0.017(2) 0.014(2) 0.0047(19) -0.0011(18) 0.0030(18)
C4 0.021(2) 0.016(2) 0.026(3) 0.004(2) 0.008(2) 0.006(2)
S1 0.0121(5) 0.0113(5) 0.0110(6) 0.0001(4) 0.0040(4) -0.0002(4)
Cl1 0.0164(6) 0.0250(6) 0.0176(6) 0.0062(5) 0.0037(5) -0.0049(5)
Cu1 0.0154(3) 0.0204(3) 0.0163(3) -0.0002(2) 0.0050(2) 0.0034(2)
loop_
_atom_type_symbol
_atom_type_description
_atom_type_scat_dispersion_real
_atom_type_scat_dispersion_imag
_atom_type_scat_source
C C 0.0033 0.0016 'International Tables Vol C Tables 4.2.6.8 and 6.1.1.4'
H H 0 0 'International Tables Vol C Tables 4.2.6.8 and 6.1.1.4'
S S 0.1246 0.1234 'International Tables Vol C Tables 4.2.6.8 and 6.1.1.4'
Cl Cl 0.1484 0.1585 'International Tables Vol C Tables 4.2.6.8 and 6.1.1.4'
Cu Cu 0.3201 1.2651 'International Tables Vol C Tables 4.2.6.8 and 6.1.1.4'
loop_
_geom_angle_atom_site_label_1
_geom_angle_atom_site_label_2
_geom_angle_atom_site_label_3
_geom_angle
_geom_angle_site_symmetry_1
_geom_angle_site_symmetry_3
C2 C1 S1 115.3(3) . .
C2 C2 C1 110.3(5) 3_775 .
C4 C3 S1 114.2(3) . .
C1 S1 C3 102.6(2) . .
C1 S1 Cu1 103.06(15) . 2_645
C3 S1 Cu1 104.39(15) . 2_645
C1 S1 Cu1 110.46(15) . .
C3 S1 Cu1 101.03(15) . .
Cu1 S1 Cu1 131.79(5) 2_645 .
Cu1 Cl1 Cu1 87.32(4) 3_776 .
S1 Cu1 Cl1 119.15(5) 2_655 3_776
S1 Cu1 S1 112.79(3) 2_655 .
Cl1 Cu1 S1 114.39(4) 3_776 .
S1 Cu1 Cl1 113.08(4) 2_655 .
Cl1 Cu1 Cl1 92.68(4) 3_776 .
S1 Cu1 Cl1 101.49(4) . .
loop_
_geom_bond_atom_site_label_1
_geom_bond_atom_site_label_2
_geom_bond_distance
_geom_bond_site_symmetry_2
C1 C2 1.525(6) .
C1 S1 1.822(4) .
C2 C2 1.525(9) 3_775
C3 C4 1.512(6) .
C3 S1 1.824(4) .
S1 Cu1 2.3138(12) 2_645
S1 Cu1 2.3567(12) .
Cl1 Cu1 2.3433(13) 3_776
Cl1 Cu1 2.4254(13) .
loop_
_geom_hbond_atom_site_label_D
_geom_hbond_atom_site_label_H
_geom_hbond_atom_site_label_A
_geom_hbond_distance_DH
_geom_hbond_distance_HA
_geom_hbond_distance_DA
_geom_hbond_angle_DHA
_geom_hbond_site_symmetry_A
C1 H1B Cl1 0.98 3.01 3.914(4) 153.7 2_655
C4 H4B Cl1 0.97 2.91 3.518(5) 121.8 3_766
C1 H1B Cl1 0.98 3.01 3.914(4) 153.7 2_655
C4 H4B Cl1 0.97 2.91 3.518(5) 121.8 3_766
