#------------------------------------------------------------------------------
#$Date: 2019-07-10 06:30:08 +0300 (Wed, 10 Jul 2019) $
#$Revision: 216916 $
#$URL: file:///home/coder/svn-repositories/cod/cif/7/23/30/7233041.cif $
#------------------------------------------------------------------------------
#
# This file is available in the Crystallography Open Database (COD),
# http://www.crystallography.net/
#
# All data on this site have been placed in the public domain by the
# contributors.
#
data_7233041
loop_
_publ_author_name
'Schlachter, Adrien Camille'
'Bonnot, Antoine'
'Fortin, Daniel'
'Karsenti, Paul-Ludovic'
'Knorr, Michael'
'Harvey, Pierre D.'
_publ_section_title
;
 Unusual Triplet-Triplet Annihilation in a 3D Copper Chloride Coordination
 Polymer
;
_journal_name_full               'Physical Chemistry Chemical Physics'
_journal_paper_doi               10.1039/C9CP02891A
_journal_year                    2019
_chemical_formula_moiety         'C4 H9 Cl Cu S'
_chemical_formula_sum            'C4 H9 Cl Cu S'
_chemical_formula_weight         188.16
_space_group_IT_number           14
_space_group_name_Hall           '-P 2yn'
_space_group_name_H-M_alt        'P 1 21/n 1'
_symmetry_cell_setting           monoclinic
_symmetry_Int_Tables_number      14
_symmetry_space_group_name_Hall  '-P 2yn'
_symmetry_space_group_name_H-M   'P 1 21/n 1'
_atom_sites_solution_hydrogens   geom
_atom_sites_solution_primary     'direct - structure invariant direct methods'
_atom_sites_solution_secondary   'direct - structure invariant direct methods'
_audit_conform_dict_location     ftp://ftp.iucr.org/pub/cif_core.dic
_audit_conform_dict_name         cif_core.dic
_audit_conform_dict_version      2.4.3
_audit_creation_date             2018-11-01T10:04:52-00:00
_audit_creation_method           'WinGX routine CIF_UPDATE'
_audit_update_record
;
2019-05-21 deposited with the CCDC.    2019-07-09 downloaded from the CCDC.
;
_cell_angle_alpha                90
_cell_angle_beta                 109.028(2)
_cell_angle_gamma                90
_cell_formula_units_Z            4
_cell_length_a                   8.9309(9)
_cell_length_b                   6.7591(7)
_cell_length_c                   10.8963(11)
_cell_measurement_reflns_used    9196
_cell_measurement_temperature    100(2)
_cell_measurement_theta_max      26.46
_cell_measurement_theta_min      2.57
_cell_measurement_wavelength     0.71073
_cell_volume                     621.81(11)
_computing_cell_refinement       'SAINT V8.34A integration software'
_computing_data_collection       'Bruker APEX2 software'
_computing_data_reduction        'SORTAV (Blessing, 1995)'
_computing_molecular_graphics    'Ortep for Windows (Farrugia, 2012)'
_computing_publication_material  'WinGX publication routines (Farrugia, 2012)'
_computing_structure_refinement  'SHELXL-2016/6 (Sheldrick, 2016)'
_computing_structure_solution    'SHELXS-2013/1 (Sheldrick, 2008)'
_diffrn_ambient_temperature      100(2)
_diffrn_detector                 'APEX-II CCD'
_diffrn_measured_fraction_theta_full 0.998
_diffrn_measured_fraction_theta_max 0.998
_diffrn_measurement_device       '\k-geometry diffractometer'
_diffrn_measurement_device_type  'Bruker APEX-II'
_diffrn_measurement_method       '\f or \w oscillation scans'
_diffrn_orient_matrix_UB_11      -0.008475
_diffrn_orient_matrix_UB_12      -0.147222
_diffrn_orient_matrix_UB_13      0.004008
_diffrn_orient_matrix_UB_21      -0.070588
_diffrn_orient_matrix_UB_22      0.01444
_diffrn_orient_matrix_UB_23      0.054287
_diffrn_orient_matrix_UB_31      -0.094732
_diffrn_orient_matrix_UB_32      0.002412
_diffrn_orient_matrix_UB_33      -0.080381
_diffrn_radiation_monochromator  graphite
_diffrn_radiation_probe          x-ray
_diffrn_radiation_type           MoK\a
_diffrn_radiation_wavelength     0.71073
_diffrn_reflns_av_unetI/netI     0.0449
_diffrn_reflns_Laue_measured_fraction_full 0.998
_diffrn_reflns_Laue_measured_fraction_max 0.998
_diffrn_reflns_limit_h_max       11
_diffrn_reflns_limit_h_min       -11
_diffrn_reflns_limit_k_max       8
_diffrn_reflns_limit_k_min       -8
_diffrn_reflns_limit_l_max       13
_diffrn_reflns_limit_l_min       -13
_diffrn_reflns_number            10329
_diffrn_reflns_point_group_measured_fraction_full 0.998
_diffrn_reflns_point_group_measured_fraction_max 0.998
_diffrn_reflns_theta_full        25
_diffrn_reflns_theta_max         26.458
_diffrn_reflns_theta_min         2.573
_diffrn_source                   'sealed x-ray tube'
_diffrn_standards_number         0
_exptl_absorpt_coefficient_mu    4.144
_exptl_absorpt_correction_T_max  0.745
_exptl_absorpt_correction_T_min  0.624
_exptl_absorpt_correction_type   multi-scan
_exptl_absorpt_process_details
;
SADABS-2014/5 - Bruker AXS area detector scaling and absorption correction
;
_exptl_crystal_density_diffrn    2.01
_exptl_crystal_density_method    'not measured'
_exptl_crystal_description       Needle
_exptl_crystal_F_000             380
_exptl_crystal_size_max          0.33
_exptl_crystal_size_mid          0.1
_exptl_crystal_size_min          0.04
_refine_diff_density_max         0.868
_refine_diff_density_min         -1.368
_refine_diff_density_rms         0.137
_refine_ls_extinction_method     none
_refine_ls_goodness_of_fit_ref   1.089
_refine_ls_hydrogen_treatment    constr
_refine_ls_matrix_type           full
_refine_ls_number_constraints    0
_refine_ls_number_parameters     66
_refine_ls_number_reflns         10329
_refine_ls_number_restraints     0
_refine_ls_restrained_S_all      1.089
_refine_ls_R_factor_all          0.039
_refine_ls_R_factor_gt           0.0332
_refine_ls_shift/su_max          0
_refine_ls_shift/su_mean         0
_refine_ls_structure_factor_coef Fsqd
_refine_ls_weighting_details
'w=1/[\s^2^(Fo^2^)+3.5126P] where P=(Fo^2^+2Fc^2^)/3'
_refine_ls_weighting_scheme      calc
_refine_ls_wR_factor_gt          0.0839
_refine_ls_wR_factor_ref         0.0863
_reflns_Friedel_coverage         0
_reflns_number_gt                9261
_reflns_number_total             10329
_reflns_threshold_expression     'I > 2\s(I)'
_iucr_refine_instructions_details
;
TITL mo_Harvey_AS_CP2_100K_0m in P2(1)/n
    shelx.res
    created by SHELXL-2016/6 at 10:03:52 on 01-Nov-2018
CELL  0.71073   8.9309   6.7591  10.8963   90.000  109.028   90.000
ZERR     4.00   0.0009   0.0007   0.0011    0.000    0.002    0.000
LATT   1
SYMM  1/2 - X, 1/2 + Y, 1/2 - Z
SFAC  C    H    S    CL   CU
UNIT  16 36 4 4 4
MERG   0
EQIV $2 -x+3/2, y+1/2, -z+1/2
HTAB C1 Cl1_$2
EQIV $5 -x+2, -y+1, -z+1
HTAB C4 Cl1_$5
HTAB C1 Cl1_$2
HTAB C4 Cl1_$5
FMAP   2
PLAN    2
SIZE     0.040   0.100   0.330
ACTA    50.00
BOND
L.S.  20
TEMP  -173.31
WGHT    0.000000    3.512600
BASF   0.13612
FVAR       0.21975
MOLE    1
C1    1    0.845354    0.859523    0.055232    11.00000    0.00936    0.00568 =
         0.00623    0.00321    0.00154    0.00129
AFIX  23
H1A   2    0.828049    0.745899   -0.005136    11.00000   -1.20000
H1B   2    0.759936    0.956644    0.016757    11.00000   -1.20000
AFIX   0
C2    1    1.003905    0.955327    0.065544    11.00000    0.00844    0.00925 =
         0.00979   -0.00109    0.00252   -0.00108
AFIX  23
H2A   2    1.089095    0.854838    0.091794    11.00000   -1.20000
H2B   2    1.028723    1.060236    0.132593    11.00000   -1.20000
AFIX   0
C3    1    1.010774    0.632749    0.278280    11.00000    0.00535    0.00830 =
         0.00723    0.00308   -0.00200    0.00188
AFIX  23
H3A   2    1.101466    0.725457    0.299429    11.00000   -1.20000
H3B   2    1.009521    0.571714    0.360532    11.00000   -1.20000
AFIX   0
C4    1    1.036447    0.471646    0.190439    11.00000    0.01251    0.00794 =
         0.01375    0.00152    0.00433    0.00263
AFIX 137
H4A   2    0.943447    0.384977    0.163145    11.00000   -1.50000
H4B   2    1.130193    0.393924    0.237586    11.00000   -1.50000
H4C   2    1.052300    0.531878    0.113791    11.00000   -1.50000
AFIX   0
S1    3    0.828224    0.772801    0.208582    11.00000    0.00597    0.00632 =
         0.00582    0.00025    0.00191    0.00010
CL1   4    0.868380    0.865515    0.552139    11.00000    0.00821    0.01249 =
         0.00929    0.00289    0.00226   -0.00220
CU1   5    0.867022    1.035129    0.356082    11.00000    0.00713    0.00988 =
         0.00744   -0.00008    0.00222    0.00203
HKLF    5
 
 
 
 
REM  mo_Harvey_AS_CP2_100K_0m in P2(1)/n
REM R1 =  0.0332 for    9261 Fo > 4sig(Fo)  and  0.0390 for all   10329 data
REM     66 parameters refined using      0 restraints
 
END
 
WGHT      0.0000      3.5183
 
REM Highest difference peak  0.868,  deepest hole -1.368,  1-sigma level  0.137
Q1    1   0.9421  0.5250  0.4293  11.00000  0.05    0.87
Q2    1   0.8251  1.1253  0.1386  11.00000  0.05    0.69
;
_cod_data_source_file            c9cp02891a2.cif
_cod_data_source_block           shelx
_cod_original_sg_symbol_H-M      'P 21/n'
_cod_database_code               7233041
_shelx_estimated_absorpt_t_min   0.342
_shelx_estimated_absorpt_t_max   0.852
_iucr_refine_reflections_details
;
   1   0   0    0.19    0.08
   1   0   0    0.32    0.10
   1   0   0    0.10    0.09
  -1   0   0    0.01    0.07
  -1   0   0    0.02    0.09
  -1   0   0    0.19    0.18
  -1   0   0   -0.26    0.19
  -1   0   0    0.13    0.10
  -2   0   0    4.46    0.39
  -2   0   0    4.90    0.52
   2   0   0    3.88    0.39
   2   0   0    4.34    0.36
   2   0   0    4.60    0.39
  -2   0   0    4.30    0.43
  -3   0   0   -0.84    0.40
   3   0   0   -0.21    0.27
   3   0   0   -0.58    0.27
  -3   0   0   -0.25    0.27
  -3   0   0    0.69    0.58
   4   0   0  594.76   19.42
  -4   0   0  610.96   19.53
  -4   0   0  582.58   19.56
  -4   0   0  578.31   19.43
   4   0   0  612.11   19.42
  -5   0   0   -0.35    0.33
  -5   0   0    0.01    0.37
  -5   0   0    0.56    0.70
  -5   0   0   -0.35    0.52
   5   0   0   -0.45    0.35
  -6   0   0  259.31    9.23
  -6   0   0  272.61    9.31
  -6   0   0  281.55    9.10
   6   0   0  271.47    9.10
  -7   0   0    0.27    0.69
  -7   0   0    0.37    0.90
  -7   0   0   -0.30    0.32
   7   0   0   -0.24    0.52
   8   0   0  172.12    6.18
  -8   0   0  166.58    5.90
  -8   0   0  170.69    6.33
   8   0   0  164.62    5.96
  -8   0   0  170.75    6.19
  -9   0   0    0.03    1.00
   9   0   0   -0.37    0.64
   9   0   0    1.34    0.86
  -9   0   0   -0.42    0.81
  -9   0   0   -0.15    0.62
  10   0   0   41.23    2.37
  10   0   0   39.35    2.18
 -10   0   0   44.38    2.22
 -10   0   0   40.97    2.73
   0  -1   0   -0.21    0.16
   0  -1   0    0.16    0.22
   0  -1   0   -0.03    0.16
   0  -1   0   -0.23    0.21
   0   1   0   -0.02    0.16
   0   1   0   -0.15    0.16
   0   1   0   -0.10    0.23
  -1  -1   0  367.95   11.87
  -1  -1   0  357.23   11.91
  -1  -1   0  365.13   11.89
   1  -1   0  366.71   11.86
   1  -1   0  363.36   11.86
   1  -1   0  368.76   11.82
   1   1   0  366.27   11.87
   1   1   0  357.70   11.86
   1   1   0  357.98   11.84
  -1   1   0  364.03   11.85
  -1   1   0  363.08   11.90
  -1   1   0  373.01   11.87
   2  -1   0  220.70    7.34
   2  -1   0  221.60    7.34
  -2  -1   0  224.16    7.37
  -2  -1   0  223.79    7.40
  -2  -1   0  219.69    7.46
   2  -1   0  230.25    7.40
  -2   1   0  226.30    7.36
  -2   1   0  226.17    7.33
   2   1   0  218.99    7.32
   2   1   0  219.98    7.35
   2   1   0  222.43    7.31
   2   1   0  224.97    7.34
  -2   1   0  225.41    7.31
  -3  -1   0  616.70   21.12
  -3  -1   0  629.62   21.04
   3  -1   0  639.54   20.97
   3  -1   0  613.44   21.02
  -3  -1   0  667.87   21.01
   3   1   0  689.19   20.95
  -3   1   0  629.74   20.99
   3   1   0  633.51   20.95
  -3   1   0  628.90   20.98
  -3   1   0  666.30   20.93
   3   1   0  662.56   20.99
  -3   1   0  659.04   21.05
   3   1   0  647.74   20.99
   4  -1   0   99.54    3.63
  -4  -1   0  104.74    3.86
  -4  -1   0  105.62    3.68
  -4  -1   0  104.16    3.70
  -4   1   0  110.13    3.53
   4   1   0  109.16    3.59
  -4   1   0  102.94    3.70
   4   1   0  106.48    3.66
  -4   1   0  101.79    3.65
   4   1   0  107.95    3.67
  -4   1   0  104.14    3.74
   5  -1   0   92.83    3.24
  -5  -1   0   89.83    3.28
  -5  -1   0   88.38    3.59
  -5  -1   0   95.25    3.30
   5   1   0   92.02    3.16
  -5   1   0   91.01    3.25
  -5   1   0   91.11    3.37
   5   1   0   89.63    3.26
   5   1   0   89.08    3.28
  -5   1   0   88.26    3.30
  -6  -1   0    2.19    0.55
  -6  -1   0    2.50    1.02
  -6  -1   0    2.21    0.47
   6  -1   0    2.82    0.55
  -6   1   0    2.42    0.73
   6   1   0    2.97    0.61
   6   1   0    1.77    0.40
   6   1   0    1.90    0.55
  -6   1   0    1.56    0.67
   7  -1   0  245.31    8.42
  -7  -1   0  250.91    8.77
  -7  -1   0  249.88    8.49
  -7  -1   0  252.99    8.50
   7   1   0  244.65    8.46
  -7   1   0  244.25    8.58
   7   1   0  246.11    8.44
  -7   1   0  248.08    8.55
   7   1   0  248.16    8.31
  -8  -1   0   23.68    1.35
  -8  -1   0   23.14    2.17
   8  -1   0   24.58    1.49
  -8  -1   0   25.17    1.48
  -8   1   0   23.16    1.50
  -8   1   0   24.73    1.76
   8   1   0   23.63    1.49
   8   1   0   22.67    1.52
  -9  -1   0   15.50    1.35
  -9  -1   0   17.43    1.59
   9  -1   0   15.67    1.25
  -9  -1   0   14.13    1.10
   9   1   0   16.31    1.26
   9   1   0   14.06    1.31
  -9   1   0   15.33    1.45
  -9   1   0   14.25    1.38
 -10  -1   0   14.19    1.31
 -10  -1   0   18.74    1.91
  10  -1   0   13.14    1.27
 -10   1   0   13.88    1.35
 -10   1   0   14.25    1.50
  10   1   0   14.74    1.32
   0  -2   0  212.40    7.12
   0  -2   0  212.15    7.11
   0  -2   0  213.10    7.07
   0  -2   0  217.65    7.14
   0   2   0  216.44    7.13
   0   2   0  217.97    7.16
   0   2   0  211.85    7.13
  -1  -2   0   46.68    1.76
  -1  -2   0   46.06    1.73
  -1  -2   0   44.83    1.78
   1  -2   0   45.19    1.73
   1  -2   0   45.64    1.55
   1  -2   0   48.31    1.77
  -1  -2   0   45.61    1.83
   1  -2   0   47.16    1.68
   1   2   0   47.83    1.72
   1   2   0   44.97    1.73
  -1   2   0   46.99    1.80
  -1   2   0   45.43    1.70
  -1   2   0   44.53    1.76
   1   2   0   46.68    1.79
  -2  -2   0   81.14    2.98
  -2  -2   0   83.08    2.94
   2  -2   0   83.59    2.93
   2  -2   0   83.89    2.81
   2  -2   0   82.64    2.90
  -2  -2   0   81.80    3.01
  -2  -2   0   83.65    2.88
  -2   2   0   84.14    2.89
  -2   2   0   80.67    2.94
   2   2   0   79.67    2.83
   2   2   0   83.58    2.92
   2   2   0   81.99    2.92
   3  -2   0    1.20    0.27
   3  -2   0    0.60    0.43
  -3  -2   0    1.10    0.36
   3   2   0    1.29    0.37
  -3   2   0    1.05    0.42
  -3   2   0    1.02    0.20
   3   2   0    1.21    0.41
   3   2   0    0.95    0.27
  -4  -2   0   41.12    1.63
  -4  -2   0   40.43    1.79
  -4  -2   0   41.45    1.99
   4  -2   0   44.21    1.78
   4   2   0   42.66    1.66
  -4   2   0   50.65    1.67
  -4   2   0   44.09    1.63
  -4   2   0   46.53    1.77
   4   2   0   41.89    1.60
  -4   2   0   41.41    1.72
  -5  -2   0   10.23    0.60
  -5  -2   0   10.38    0.78
  -5  -2   0   10.33    0.87
   5  -2   0   11.27    0.93
  -5  -2   0   11.01    1.08
  -5   2   0   11.06    0.91
  -5   2   0    9.66    0.75
   5   2   0    9.61    0.79
  -5   2   0   10.66    0.75
  -5   2   0   11.27    0.63
   5   2   0   10.41    0.62
  -6  -2   0    0.75    0.79
  -6  -2   0    1.70    0.69
   6  -2   0    2.22    0.62
  -6  -2   0    2.23    0.60
  -6   2   0    1.43    0.66
  -6   2   0    2.36    0.54
   6   2   0    1.82    0.34
  -6   2   0    2.27    0.60
   6   2   0    1.48    0.58
   7  -2   0    6.19    0.69
  -7  -2   0    5.32    0.81
  -7  -2   0    8.33    0.95
  -7  -2   0    7.01    1.37
   7   2   0    7.28    0.72
   7   2   0    6.67    0.55
   7   2   0    7.14    0.72
  -7   2   0    7.26    0.93
  -7   2   0    7.53    0.83
  -8  -2   0  136.86    5.15
  -8  -2   0  142.94    5.16
  -8  -2   0  137.49    5.68
   8  -2   0  140.17    5.10
  -8   2   0  136.26    5.08
  -8   2   0  139.93    5.25
   8   2   0  142.91    5.13
  -9  -2   0    1.71    0.79
  -9  -2   0    1.89    0.62
   9  -2   0    1.75    0.80
  -9  -2   0    2.97    1.06
   9   2   0    2.28    0.85
  -9   2   0    3.54    0.97
 -10  -2   0    6.02    1.61
 -10  -2   0    5.20    0.98
  10  -2   0    5.65    0.99
  10   2   0    6.16    1.03
 -10   2   0    7.06    1.13
   0  -3   0   -0.30    0.29
   0  -3   0    0.07    0.32
   0  -3   0    0.35    0.51
   0  -3   0    0.27    0.45
   0   3   0    0.44    0.50
   0   3   0    0.15    0.50
   0   3   0    0.06    0.32
  -1  -3   0    9.84    0.71
   1  -3   0   11.26    0.84
  -1  -3   0   10.82    0.75
  -1  -3   0    9.35    0.76
   1  -3   0   11.00    0.82
   1  -3   0    9.53    0.50
  -1  -3   0    9.72    0.76
   1  -3   0    9.38    0.71
  -1   3   0    9.87    0.79
   1   3   0    9.90    0.71
  -1   3   0   11.12    0.77
  -1   3   0    8.91    0.66
   1   3   0   10.61    0.75
   1   3   0    9.55    0.80
   2  -3   0  110.85    3.88
  -2  -3   0  110.04    3.95
  -2  -3   0  107.41    3.86
   2  -3   0  110.53    3.77
  -2  -3   0  108.19    3.92
  -2  -3   0  108.18    3.91
   2  -3   0  111.23    3.88
   2   3   0  110.65    3.87
   2   3   0  107.35    3.83
  -2   3   0  113.28    3.91
   2   3   0  107.82    3.89
  -2   3   0  111.20    3.83
  -3  -3   0    2.51    0.61
   3  -3   0    2.03    0.34
   3  -3   0    3.34    0.49
  -3  -3   0    2.65    0.41
   3   3   0    1.94    0.40
   3   3   0    2.87    0.41
  -3   3   0    1.97    0.46
  -4  -3   0   39.35    1.80
  -4  -3   0   37.95    1.65
   4  -3   0   41.36    1.81
   4  -3   0   41.26    1.66
  -4  -3   0   39.17    1.72
  -4  -3   0   38.92    2.16
   4   3   0   39.48    1.71
  -4   3   0   42.29    1.82
   4   3   0   40.65    1.59
  -4   3   0   40.40    1.64
   4   3   0   38.10    1.67
  -5  -3   0    6.13    0.77
  -5  -3   0    7.42    0.80
  -5  -3   0    5.52    0.95
  -5  -3   0    5.92    0.57
   5  -3   0    5.74    0.80
   5   3   0    5.30    0.57
  -5   3   0    7.05    0.59
   5   3   0    6.53    0.53
  -5   3   0    6.93    0.47
  -5   3   0    6.19    0.80
  -5   3   0    6.10    0.79
   5   3   0    6.83    0.76
  -6  -3   0    6.37    0.85
  -6  -3   0    5.65    1.04
   6  -3   0    8.90    0.80
  -6  -3   0    7.89    0.89
  -6   3   0    5.91    0.85
   6   3   0    7.23    0.85
  -6   3   0    7.65    0.61
  -6   3   0    6.45    0.90
   6   3   0    6.72    0.54
  -7  -3   0   35.44    2.24
   7  -3   0   33.60    1.83
  -7  -3   0   32.88    1.85
  -7  -3   0   32.65    1.81
  -7   3   0   37.54    1.86
  -7   3   0   34.27    1.89
   7   3   0   33.46    1.83
  -8  -3   0   12.58    1.21
  -8  -3   0   15.06    1.36
   8  -3   0   13.09    1.19
  -8  -3   0   11.98    1.48
  -8   3   0   14.21    1.30
   8   3   0   15.07    1.23
  -9  -3   0   21.83    1.56
  -9  -3   0   22.83    2.24
   9  -3   0   21.58    1.47
  -9  -3   0   19.92    1.67
   9   3   0   21.77    1.68
  -9   3   0   22.29    1.80
   0  -4   0   60.70    2.54
   0  -4   0   60.41    2.30
   0  -4   0   65.99    2.47
   0  -4   0   62.20    2.51
   0   4   0   62.84    2.47
   0   4   0   61.04    2.41
   0   4   0   61.05    2.52
  -1  -4   0  198.64    6.76
  -1  -4   0  195.53    6.81
   1  -4   0  196.96    6.55
   1  -4   0  199.62    6.83
  -1  -4   0  198.74    6.83
  -1  -4   0  195.37    6.81
   1  -4   0  199.90    6.74
   1  -4   0  194.40    6.81
   1   4   0  197.47    6.80
   1   4   0  200.18    6.81
  -1   4   0  189.87    6.83
   1   4   0  200.64    6.79
  -1   4   0  202.35    6.87
  -1   4   0  196.64    6.78
   2  -4   0    9.85    0.79
   2  -4   0    9.86    0.85
  -2  -4   0    9.78    0.98
  -2  -4   0    9.56    0.89
  -2  -4   0    9.80    0.84
  -2  -4   0    8.44    0.90
   2  -4   0    9.53    0.94
   2   4   0    9.75    0.77
  -2   4   0    9.46    0.80
  -2   4   0    8.50    0.93
   2   4   0    9.60    0.90
   2   4   0    9.96    0.91
   3  -4   0   69.23    2.51
   3  -4   0   70.46    2.70
   3  -4   0   66.96    2.61
  -3  -4   0   65.01    2.79
  -3  -4   0   69.99    2.79
  -3  -4   0   66.28    2.83
  -3  -4   0   65.93    2.60
   3   4   0   65.63    2.73
   3   4   0   69.69    2.72
  -3   4   0   66.72    2.70
  -3   4   0   70.21    2.65
   3   4   0   68.55    2.61
  -4  -4   0   12.47    1.14
  -4  -4   0    8.51    0.83
  -4  -4   0    8.38    1.04
  -4  -4   0    9.80    0.88
   4  -4   0   11.55    1.01
   4   4   0    8.66    0.80
  -4   4   0   11.75    1.03
   4   4   0    8.57    0.74
   4   4   0   15.06    1.18
  -5  -4   0  126.74    4.81
  -5  -4   0  119.77    4.99
  -5  -4   0  122.39    4.70
   5  -4   0  132.77    4.70
  -5   4   0  127.49    4.71
   5   4   0  125.47    4.42
   5   4   0  127.85    4.67
  -6  -4   0   22.05    1.75
  -6  -4   0   15.76    1.19
  -6  -4   0   13.69    1.36
   6  -4   0   16.86    1.44
   6   4   0   16.56    1.41
  -6   4   0   15.03    1.26
   6   4   0   14.95    1.02
  -6   4   0   14.75    1.15
   7  -4   0    7.00    1.01
  -7  -4   0    6.32    0.97
  -7  -4   0    8.38    1.27
  -7  -4   0    7.45    0.97
  -7   4   0    6.74    1.00
   7   4   0    6.68    1.00
  -7   4   0    7.01    0.84
  -8  -4   0    7.28    0.94
  -8  -4   0    9.33    1.43
   8  -4   0    9.76    1.15
  -8  -4   0    8.79    1.29
  -8   4   0    9.68    1.18
  -8   4   0   10.21    1.16
   8   4   0    8.86    1.10
  -9  -4   0   42.83    2.43
  -9  -4   0   46.87    2.96
   9  -4   0   45.55    2.46
  -9  -4   0   43.74    2.59
   9   4   0   40.22    2.40
  -9   4   0   42.91    2.44
   0  -5   0   -1.50    0.57
   0  -5   0    0.28    0.45
   0  -5   0   -0.07    0.53
   0  -5   0   -0.16    0.45
   0   5   0   -1.42    0.61
   0   5   0    0.69    0.76
   0   5   0    0.26    0.50
  -1  -5   0   12.25    1.12
   1  -5   0   12.99    1.06
   1  -5   0   15.04    0.76
   1  -5   0   13.82    1.06
   1  -5   0   13.32    1.11
  -1  -5   0   13.83    1.17
  -1  -5   0   15.32    1.12
  -1  -5   0   15.89    1.10
   1   5   0   13.92    1.09
   1   5   0   13.02    1.14
  -1   5   0   15.64    1.23
  -1   5   0   15.50    1.19
  -1   5   0   14.93    1.17
   1   5   0   13.45    1.11
   2  -5   0  174.99    6.24
   2  -5   0  172.19    6.04
   2  -5   0  173.16    6.15
  -2  -5   0  171.24    6.12
  -2  -5   0  172.04    6.15
  -2  -5   0  177.74    6.22
  -2  -5   0  180.71    6.22
  -2   5   0  176.41    6.14
  -2   5   0  170.67    6.27
   2   5   0  171.31    6.19
   2   5   0  176.94    6.13
   2   5   0  170.42    6.20
  -3  -5   0   29.92    1.75
  -3  -5   0   26.23    1.88
  -3  -5   0   26.99    1.77
   3  -5   0   26.84    1.57
   3  -5   0   29.33    1.39
   3  -5   0   31.03    1.82
  -3  -5   0   25.81    1.62
   3   5   0   27.77    1.65
  -3   5   0   28.41    1.81
  -3   5   0   25.26    1.40
   3   5   0   26.94    1.55
   3   5   0   26.16    1.50
   4  -5   0   14.97    0.95
  -5  -5   0    3.54    1.22
   5  -5   0    3.02    0.72
  -5  -5   0    2.07    0.96
  -5  -5   0    3.31    0.89
   5   5   0    3.40    0.63
  -5   5   0    4.13    0.76
   5   5   0    2.78    0.85
  -6  -5   0  203.35    7.58
  -6  -5   0  209.71    7.97
  -6  -5   0  209.13    7.74
   6  -5   0  217.59    7.61
  -6   5   0  218.38    7.58
  -6   5   0  213.24    7.64
   6   5   0  213.92    7.54
  -7  -5   0    9.93    1.75
  -7  -5   0   11.56    1.24
  -7  -5   0   11.86    1.33
   7  -5   0   10.75    1.29
  -7   5   0   13.04    1.28
   7   5   0   11.24    1.27
  -7   5   0   13.36    1.33
  -8  -5   0    1.21    0.98
   8  -5   0    0.92    0.74
  -8  -5   0    2.06    1.11
  -8  -5   0    2.58    1.18
  -8   5   0    1.43    0.69
  -8   5   0    1.71    0.77
   8   5   0    3.17    0.99
   0  -6   0    4.88    0.72
   0  -6   0    4.98    0.72
   0  -6   0    3.91    0.99
   0  -6   0    4.69    0.78
   0   6   0    5.89    1.05
   0   6   0    6.11    0.98
   0   6   0    6.29    1.04
  -1  -6   0   73.69    2.99
  -1  -6   0   76.36    3.24
  -1  -6   0   71.22    3.19
   1  -6   0   78.05    3.01
   1  -6   0   74.99    3.10
  -1  -6   0   73.02    3.07
   1  -6   0   76.52    3.27
   1  -6   0   73.52    2.87
  -1   6   0   76.95    3.32
  -1   6   0   73.98    3.14
   1   6   0   74.44    3.26
   1   6   0   77.18    3.21
   1   6   0   73.67    3.18
  -2  -6   0    3.27    0.75
  -2  -6   0    4.05    0.75
  -2  -6   0    3.99    0.78
   2  -6   0    4.63    0.82
  -2  -6   0    2.70    0.85
   2  -6   0    3.89    0.71
   2  -6   0    5.93    0.79
  -2   6   0    2.58    1.00
  -2   6   0    4.52    0.88
   2   6   0    3.70    0.86
   2   6   0    3.10    0.93
   2   6   0    2.88    0.92
  -3  -6   0  101.38    4.00
   3  -6   0  104.36    4.16
  -3  -6   0   98.17    4.05
   3  -6   0  106.38    3.85
   3  -6   0   96.81    4.21
  -3  -6   0  101.34    4.05
  -3  -6   0  102.20    4.15
   3   6   0  101.26    3.98
   3   6   0  103.32    4.08
  -3   6   0  105.35    4.19
   3   6   0  103.93    4.08
  -3   6   0  101.44    3.96
  -4  -6   0    9.87    1.35
  -4  -6   0    6.67    0.98
   4  -6   0    8.09    1.17
  -4  -6   0    7.11    1.12
   4  -6   0    6.63    0.74
   4   6   0    8.03    0.96
   4   6   0    7.65    0.93
  -4   6   0    6.80    0.95
  -5  -6   0   59.30    2.95
  -5  -6   0   58.67    2.90
  -5  -6   0   57.19    2.80
   5  -6   0   60.81    2.93
  -5   6   0   57.76    2.91
   5   6   0   55.98    2.54
   5   6   0   63.19    2.89
  -6  -6   0    0.97    1.07
  -6  -6   0    0.53    1.29
  -6  -6   0    2.56    0.80
   6  -6   0    2.68    1.08
  -6   6   0    1.87    1.03
   6   6   0    1.77    0.75
  -7  -6   0   38.30    2.21
  -7  -6   0   39.72    2.67
  -7  -6   0   43.94    2.38
   7  -6   0   36.64    2.17
  -7   6   0   37.04    2.17
  -7   6   0   37.50    2.30
   7   6   0   38.46    2.16
   0  -7   0   -0.05    0.85
   0  -7   0    0.45    0.59
   0  -7   0   -0.07    0.95
   0   7   0    0.29    0.63
   0   7   0   -0.56    0.65
   1  -7   0   -0.38    0.59
   1  -7   0   -0.42    0.96
  -1  -7   0    0.08    0.63
  -1  -7   0    2.10    0.95
   1  -7   0   -0.28    0.76
  -1  -7   0   -0.19    0.57
  -1  -7   0    0.94    0.72
   1   7   0   -1.39    0.91
   1   7   0    1.82    0.96
   1   7   0    0.24    0.60
  -1   7   0    1.63    0.86
  -1   7   0   -0.51    0.67
   2  -7   0  147.85    5.62
   2  -7   0  141.72    5.61
  -2  -7   0  144.74    5.62
  -2  -7   0  144.39    5.57
  -2  -7   0  138.04    5.39
  -2  -7   0  141.66    5.39
   2  -7   0  145.43    5.29
  -2   7   0  140.59    5.53
   2   7   0  146.49    5.47
  -2   7   0  149.30    5.46
   2   7   0  143.84    5.57
   2   7   0  144.90    5.51
  -3  -7   0   12.64    1.31
  -3  -7   0   12.03    1.24
   3  -7   0   15.80    1.53
  -3  -7   0   12.18    1.28
  -3   7   0   14.52    1.52
   3   7   0   14.97    1.26
   3   7   0    9.21    1.31
  -4  -7   0   27.05    1.83
   4  -7   0   29.03    2.18
  -4  -7   0   27.42    2.15
  -4  -7   0   27.64    2.17
   4   7   0   22.68    1.55
   4   7   0   29.07    2.05
  -4   7   0   28.06    1.88
   5  -7   0   29.50    2.00
  -5  -7   0   29.03    2.21
  -5  -7   0   30.70    2.45
  -5  -7   0   31.44    2.05
  -5   7   0   28.30    1.97
   5   7   0   27.92    2.13
   0  -8   0   29.18    2.15
   0  -8   0   24.43    1.72
   0  -8   0   28.68    2.07
   0   8   0   25.76    1.91
   0   8   0   24.68    1.78
   1  -8   0   47.89    2.63
   1  -8   0   54.77    2.75
  -1  -8   0   48.36    2.64
  -1  -8   0   51.99    2.62
  -1  -8   0   52.27    2.94
   1   8   0   50.49    2.65
  -1   8   0   67.35    3.14
   1   8   0   61.24    3.06
  -1   8   0   47.84    2.56
   2  -8   0    1.61    0.90
  -2  -8   0    2.26    0.84
  -2  -8   0    1.57    1.09
   2  -8   0    1.88    0.87
  -2  -8   0    1.81    1.10
  -2   8   0    1.48    1.19
   2   8   0   -0.05    1.01
  -3  -8   0    8.60    1.08
   3  -8   0    9.95    1.28
   3  -8   0    9.83    1.12
  -3  -8   0   10.69    1.31
  -3  -8   0    9.49    1.45
   3   8   0   11.30    1.48
  -3   8   0   11.03    1.61
 -10   0   1   -0.07    0.96
  10   0  -1    0.80    0.81
  10   0  -1   -0.29    0.89
 -10   0   1    0.01    1.16
 -10   0   1    0.86    0.79
   9   0  -1   64.74    3.02
   9   0  -1   61.65    2.79
  -9   0   1   67.55    3.32
  -9   0   1   60.60    2.67
  -9   0   1   63.28    3.04
  -9   0   1   63.52    2.81
  -8   0   1   -0.50    0.38
   8   0  -1   -0.26    0.63
  -8   0   1   -0.39    1.06
   8   0  -1   -0.23    0.55
  -8   0   1    0.51    0.59
  -7   0   1  104.16    4.03
  -7   0   1  104.12    3.84
   7   0  -1  101.59    3.86
   7   0  -1  104.94    4.05
   6   0  -1    0.39    0.53
  -6   0   1    1.10    0.68
  -6   0   1    1.07    0.68
  -5   0   1  907.72   31.27
  -5   0   1 1000.00   31.37
   5   0  -1  965.11   31.21
  -4   0   1    0.16    0.33
  -4   0   1    0.31    0.50
   4   0  -1    0.33    0.32
  -4   0   1    0.18    0.70
   4   0  -1    0.20    0.39
   3   0  -1  159.58    5.46
  -3   0   1  163.63    5.56
  -3   0   1  159.44    5.51
   3   0  -1  163.94    5.45
  -3   0   1  166.05    5.44
   2   0  -1    0.07    0.31
  -2   0   1   -0.05    0.36
   2   0  -1    0.61    0.24
  -2   0   1    0.57    0.24
  -1   0   1  812.50   26.49
   1   0  -1  816.33   26.55
   1   0  -1  819.63   26.58
  -1   0   1  793.60   26.51
   1   0  -1  818.29   26.42
   0   0  -1   -0.18    0.17
   0   0  -1    0.12    0.07
   0   0   1    0.20    0.06
   0   0  -1    0.02    0.07
   0   0  -1    0.04    0.05
   0   0  -1    0.11    0.14
   0   0   1    0.03    0.06
   0   0  -1   -0.02    0.06
   0   0   1    0.01    0.05
  -1   0  -1  133.43    4.35
  -1   0  -1  131.90    4.34
  -1   0  -1  133.04    4.41
  -1   0  -1  132.67    4.35
  -2   0  -1    0.34    0.29
  -2   0  -1   -0.06    0.31
  -2   0  -1   -0.31    0.19
  -3   0  -1  305.70    9.78
  -3   0  -1  297.27    9.84
   3   0   1  298.79    9.71
  -3   0  -1  302.26    9.73
  -3   0  -1  297.37    9.91
   3   0   1  294.31    9.71
  -3   0  -1  294.56    9.72
   4   0   1    0.00    0.26
  -4   0  -1    0.07    0.39
  -4   0  -1   -0.09    0.21
  -4   0  -1    0.02    0.26
   4   0   1   -0.15    0.20
  -4   0  -1   -0.08    0.29
  -5   0  -1   20.64    0.97
   5   0   1   20.50    1.00
  -5   0  -1   19.42    1.20
   5   0   1   20.30    0.94
  -5   0  -1   20.51    0.99
  -5   0  -1   20.78    1.08
   6   0   1   -0.44    0.36
  -6   0  -1    0.05    0.34
   6   0   1   -0.51    0.37
  -6   0  -1   -0.06    0.34
  -6   0  -1   -0.26    0.52
  -6   0  -1   -0.59    0.55
  -7   0  -1   68.86    2.90
   7   0   1   66.47    2.66
  -7   0  -1   71.92    2.63
  -7   0  -1   71.56    3.10
  -8   0  -1   -0.11    0.52
  -8   0  -1    0.56    0.66
   8   0   1   -0.34    0.52
  -8   0  -1    0.10    0.42
  -9   0  -1    7.48    1.28
   9   0   1    7.79    1.06
  -9   0  -1    7.23    0.89
   9   0   1    5.27    0.81
 -10   0  -1    1.96    1.18
  10   0   1    0.58    0.72
 -10   0  -1   -1.09    0.83
 -10  -1   1    0.88    0.56
  10  -1  -1   -0.26    0.75
 -10  -1   1    2.22    1.42
 -10  -1   1    1.25    0.85
  10  -1  -1   -0.09    0.82
 -10   1   1    1.54    1.02
  10   1  -1   -1.23    0.77
 -10   1   1    2.35    1.00
  -9  -1   1   42.66    2.55
  -9  -1   1   41.54    2.17
  -9  -1   1   42.68    2.09
   9  -1  -1   44.78    2.25
  -9   1   1   43.93    2.43
   9   1  -1   41.34    2.21
   9   1  -1   42.45    2.21
  -9   1   1   44.78    2.50
  -8  -1   1  184.98    6.66
  -8  -1   1  184.88    6.64
  -8  -1   1  187.70    6.82
   8  -1  -1  190.48    6.64
  -8  -1   1  189.88    6.99
   8   1  -1  188.28    6.70
  -8   1   1  189.13    6.81
   8   1  -1  186.52    6.65
  -8   1   1  190.89    6.81
   8   1  -1  185.70    6.49
  -7  -1   1   11.49    1.15
  -7  -1   1    9.49    0.97
  -7  -1   1    8.74    0.97
  -7  -1   1   12.10    1.50
   7  -1  -1   10.48    0.96
   7   1  -1   10.11    0.92
  -7   1   1   11.48    1.06
   7   1  -1   10.91    0.92
  -7   1   1    9.87    0.94
   7   1  -1   10.78    1.00
  -6  -1   1   39.05    1.81
  -6  -1   1   42.51    1.77
  -6  -1   1   39.63    2.34
  -6  -1   1   38.52    1.80
   6  -1  -1   39.44    1.78
   6   1  -1   35.69    1.78
  -6   1   1   40.06    2.02
   6   1  -1   37.94    1.66
  -6   1   1   39.39    1.53
  -6   1   1   39.33    1.92
   6   1  -1   39.52    1.85
   5  -1  -1   73.35    2.68
  -5  -1   1   71.81    2.76
   5  -1  -1   66.30    2.57
  -5  -1   1   74.49    2.83
  -5  -1   1   69.12    2.67
  -5  -1   1   81.34    3.12
  -5   1   1   73.41    2.56
  -5   1   1   63.52    2.75
  -5   1   1   77.69    2.82
   5   1  -1   60.63    2.54
   5   1  -1   72.06    2.70
   5   1  -1   68.45    2.61
   5   1  -1   80.51    2.77
  -4  -1   1  385.83   12.69
  -4  -1   1  403.09   12.86
  -4  -1   1  395.25   12.75
   4  -1  -1  389.55   12.64
   4  -1  -1  356.88   12.63
   4   1  -1  386.82   12.64
   4   1  -1  389.03   12.69
   4   1  -1  391.74   12.68
  -4   1   1  392.30   12.62
  -4   1   1  375.12   12.71
   4   1  -1  363.24   12.62
  -4   1   1  383.86   12.70
  -3  -1   1   36.29    1.54
  -3  -1   1   35.67    1.83
   3  -1  -1   37.40    1.46
  -3  -1   1   33.31    1.47
   3  -1  -1   37.07    1.47
  -3   1   1   37.08    1.45
  -3   1   1   37.21    1.47
  -3   1   1   35.54    1.51
  -3   1   1   35.96    1.55
   3   1  -1   36.45    1.45
   3   1  -1   35.63    1.41
   3   1  -1   35.75    1.47
   3   1  -1   32.11    1.46
  -2  -1   1  216.82    7.06
   2  -1  -1  211.53    7.03
   2  -1  -1  210.87    7.04
  -2  -1   1  209.17    7.14
   2   1  -1  214.00    7.05
  -2   1   1  214.84    7.05
   2   1  -1  211.43    7.03
  -2   1   1  212.78    7.02
   2   1  -1  211.44    7.02
  -1  -1   1   40.00    1.45
   1  -1  -1   40.70    1.45
   1  -1  -1   39.96    1.45
   1  -1  -1   38.03    1.44
   1   1  -1   40.51    1.49
  -1   1   1   39.68    1.48
  -1   1   1   38.33    1.46
   1   1  -1   39.00    1.44
   1   1  -1   38.71    1.44
   0  -1  -1  234.60    7.57
   0  -1  -1  228.07    7.58
   0  -1   1  233.80    7.57
   0  -1  -1  224.31    7.58
   0  -1  -1  223.69    7.55
   0   1  -1  235.22    7.60
   0   1  -1  237.46    7.56
   0   1  -1  235.39    7.58
   0   1   1  225.50    7.57
   0   1   1  233.85    7.56
  -1  -1  -1    6.76    0.46
   1  -1   1    6.99    0.41
  -1  -1  -1    6.39    0.57
  -1  -1  -1    6.76    0.60
  -1  -1  -1    7.20    0.40
   1  -1   1    7.27    0.31
   1  -1   1    6.41    0.38
  -1  -1  -1    7.47    0.40
  -1   1  -1    6.82    0.37
  -1   1  -1    7.35    0.61
  -1   1  -1    7.47    0.44
  -1   1  -1    6.19    0.39
   1   1   1    6.86    0.43
   1   1   1    6.48    0.40
  -1   1  -1    6.57    0.38
   1   1   1    7.01    0.44
  -2  -1  -1  407.83   13.02
   2  -1   1  393.43   13.00
   2  -1   1  396.17   13.00
  -2  -1  -1  392.46   13.02
  -2  -1  -1  386.55   13.16
  -2  -1  -1  404.33   13.10
  -2   1  -1  400.76   13.01
  -2   1  -1  388.71   13.08
   2   1   1  409.10   12.96
  -2   1  -1  418.19   13.05
   2   1   1  410.42   13.01
  -2   1  -1  394.01   13.03
  -2   1  -1  396.26   13.01
   2   1   1  405.96   12.97
   2   1   1  393.62   13.01
  -3  -1  -1   -0.16    0.22
  -3  -1  -1   -0.05    0.41
  -3  -1  -1   -0.67    0.22
   3  -1   1    0.07    0.21
   3  -1   1   -0.08    0.26
  -3  -1  -1   -0.40    0.35
   3   1   1    0.15    0.23
  -3   1  -1   -0.25    0.34
  -3   1  -1   -0.31    0.21
   3   1   1   -0.09    0.11
   3   1   1    0.21    0.22
  -3   1  -1    0.00    0.27
  -3   1  -1   -0.04    0.13
  -3   1  -1   -0.05    0.32
  -4  -1  -1  190.84    6.46
  -4  -1  -1  194.02    6.69
  -4  -1  -1  196.20    6.54
   4  -1   1  188.26    6.42
  -4  -1  -1  198.47    6.44
   4  -1   1  193.85    6.42
  -4   1  -1  195.34    6.44
  -4   1  -1  193.35    6.44
  -4   1  -1  191.71    6.54
   4   1   1  196.07    6.35
  -4   1  -1  187.86    6.52
  -4   1  -1  199.81    6.36
   4   1   1  190.56    6.46
   4   1   1  190.76    6.44
  -5  -1  -1   61.74    2.22
  -5  -1  -1   59.13    2.65
   5  -1   1   61.02    2.20
   5  -1   1   58.40    2.19
  -5  -1  -1   60.86    2.33
  -5  -1  -1   60.27    2.25
   5   1   1   60.34    2.10
   5   1   1   58.18    2.20
  -5   1  -1   61.95    2.40
  -5   1  -1   61.07    2.10
   5   1   1   57.00    2.22
  -5   1  -1   59.86    2.22
  -5   1  -1   59.78    2.22
   5   1   1   60.68    2.27
  -5   1  -1   59.76    2.37
  -6  -1  -1   73.12    2.72
   6  -1   1   69.39    2.61
  -6  -1  -1   70.53    2.66
  -6  -1  -1   72.22    2.98
  -6   1  -1   66.93    2.78
   6   1   1   71.83    2.64
   6   1   1   70.68    2.47
  -6   1  -1   68.04    2.48
  -6   1  -1   70.38    2.84
   6   1   1   70.75    2.74
  -7  -1  -1   11.65    0.99
   7  -1   1   11.51    1.00
  -7  -1  -1   13.05    0.97
  -7  -1  -1   11.43    1.17
   7   1   1   11.48    0.99
  -7   1  -1   10.65    0.67
   7   1   1   11.99    1.04
  -7   1  -1   12.98    1.15
  -7   1  -1   12.60    1.00
   8  -1   1    7.83    0.84
  -8  -1  -1    8.83    0.88
  -8  -1  -1    8.24    0.84
  -8  -1  -1    8.49    1.14
   8   1   1    7.74    0.83
  -8   1  -1    6.10    0.97
   8   1   1    8.42    0.87
  -8   1  -1    7.96    1.06
  -9  -1  -1    9.84    1.04
   9  -1   1   15.94    1.28
  -9  -1  -1   14.47    1.66
   9   1   1   15.52    1.26
  -9   1  -1   10.39    1.22
  -9   1  -1   15.12    1.31
  10  -1   1   71.49    3.12
 -10  -1  -1   76.72    3.87
 -10  -1  -1   71.77    3.13
  10   1   1   73.37    3.11
 -10   1  -1   77.66    3.46
 -10   1  -1   66.47    3.30
  10  -2  -1    4.78    1.06
 -10  -2   1    4.65    1.06
 -10  -2   1    3.39    1.60
 -10  -2   1    4.55    1.04
 -10   2   1    5.23    0.96
  10   2  -1    3.52    1.04
  -9  -2   1   32.26    2.36
  -9  -2   1   31.83    1.97
   9  -2  -1   30.84    1.76
  -9  -2   1   34.19    2.02
  -9   2   1   35.90    1.95
   9   2  -1   32.49    1.97
  -9   2   1   32.31    2.11
   8  -2  -1   42.58    2.10
  -8  -2   1   37.97    1.96
  -8  -2   1   42.14    2.89
  -8  -2   1   44.43    2.21
   8   2  -1   38.35    1.95
  -8   2   1   42.28    2.08
   8   2  -1   40.31    2.09
  -8   2   1   43.95    2.09
   7  -2  -1   24.37    1.53
  -7  -2   1   25.53    1.47
  -7  -2   1   23.25    1.40
  -7  -2   1   27.05    1.95
  -7   2   1   27.56    1.54
   7   2  -1   24.61    1.44
   7   2  -1   24.87    1.55
   7   2  -1   24.56    1.24
  -7   2   1   27.00    1.50
   6  -2  -1    0.21    0.60
  -6  -2   1    0.22    1.12
  -6  -2   1    2.79    0.76
  -6  -2   1    1.09    0.62
  -6   2   1    1.27    0.58
   6   2  -1    1.78    0.43
  -6   2   1    0.66    0.40
  -6   2   1    1.39    0.52
  -6   2   1    1.97    0.61
   6   2  -1    0.46    0.60
  -5  -2   1   99.51    3.68
  -5  -2   1   95.88    3.96
   5  -2  -1  100.18    3.57
   5  -2  -1   93.99    3.47
  -5  -2   1   97.36    3.61
   5   2  -1   93.40    3.46
  -5   2   1  100.25    3.65
  -5   2   1   99.39    3.46
  -5   2   1   99.30    3.59
   5   2  -1   96.13    3.58
   5   2  -1   95.29    3.44
  -5   2   1   99.50    3.48
   4  -2  -1    9.38    0.78
  -4  -2   1    9.69    0.80
   4  -2  -1    9.83    0.77
  -4  -2   1   10.11    0.96
  -4  -2   1    9.50    0.73
  -4   2   1    9.80    0.81
  -4   2   1   10.67    0.81
  -4   2   1   10.77    0.82
   4   2  -1    9.52    0.72
   4   2  -1    9.44    0.65
  -4   2   1    9.87    0.87
   4   2  -1    9.07    0.68
   3  -2  -1   39.25    1.57
   3  -2  -1   37.22    1.61
  -3  -2   1   36.69    1.58
  -3  -2   1   36.91    1.90
  -3  -2   1   37.73    1.62
   3   2  -1   37.22    1.51
  -3   2   1   37.18    1.55
  -3   2   1   37.65    1.61
   3   2  -1   36.85    1.59
   3   2  -1   37.12    1.49
  -2  -2   1   17.30    1.04
  -2  -2   1   18.00    1.00
   2  -2  -1   17.41    0.88
  -2  -2   1   18.79    1.28
   2  -2  -1   18.65    1.04
   2  -2  -1   17.38    0.79
   2   2  -1   17.21    0.89
  -2   2   1   17.10    1.01
   2   2  -1   16.00    0.90
  -2   2   1   18.26    0.97
   2   2  -1   16.77    0.98
   1  -2  -1   43.70    1.70
   1  -2  -1   44.16    1.71
  -1  -2   1   44.35    1.86
   1  -2  -1   44.30    1.59
  -1  -2   1   45.76    1.76
   1  -2  -1   46.27    1.77
  -1  -2   1   45.69    1.78
   1   2  -1   45.57    1.73
   1   2  -1   43.43    1.70
  -1   2   1   43.91    1.72
  -1   2   1   42.80    1.68
   1   2  -1   45.98    1.75
   0  -2  -1   53.45    2.05
   0  -2   1   58.96    2.10
   0  -2  -1   56.32    2.11
   0  -2   1   56.76    2.05
   0  -2   1   59.01    2.05
   0  -2  -1   55.54    2.05
   0  -2  -1   55.29    2.06
   0   2   1   58.15    2.12
   0   2  -1   56.45    2.09
   0   2  -1   57.17    2.08
   0   2   1   57.48    2.05
   0   2  -1   54.58    2.07
  -1  -2  -1    3.61    0.48
   1  -2   1    4.61    0.38
  -1  -2  -1    4.68    0.39
  -1  -2  -1    3.96    0.40
   1  -2   1    4.02    0.34
  -1  -2  -1    3.87    0.54
  -1   2  -1    4.08    0.35
   1   2   1    4.04    0.40
  -1   2  -1    3.67    0.51
  -1   2  -1    4.71    0.59
   1   2   1    3.79    0.39
   1   2   1    3.92    0.39
  -2  -2  -1    0.67    0.46
  -2  -2  -1    1.12    0.31
  -2  -2  -1    1.07    0.37
   2  -2   1    1.11    0.17
   2  -2   1    1.42    0.40
   2  -2   1    1.18    0.30
  -2   2  -1    1.10    0.28
   2   2   1    1.07    0.24
   2   2   1    1.34    0.28
   2   2   1    1.16    0.32
  -2   2  -1    1.07    0.48
  -2   2  -1    1.09    0.38
   3  -2   1  377.51   12.34
  -3  -2  -1  362.45   12.54
  -3  -2  -1  374.40   12.39
  -3  -2  -1  372.98   12.47
   3   2   1  384.68   12.24
   3   2   1  388.53   12.37
  -3   2  -1  369.26   12.25
  -3   2  -1  376.96   12.37
  -4  -2  -1   35.53    1.61
  -4  -2  -1   35.03    1.79
   4  -2   1   38.76    1.55
  -4  -2  -1   38.14    1.57
   4   2   1   37.58    1.54
  -4   2  -1   36.31    1.60
  -4   2  -1   37.22    1.44
  -4   2  -1   38.81    1.55
   4   2   1   37.83    1.32
   5  -2   1    2.98    0.52
  -5  -2  -1    1.87    0.61
  -5  -2  -1    2.52    0.42
  -5  -2  -1    2.70    0.75
  -5   2  -1    2.46    0.20
   5   2   1    2.61    0.25
   5   2   1    1.65    0.47
  -5   2  -1    2.47    0.51
  -5   2  -1    1.82    0.57
  -5   2  -1    2.24    0.43
   6  -2   1    8.98    0.78
  -6  -2  -1    9.50    0.83
  -6  -2  -1    8.02    0.78
  -6  -2  -1    9.34    1.08
  -6   2  -1    9.21    0.79
   6   2   1    9.25    0.53
  -6   2  -1   10.44    0.82
  -6   2  -1    9.69    0.91
   6   2   1    9.67    0.81
  -7  -2  -1  202.62    6.93
  -7  -2  -1  195.94    7.36
   7  -2   1  205.61    6.87
  -7  -2  -1  200.23    7.00
  -7   2  -1  193.47    6.99
   7   2   1  200.84    6.89
  -7   2  -1  194.49    6.88
  -7   2  -1  194.43    6.86
  -8  -2  -1   40.75    2.78
   8  -2   1   44.04    2.04
  -8  -2  -1   41.23    2.05
  -8  -2  -1   41.78    2.12
  -8   2  -1   42.77    2.06
   8   2   1   44.22    2.06
  -8   2  -1   43.32    2.20
  -9  -2  -1   61.09    3.15
  -9  -2  -1   59.66    2.65
   9  -2   1   58.13    2.60
  -9  -2  -1   58.86    2.67
  -9   2  -1   55.73    2.76
   9   2   1   59.24    2.63
 -10  -3   1   22.77    2.42
 -10  -3   1   21.45    1.84
  10  -3  -1   21.86    1.74
 -10  -3   1   22.73    1.84
  10   3  -1   22.97    1.87
 -10   3   1   20.14    1.68
  -9  -3   1   19.41    1.51
   9  -3  -1   19.48    1.55
  -9  -3   1   18.29    2.14
  -9  -3   1   19.43    1.66
  -9   3   1   18.80    1.59
   9   3  -1   21.29    1.46
  -8  -3   1    2.26    0.87
  -8  -3   1    3.81    0.99
  -8  -3   1    2.92    1.48
   8  -3  -1    5.40    0.97
  -8   3   1    3.72    0.98
   8   3  -1    1.75    0.82
  -7  -3   1   53.26    2.47
  -7  -3   1   54.02    2.57
  -7  -3   1   50.91    2.77
   7  -3  -1   53.30    2.42
  -7   3   1   53.71    2.43
   7   3  -1   51.48    2.42
  -7   3   1   52.16    2.36
   7   3  -1   52.58    2.10
  -6  -3   1   42.44    2.70
   6  -3  -1   45.88    2.08
  -6  -3   1   42.91    1.97
  -6  -3   1   43.10    2.20
   6   3  -1   42.62    1.78
  -6   3   1   41.22    2.09
  -6   3   1   42.89    1.67
   6   3  -1   42.79    2.06
  -6   3   1   42.04    2.08
  -5  -3   1    1.16    0.64
  -5  -3   1    2.64    1.17
  -5  -3   1    3.02    0.80
   5  -3  -1    2.09    0.53
   5  -3  -1    3.17    0.55
  -5  -3   1    3.12    0.59
  -5   3   1    2.79    0.36
   5   3  -1    2.00    0.64
  -5   3   1    2.41    0.53
   5   3  -1    1.71    0.47
   5   3  -1    2.76    0.59
  -5   3   1    2.40    0.68
  -5   3   1    2.13    0.54
   4  -3  -1    8.33    0.84
  -4  -3   1   10.66    0.86
   4  -3  -1   10.16    0.89
  -4  -3   1    7.38    0.95
   4   3  -1   10.30    0.83
  -4   3   1   11.01    0.92
  -3  -3   1  268.79    9.11
  -3  -3   1  263.69    9.17
   3  -3  -1  271.11    9.07
   3  -3  -1  273.93    9.06
  -3  -3   1  277.23    9.14
   3  -3  -1  270.23    8.96
   3   3  -1  261.20    9.05
   3   3  -1  272.80    9.06
  -3   3   1  275.00    9.11
  -3   3   1  267.68    9.02
   3   3  -1  262.97    8.99
   2  -3  -1   70.00    2.68
  -2  -3   1   71.26    2.72
  -2  -3   1   70.95    2.70
   2  -3  -1   73.60    2.71
   2  -3  -1   70.06    2.57
  -2  -3   1   71.43    2.70
   2   3  -1   68.86    2.67
  -2   3   1   70.68    2.66
   2   3  -1   72.26    2.66
  -2   3   1   70.87    2.61
   2   3  -1   68.43    2.59
   1  -3  -1   96.07    3.40
   1  -3  -1   97.51    3.45
   1  -3  -1   93.91    3.24
   1  -3  -1   93.79    3.35
  -1  -3   1   95.81    3.42
  -1  -3   1   93.23    3.42
  -1  -3   1   94.21    3.43
   1   3  -1   97.36    3.43
   1   3  -1   94.81    3.38
  -1   3   1   92.16    3.41
   1   3  -1   97.07    3.43
  -1   3   1   95.99    3.41
   0  -3  -1   19.57    1.01
   0  -3  -1   18.06    0.99
   0  -3  -1   20.57    1.01
   0  -3   1   20.56    0.95
   0  -3   1   20.61    1.00
   0  -3   1   19.97    0.95
   0  -3   1   19.90    1.04
   0  -3  -1   19.60    0.98
   0   3  -1   17.46    1.05
   0   3   1   19.73    1.13
   0   3  -1   19.18    1.17
   0   3  -1   20.72    1.05
   0   3   1   21.12    1.01
   0   3   1   18.02    1.08
   1  -3   1  100.75    3.27
   1  -3   1   99.01    3.45
  -1  -3  -1   94.72    3.44
  -1  -3  -1   98.26    3.53
  -1  -3  -1   99.23    3.55
   1  -3   1   99.42    3.39
   1  -3   1   98.11    3.48
  -1  -3  -1   98.46    3.52
   1   3   1   98.14    3.49
  -1   3  -1   97.44    3.50
   1   3   1   95.61    3.44
   1   3   1   97.29    3.50
  -1   3  -1   95.59    3.53
  -1   3  -1   96.16    3.45
   2  -3   1  129.46    4.43
  -2  -3  -1  129.01    4.48
  -2  -3  -1  119.89    4.49
   2  -3   1  125.60    4.29
   2  -3   1  126.03    4.39
   2   3   1  125.03    4.44
   2   3   1  124.86    4.36
  -2   3  -1  125.38    4.37
  -2   3  -1  127.38    4.45
   2   3   1  128.09    4.41
  -2   3  -1  142.38    4.59
   3  -3   1  175.72    5.89
   3  -3   1  160.75    5.78
  -3  -3  -1  176.09    6.00
  -3  -3  -1  177.25    6.10
  -3  -3  -1  162.53    5.77
  -3  -3  -1  181.89    5.93
   3  -3   1  168.01    5.67
   3   3   1  170.52    5.81
   3   3   1  185.22    5.90
  -3   3  -1  165.25    5.76
  -3   3  -1  163.86    5.89
   3   3   1  170.72    5.74
   4  -3   1   27.14    1.44
  -4  -3  -1   29.07    1.20
  -4  -3  -1   26.76    1.44
  -4  -3  -1   29.48    1.84
  -4  -3  -1   28.27    1.43
  -4   3  -1   27.80    1.19
   4   3   1   30.35    1.14
   4   3   1   27.38    1.41
  -4   3  -1   28.25    1.44
  -5  -3  -1    4.08    0.68
   5  -3   1    6.24    0.73
  -5  -3  -1    5.95    0.88
  -5  -3  -1    4.44    0.90
   5   3   1    5.41    0.45
   5   3   1    4.80    0.69
  -5   3  -1    5.71    0.63
  -5   3  -1    5.85    0.71
  -5   3  -1    5.14    0.44
  -6  -3  -1  119.20    4.49
   6  -3   1  119.89    4.32
  -6  -3  -1  117.94    4.32
  -6  -3  -1  120.91    4.82
   6   3   1  117.38    4.32
  -6   3  -1  112.18    4.31
  -6   3  -1  119.89    4.37
   7  -3   1   16.77    1.32
  -7  -3  -1   19.12    1.49
  -7  -3  -1   15.98    1.29
  -7  -3  -1   15.28    1.53
  -7   3  -1   15.00    1.25
  -7   3  -1   15.10    1.26
   7   3   1   16.08    1.28
  -8  -3  -1    2.18    0.77
  -8  -3  -1    2.86    1.04
  -8  -3  -1    3.10    0.72
   8  -3   1    1.82    0.59
  -8   3  -1    2.70    0.75
  -8   3  -1    3.01    0.86
   8   3   1    1.81    0.58
  -9  -3  -1    3.25    0.88
  -9  -3  -1    3.31    0.77
  -9  -3  -1    4.48    1.23
   9  -3   1    4.52    0.92
  -9   3  -1    3.74    0.95
   9   3   1    2.90    0.83
  -9  -4   1   10.55    1.34
  -9  -4   1   12.37    2.03
   9  -4  -1    8.95    1.25
  -9  -4   1    9.40    1.21
  -9   4   1    7.75    1.26
   9   4  -1    9.54    1.29
  -8  -4   1    5.13    0.85
  -8  -4   1    7.68    1.69
   8  -4  -1    5.12    0.86
  -8  -4   1    5.66    0.96
  -8   4   1    5.33    0.88
   8   4  -1    8.04    1.12
  -8   4   1    5.32    0.85
  -7  -4   1    1.12    0.82
  -7  -4   1    0.80    0.93
  -7  -4   1    0.72    0.67
   7  -4  -1    0.74    0.81
   7   4  -1   -0.15    0.77
  -7   4   1    1.36    0.81
  -7   4   1    0.05    0.79
  -6  -4   1  113.14    4.51
  -6  -4   1  115.20    4.69
  -6  -4   1  113.42    4.37
   6  -4  -1  117.44    4.40
  -6   4   1  110.55    4.30
   6   4  -1  118.41    4.14
  -6   4   1  118.91    4.44
   6   4  -1  108.84    4.30
   5  -4  -1  144.59    5.18
   5  -4  -1  142.62    5.14
  -5  -4   1  142.48    5.34
  -5  -4   1  143.41    5.28
  -5  -4   1  143.80    5.10
  -5  -4   1  144.71    5.45
   5   4  -1  136.87    5.13
  -5   4   1  142.87    5.06
  -5   4   1  143.50    5.21
   5   4  -1  140.35    5.01
   5   4  -1  148.52    5.24
   4  -4  -1   99.94    3.49
  -4  -4   1   94.98    3.98
  -4  -4   1   95.74    3.80
   4  -4  -1   96.71    3.74
   4  -4  -1   94.86    3.62
  -4  -4   1   96.65    3.75
  -4  -4   1   95.08    3.63
  -4   4   1  101.17    3.61
   4   4  -1   92.26    3.60
  -4   4   1   99.58    3.78
   4   4  -1   95.50    3.57
   4   4  -1   98.61    3.71
   3  -4  -1   10.55    1.01
   3  -4  -1   10.41    0.84
  -3  -4   1   11.31    0.98
   3  -4  -1   11.81    0.95
  -3  -4   1   10.65    1.21
  -3  -4   1   10.12    0.95
  -3  -4   1   10.52    0.90
  -3   4   1    9.89    0.99
   3   4  -1   10.56    0.98
   3   4  -1   10.55    0.94
   3   4  -1   10.65    0.82
  -3   4   1    9.18    0.78
   2  -4  -1  141.78    4.89
   2  -4  -1  137.74    5.01
  -2  -4   1  138.84    4.99
  -2  -4   1  136.25    5.02
   2  -4  -1  140.26    5.00
  -2  -4   1  136.39    5.02
  -2  -4   1  143.26    5.04
  -2   4   1  140.09    5.04
   2   4  -1  142.31    4.95
  -2   4   1  137.50    4.92
   2   4  -1  141.35    5.03
   2   4  -1  143.05    5.00
  -1  -4   1  111.19    3.95
   1  -4  -1  109.23    3.94
  -1  -4   1  108.94    3.89
   1  -4  -1  106.28    3.75
  -1  -4   1  107.19    4.01
  -1  -4   1  106.59    3.95
   1  -4  -1  108.96    3.97
   1  -4  -1  110.58    3.96
  -1   4   1  108.41    3.97
   1   4  -1  111.53    4.02
   1   4  -1  110.75    4.05
  -1   4   1  112.25    4.05
   1   4  -1  108.10    3.97
   0  -4  -1  116.32    4.20
   0  -4   1  116.92    4.05
   0  -4   1  117.33    4.17
   0  -4  -1  119.37    4.20
   0  -4   1  116.32    4.21
   0  -4   1  116.36    4.20
   0  -4  -1  117.39    4.26
   0  -4  -1  114.39    4.10
   0   4  -1  117.89    4.21
   0   4  -1  118.48    4.25
   0   4   1  119.40    4.24
   0   4   1  115.31    4.23
   0   4  -1  118.47    4.30
   0   4   1  115.39    4.27
   1  -4   1  178.04    5.83
   1  -4   1  176.53    6.00
  -1  -4  -1  173.30    6.07
  -1  -4  -1  177.75    6.10
  -1  -4  -1  170.84    6.12
   1  -4   1  175.27    6.07
  -1  -4  -1  174.87    6.15
   1  -4   1  177.63    6.14
  -1   4  -1  173.82    6.20
  -1   4  -1  177.90    6.17
   1   4   1  178.72    6.14
  -1   4  -1  172.88    6.05
   1   4   1  178.55    6.08
   1   4   1  174.61    6.11
  -2  -4  -1    7.77    0.78
  -2  -4  -1    7.04    0.74
   2  -4   1    6.85    0.59
  -2  -4  -1    8.38    0.82
   2  -4   1    7.35    0.87
  -2  -4  -1    6.96    0.79
   2  -4   1    8.98    0.77
   2   4   1    8.45    0.83
   2   4   1    8.04    0.67
  -2   4  -1    6.28    0.90
  -2   4  -1    8.46    0.89
   2   4   1    9.01    0.82
  -2   4  -1    8.06    0.73
   3  -4   1   19.97    0.98
  -3  -4  -1   20.29    1.20
  -3  -4  -1   20.36    1.37
   3  -4   1   23.46    1.46
  -3  -4  -1   24.61    1.41
  -3   4  -1   20.40    1.41
   3   4   1   20.65    1.04
   3   4   1   21.21    1.23
   3   4   1   26.79    1.40
  -4  -4  -1   94.27    3.58
  -4  -4  -1   90.67    3.84
  -4  -4  -1   96.03    3.70
   4  -4   1   96.98    3.58
  -4  -4  -1   87.41    3.35
  -4   4  -1   89.13    3.33
   4   4   1   93.09    3.54
   4   4   1   97.08    3.32
  -4   4  -1   94.35    3.59
   4   4   1   89.62    3.85
  -5  -4  -1   78.77    3.14
  -5  -4  -1   78.50    3.43
   5  -4   1   79.90    3.18
  -5  -4  -1   80.06    3.34
   5   4   1   77.88    3.09
   5   4   1   78.94    2.84
  -5   4  -1   83.28    3.21
  -6  -4  -1    7.22    1.14
  -6  -4  -1    9.46    1.00
  -6  -4  -1    7.85    1.10
   6  -4   1    5.90    0.92
   6   4   1    7.38    0.80
  -6   4  -1    7.96    0.83
  -6   4  -1    6.87    0.91
  -7  -4  -1    3.36    0.68
  -7  -4  -1    2.95    1.03
   7  -4   1    1.90    0.82
  -7  -4  -1    3.06    0.97
   7   4   1    0.99    0.76
  -7   4  -1    2.96    0.84
  -7   4  -1    2.99    0.81
  -8  -4  -1    7.99    1.23
  -8  -4  -1    5.21    1.00
  -8  -4  -1    8.30    1.67
   8  -4   1    8.36    1.08
   8   4   1    8.19    0.93
  -8   4  -1    8.50    0.93
  -8   4  -1    7.77    1.06
  -9  -4  -1   20.60    1.52
  -9  -4  -1   24.90    2.48
   9  -4   1   23.59    1.81
  -9  -4  -1   21.32    1.78
  -9   4  -1   25.30    1.73
  -9   4  -1   20.92    1.75
   9   4   1   17.02    1.51
  -8  -5   1   16.94    1.62
  -8  -5   1   20.75    2.30
   8  -5  -1   20.95    1.68
  -8  -5   1   19.02    1.62
  -8   5   1   19.60    1.64
  -8   5   1   17.96    1.62
   8   5  -1   18.21    1.61
   7  -5  -1   60.02    2.71
  -7  -5   1   60.24    3.56
  -7  -5   1   61.26    3.02
  -7  -5   1   56.75    2.88
  -7   5   1   58.62    2.81
  -7   5   1   55.12    2.70
   7   5  -1   54.66    2.81
   6  -5  -1    9.21    1.18
  -6  -5   1    9.81    1.05
  -6  -5   1   10.95    1.40
  -6  -5   1   11.11    1.16
   6   5  -1    9.51    0.98
   6   5  -1    9.54    0.85
  -6   5   1    7.05    1.15
  -5  -5   1   15.13    1.17
  -5  -5   1   14.66    1.30
   5  -5  -1   14.24    1.31
  -5  -5   1   11.59    1.16
  -5  -5   1   12.14    1.53
   5   5  -1   15.45    1.19
   5   5  -1   11.96    1.19
  -5   5   1   13.99    1.31
   4  -5  -1   17.67    1.41
  -4  -5   1   16.58    1.28
   4  -5  -1   17.98    1.12
   4  -5  -1   19.43    1.37
  -4  -5   1   16.55    1.59
  -4  -5   1   18.63    1.43
  -4  -5   1   16.14    1.42
   4   5  -1   17.35    1.26
  -4   5   1   16.20    1.14
   4   5  -1   17.90    1.14
  -4   5   1   17.75    1.42
   4   5  -1   16.01    1.21
  -3  -5   1   47.95    2.26
   3  -5  -1   50.98    2.05
  -3  -5   1   52.34    2.52
   3  -5  -1   50.17    2.20
   3  -5  -1   50.94    2.44
  -3  -5   1   47.34    2.17
  -3  -5   1   48.36    2.27
   3   5  -1   50.68    2.17
   3   5  -1   47.42    2.35
  -3   5   1   52.00    2.46
  -3   5   1   49.55    2.26
   3   5  -1   47.85    2.22
   2  -5  -1   87.25    3.40
  -2  -5   1   83.58    3.36
   2  -5  -1   88.89    3.39
  -2  -5   1   86.67    3.36
   2  -5  -1   86.82    3.27
  -2  -5   1   85.88    3.48
  -2  -5   1   89.86    3.50
   2   5  -1   90.80    3.53
  -2   5   1   81.41    3.49
   2   5  -1   86.10    3.44
  -2   5   1   85.38    3.40
   2   5  -1   91.24    3.45
  -1  -5   1   24.61    1.29
   1  -5  -1   26.06    1.68
  -1  -5   1   24.99    1.39
   1  -5  -1   25.55    1.16
   1  -5  -1   26.55    1.59
   1  -5  -1   25.34    1.34
  -1  -5   1   22.85    1.40
  -1  -5   1   26.34    1.71
   1   5  -1   26.57    1.71
   1   5  -1   27.86    1.48
  -1   5   1   24.47    1.56
  -1   5   1   25.51    1.69
   1   5  -1   24.57    1.55
   0  -5  -1    0.98    0.57
   0  -5   1    0.59    0.44
   0  -5   1   -0.57    0.64
   0  -5  -1    0.72    0.51
   0  -5   1    0.90    0.81
   0  -5  -1    0.31    0.46
   0  -5   1    0.55    0.60
   0  -5  -1    0.39    0.50
   0   5  -1   -0.16    0.53
   0   5  -1    0.32    0.46
   0   5   1    1.53    0.71
   0   5  -1    1.11    0.58
   0   5   1    0.68    0.75
   1  -5   1  189.36    6.35
  -1  -5  -1  186.92    6.69
   1  -5   1  188.83    6.70
  -1  -5  -1  189.21    6.65
   1  -5   1  194.76    6.60
  -1  -5  -1  188.72    6.75
   1  -5   1  191.79    6.71
  -1  -5  -1  202.69    6.80
   1   5   1  190.70    6.68
   1   5   1  191.98    6.66
  -1   5  -1  187.68    6.65
   1   5   1  189.39    6.74
  -1   5  -1  187.91    6.78
  -1   5  -1  190.38    6.82
  -2  -5  -1   63.80    2.80
   2  -5   1   67.89    2.83
   2  -5   1   65.92    2.52
  -2  -5  -1   64.56    2.69
  -2  -5  -1   67.55    2.85
  -2  -5  -1   63.88    2.70
   2  -5   1   58.86    2.57
  -2   5  -1   64.13    2.64
   2   5   1   66.65    2.75
   2   5   1   63.08    2.56
  -2   5  -1   65.21    2.92
   2   5   1   64.50    2.75
  -2   5  -1   66.74    2.86
  -3  -5  -1   65.47    2.83
   3  -5   1   67.42    2.80
  -3  -5  -1   62.62    2.75
  -3  -5  -1   60.13    2.57
   3   5   1   50.32    2.52
  -3   5  -1   65.79    2.82
   3   5   1   64.68    2.53
  -3   5  -1   65.03    2.56
  -4  -5  -1   10.25    0.99
   4  -5   1   11.80    1.03
  -4  -5  -1   10.85    1.36
  -4  -5  -1    8.98    1.17
   4  -5   1   11.58    0.81
   4   5   1   11.30    0.98
  -4   5  -1   10.67    1.01
   4   5   1   10.61    0.91
   5  -5   1  147.61    5.44
  -5  -5  -1  147.32    5.67
  -5  -5  -1  147.15    5.52
  -5  -5  -1  145.05    5.42
  -5   5  -1  147.35    5.47
   5   5   1  146.26    5.42
  -6  -5  -1   15.28    1.29
  -6  -5  -1   19.41    1.48
  -6  -5  -1   17.33    1.86
   6  -5   1   19.35    1.47
  -6   5  -1   15.90    1.40
   6   5   1   14.55    1.25
  -6   5  -1   17.45    1.45
  -7  -5  -1    2.10    1.02
  -7  -5  -1    0.73    0.61
   7  -5   1    1.06    0.91
  -7  -5  -1   -0.64    0.96
   7   5   1    0.49    0.81
  -7   5  -1    1.87    0.88
  -7   5  -1   -0.40    0.76
  -8  -5  -1    9.02    1.92
  -8  -5  -1    8.96    1.19
   8  -5   1   10.19    1.29
  -8  -5  -1    9.16    1.07
  -8   5  -1    9.96    1.23
   8   5   1    8.45    1.02
  -8   5  -1    9.61    1.26
  -7  -6   1    4.87    1.59
  -7  -6   1    1.52    1.13
  -7  -6   1   -0.35    0.73
   7  -6  -1    2.00    1.12
   7   6  -1    1.47    0.77
  -7   6   1    3.32    1.04
  -7   6   1    1.13    1.09
   6  -6  -1   24.85    2.05
  -6  -6   1   27.34    2.14
  -6  -6   1   25.85    2.04
  -6  -6   1   27.53    2.14
  -6   6   1   30.31    2.08
   6   6  -1   21.90    1.97
  -5  -6   1   -0.25    0.97
  -5  -6   1   -0.66    0.58
  -5  -6   1    0.78    1.21
   5  -6  -1    0.62    0.99
  -5   6   1    2.19    1.00
   5   6  -1    2.24    0.74
   5   6  -1    1.43    0.69
  -4  -6   1   17.68    1.55
   4  -6  -1   17.11    1.52
  -4  -6   1   19.24    1.44
  -4  -6   1   16.77    1.44
   4  -6  -1   17.87    1.26
  -4  -6   1   19.19    1.68
   4   6  -1   17.68    1.40
   4   6  -1   16.95    1.36
  -4   6   1   15.84    1.51
  -4   6   1   21.13    1.53
   3  -6  -1    5.27    0.96
  -3  -6   1    4.22    0.82
   3  -6  -1    4.92    0.88
   3  -6  -1    5.93    0.80
  -3  -6   1    4.42    1.02
  -3  -6   1    5.74    1.07
  -3  -6   1    5.17    1.02
   3   6  -1    5.52    0.97
   3   6  -1    4.48    0.82
  -3   6   1    7.11    1.15
  -3   6   1    4.65    0.73
   3   6  -1    4.53    0.98
   2  -6  -1  129.07    5.00
  -2  -6   1  129.71    4.99
   2  -6  -1  129.23    4.85
  -2  -6   1  138.08    4.93
  -2  -6   1  137.16    5.08
  -2  -6   1  126.72    4.92
   2  -6  -1  129.13    5.02
   2   6  -1  128.71    5.00
   2   6  -1  134.09    5.05
  -2   6   1  131.32    5.08
   2   6  -1  133.28    4.99
  -2   6   1  133.43    4.96
   1  -6  -1    0.59    0.89
   1  -6  -1    0.14    0.37
  -1  -6   1    0.05    0.61
  -1  -6   1    1.34    0.81
  -1  -6   1   -0.09    0.75
   1  -6  -1   -0.09    0.49
  -1  -6   1    0.15    0.61
   1  -6  -1    0.33    0.57
  -1   6   1    0.72    0.86
   1   6  -1    0.24    0.54
   1   6  -1    0.16    0.56
   1   6  -1    0.17    0.87
  -1   6   1   -1.23    0.71
   0  -6  -1    1.65    0.83
   0  -6   1    0.63    0.53
   0  -6  -1    0.59    0.54
   0  -6  -1    0.54    0.56
   0  -6   1    0.13    0.48
   0  -6  -1    0.26    0.61
   0  -6   1    1.22    0.77
   0  -6   1    0.90    0.67
   0   6  -1    0.43    0.51
   0   6   1    0.79    0.86
   0   6  -1    0.21    0.87
   0   6  -1    1.37    0.89
   0   6   1    0.63    0.59
  -1  -6  -1   17.32    1.37
  -1  -6  -1   15.31    1.27
   1  -6   1   16.60    1.45
   1  -6   1   15.56    1.34
  -1  -6  -1   15.82    1.11
  -1  -6  -1   16.61    1.30
   1  -6   1   17.95    1.28
  -1   6  -1   17.48    1.39
  -1   6  -1   16.82    1.46
   1   6   1   18.50    1.32
   1   6   1   17.46    1.39
  -1   6  -1   15.69    1.24
   2  -6   1   93.75    3.75
  -2  -6  -1   95.75    3.77
  -2  -6  -1   95.61    3.79
   2  -6   1   96.05    3.59
  -2  -6  -1   92.28    3.78
  -2  -6  -1  101.09    3.92
   2  -6   1   92.21    3.87
  -2   6  -1   92.68    3.62
   2   6   1   96.63    3.75
   2   6   1   95.44    3.73
  -2   6  -1   90.40    3.79
  -3  -6  -1   11.77    1.33
  -3  -6  -1   11.18    0.99
   3  -6   1   12.17    0.99
  -3  -6  -1   10.41    1.09
  -3  -6  -1   11.77    1.31
   3  -6   1   11.00    1.10
  -3   6  -1   11.25    1.13
   3   6   1   13.13    1.12
   3   6   1   13.88    1.27
  -4  -6  -1   77.37    3.37
  -4  -6  -1   71.97    3.43
   4  -6   1   76.94    3.23
  -4  -6  -1   77.11    3.38
   4   6   1   71.07    3.01
  -4   6  -1   75.19    3.24
   4   6   1   81.47    3.22
  -5  -6  -1    1.05    0.78
  -5  -6  -1    0.54    1.19
   5  -6   1    1.08    0.97
  -5  -6  -1    2.69    0.97
   5   6   1    2.98    0.74
  -5   6  -1    2.15    0.99
   6  -6   1  120.76    4.85
  -6  -6  -1  126.41    5.12
  -6  -6  -1  120.39    4.89
  -6  -6  -1  117.53    4.89
   6   6   1  120.62    4.82
  -6   6  -1  121.05    4.88
   7  -6   1   23.09    2.03
  -7  -6  -1   29.27    2.49
  -7  -6  -1   23.14    1.72
  -7  -6  -1   22.96    1.87
  -7   6  -1   27.54    2.05
  -7   6  -1   21.90    1.83
   7   6   1   24.45    1.72
   6  -7  -1    3.24    1.28
  -6  -7   1    5.14    1.04
  -6  -7   1    5.46    1.21
  -6  -7   1    4.75    1.04
   6   7  -1    4.35    0.99
  -6   7   1    3.81    1.31
  -5  -7   1   12.06    1.42
  -5  -7   1   14.71    1.58
  -5  -7   1   10.81    1.32
   5  -7  -1   10.55    1.28
  -5   7   1   12.89    1.55
   5   7  -1   15.20    1.36
   5   7  -1   13.23    1.50
   4  -7  -1   11.54    1.43
  -4  -7   1    7.55    1.26
  -4  -7   1    4.28    1.16
  -4  -7   1    4.36    0.91
   4  -7  -1    7.72    0.91
  -4   7   1    2.26    0.88
   4   7  -1    2.38    0.68
   4   7  -1    4.33    1.10
  -3  -7   1  107.18    4.63
   3  -7  -1  113.20    4.55
  -3  -7   1  116.12    4.71
  -3  -7   1  115.78    4.57
  -3  -7   1  117.33    4.60
   3  -7  -1  114.67    4.39
   3   7  -1  109.48    4.49
   3   7  -1  115.16    4.58
  -3   7   1  116.00    4.54
  -3   7   1  115.67    4.76
  -2  -7   1   16.70    1.48
   2  -7  -1   17.49    1.44
   2  -7  -1   17.03    1.29
  -2  -7   1   17.73    1.47
  -2  -7   1   18.03    1.45
   2  -7  -1   18.07    1.46
  -2  -7   1   17.34    1.56
   2   7  -1   18.90    1.58
   2   7  -1   18.21    1.62
   2   7  -1   17.03    1.46
  -2   7   1   21.76    1.74
  -2   7   1   17.92    1.50
  -1  -7   1    4.42    0.85
   1  -7  -1    5.17    0.82
  -1  -7   1    4.06    1.09
   1  -7  -1    3.74    0.87
   1  -7  -1    3.93    1.02
  -1  -7   1    3.48    0.76
  -1  -7   1    4.72    0.79
  -1   7   1    3.68    1.11
   1   7  -1    3.69    0.83
   1   7  -1    3.57    0.89
   1   7  -1    4.88    1.03
  -1   7   1    4.11    0.80
   0  -7  -1   23.62    1.72
   0  -7   1   19.72    1.74
   0  -7   1   21.58    1.61
   0  -7   1   17.66    1.56
   0  -7  -1   21.55    1.88
   0  -7  -1   21.54    1.57
   0   7  -1   22.17    1.93
   0   7  -1   22.16    1.49
   0   7   1   20.99    1.78
   0   7   1   20.02    1.57
   0   7  -1   21.82    1.94
  -1  -7  -1  117.03    4.59
   1  -7   1  119.43    4.49
   1  -7   1  117.72    4.62
  -1  -7  -1  120.30    4.71
   1  -7   1  118.07    4.67
  -1  -7  -1  120.79    4.52
  -1  -7  -1  113.33    4.72
  -1   7  -1  117.31    4.85
  -1   7  -1  122.56    4.63
  -1   7  -1  120.66    4.90
   1   7   1  120.08    4.74
   1   7   1  120.03    4.77
  -2  -7  -1   13.64    1.33
  -2  -7  -1   15.73    1.46
  -2  -7  -1   11.52    1.39
  -2  -7  -1   11.59    1.40
   2  -7   1   10.80    1.21
   2  -7   1   13.78    1.14
   2   7   1   12.11    1.38
  -2   7  -1   13.25    1.26
  -2   7  -1   14.01    1.34
  -3  -7  -1    6.78    1.02
  -3  -7  -1    6.35    1.19
   3  -7   1    5.67    0.82
   3  -7   1    7.73    1.31
  -3  -7  -1    5.61    0.97
  -3   7  -1    6.27    1.26
   3   7   1    7.00    1.20
  -4  -7  -1   45.85    2.41
  -4  -7  -1   48.12    2.66
  -4  -7  -1   45.64    2.46
   4  -7   1   43.46    2.61
  -4   7  -1   42.63    2.37
   4   7   1   39.26    2.25
   5  -7   1   35.11    2.36
  -5  -7  -1   33.13    2.59
  -5  -7  -1   32.44    2.29
  -5  -7  -1   29.16    2.06
  -5   7  -1   26.70    1.97
   5   7   1   35.61    2.24
  -3  -8   1    5.33    1.11
   3  -8  -1    3.07    0.93
  -3  -8   1    5.08    1.27
   3  -8  -1    6.99    1.13
  -3  -8   1    3.14    1.18
   3   8  -1    2.12    0.82
  -3   8   1    4.45    1.37
   3   8  -1    7.36    1.32
   2  -8  -1   33.18    2.23
  -2  -8   1   37.09    2.50
   2  -8  -1   34.84    2.19
  -2  -8   1   31.71    2.12
  -2   8   1   44.91    2.52
   2   8  -1   44.87    2.58
   2   8  -1   51.39    2.59
  -1  -8   1    4.19    1.25
  -1  -8   1    1.85    1.09
   1  -8  -1    4.35    1.19
  -1  -8   1    2.77    1.05
   1  -8  -1    1.90    0.98
   1  -8  -1    5.04    1.28
   1   8  -1    3.09    1.22
  -1   8   1    3.32    0.96
  -1   8   1    3.21    1.09
   1   8  -1    3.76    1.22
   1   8  -1    2.14    0.82
   0  -8  -1   73.31    3.61
   0  -8  -1   92.05    3.82
   0  -8  -1   79.19    3.70
   0  -8   1   84.17    3.69
   0  -8   1   83.48    3.72
   0   8   1   93.73    3.86
   0   8  -1   85.42    4.00
   0   8  -1   87.70    3.78
   0   8   1   88.27    3.94
  -1  -8  -1    3.26    1.16
  -1  -8  -1    1.63    1.13
  -1  -8  -1    1.59    1.08
   1  -8   1    2.18    0.69
   1  -8   1    1.84    0.90
  -1   8  -1    1.77    1.25
   1   8   1    3.40    1.14
  -1   8  -1    1.61    1.27
  -2  -8  -1    2.55    0.92
   2  -8   1    0.29    0.76
  -2  -8  -1    1.60    0.83
  -2  -8  -1    1.01    0.81
   2  -8   1    0.76    0.87
   2   8   1    1.29    0.82
  -2   8  -1    0.22    1.16
  -3  -8  -1    2.07    1.06
  -3  -8  -1    2.99    0.94
   3  -8   1    4.58    1.32
  -3  -8  -1    4.35    1.28
   3   8   1    4.31    0.96
  -3   8  -1    4.00    1.02
 -11   0   2    3.45    1.40
 -11   0   2    1.79    1.13
  11   0  -2    0.40    0.95
  10   0  -2   49.70    2.62
 -10   0   2   48.73    2.46
 -10   0   2   56.82    2.54
 -10   0   2   49.71    2.86
 -10   0   2   51.81    2.87
  10   0  -2   58.12    2.93
  -9   0   2   -0.21    0.66
   9   0  -2    0.40    0.76
  -9   0   2    0.39    0.66
  -9   0   2    0.00    0.74
   9   0  -2   -0.35    0.62
  -9   0   2    1.21    1.28
   8   0  -2   40.61    2.27
  -8   0   2   51.78    2.67
  -8   0   2   36.48    2.20
  -8   0   2   36.32    1.99
   8   0  -2   34.98    2.00
  -7   0   2   -0.39    0.54
  -7   0   2    0.87    0.81
   7   0  -2    0.87    0.81
   7   0  -2    0.47    0.62
   6   0  -2  174.45    6.52
  -6   0   2  184.61    6.51
   6   0  -2  189.97    6.64
  -6   0   2  211.72    6.88
  -6   0   2  187.17    6.69
   6   0  -2  206.87    6.77
  -5   0   2    0.30    0.59
   5   0  -2    0.43    0.50
  -5   0   2    0.15    0.46
   5   0  -2   -0.36    0.42
   5   0  -2    0.14    0.63
  -5   0   2    0.20    0.92
   4   0  -2    2.46    0.54
   4   0  -2    3.04    0.53
  -4   0   2    2.58    0.59
  -4   0   2    2.55    0.41
   4   0  -2    2.56    0.51
  -4   0   2    3.12    0.95
   3   0  -2   -0.10    0.34
  -3   0   2   -0.51    0.47
  -3   0   2   -0.86    0.47
   3   0  -2   -0.54    0.55
   3   0  -2    0.46    0.35
  -2   0   2   66.94    2.42
  -2   0   2   64.48    2.35
   2   0  -2   69.02    2.39
   2   0  -2   65.85    2.36
   2   0  -2   67.45    2.48
  -1   0   2    0.13    0.22
   1   0  -2   -0.09    0.21
  -1   0   2    0.00    0.29
   1   0  -2   -0.04    0.22
  -1   0   2   -0.50    0.24
   1   0  -2   -0.41    0.35
   1   0  -2    0.31    0.27
   0   0   2   39.11    1.35
   0   0  -2   39.27    1.36
   0   0  -2   40.75    1.33
   0   0   2   40.16    1.36
   0   0  -2   40.58    1.37
   0   0  -2   38.87    1.42
  -1   0  -2    0.00    0.19
  -1   0  -2    0.19    0.21
  -1   0  -2   -0.73    0.28
  -2   0  -2   76.01    2.55
  -2   0  -2   73.16    2.69
  -2   0  -2   75.42    2.53
  -3   0  -2   -0.12    0.20
  -3   0  -2    0.01    0.35
  -3   0  -2    0.19    0.29
  -4   0  -2   29.56    1.07
  -4   0  -2   29.08    1.07
  -4   0  -2   30.35    1.18
  -4   0  -2   27.63    1.50
   4   0   2   30.28    1.06
  -4   0  -2   30.39    1.25
   5   0   2    0.34    0.28
  -5   0  -2   -0.10    0.27
   5   0   2    0.03    0.27
  -5   0  -2    0.07    0.27
  -5   0  -2    0.26    0.45
  -5   0  -2    0.19    0.47
  -6   0  -2    8.63    0.64
  -6   0  -2    9.30    0.67
   6   0   2   10.00    0.68
  -6   0  -2    9.15    1.06
  -6   0  -2    9.65    0.86
  -7   0  -2    0.05    0.82
   7   0   2    0.00    0.38
  -7   0  -2   -0.15    0.32
   8   0   2   25.85    1.48
  -8   0  -2   27.68    2.01
  -9   0  -2    0.81    1.01
  -9   0  -2   -0.42    0.52
   9   0   2   -0.44    0.52
  10  -1  -2   18.45    1.55
 -10  -1   2   20.72    1.72
 -10  -1   2   19.15    2.14
  10  -1  -2   19.25    1.86
 -10  -1   2   19.20    1.53
 -10   1   2   19.39    1.55
  10   1  -2   18.06    1.56
 -10   1   2   20.95    1.83
  10   1  -2   17.38    1.51
  -9  -1   2   88.03    4.23
   9  -1  -2   88.57    3.64
  -9  -1   2   82.16    3.61
  -9  -1   2   87.57    3.81
   9  -1  -2   90.17    3.96
  -9  -1   2   86.50    3.53
  -9   1   2   81.88    3.62
   9   1  -2   90.62    3.54
  -9   1   2   84.85    3.89
   9   1  -2   90.52    3.67
   9   1  -2   91.83    3.45
  -8  -1   2    2.78    0.73
   8  -1  -2    2.29    0.78
  -8  -1   2    0.47    0.73
  -8  -1   2    4.56    1.40
  -8  -1   2    1.98    0.62
   8   1  -2    1.24    0.78
  -8   1   2    2.23    0.70
   8   1  -2    1.61    0.78
  -8   1   2    3.05    1.12
   8   1  -2    3.56    0.72
   7  -1  -2    8.57    0.96
  -7  -1   2   10.76    1.50
  -7  -1   2    8.10    0.93
  -7  -1   2   11.26    1.00
   7   1  -2    6.99    0.95
   7   1  -2    9.12    0.95
  -7   1   2    9.54    1.04
  -7   1   2    7.32    1.03
   7   1  -2    8.57    0.86
  -6  -1   2    1.89    0.85
  -6  -1   2    0.54    0.69
  -6  -1   2    1.28    0.60
   6  -1  -2    0.19    0.42
   6  -1  -2    0.85    0.48
   6   1  -2    1.14    0.51
   6   1  -2    0.16    0.60
  -6   1   2   -0.09    0.48
  -6   1   2    0.72    0.91
   6   1  -2    0.55    0.45
   6   1  -2    0.34    0.59
  -6   1   2    1.19    0.49
   5  -1  -2   56.56    2.21
  -4  -1   2   38.19    2.10
  -4  -1   2   37.83    1.55
   4  -1  -2   37.32    1.64
   4  -1  -2   37.14    1.63
  -4  -1   2   38.64    1.66
  -4  -1   2   38.24    1.71
  -4   1   2   38.47    1.61
   4   1  -2   38.80    1.56
   4   1  -2   34.54    1.57
  -4   1   2   37.72    1.62
   4   1  -2   34.98    1.63
   4   1  -2   37.85    1.55
  -3  -1   2  149.09    5.01
   3  -1  -2  149.96    5.02
  -3  -1   2  147.68    5.02
  -3  -1   2  143.74    5.00
   3  -1  -2  145.54    4.98
   3   1  -2  139.96    5.02
   3   1  -2  147.38    4.99
   3   1  -2  146.26    5.00
  -3   1   2  145.44    5.02
  -3   1   2  152.92    5.00
   3   1  -2  143.05    5.00
  -2  -1   2    7.84    0.59
  -2  -1   2    7.96    0.62
   2  -1  -2    7.96    0.64
   2  -1  -2    6.87    0.62
  -2  -1   2    7.88    0.71
   2   1  -2    8.27    0.61
   2   1  -2    9.42    0.83
   2   1  -2    9.32    0.76
  -2   1   2    8.14    0.64
  -1  -1   2  361.34   11.62
   1  -1  -2  349.18   11.61
   1  -1  -2  352.40   11.63
   1  -1  -2  359.54   11.63
  -1  -1   2  345.49   11.62
   1   1  -2  354.35   11.65
   1   1  -2  353.28   11.63
   1   1  -2  367.15   11.61
  -1   1   2  351.37   11.60
   0  -1  -2  249.95    8.38
   0  -1  -2  256.14    8.45
   0  -1  -2  250.73    8.42
   0  -1   2  269.04    8.38
   0  -1   2  262.56    8.37
   0  -1   2  251.37    8.38
   0  -1  -2  249.29    8.36
   0  -1  -2  259.80    8.39
   0   1  -2  260.23    8.44
   0   1  -2  257.31    8.40
   0   1   2  253.78    8.37
   0   1   2  234.53    8.42
   0   1  -2  265.21    8.36
  -1  -1  -2    1.10    0.53
   1  -1   2    0.64    0.21
   1  -1   2    0.58    0.20
  -1  -1  -2   -0.06    0.24
  -1  -1  -2    0.26    0.27
  -1  -1  -2    0.73    0.20
  -1   1  -2    0.56    0.24
   1   1   2    0.74    0.20
  -1   1  -2    0.69    0.29
   1   1   2    0.22    0.18
  -1   1  -2    0.32    0.17
   2  -1   2   54.03    1.81
  -2  -1  -2   53.98    2.15
  -2  -1  -2   52.58    1.83
  -2  -1  -2   53.21    1.84
  -2  -1  -2   54.52    1.97
  -2   1  -2   54.55    1.98
   2   1   2   54.11    1.83
  -2   1  -2   55.05    1.99
  -2   1  -2   53.64    1.82
   2   1   2   53.67    1.83
  -2   1  -2   51.96    1.87
  -2   1  -2   55.02    1.83
  -3  -1  -2    9.75    0.90
  -3  -1  -2   10.36    0.51
  -3  -1  -2   10.77    0.52
  -3  -1  -2    9.99    0.63
   3  -1   2    9.94    0.47
  -3   1  -2   10.28    0.75
  -3   1  -2    9.61    0.49
  -3   1  -2   10.34    0.63
  -3   1  -2   10.16    0.69
   3   1   2   11.06    0.50
   3   1   2    9.59    0.50
  -3   1  -2   10.60    0.50
  -4  -1  -2  182.16    5.84
   4  -1   2  174.76    5.80
  -4  -1  -2  177.82    5.98
  -4  -1  -2  173.66    6.15
   4  -1   2  165.76    5.81
  -4  -1  -2  175.43    5.85
  -4   1  -2  181.28    5.83
  -4   1  -2  178.13    5.74
   4   1   2  174.99    5.83
  -4   1  -2  175.03    5.95
  -4   1  -2  177.07    5.83
  -4   1  -2  175.20    6.02
   5  -1   2  142.50    4.85
  -5  -1  -2  146.43    4.90
  -5  -1  -2  144.92    4.98
  -5  -1  -2  145.92    4.87
   5  -1   2  142.01    4.84
  -5  -1  -2  142.84    5.29
  -5   1  -2  143.46    4.75
  -5   1  -2  142.13    5.05
  -5   1  -2  143.05    4.87
  -5   1  -2  140.85    5.00
   5   1   2  148.37    4.87
  -5   1  -2  144.42    4.86
   6  -1   2   97.26    3.36
  -6  -1  -2   96.36    3.80
  -6  -1  -2   97.56    3.42
  -6  -1  -2   95.07    3.50
   6   1   2   96.36    3.39
   6   1   2   92.83    3.44
  -6   1  -2   96.73    3.57
  -6   1  -2   94.27    3.65
  -6   1  -2   94.20    3.38
  -6   1  -2   95.12    3.23
  -7  -1  -2   43.91    1.83
   7  -1   2   43.16    1.78
  -7  -1  -2   41.62    1.86
  -7  -1  -2   43.34    2.49
  -7   1  -2   40.60    2.01
   7   1   2   42.80    1.86
  -7   1  -2   44.00    2.01
   7   1   2   40.51    1.93
  -8  -1  -2   11.00    0.93
  -8  -1  -2   13.66    1.54
  -8  -1  -2   11.94    1.01
   8  -1   2   11.85    0.91
   8   1   2   12.02    1.03
  -8   1  -2   12.87    1.25
  -8   1  -2   12.35    1.13
  -9  -1  -2   16.77    1.45
  -9  -1  -2   18.18    1.81
   9  -1   2   20.14    1.33
  -9   1  -2   16.96    1.42
  -9   1  -2   18.15    1.60
   9   1   2   20.69    1.35
  10  -2  -2   37.05    2.29
 -10  -2   2   39.75    2.33
 -10  -2   2   40.92    2.32
 -10  -2   2   35.77    2.69
 -10   2   2   32.66    2.38
  10   2  -2   41.71    2.34
  -9  -2   2   50.59    3.32
  -9  -2   2   46.94    2.51
  -9  -2   2   49.69    2.38
   9  -2  -2   47.42    2.47
  -9   2   2   48.15    2.60
  -9   2   2   50.50    2.50
   9   2  -2   49.71    2.35
  -8  -2   2    4.51    0.78
  -8  -2   2    3.80    0.91
  -8  -2   2    5.62    1.51
   8  -2  -2    2.80    0.66
   8   2  -2    2.26    0.85
   8   2  -2    4.25    0.70
  -8   2   2    4.98    0.98
  -8   2   2    4.47    1.02
   7  -2  -2   27.71    1.68
  -7  -2   2   27.37    1.78
  -7  -2   2   27.41    2.47
  -7  -2   2   27.34    1.54
  -7   2   2   31.83    1.75
   7   2  -2   26.95    1.70
  -7   2   2   28.84    1.61
   7   2  -2   27.01    1.45
  -6  -2   2   30.17    2.39
   6  -2  -2   31.72    1.68
  -6  -2   2   29.69    1.69
  -6  -2   2   32.75    1.64
   6  -2  -2   32.13    1.56
  -6   2   2   31.09    1.75
   6   2  -2   31.01    1.69
   6   2  -2   30.81    1.51
   6   2  -2   31.17    1.52
  -6   2   2   30.02    1.50
  -6   2   2   34.59    1.76
  -5  -2   2  102.13    4.12
   5  -2  -2   91.42    3.62
   5  -2  -2  105.44    3.67
  -5  -2   2   97.46    3.72
  -5  -2   2  102.08    3.75
  -5   2   2  102.39    3.59
   5   2  -2  102.86    3.62
  -5   2   2   99.50    3.69
  -5   2   2  100.71    3.69
   5   2  -2  102.59    3.67
   5   2  -2   95.13    3.69
   4  -2  -2    3.32    0.50
   4  -2  -2    3.95    0.60
  -4  -2   2    4.15    0.53
  -4  -2   2    3.40    0.84
   4   2  -2    3.13    0.53
   4   2  -2    2.52    0.58
  -4   2   2    4.05    0.55
  -4   2   2    4.06    0.63
   4   2  -2    3.62    0.49
  -4   2   2    3.87    0.49
  -3  -2   2   25.16    1.30
   3  -2  -2   25.93    1.18
   3  -2  -2   23.20    1.24
  -3  -2   2   25.37    1.71
   3   2  -2   24.46    1.16
  -3   2   2   25.98    1.25
   3   2  -2   23.87    1.20
   3   2  -2   24.18    1.18
  -3   2   2   25.78    1.29
   2  -2  -2  440.56   14.49
   2  -2  -2  444.98   14.46
  -2  -2   2  442.19   14.50
   2  -2  -2  448.29   14.49
   2   2  -2  440.79   14.48
   2   2  -2  431.14   14.48
   2   2  -2  435.15   14.51
  -2   2   2  436.74   14.50
  -2   2   2  446.01   14.48
   1  -2  -2  536.45   17.40
   1  -2  -2  531.82   17.45
  -1  -2   2  546.35   17.46
   1  -2  -2  527.81   17.43
   1  -2  -2  529.39   17.45
  -1   2   2  536.31   17.46
  -1   2   2  522.79   17.43
   1   2  -2  534.68   17.46
   1   2  -2  541.51   17.43
   1   2  -2  526.08   17.46
   0  -2  -2    5.74    0.53
   0  -2  -2    5.20    0.49
   0  -2  -2    5.30    0.51
   0  -2  -2    5.10    0.57
   0  -2   2    5.75    0.47
   0  -2   2    5.25    0.47
   0   2  -2    5.39    0.61
   0   2  -2    5.22    0.48
   0   2  -2    5.65    0.47
   0   2   2    5.87    0.53
   0   2   2    4.94    0.51
   1  -2   2   56.11    1.93
  -1  -2  -2   54.32    2.02
  -1  -2  -2   58.06    2.00
  -1  -2  -2   57.04    2.10
  -1  -2  -2   55.17    2.19
   1  -2   2   54.59    1.98
   1   2   2   56.19    2.01
   1   2   2   57.11    2.04
  -1   2  -2   53.91    2.10
  -1   2  -2   54.84    1.96
  -1   2  -2   54.64    2.02
  -2  -2  -2  642.50   19.55
  -2  -2  -2  575.53   19.25
   2  -2   2  602.34   19.25
  -2  -2  -2  596.72   19.44
  -2  -2  -2  593.58   19.35
  -2   2  -2  579.40   19.44
  -2   2  -2  561.86   19.22
  -2   2  -2  594.74   19.35
  -2   2  -2  598.85   19.34
   2   2   2  584.16   19.32
  -3  -2  -2  205.87    7.38
  -3  -2  -2  219.61    7.16
   3  -2   2  216.45    7.12
  -3  -2  -2  210.34    7.26
   3  -2   2  223.46    7.13
  -3  -2  -2  214.62    7.16
   3   2   2  214.10    7.14
  -3   2  -2  212.75    7.11
  -3   2  -2  208.90    7.15
  -3   2  -2  213.75    7.14
  -3   2  -2  218.27    7.15
  -3   2  -2  214.99    7.27
  -4  -2  -2   47.52    1.81
   4  -2   2   45.82    1.74
  -4  -2  -2   43.36    2.09
  -4  -2  -2   48.50    1.79
   4  -2   2   47.48    1.78
  -4  -2  -2   46.15    1.91
  -4   2  -2   43.85    1.77
  -4   2  -2   46.25    1.78
   4   2   2   46.61    1.78
  -4   2  -2   46.56    1.77
  -4   2  -2   45.80    1.80
  -5  -2  -2    7.20    0.92
  -5  -2  -2    8.13    0.65
  -5  -2  -2    7.20    0.79
   5  -2   2    7.76    0.64
  -5  -2  -2    6.27    0.61
   5  -2   2    7.52    0.62
   5   2   2    7.99    0.67
  -5   2  -2    7.14    0.67
  -5   2  -2    7.23    0.71
  -5   2  -2    7.69    0.68
  -5   2  -2    7.23    0.60
  -6  -2  -2  160.91    5.65
  -6  -2  -2  169.80    6.16
   6  -2   2  165.66    5.60
  -6  -2  -2  164.31    5.78
  -6   2  -2  159.18    5.61
   6   2   2  162.52    5.62
  -6   2  -2  162.77    5.69
  -6   2  -2  158.62    5.72
   7  -2   2  147.08    5.11
  -7  -2  -2  146.46    5.18
  -7  -2  -2  140.29    5.58
  -7  -2  -2  144.12    5.23
  -7   2  -2  145.31    5.23
  -7   2  -2  143.21    5.13
  -7   2  -2  148.23    5.28
   7   2   2  147.69    5.14
  -8  -2  -2  126.82    5.09
   8  -2   2  119.43    4.30
  -8  -2  -2  117.25    4.36
  -8  -2  -2  120.58    4.40
  -8   2  -2  108.67    4.42
   8   2   2  116.72    4.32
  -8   2  -2  113.74    4.45
  -9   2  -2    5.31    1.01
 -10  -3   2    7.65    1.06
  10  -3  -2    7.76    1.26
 -10  -3   2    7.60    1.34
 -10  -3   2    9.49    1.99
  10   3  -2    6.85    1.20
 -10   3   2    6.78    1.31
  -9  -3   2   24.66    1.86
  -9  -3   2   24.85    1.73
   9  -3  -2   24.39    1.87
  -9  -3   2   26.28    2.31
   9   3  -2   26.59    1.88
  -9   3   2   22.62    1.66
  -8  -3   2  181.82    7.15
  -8  -3   2  176.85    6.67
   8  -3  -2  188.54    6.56
  -8  -3   2  175.83    6.59
   8   3  -2  176.48    6.28
  -8   3   2  180.20    6.56
   8   3  -2  180.70    6.56
  -7  -3   2   86.52    4.15
   7  -3  -2   86.41    3.43
  -7  -3   2   85.95    3.66
  -7  -3   2   87.15    3.58
   7   3  -2   89.14    3.27
  -7   3   2   88.19    3.51
  -7   3   2   87.57    3.32
   7   3  -2   88.20    3.55
  -6  -3   2   15.08    1.41
   6  -3  -2   22.26    1.50
  -6  -3   2   20.85    1.79
   6  -3  -2   19.00    1.25
  -6  -3   2   19.57    1.59
   6   3  -2   16.41    1.22
  -6   3   2   18.66    1.27
   6   3  -2   20.39    1.23
  -6   3   2   19.44    1.44
   6   3  -2   19.20    1.44
  -6   3   2   22.86    1.54
  -5  -3   2  112.29    4.45
   5  -3  -2  111.83    4.02
  -5  -3   2  108.04    4.00
  -5  -3   2  110.66    4.05
   5  -3  -2  111.14    3.94
   5   3  -2  109.00    4.02
  -5   3   2   94.29    3.82
  -5   3   2  112.67    3.80
   5   3  -2  111.48    3.89
   5   3  -2  105.71    3.95
  -5   3   2   91.50    3.91
  -5   3   2  106.28    4.02
   4  -3  -2  304.64   10.13
   4  -3  -2  301.68   10.13
  -4  -3   2  306.50   10.20
  -4  -3   2  299.94   10.22
  -4  -3   2  300.93   10.33
  -4   3   2  301.50   10.17
  -4   3   2  300.24   10.07
   4   3  -2  295.44   10.13
   4   3  -2  295.07   10.08
   4   3  -2  302.02   10.15
   3  -3  -2  196.52    6.68
   3  -3  -2  197.30    6.71
  -3  -3   2  194.76    6.74
  -3  -3   2  194.23    6.75
   3  -3  -2  200.05    6.62
  -3  -3   2  196.21    6.83
  -3   3   2  193.44    6.64
  -3   3   2  197.86    6.71
   3   3  -2  193.68    6.66
   3   3  -2  190.09    6.69
   3   3  -2  190.56    6.69
   2  -3  -2  146.71    4.99
  -2  -3   2  142.15    4.99
  -2  -3   2  142.70    5.06
   2  -3  -2  145.39    5.01
   2  -3  -2  140.81    4.92
  -2  -3   2  142.33    5.01
   2   3  -2  140.87    4.99
  -2   3   2  142.50    5.00
  -2   3   2  146.74    4.99
   2   3  -2  141.08    4.98
   2   3  -2  142.05    5.00
  -1  -3   2   92.80    3.36
  -1  -3   2   95.90    3.32
  -1  -3   2   92.24    3.34
   1  -3  -2   96.71    3.40
   1  -3  -2   92.19    3.25
   1  -3  -2   93.46    3.33
   1  -3  -2   91.88    3.35
   1   3  -2   90.20    3.36
  -1   3   2   91.60    3.39
  -1   3   2   94.43    3.36
   1   3  -2   92.11    3.34
   1   3  -2   90.07    3.36
   0  -3   2  105.65    3.63
   0  -3  -2   97.23    3.61
   0  -3  -2  100.89    3.65
   0  -3  -2  100.35    3.63
   0  -3   2  104.92    3.55
   0  -3  -2   99.92    3.59
   0   3  -2  105.16    3.69
   0   3  -2  100.97    3.57
   0   3   2  103.44    3.60
   0   3   2  101.94    3.64
   0   3  -2   99.82    3.66
  -1  -3  -2  374.11   12.71
   1  -3   2  379.53   12.58
   1  -3   2  420.72   12.67
  -1  -3  -2  357.80   12.63
  -1  -3  -2  421.09   12.79
  -1  -3  -2  359.51   12.73
   1   3   2  369.55   12.67
  -1   3  -2  425.03   12.65
  -1   3  -2  373.02   12.77
  -1   3  -2  369.64   12.69
   1   3   2  369.14   12.66
  -2  -3  -2  106.03    3.96
  -2  -3  -2  105.50    3.70
   2  -3   2  106.06    3.59
  -2  -3  -2  110.87    3.82
   2  -3   2  111.57    3.77
   2  -3   2  105.41    3.69
  -2  -3  -2  105.78    3.90
  -2   3  -2  106.40    3.67
  -2   3  -2  107.16    3.93
  -2   3  -2  105.87    3.78
   2   3   2  103.15    3.71
   2   3   2  106.65    3.78
  -3  -3  -2    9.36    0.90
  -3  -3  -2    9.46    0.89
   3  -3   2    8.63    0.75
  -3  -3  -2    8.30    0.58
   3  -3   2    8.50    0.41
  -3  -3  -2    8.75    0.74
  -3   3  -2    8.83    0.75
  -3   3  -2    8.38    0.61
  -3   3  -2    8.28    0.89
   3   3   2    8.93    0.71
  -4  -3  -2   14.54    1.20
  -4  -3  -2   13.26    1.30
  -4  -3  -2   14.31    0.98
   4  -3   2   13.55    1.04
  -4   3  -2   12.77    0.99
   4   3   2   12.27    0.96
  -4   3  -2   13.38    0.94
  -5  -3  -2  337.23   11.19
  -5  -3  -2  337.05   11.33
  -5  -3  -2  325.55   11.53
   5  -3   2  339.05   11.14
  -5   3  -2  334.48   11.16
  -5   3  -2  325.68   11.16
  -5   3  -2  329.89   10.97
   5   3   2  336.37   11.16
   6  -3   2   14.27    1.11
  -6  -3  -2   12.99    1.08
  -6   3  -2   14.11    1.06
   6   3   2   13.14    1.09
  -6   3  -2   12.84    1.07
  -7  -3  -2    2.23    0.79
  -7  -3  -2    1.47    0.64
   7  -3   2    1.67    0.66
  -7  -3  -2    2.21    0.95
   7   3   2    2.72    0.65
  -7   3  -2    1.39    0.63
  -7   3  -2    2.39    0.71
  -8  -3  -2   17.91    1.55
  -8  -3  -2   20.47    1.40
  -8  -3  -2   19.99    2.03
   8  -3   2   16.84    1.28
   8   3   2   16.88    1.34
  -8   3  -2   17.04    1.25
  -8   3  -2   16.39    1.32
  -9  -3  -2  100.15    3.97
  -9  -3  -2   98.14    4.78
   9  -3   2   99.42    3.91
  -9  -3  -2   97.69    4.07
   9   3   2   97.82    3.91
   9  -4  -2   14.37    1.50
  -9  -4   2   14.88    1.38
  -9  -4   2   19.43    1.72
  -9  -4   2   16.21    1.92
   9   4  -2   14.25    1.49
  -9   4   2   16.18    1.57
   8  -4  -2    5.03    1.10
  -8  -4   2    5.04    1.09
  -8  -4   2    7.89    1.71
  -8  -4   2    6.04    1.23
  -8   4   2    6.74    0.96
   8   4  -2    5.92    1.08
  -7  -4   2   71.64    3.15
  -7  -4   2   76.60    3.39
   7  -4  -2   76.48    3.25
  -7  -4   2   73.85    3.91
   7   4  -2   74.56    3.14
  -7   4   2   72.59    3.27
  -7   4   2   73.29    3.24
   7   4  -2   75.61    2.96
  -6  -4   2  209.28    7.41
  -6  -4   2  203.31    7.37
  -6  -4   2  204.85    7.60
   6  -4  -2  201.62    7.31
  -6  -4   2  209.56    7.19
  -6   4   2  205.74    7.34
  -6   4   2  201.62    7.31
   6   4  -2  205.48    7.14
  -6   4   2  210.04    7.20
   6   4  -2  207.56    7.33
   5  -4  -2   49.07    2.14
  -5  -4   2   49.27    2.18
   5  -4  -2   40.33    2.08
  -5  -4   2   43.33    2.43
  -5  -4   2   47.89    2.38
  -5   4   2   48.01    2.01
   5   4  -2   48.51    2.22
  -5   4   2   39.87    2.10
   5   4  -2   52.09    2.11
   5   4  -2   42.99    2.21
   4  -4  -2  122.57    4.45
   4  -4  -2  123.41    4.42
   4  -4  -2  123.97    4.33
  -4  -4   2  119.78    4.54
  -4  -4   2  121.96    4.78
  -4  -4   2  120.14    4.57
   4   4  -2  117.26    4.42
  -4   4   2  120.58    4.48
   4   4  -2  119.74    4.50
  -4   4   2  124.44    4.42
   4   4  -2  115.83    4.34
   3  -4  -2   12.95    1.03
  -3  -4   2   10.56    0.92
   3  -4  -2    9.64    0.85
  -3  -4   2   10.31    0.90
   3  -4  -2   11.13    1.05
  -3  -4   2   10.44    1.26
   3   4  -2   12.30    0.99
  -3   4   2   10.93    0.93
   3   4  -2   10.77    0.94
  -3   4   2   10.62    0.92
   3   4  -2   11.83    1.09
  -2  -4   2  337.12   11.54
   2  -4  -2  341.70   11.47
  -2  -4   2  350.78   11.57
   2  -4  -2  344.61   11.53
   2  -4  -2  339.58   11.51
  -2  -4   2  338.94   11.51
   2   4  -2  338.20   11.52
   2   4  -2  344.16   11.58
  -2   4   2  341.80   11.50
  -2   4   2  350.27   11.59
   2   4  -2  345.27   11.52
  -1  -4   2  136.12    4.73
   1  -4  -2  132.00    4.62
   1  -4  -2  135.61    4.82
  -1  -4   2  132.24    4.76
  -1  -4   2  133.86    4.70
   1  -4  -2  136.44    4.78
   1  -4  -2  133.76    4.80
  -1   4   2  134.81    4.79
   1   4  -2  135.04    4.76
   1   4  -2  133.56    4.86
  -1   4   2  130.78    4.73
   1   4  -2  132.71    4.84
   0  -4  -2  156.45    5.42
   0  -4   2  152.64    5.36
   0  -4   2  155.81    5.30
   0  -4  -2  150.60    5.36
   0  -4   2  154.85    5.21
   0  -4  -2  147.84    5.31
   0  -4  -2  150.54    5.28
   0   4  -2  156.41    5.45
   0   4  -2  146.19    5.39
   0   4  -2  153.24    5.32
   0   4   2  153.47    5.33
   0   4   2  149.91    5.37
   1  -4   2   11.23    0.79
  -1  -4  -2   11.22    0.93
  -1  -4  -2   11.10    0.97
  -1  -4  -2   12.94    1.11
  -1  -4  -2   11.54    1.01
   1  -4   2   12.69    0.82
   1  -4   2   11.64    0.71
   1  -4   2   11.11    0.97
   1   4   2   11.06    0.83
  -1   4  -2   10.71    0.93
   1   4   2   11.29    0.89
  -1   4  -2   10.26    0.75
  -1   4  -2   15.09    1.21
  -2  -4  -2   46.20    2.04
  -2  -4  -2   44.55    2.06
   2  -4   2   45.90    1.98
   2  -4   2   45.77    1.91
  -2  -4  -2   48.62    1.94
   2  -4   2   47.03    1.80
  -2  -4  -2   48.18    2.07
  -2   4  -2   43.06    1.97
   2   4   2   51.98    2.07
  -2   4  -2   42.95    2.07
   2   4   2   49.95    1.97
  -2   4  -2   42.92    1.86
  -3  -4  -2   16.39    1.23
  -3  -4  -2   18.70    1.05
   3  -4   2   19.22    0.83
   3  -4   2   17.21    1.00
  -3  -4  -2   18.07    1.56
   3  -4   2   19.91    1.18
  -3  -4  -2   20.19    1.26
  -3   4  -2   18.49    0.99
   3   4   2   19.02    1.07
  -3   4  -2   17.45    1.13
   3   4   2   19.88    1.28
  -3   4  -2   19.20    1.27
  -4  -4  -2   84.72    3.55
   4  -4   2   88.33    3.35
  -4  -4  -2   86.77    3.36
  -4  -4  -2   83.22    3.40
  -4   4  -2   86.74    3.36
   4   4   2   88.25    3.27
  -5  -4  -2    2.60    0.90
  -5  -4  -2    3.13    0.71
  -5  -4  -2    2.55    0.88
   5  -4   2    3.22    0.76
  -5   4  -2    3.31    0.67
   5   4   2    3.28    0.72
  -5   4  -2    3.46    0.60
  -6  -4  -2   16.48    1.31
   6  -4   2   16.76    1.25
  -6  -4  -2   17.62    1.44
  -6  -4  -2   15.74    1.55
  -6   4  -2   17.56    1.24
  -6   4  -2   13.13    1.17
   6   4   2   15.13    1.18
  -7  -4  -2   12.32    1.30
  -7  -4  -2   11.33    1.69
  -7  -4  -2   10.14    1.08
   7  -4   2   10.10    1.08
  -7   4  -2   10.60    1.10
   7   4   2    9.89    1.06
  -7   4  -2   10.64    1.06
  -8  -4  -2   12.00    1.39
   8  -4   2   12.65    1.23
  -8  -4  -2   11.89    1.10
  -8  -4  -2   15.10    1.69
  -8   4  -2   14.18    1.26
  -8   4  -2   12.95    1.25
   8   4   2   11.41    1.18
  -8  -5   2    0.43    1.11
  -8  -5   2    0.89    0.74
  -8  -5   2    2.38    1.65
   8  -5  -2   -0.10    1.00
  -8   5   2   -0.65    0.65
  -8   5   2    0.27    0.94
   8   5  -2    0.91    0.70
   7  -5  -2   59.66    2.74
  -7  -5   2   61.14    2.80
  -7  -5   2   54.62    2.80
  -7  -5   2   58.47    3.20
   7   5  -2   59.70    2.73
   7   5  -2   54.92    2.52
  -7   5   2   58.21    2.86
  -7   5   2   59.77    2.77
   6  -5  -2   17.53    1.41
  -6  -5   2   17.53    1.66
  -6  -5   2   15.82    1.46
  -6  -5   2   15.42    1.53
  -6   5   2   15.47    1.37
   6   5  -2   16.01    1.41
   6   5  -2   15.90    1.31
  -5  -5   2   34.20    1.96
  -5  -5   2   35.37    2.16
   5  -5  -2   35.23    1.91
  -5  -5   2   34.55    2.49
   5  -5  -2   39.10    2.41
  -5  -5   2   37.00    1.94
  -5   5   2   37.89    1.91
   5   5  -2   32.62    1.99
   5   5  -2   35.90    1.88
   5   5  -2   35.39    2.04
  -5   5   2   34.32    1.92
   4  -5  -2    8.54    1.13
   4  -5  -2    9.46    0.89
  -4  -5   2    7.83    1.35
  -4  -5   2   10.13    1.14
  -4  -5   2    8.52    0.92
   4  -5  -2   10.18    1.06
  -4  -5   2    9.46    1.03
  -4   5   2    9.34    0.99
   4   5  -2    9.30    1.00
   4   5  -2    9.15    1.08
   4   5  -2   10.01    1.13
  -4   5   2    9.75    1.02
  -3  -5   2   99.66    3.97
   3  -5  -2  100.32    3.99
   3  -5  -2   97.23    3.78
  -3  -5   2  102.95    3.99
   3  -5  -2  104.41    3.88
  -3  -5   2  106.14    3.95
  -3  -5   2   97.64    3.93
   3   5  -2  100.08    3.89
   3   5  -2  100.12    3.83
  -3   5   2  102.36    4.03
   3   5  -2   99.82    3.93
  -3   5   2   97.60    3.87
   2  -5  -2   62.15    2.49
   2  -5  -2   61.32    2.70
  -2  -5   2   62.34    2.68
  -2  -5   2   58.19    2.67
   2  -5  -2   61.01    2.72
  -2  -5   2   61.31    2.72
  -2  -5   2   61.03    2.67
  -2   5   2   61.19    2.54
  -2   5   2   61.73    2.64
   2   5  -2   61.73    2.76
   2   5  -2   59.28    2.53
   2   5  -2   62.97    2.71
  -1  -5   2    0.04    0.47
   1  -5  -2   -0.36    0.62
  -1  -5   2    0.24    0.81
   1  -5  -2    0.44    0.50
  -1  -5   2    1.35    0.68
   1  -5  -2    0.21    0.44
  -1  -5   2   -0.31    0.62
   1  -5  -2   -0.09    0.74
   1   5  -2    0.53    0.64
   1   5  -2    0.18    0.75
  -1   5   2   -0.21    0.68
  -1   5   2   -0.43    0.52
   1   5  -2    0.20    0.57
   0  -5  -2   93.79    3.65
   0  -5   2   96.43    3.77
   0  -5  -2   91.86    3.58
   0  -5   2   94.64    3.41
   0  -5   2   96.03    3.66
   0  -5  -2   94.39    3.54
   0  -5   2   90.98    3.56
   0  -5  -2   96.26    3.70
   0   5   2   95.47    3.61
   0   5  -2   92.34    3.54
   0   5  -2   98.47    3.70
   0   5   2   97.49    3.71
   0   5  -2   95.16    3.79
   1  -5   2   66.77    2.77
   1  -5   2   58.75    2.39
   1  -5   2   64.61    2.60
  -1  -5  -2   60.67    2.61
  -1  -5  -2   60.56    2.59
  -1  -5  -2   63.89    2.64
  -1  -5  -2   67.86    2.64
   1  -5   2   56.57    2.20
  -1   5  -2   57.00    2.65
  -1   5  -2   69.81    2.82
   1   5   2   57.73    2.54
  -1   5  -2   68.09    2.56
   1   5   2   57.70    2.52
  -2  -5  -2   37.55    2.03
   2  -5   2   39.49    2.03
  -2  -5  -2   35.44    1.93
  -2  -5  -2   36.67    2.01
   2  -5   2   36.84    1.76
  -2   5  -2   35.63    1.72
  -2   5  -2   38.17    2.00
  -2   5  -2   34.30    2.07
   2   5   2   35.84    1.90
   2   5   2   33.07    1.76
  -3  -5  -2    7.36    0.95
   3  -5   2    7.03    0.83
  -3  -5  -2    7.71    0.90
   3  -5   2    8.13    0.61
  -3  -5  -2    6.67    0.68
  -3  -5  -2    7.99    0.99
   3   5   2    6.69    0.94
  -3   5  -2    6.01    0.89
  -3   5  -2    6.48    0.83
  -4  -5  -2   76.35    3.16
   4  -5   2   76.60    3.16
  -4  -5  -2   74.03    3.29
  -4  -5  -2   68.32    3.37
  -4   5  -2   74.53    3.17
   4   5   2   78.06    3.13
  -5  -5  -2   23.57    1.64
   5  -5   2   26.04    1.73
  -5  -5  -2   25.49    1.69
  -5  -5  -2   26.08    1.88
  -5   5  -2   24.81    1.70
   5   5   2   21.58    1.61
   6  -5   2   12.68    1.25
  -6  -5  -2   12.08    1.22
  -6  -5  -2   12.34    1.23
  -6  -5  -2   12.36    1.46
  -6   5  -2   12.89    1.26
  -6   5  -2   12.46    1.14
   6   5   2   13.06    1.25
  -7  -5  -2    0.23    1.35
   7  -5   2    0.99    0.88
  -7  -5  -2    0.45    0.68
  -7  -5  -2    0.34    0.78
   7   5   2    0.54    0.80
  -7   5  -2   -0.60    0.68
  -7   5  -2   -0.26    0.57
  -7  -6   2   10.92    1.58
  -7  -6   2   11.52    1.44
  -7  -6   2   12.06    1.63
   7  -6  -2   10.20    1.44
  -7   6   2   12.01    1.48
   7   6  -2    9.33    1.38
  -7   6   2   10.95    1.24
  -6  -6   2    7.13    1.27
   6  -6  -2    6.47    1.25
  -6  -6   2    7.34    1.35
  -6  -6   2    5.79    1.52
   6   6  -2    6.63    1.15
   6   6  -2    6.13    0.83
  -6   6   2    5.32    1.22
  -5  -6   2   19.12    1.50
  -5  -6   2   19.12    1.66
   5  -6  -2   20.85    1.67
  -5  -6   2   19.30    1.89
  -5  -6   2   18.26    1.62
   5   6  -2   15.99    1.49
   5   6  -2   18.17    1.53
  -5   6   2   17.55    1.61
   4  -6  -2   21.31    1.57
  -4  -6   2   15.85    1.40
   4  -6  -2   21.03    1.64
  -4  -6   2   19.81    1.43
   4  -6  -2   19.85    1.25
  -4  -6   2   21.53    1.78
  -4  -6   2   20.54    1.74
  -4   6   2   19.02    1.60
  -4   6   2   19.76    1.54
   4   6  -2   21.37    1.76
   4   6  -2   20.43    1.75
   4   6  -2   22.80    1.43
  -3  -6   2   37.53    2.16
  -3  -6   2   35.75    2.11
   3  -6  -2   34.37    2.06
  -3  -6   2   37.09    2.10
   3  -6  -2   33.80    1.94
  -3  -6   2   32.59    1.91
   3  -6  -2   36.51    1.88
  -3   6   2   34.14    1.85
   3   6  -2   33.77    1.93
   3   6  -2   34.09    1.87
   3   6  -2   42.23    2.12
  -3   6   2   30.57    2.16
   2  -6  -2   -0.44    0.87
  -2  -6   2    0.17    0.77
   2  -6  -2   -0.52    0.77
   2  -6  -2   -0.19    0.47
  -2  -6   2   -0.63    0.87
  -2  -6   2   -0.91    0.54
  -2  -6   2    0.34    0.57
  -2   6   2    0.22    0.58
   2   6  -2    0.21    0.89
   2   6  -2    0.78    0.62
   2   6  -2   -0.01    0.76
  -2   6   2   -1.78    0.84
   1  -6  -2    1.82    0.69
   1  -6  -2    4.28    0.62
  -1  -6   2    3.52    0.90
  -1  -6   2    2.57    0.98
  -1  -6   2    3.05    0.73
  -1  -6   2    4.08    0.85
   1  -6  -2    3.48    0.67
   1  -6  -2    2.35    0.91
   1   6  -2    3.90    0.99
   1   6  -2    3.26    0.79
   1   6  -2    3.73    0.70
  -1   6   2    4.08    0.73
   0  -6  -2   14.88    1.32
   0  -6   2   14.69    1.07
   0  -6   2   13.82    0.93
   0  -6   2   13.41    1.22
   0  -6  -2   14.91    1.14
   0  -6  -2   13.39    1.25
   0  -6  -2   14.05    1.28
   0  -6   2   13.67    1.18
   0   6  -2   13.00    1.09
   0   6   2   15.06    1.32
   0   6  -2   14.75    1.25
   0   6   2   13.34    1.27
   0   6  -2   15.16    1.36
   1  -6   2  136.63    4.70
  -1  -6  -2  130.91    4.82
   1  -6   2  132.18    4.93
  -1  -6  -2  115.83    4.80
   1  -6   2  131.59    4.81
  -1  -6  -2  113.61    4.67
  -1  -6  -2  130.78    4.86
   1   6   2  132.10    4.88
  -1   6  -2  128.07    4.92
  -1   6  -2  135.09    4.76
  -1   6  -2  112.82    4.79
   1   6   2  136.71    4.90
   2  -6   2   27.01    1.41
   2  -6   2   26.01    1.64
  -2  -6  -2   26.07    1.77
  -2  -6  -2   27.06    1.66
  -2  -6  -2   24.25    1.85
  -2  -6  -2   22.41    1.56
  -2   6  -2   22.67    1.67
  -2   6  -2   29.22    1.92
  -2   6  -2   27.40    1.58
   2   6   2   24.39    1.54
   3  -6   2   26.08    1.93
   3  -6   2   29.75    1.38
  -3  -6  -2   26.04    1.89
  -3  -6  -2   28.50    1.97
  -3  -6  -2   27.91    2.00
  -3   6  -2   26.76    1.97
   3   6   2   27.39    1.84
   4  -6   2    2.80    0.76
  -4  -6  -2    1.32    0.76
  -4  -6  -2    2.28    0.72
  -4  -6  -2    1.83    1.16
  -4   6  -2    1.88    0.74
   4   6   2    2.52    0.69
  -5  -6  -2   35.12    2.19
   5  -6   2   35.10    2.25
  -5  -6  -2   37.62    2.66
  -5  -6  -2   35.87    2.37
  -5   6  -2   40.69    2.27
   5   6   2   37.79    2.18
  -6  -6  -2    7.52    1.62
  -6  -6  -2    6.59    1.31
  -6  -6  -2    6.12    1.16
   6  -6   2    6.34    0.97
   6   6   2    7.01    1.14
  -6   6  -2    5.99    1.02
  -6   6  -2    6.15    0.98
  -6  -7   2    1.80    0.88
   6  -7  -2    1.29    1.20
  -6  -7   2    2.16    1.16
  -6  -7   2    1.47    1.36
   6   7  -2    0.83    1.10
  -6   7   2    0.34    1.14
   6   7  -2    1.75    0.69
   5  -7  -2    3.31    0.93
  -5  -7   2    2.70    0.91
  -5  -7   2    4.02    1.39
  -5  -7   2    3.22    0.92
   5   7  -2    5.02    0.87
  -5   7   2    0.98    1.17
   5   7  -2    2.74    0.88
  -4  -7   2   73.57    3.51
  -4  -7   2   72.70    3.28
   4  -7  -2   71.08    3.47
  -4  -7   2   68.79    3.40
  -4  -7   2   75.84    3.37
   4  -7  -2   74.83    3.11
   4   7  -2   70.89    3.19
  -4   7   2   69.81    3.10
  -4   7   2   64.48    3.41
   4   7  -2   72.43    3.30
   3  -7  -2   71.24    3.26
  -3  -7   2   63.21    3.13
  -3  -7   2   63.21    3.01
  -3  -7   2   70.13    3.13
   3  -7  -2   65.75    3.13
   3  -7  -2   63.77    2.91
  -3  -7   2   64.93    3.14
  -3   7   2   66.80    3.09
  -3   7   2   63.23    3.07
   3   7  -2   64.73    2.97
   3   7  -2   65.70    3.11
   3   7  -2   60.87    2.98
   2  -7  -2    7.40    1.27
   2  -7  -2    9.25    1.27
  -2  -7   2    7.85    1.18
  -2  -7   2    8.95    1.06
  -2  -7   2    6.99    1.01
  -2  -7   2    7.94    1.27
   2  -7  -2    7.08    1.07
   2   7  -2    8.63    1.10
   2   7  -2    7.82    1.06
  -2   7   2    8.98    1.13
  -2   7   2    8.50    1.21
   2   7  -2    7.90    1.18
   1  -7  -2   20.69    1.71
  -1  -7   2   21.43    1.67
   1  -7  -2   22.35    1.72
   1  -7  -2   21.62    1.60
  -1  -7   2   25.14    1.61
  -1  -7   2   20.47    1.69
  -1   7   2   25.56    1.99
   1   7  -2   24.41    1.99
  -1   7   2   24.17    1.89
   1   7  -2   23.86    1.71
   1   7  -2   20.85    1.74
   0  -7  -2   40.89    2.34
   0  -7   2   41.74    2.14
   0  -7   2   36.25    2.42
   0  -7  -2   38.40    1.94
   0  -7  -2   40.80    2.30
   0  -7   2   38.61    2.27
   0  -7  -2   41.45    2.40
   0   7  -2   44.98    2.56
   0   7  -2   41.96    2.06
   0   7   2   37.19    2.33
   0   7   2   37.91    2.12
   0   7  -2   38.67    2.45
  -1  -7  -2   37.69    2.19
  -1  -7  -2   35.11    2.05
   1  -7   2   34.67    1.91
   1  -7   2   39.22    2.34
  -1  -7  -2   32.94    1.80
  -1  -7  -2   36.78    2.23
  -1   7  -2   35.88    2.35
  -1   7  -2   36.36    2.16
   1   7   2   31.91    2.21
  -1   7  -2   36.85    1.87
   2  -7   2    5.61    0.96
  -2  -7  -2    3.92    0.90
  -2  -7  -2    5.52    1.07
  -2  -7  -2    6.61    1.19
   2  -7   2    6.26    0.82
  -2   7  -2    4.93    0.99
   2   7   2    5.72    1.11
  -2   7  -2    7.30    1.35
  -3  -7  -2   15.74    1.60
  -3  -7  -2   16.08    1.40
   3  -7   2   11.79    1.48
  -3  -7  -2   14.18    1.38
  -3   7  -2   15.13    1.61
   3   7   2   14.81    1.47
  -4  -7  -2    8.94    1.16
  -4  -7  -2   10.70    1.51
  -4   7  -2   19.01    1.64
   4   7   2   10.56    1.32
  -5  -7  -2    6.10    1.20
  -5  -7  -2    3.74    0.99
  -5  -7  -2    3.57    1.17
   5  -7   2    4.16    1.22
  -5   7  -2    3.32    1.20
   5   7   2    2.21    1.07
   3  -8  -2    1.90    0.95
  -3  -8   2    2.90    0.91
   3  -8  -2    2.04    1.22
  -3  -8   2    3.45    1.02
  -3  -8   2    3.20    0.92
  -3  -8   2    2.47    0.89
  -3   8   2    2.89    0.87
   3   8  -2    2.39    0.84
   3   8  -2    3.78    1.17
  -3   8   2    2.56    0.96
   2  -8  -2   37.85    2.26
   2  -8  -2   35.36    2.52
   2  -8  -2   36.16    2.43
  -2  -8   2   33.63    2.30
  -2  -8   2   38.76    2.46
  -2  -8   2   34.07    2.18
   2   8  -2   35.55    2.14
   2   8  -2   38.38    2.51
   2   8  -2   39.43    2.58
  -2   8   2   35.86    2.43
  -2   8   2   36.95    2.30
   1  -8  -2  137.39    5.45
  -1  -8   2  143.21    5.63
   1  -8  -2  132.07    5.37
  -1  -8   2  136.37    5.36
   1  -8  -2  135.51    5.50
   1   8  -2  143.20    5.52
   1   8  -2  136.54    5.54
  -1   8   2  144.56    5.70
  -1   8   2  145.14    5.58
   1   8  -2  146.17    5.71
   0  -8   2    0.84    0.82
   0  -8  -2    0.88    1.06
   0  -8   2    1.13    0.89
   0  -8  -2   -0.53    0.97
   0  -8  -2    0.98    1.09
   0   8   2    0.59    1.04
   0   8  -2    0.83    0.69
   0   8  -2    1.08    1.18
   0   8  -2    1.80    1.18
   1  -8   2    0.55    0.58
  -1  -8  -2    0.48    0.74
  -1  -8  -2    0.14    0.75
   1  -8   2    0.70    0.86
  -1   8  -2   -0.79    1.15
   1   8   2    0.66    1.05
  -2  -8  -2   21.50    1.85
   2  -8   2   18.04    1.57
  -2  -8  -2   14.72    1.38
  -2  -8  -2   17.93    1.73
  -2   8  -2   15.33    1.57
   2   8   2   19.31    1.64
 -11   0   3   43.36    3.21
 -11   0   3   41.79    2.34
  11   0  -3   42.39    2.57
  11   0  -3   43.98    2.49
 -11   0   3   44.97    2.78
  10   0  -3   -0.39    0.78
 -10   0   3    2.28    1.11
 -10   0   3    0.93    0.93
  10   0  -3   -0.14    0.91
 -10   0   3   -0.12    1.36
 -10   0   3    0.86    0.81
  10   0  -3   -0.76    0.98
  -9   0   3   17.95    1.89
  -9   0   3   17.04    1.40
   9   0  -3   15.30    1.25
  -9   0   3   14.42    1.28
   9   0  -3   16.64    1.49
   9   0  -3   19.49    1.65
   8   0  -3    1.07    0.92
   8   0  -3    0.79    0.77
  -8   0   3    0.72    1.29
  -8   0   3   -0.78    0.84
  -8   0   3    0.63    0.74
   7   0  -3  124.17    4.48
   7   0  -3  115.32    4.37
   7   0  -3  114.26    4.26
  -7   0   3  108.89    4.78
  -7   0   3  120.01    4.24
  -7   0   3  115.93    4.39
  -7   0   3  116.11    4.48
   6   0  -3   -0.37    0.42
  -6   0   3   -0.41    0.57
  -6   0   3   -0.23    0.49
   6   0  -3   -0.17    0.57
  -6   0   3    1.02    1.23
   6   0  -3    0.42    0.77
  -5   0   3   96.41    3.45
   5   0  -3   89.48    3.39
   5   0  -3   91.44    3.50
   5   0  -3   92.16    3.39
  -5   0   3   93.51    3.42
  -4   0   3   -0.13    0.36
   4   0  -3    0.32    0.61
   4   0  -3   -0.54    0.50
   4   0  -3    1.20    0.54
  -4   0   3   -0.77    0.51
   3   0  -3   52.18    2.06
  -3   0   3   49.00    2.03
   3   0  -3   51.10    2.04
   3   0  -3   49.68    2.02
  -3   0   3   49.93    2.02
  -3   0   3   49.86    1.99
   2   0  -3   -0.14    0.52
   2   0  -3    0.95    0.46
  -2   0   3   -0.21    0.39
  -2   0   3   -0.16    0.30
   2   0  -3    0.36    0.48
  -2   0   3    0.59    0.35
  -1   0   3   91.68    3.17
   1   0  -3   89.34    3.19
  -1   0   3   91.35    3.12
  -1   0   3   89.53    3.18
   1   0  -3   93.56    3.16
   1   0  -3   90.63    3.21
   0   0  -3    0.11    0.12
   0   0  -3   -0.32    0.33
   0   0   3    0.04    0.20
   0   0  -3   -0.38    0.20
   0   0   3    0.26    0.19
   0   0  -3    0.07    0.20
  -1   0  -3    4.95    0.46
  -1   0  -3    4.45    0.41
  -1   0  -3    4.29    0.64
  -2   0  -3   -0.18    0.19
  -2   0  -3   -0.18    0.23
  -2   0  -3   -0.12    0.49
  -3   0  -3    7.60    0.55
  -3   0  -3    8.32    0.76
  -3   0  -3    8.36    0.46
  -4   0  -3    0.10    0.62
  -4   0  -3    0.19    0.25
  -5   0  -3   13.25    0.62
  -5   0  -3   13.21    0.71
  -5   0  -3   14.24    1.29
   5   0   3   13.23    0.60
   5   0   3   12.12    0.60
  -6   0  -3    1.19    0.81
  -6   0  -3    0.27    0.29
  -6   0  -3    0.59    0.54
   6   0   3    0.36    0.30
  -7   0  -3   38.82    2.27
  -8   0  -3    0.09    0.91
   8   0   3   -0.21    0.40
  -9   0  -3   50.61    2.90
  -9   0  -3   48.85    2.22
   9   0   3   49.87    2.21
  11  -1  -3    0.39    0.98
 -11  -1   3   -1.28    0.94
 -11  -1   3   -0.31    1.08
  11  -1  -3    0.98    0.92
 -11  -1   3    0.64    0.95
 -11   1   3    0.48    0.88
  11   1  -3   -1.59    0.94
 -11   1   3    0.45    1.00
  11   1  -3   -1.47    0.89
 -11   1   3   -0.70    0.78
  10  -1  -3   18.48    1.84
  10  -1  -3   18.66    1.59
 -10  -1   3   23.14    2.09
 -10  -1   3   18.23    1.73
 -10  -1   3   18.93    1.62
 -10  -1   3   20.29    1.52
  10   1  -3   20.03    1.57
 -10   1   3   20.59    2.01
 -10   1   3   21.21    1.66
  10   1  -3   21.68    1.69
  10   1  -3   22.16    1.88
  -9  -1   3    4.66    1.01
  -9  -1   3    4.12    1.00
  -9  -1   3    4.66    0.92
  -9  -1   3    5.60    1.56
   9  -1  -3    3.81    1.23
   9  -1  -3    3.71    0.80
  -9   1   3    5.35    0.91
   9   1  -3    4.33    0.86
   9   1  -3    5.81    1.05
   9   1  -3    4.24    0.98
  -9   1   3    4.75    1.28
  -8  -1   3   54.59    2.54
   8  -1  -3   58.12    2.58
  -8  -1   3   46.17    3.17
   8  -1  -3   54.41    2.65
  -8  -1   3   53.94    2.56
   8   1  -3   51.62    2.32
  -8   1   3   52.73    2.90
   8   1  -3   54.77    2.47
  -8   1   3   57.24    2.69
   8   1  -3   53.23    2.53
  -7  -1   3   46.99    2.93
   7  -1  -3   47.05    2.21
  -7  -1   3   43.96    2.12
  -7  -1   3   46.80    2.21
   7  -1  -3   45.25    1.97
  -7   1   3   40.29    2.64
   7   1  -3   42.49    2.01
  -7   1   3   46.13    1.91
   7   1  -3   44.21    2.09
  -7   1   3   47.50    2.30
   7   1  -3   43.96    2.18
   7   1  -3   45.48    2.11
  -6  -1   3   47.65    2.09
   6  -1  -3   45.83    2.07
  -6  -1   3   42.88    2.14
  -6  -1   3   49.83    2.53
   6  -1  -3   46.45    2.15
  -6  -1   3   44.59    2.09
   6   1  -3   50.42    2.19
   6   1  -3   45.62    2.07
  -6   1   3   47.51    2.62
  -6   1   3   48.70    2.07
   6   1  -3   47.27    2.12
  -6   1   3   51.26    2.15
   6   1  -3   50.24    2.25
  -5  -1   3   47.99    2.85
  -5  -1   3   56.12    2.32
   5  -1  -3   53.94    2.26
  -5  -1   3   54.33    2.25
  -5  -1   3   53.89    2.20
   5  -1  -3   51.81    2.14
   5   1  -3   52.42    2.23
  -5   1   3   54.56    2.29
   5   1  -3   52.25    2.30
   5   1  -3   52.05    2.23
   5   1  -3   52.97    2.26
  -5   1   3   55.79    2.22
   4  -1  -3   79.58    2.95
  -4  -1   3   80.48    2.91
  -4  -1   3   76.78    2.97
   4  -1  -3   76.74    2.94
  -4  -1   3   79.14    2.98
   4   1  -3   77.13    2.95
  -4   1   3   77.23    2.87
  -4   1   3   78.91    2.91
   4   1  -3   78.88    2.97
   4   1  -3   79.39    2.90
   4   1  -3   77.24    3.00
   3  -1  -3   26.24    1.23
   3  -1  -3   25.30    1.32
  -3  -1   3   27.52    1.34
  -3  -1   3   26.16    1.28
  -3  -1   3   26.82    1.39
  -3   1   3   27.59    1.34
  -3   1   3   25.33    1.19
   3   1  -3   27.53    1.26
   3   1  -3   25.82    1.21
   3   1  -3   26.22    1.23
  -2  -1   3    0.57    0.45
   2  -1  -3    1.93    0.50
   2  -1  -3    0.72    0.44
  -2  -1   3    1.67    0.42
   2  -1  -3    1.78    0.38
  -2  -1   3    0.43    0.56
   2   1  -3    1.74    0.41
  -2   1   3    0.60    0.48
   2   1  -3    0.94    0.33
   2   1  -3    0.66    0.51
   1  -1  -3  388.57   12.77
   1  -1  -3  374.57   12.81
   1  -1  -3  396.05   12.80
   1  -1  -3  386.95   12.82
  -1  -1   3  403.57   12.78
  -1  -1   3  379.21   12.79
  -1   1   3  393.49   12.78
   1   1  -3  384.61   12.81
   1   1  -3  393.19   12.85
   1   1  -3  401.27   12.76
   0  -1   3  297.38    9.87
   0  -1  -3  294.60    9.98
   0  -1   3  332.56    9.92
   0  -1  -3  294.54    9.91
   0  -1  -3  293.66   10.04
   0  -1   3  302.95    9.89
   0  -1  -3  334.32    9.89
   0   1  -3  293.28    9.98
   0   1  -3  299.98    9.85
   0   1  -3  313.74    9.93
   0   1  -3  307.05    9.91
   0   1   3  295.48    9.89
   0   1   3  270.52    9.95
  -1  -1  -3    6.66    0.40
  -1  -1  -3    6.75    0.53
   1  -1   3    6.79    0.39
  -1  -1  -3    6.37    0.72
  -1   1  -3    7.31    0.30
  -1   1  -3    7.85    0.46
  -1   1  -3    6.77    0.54
   1   1   3    7.23    0.39
  -1   1  -3    7.31    0.41
  -2  -1  -3    4.34    0.48
  -2  -1  -3    3.82    0.22
  -2  -1  -3    3.78    0.26
  -2  -1  -3    3.60    0.66
   2  -1   3    3.69    0.22
  -2  -1  -3    3.53    0.27
   2  -1   3    3.71    0.25
  -2   1  -3    3.67    0.52
  -2   1  -3    3.78    0.31
  -2   1  -3    3.66    0.26
   2   1   3    4.31    0.26
  -2   1  -3    3.85    0.39
  -2   1  -3    3.98    0.24
   2   1   3    3.89    0.26
   3  -1   3  140.25    4.68
  -3  -1  -3  142.51    5.13
  -3  -1  -3  142.76    4.92
  -3  -1  -3  143.66    4.72
  -3  -1  -3  142.07    4.72
   3  -1   3  140.53    4.67
  -3   1  -3  144.65    4.88
  -3   1  -3  146.99    4.80
  -3   1  -3  144.49    4.70
  -3   1  -3  145.73    4.96
   3   1   3  149.68    4.70
   3   1   3  140.44    4.70
  -3   1  -3  142.93    4.70
  -4  -1  -3  167.89    6.01
   4  -1   3  166.75    5.56
  -4  -1  -3  169.92    5.59
  -4  -1  -3  171.67    5.79
  -4  -1  -3  171.96    5.61
  -4   1  -3  166.69    5.87
   4   1   3  168.95    5.57
  -4   1  -3  170.05    5.71
  -4   1  -3  171.60    5.58
   4   1   3  168.92    5.58
  -4   1  -3  169.12    5.58
   5  -1   3   49.63    1.83
  -5  -1  -3   52.82    1.85
   5  -1   3   52.21    1.83
  -5  -1  -3   49.73    2.44
  -5  -1  -3   51.44    1.89
  -5  -1  -3   52.32    2.01
  -5   1  -3   50.33    1.83
   5   1   3   50.50    1.86
  -5   1  -3   51.00    1.73
  -5   1  -3   51.75    2.24
  -5   1  -3   51.06    1.86
  -5   1  -3   52.67    2.03
  -6  -1  -3    0.21    0.38
   6  -1   3    0.36    0.29
  -6  -1  -3    0.58    0.90
  -6  -1  -3    0.52    0.43
  -6   1  -3    1.52    0.53
  -6   1  -3   -0.11    0.34
   6   1   3    0.48    0.32
  -6   1  -3    0.35    0.48
  -7  -1  -3    9.50    0.78
  -7  -1  -3    9.92    1.15
  -7  -1  -3    9.21    0.76
   7  -1   3    8.39    0.71
  -7   1  -3    6.88    0.83
  -7   1  -3    7.23    1.03
   7   1   3   10.28    0.86
  -8  -1  -3   36.65    1.77
   8  -1   3   35.16    1.64
  -8  -1  -3   42.30    2.55
  -8   1  -3   38.50    2.21
   8   1   3   36.29    1.75
  -9  -1  -3   11.02    0.97
   9  -1   3   11.64    0.95
  -9  -1  -3   12.08    1.61
   9   1   3   10.22    0.92
  -9   1  -3   10.27    1.32
  10  -2  -3    5.73    1.19
 -10  -2   3    9.34    1.32
  10  -2  -3    6.90    1.57
 -10  -2   3    6.77    1.89
 -10  -2   3    7.13    1.22
  10   2  -3   12.61    1.36
 -10   2   3    8.44    1.31
  -9  -2   3    3.40    0.83
  -9  -2   3    5.23    1.14
  -9  -2   3    5.84    1.68
   9  -2  -3    4.38    1.04
   9   2  -3    4.77    0.82
   9   2  -3    5.23    0.85
  -9   2   3    6.73    1.19
  -9   2   3    5.38    1.16
  -8  -2   3   32.95    2.77
   8  -2  -3   31.46    1.96
  -8  -2   3   32.62    1.83
  -8  -2   3   33.17    1.82
   8   2  -3   31.96    1.76
   8   2  -3   32.64    1.77
  -8   2   3   31.77    2.08
  -8   2   3   32.14    2.07
  -7  -2   3   85.16    3.83
   7  -2  -3   92.13    3.48
  -7  -2   3   80.97    3.39
  -7   2   3   83.95    3.58
  -7   2   3   84.32    3.26
   7   2  -3   85.70    3.32
  -7   2   3   84.89    3.42
   7   2  -3   85.92    3.37
   6  -2  -3   65.04    2.64
  -6  -2   3   66.79    2.69
   6  -2  -3   61.81    2.61
  -6  -2   3   65.02    3.43
  -6   2   3   64.17    2.68
  -6   2   3   57.20    2.90
   6   2  -3   69.30    2.66
  -6   2   3   65.67    2.54
   6   2  -3   64.60    2.64
   6   2  -3   66.53    2.67
  -5  -2   3   20.14    1.22
   5  -2  -3   22.54    1.32
  -5  -2   3   20.30    1.67
   5  -2  -3   21.05    1.37
   5   2  -3   20.15    1.27
  -5   2   3   19.81    1.38
   5   2  -3   19.63    1.33
   5   2  -3   19.11    1.35
  -5   2   3   20.56    1.16
  -4  -2   3  189.79    6.67
   4  -2  -3  192.98    6.61
  -4  -2   3  189.03    6.96
   4  -2  -3  193.67    6.60
  -4   2   3  196.02    6.61
   4   2  -3  187.62    6.62
   4   2  -3  193.69    6.64
   4   2  -3  194.67    6.64
  -4   2   3  198.09    6.66
   3  -2  -3  547.32   18.16
   3  -2  -3  560.72   18.19
  -3  -2   3  556.40   18.18
  -3  -2   3  552.60   18.20
   3   2  -3  542.71   18.17
   3   2  -3  552.65   18.20
  -3   2   3  554.05   18.15
   3   2  -3  555.78   18.17
   2  -2  -3   66.27    2.39
  -2  -2   3   62.77    2.34
  -2  -2   3   63.62    2.38
   2  -2  -3   62.91    2.36
   2  -2  -3   59.82    2.33
  -2   2   3   62.12    2.38
   2   2  -3   63.77    2.44
  -2   2   3   62.26    2.33
   2   2  -3   60.14    2.35
   2   2  -3   62.56    2.36
   1  -2  -3    0.21    0.30
  -1  -2   3    0.80    0.38
   1  -2  -3   -0.19    0.30
   1  -2  -3    0.28    0.34
  -1  -2   3    0.24    0.37
   1  -2  -3    0.72    0.44
   1   2  -3    0.08    0.37
   1   2  -3    0.21    0.49
  -1   2   3   -0.62    0.41
   1   2  -3    1.18    0.48
  -1   2   3    0.45    0.41
   0  -2  -3   52.24    1.93
   0  -2  -3   51.32    1.97
   0  -2  -3   52.86    2.00
   0  -2   3   51.75    1.91
   0  -2  -3   51.40    2.01
   0   2  -3   53.44    1.90
   0   2  -3   51.45    1.95
   0   2   3   52.53    1.96
   0   2  -3   50.80    2.08
  -1  -2  -3  448.50   14.99
  -1  -2  -3  446.83   15.07
  -1  -2  -3  496.44   14.88
  -1  -2  -3  485.91   14.92
  -1  -2  -3  443.74   15.13
   1   2   3  447.08   14.96
  -1   2  -3  459.27   15.10
  -1   2  -3  444.95   14.88
  -1   2  -3  445.58   14.99
   2  -2   3  216.67    7.17
   2  -2   3  221.03    7.05
  -2  -2  -3  214.73    7.33
  -2  -2  -3  212.26    7.43
  -2  -2  -3  212.03    7.21
  -2  -2  -3  216.37    7.21
  -2   2  -3  213.97    7.20
  -2   2  -3  214.77    7.32
   2   2   3  218.76    7.19
  -2   2  -3  213.86    7.18
   2   2   3  226.97    7.29
  -3  -2  -3  146.10    5.39
   3  -2   3  149.92    5.06
  -3  -2  -3  154.08    5.11
  -3  -2  -3  149.99    5.25
  -3  -2  -3  152.83    5.10
  -3   2  -3  148.19    5.08
   3   2   3  152.88    5.09
  -3   2  -3  156.87    5.10
  -3   2  -3  149.21    5.15
  -3   2  -3  148.56    5.08
   3   2   3  149.94    5.09
  -3   2  -3  154.36    5.27
   4  -2   3   66.81    2.35
  -4  -2  -3   65.95    2.35
  -4  -2  -3   65.24    2.36
  -4  -2  -3   62.38    2.71
   4  -2   3   60.97    2.29
  -4  -2  -3   65.34    2.56
  -4   2  -3   63.42    2.39
  -4   2  -3   64.61    2.45
   4   2   3   66.18    2.34
  -4   2  -3   66.18    2.35
  -4   2  -3   63.43    2.36
   5  -2   3  102.85    3.47
  -5  -2  -3   97.49    3.65
  -5  -2  -3   98.63    4.04
  -5  -2  -3  102.47    3.52
  -5   2  -3   97.35    3.48
   5   2   3   99.61    3.49
  -5   2  -3   97.40    3.57
  -5   2  -3   97.32    3.62
  -6  -2  -3   58.60    2.33
   6  -2   3   57.09    2.20
  -6  -2  -3   54.82    2.86
  -6  -2  -3   56.90    2.21
  -6   2  -3   54.82    2.35
  -6   2  -3   55.23    2.29
   6   2   3   54.88    2.16
  -6   2  -3   55.98    2.18
  -7  -2  -3  121.80    4.50
   7  -2   3  125.01    4.43
  -7  -2  -3  129.09    5.03
  -7  -2  -3  128.79    4.64
  -7   2  -3  121.24    4.57
  -7   2  -3  128.81    4.46
   7   2   3  123.20    4.45
  -7   2  -3  125.69    4.64
  -8  -2  -3    0.80    0.54
   8  -2   3    1.83    0.69
  -8  -2  -3    2.83    0.72
  -8  -2  -3    4.46    1.34
   8   2   3    1.32    0.53
  -9  -2  -3    6.35    0.82
  -9  -2  -3    6.68    1.60
   9  -2   3    6.15    0.94
   9   2   3    4.53    0.83
 -10  -3   3   58.29    2.99
 -10  -3   3   58.10    2.88
 -10  -3   3   47.69    3.83
  10  -3  -3   61.06    3.02
  10   3  -3   56.68    2.95
 -10   3   3   55.32    3.03
  -9  -3   3  139.46    5.36
  -9  -3   3  140.02    5.44
  -9  -3   3  130.79    5.94
   9  -3  -3  135.16    5.27
  -9   3   3  131.15    5.25
   9   3  -3  136.35    5.28
  -8  -3   3   31.64    2.01
  -8  -3   3   29.29    2.49
   8  -3  -3   33.77    2.00
  -8  -3   3   29.51    1.86
  -8   3   3   31.26    1.82
   8   3  -3   27.92    1.53
   8   3  -3   29.43    1.95
   7  -3  -3    9.75    0.95
   6  -3  -3  161.36    5.91
  -6  -3   3  175.81    6.16
  -6  -3   3  166.99    6.34
  -6  -3   3  171.37    6.10
   6  -3  -3  166.97    6.02
   6   3  -3  171.74    5.94
  -6   3   3  173.21    6.02
  -6   3   3  153.63    5.87
   6   3  -3  166.10    5.99
   6   3  -3  163.80    6.02
  -6   3   3  171.32    5.92
   5  -3  -3  111.28    4.17
  -5  -3   3  103.00    4.12
  -5  -3   3  107.24    4.15
   5  -3  -3  109.42    4.06
  -5  -3   3  113.86    4.45
  -5   3   3  113.97    4.19
   5   3  -3  108.87    4.10
   5   3  -3  110.50    4.09
   5   3  -3  109.13    4.15
  -5   3   3  118.97    4.12
   4  -3  -3   81.71    3.15
  -4  -3   3   84.28    3.27
  -4  -3   3   80.69    3.65
  -4  -3   3   82.04    3.30
   4  -3  -3   84.24    3.17
   4   3  -3   82.45    3.16
   4   3  -3   82.17    3.26
  -4   3   3   87.11    3.21
   4   3  -3   83.91    3.14
  -4   3   3   83.44    3.26
  -3  -3   3   51.38    2.10
   3  -3  -3   49.27    2.13
   3  -3  -3   48.92    2.15
   3  -3  -3   49.36    1.99
  -3  -3   3   48.35    2.06
  -3  -3   3   48.37    2.56
  -3   3   3   50.19    2.07
   3   3  -3   48.62    2.12
  -3   3   3   50.14    2.02
   3   3  -3   50.35    2.18
   3   3  -3   48.40    2.10
   2  -3  -3  123.12    4.32
  -2  -3   3  122.09    4.30
  -2  -3   3  118.61    4.26
   2  -3  -3  122.24    4.29
   2  -3  -3  121.26    4.25
   2   3  -3  116.19    4.28
  -2   3   3  118.97    4.24
   2   3  -3  119.43    4.26
  -2   3   3  118.87    4.28
   2   3  -3  119.73    4.30
  -1  -3   3   27.74    1.24
   1  -3  -3   25.21    1.20
   1  -3  -3   26.79    1.27
   1  -3  -3   27.56    1.38
  -1  -3   3   26.83    1.24
   1  -3  -3   27.54    1.29
   1   3  -3   26.56    1.29
   1   3  -3   28.55    1.47
  -1   3   3   28.29    1.28
  -1   3   3   27.27    1.27
   1   3  -3   27.80    1.43
   0  -3  -3  386.43   13.42
   0  -3   3  410.90   13.33
   0  -3  -3  392.98   13.35
   0  -3  -3  421.79   13.47
   0  -3  -3  417.56   13.43
   0  -3   3  406.24   13.37
   0   3   3  401.03   13.38
   0   3  -3  387.92   13.46
   0   3  -3  412.72   13.35
   0   3   3  422.07   13.40
   0   3  -3  396.51   13.42
   1  -3   3    7.95    0.56
  -1  -3  -3    7.57    0.69
  -1  -3  -3    8.43    0.72
   1  -3   3    7.18    0.53
  -1  -3  -3    7.14    0.72
   1   3   3    9.50    0.69
  -1   3  -3    8.27    0.74
  -1   3  -3    6.67    0.58
   1   3   3    8.28    0.69
  -1   3  -3   10.03    0.88
   2  -3   3  109.15    3.59
  -2  -3  -3  107.36    3.50
  -2  -3  -3  104.09    4.04
  -2  -3  -3  103.79    3.68
  -2  -3  -3  109.86    3.91
  -2  -3  -3  106.93    3.79
  -2   3  -3  107.33    3.83
  -2   3  -3  108.17    3.92
  -2   3  -3  105.89    3.63
   2   3   3  108.34    3.80
  -3  -3  -3   58.40    2.26
  -3  -3  -3   54.57    2.60
   3  -3   3   56.90    2.26
  -3  -3  -3   56.85    2.43
  -3   3  -3   56.38    2.25
  -3   3  -3   58.46    2.37
   3   3   3   59.43    2.24
  -4  -3  -3  167.18    6.14
   4  -3   3  175.53    5.81
  -4  -3  -3  171.99    6.01
  -4  -3  -3  166.23    5.83
   4   3   3  169.75    5.80
  -4   3  -3  166.43    5.81
  -4   3  -3  168.59    5.96
  -4   3  -3  164.20    5.77
  -5  -3  -3    3.52    1.12
  -5  -3  -3    4.18    0.63
   5  -3   3    4.86    0.64
  -5  -3  -3    4.51    0.68
   5   3   3    4.37    0.62
  -5   3  -3    4.72    0.64
  -5   3  -3    4.18    0.64
   6  -3   3    1.76    0.58
  -6  -3  -3    2.83    0.61
  -6  -3  -3    2.69    1.19
  -6  -3  -3    1.83    0.56
   6   3   3    1.41    0.54
  -6   3  -3    2.55    0.58
  -6   3  -3    2.37    0.61
  -7  -3  -3   59.90    2.77
  -7  -3  -3   65.08    2.60
  -7  -3  -3   59.55    3.09
   7  -3   3   60.62    2.62
  -7   3  -3   65.52    2.58
  -7   3  -3   59.95    2.60
   7   3   3   62.03    2.56
   8  -3   3   76.43    3.13
  -8  -3  -3   83.26    4.00
  -8  -3  -3   69.97    3.13
  -8  -3  -3   74.77    3.08
   8   3   3   74.95    3.06
  -8   3  -3   75.50    3.07
   9  -4  -3   -0.70    0.97
  -9  -4   3   -0.77    0.74
  -9  -4   3    1.25    1.74
  -9  -4   3    1.04    1.02
  -9   4   3    0.15    0.99
   9   4  -3    0.34    0.98
  -8  -4   3    7.81    1.15
   8  -4  -3    9.58    1.28
  -8  -4   3    8.11    1.07
  -8  -4   3   10.29    1.60
  -8   4   3   10.67    1.32
   8   4  -3    7.66    1.03
   8   4  -3   10.31    1.03
  -7  -4   3  175.26    7.17
  -7  -4   3  180.32    6.75
  -7  -4   3  183.29    6.75
   7  -4  -3  186.26    6.69
   7   4  -3  189.27    6.72
   7   4  -3  185.94    6.51
  -7   4   3  177.60    6.70
   6  -4  -3   97.21    3.74
  -6  -4   3   94.69    3.85
   6  -4  -3   88.26    3.62
  -6  -4   3   90.11    3.65
  -6  -4   3   88.97    3.97
  -6   4   3   90.53    3.49
  -6   4   3   91.55    3.74
   6   4  -3   91.39    3.63
   6   4  -3   84.37    3.45
   6   4  -3   89.04    3.59
  -6   4   3   90.57    3.62
  -5  -4   3   29.08    2.42
  -5  -4   3   29.89    1.68
  -5  -4   3   28.18    1.62
   5  -4  -3   26.69    1.66
   5  -4  -3   26.19    1.59
   5   4  -3   28.86    1.75
   5   4  -3   26.68    1.56
   5   4  -3   28.77    1.49
  -5   4   3   26.81    1.81
  -5   4   3   29.59    1.52
   4  -4  -3   11.26    1.08
  -4  -4   3   10.04    1.21
  -4  -4   3    9.23    1.04
   4  -4  -3   10.59    1.04
  -4  -4   3   11.35    1.00
  -4   4   3   10.08    0.88
  -4   4   3    8.96    0.92
   4   4  -3    9.44    1.02
   4   4  -3   10.48    0.95
   4   4  -3   10.77    1.01
   3  -4  -3  157.98    5.66
   3  -4  -3  165.98    5.74
   3  -4  -3  159.92    5.60
  -3  -4   3  157.70    5.68
  -3  -4   3  161.69    5.73
  -3  -4   3  166.56    5.93
  -3   4   3  150.17    5.61
   3   4  -3  157.47    5.66
   3   4  -3  158.92    5.70
   3   4  -3  155.78    5.63
  -3   4   3  164.17    5.76
   2  -4  -3   56.07    2.30
  -2  -4   3   51.24    2.24
  -2  -4   3   56.53    2.36
   2  -4  -3   54.99    2.30
  -2  -4   3   58.68    2.60
   2  -4  -3   51.64    2.25
   2   4  -3   54.67    2.32
   2   4  -3   54.45    2.24
  -2   4   3   54.45    2.39
   2   4  -3   54.12    2.41
  -2   4   3   53.77    2.25
   1  -4  -3    3.30    0.59
   1  -4  -3    3.23    0.56
  -1  -4   3    5.07    0.91
   1  -4  -3    3.50    0.72
  -1  -4   3    5.49    0.69
  -1  -4   3    4.49    0.67
   1  -4  -3    3.90    0.62
  -1   4   3    3.63    0.56
   1   4  -3    4.05    0.65
  -1   4   3    4.33    0.72
   1   4  -3    3.81    0.63
   1   4  -3    3.65    0.64
   0  -4  -3    1.90    0.66
   0  -4  -3    1.11    0.59
   0  -4   3    1.75    0.51
   0  -4  -3    1.40    0.44
   0  -4   3    0.71    0.65
   0  -4   3    1.67    0.54
   0  -4  -3    0.80    0.45
   0   4   3    2.36    0.60
   0   4   3   -0.84    0.56
   0   4  -3    1.50    0.51
   0   4  -3    2.48    0.59
   0   4  -3    3.28    0.77
  -1  -4  -3   37.63    1.96
   1  -4   3   42.93    1.75
  -1  -4  -3   36.88    1.82
   1  -4   3   39.25    1.65
  -1  -4  -3   45.14    1.81
  -1  -4  -3   41.82    1.91
   1   4   3   43.98    1.81
   1   4   3   41.90    1.88
  -1   4  -3   36.79    1.93
  -1   4  -3   38.60    1.90
  -1   4  -3   41.48    1.71
  -2  -4  -3   34.63    1.96
   2  -4   3   39.04    1.84
  -2  -4  -3   36.32    1.57
  -2  -4  -3   37.87    1.88
   2  -4   3   34.21    1.53
  -2  -4  -3   37.00    1.75
   2  -4   3   37.20    1.44
  -2   4  -3   34.58    1.49
   2   4   3   34.68    1.58
   2   4   3   37.68    1.75
  -2   4  -3   34.84    1.79
  -2   4  -3   35.40    1.80
  -3  -4  -3    0.20    0.56
  -3  -4  -3    1.13    0.56
  -3  -4  -3    0.02    0.60
   3  -4   3    0.81    0.66
   3  -4   3    0.53    0.20
  -3   4  -3    0.61    0.55
  -3   4  -3    0.73    0.48
   3   4   3    0.18    0.56
  -4  -4  -3    9.93    0.96
  -4  -4  -3    9.29    1.27
   4  -4   3    9.57    0.93
  -4  -4  -3    9.94    0.92
   4   4   3    8.96    0.87
  -4   4  -3    9.16    0.92
  -4   4  -3    9.84    1.10
  -5  -4  -3   93.47    3.55
  -5  -4  -3   92.62    3.95
   5  -4   3   95.08    3.58
  -5  -4  -3   91.37    3.78
  -5   4  -3   94.50    3.60
   5   4   3   93.81    3.56
  -5   4  -3   91.82    3.50
   6  -4   3   25.17    1.54
  -6  -4  -3   23.14    1.36
  -6  -4  -3   23.51    1.91
  -6  -4  -3   25.01    1.77
  -6   4  -3   25.69    1.46
  -6   4  -3   22.82    1.48
   6   4   3   21.88    1.48
   7  -4   3    2.83    0.78
  -7  -4  -3    3.57    1.37
  -7  -4  -3    3.02    0.73
  -7  -4  -3    2.26    0.72
   7   4   3    1.68    0.70
  -7   4  -3    1.04    0.56
  -8  -4  -3    1.89    1.52
   8  -4   3    1.79    0.81
  -8  -4  -3    1.65    0.93
  -8  -4  -3    1.64    0.75
  -8   4  -3    1.44    0.77
   8   4   3    1.45    0.76
   9  -5  -3    0.54    0.79
  -9  -5   3    1.07    1.85
  -9  -5   3    0.40    1.23
  -9  -5   3    0.57    0.83
  -9   5   3   -0.56    1.03
   9   5  -3    1.91    0.85
   8  -5  -3   32.14    1.99
  -8  -5   3   30.91    2.60
  -8  -5   3   32.96    2.32
  -8  -5   3   32.71    2.38
   8   5  -3   33.53    2.27
  -8   5   3   29.38    2.25
  -7  -5   3    2.95    0.88
  -7  -5   3   -1.75    1.48
   7  -5  -3    2.01    0.75
  -7  -5   3    2.42    1.05
  -7   5   3    1.22    0.74
  -7   5   3    1.10    0.74
   7   5  -3    1.39    0.74
   7   5  -3    1.32    0.99
  -6  -5   3   19.30    1.98
  -6  -5   3   23.01    1.58
   6  -5  -3   26.31    1.89
  -6  -5   3   17.55    1.65
  -6   5   3   14.24    1.34
  -6   5   3   21.29    1.57
   6   5  -3   21.89    1.56
   6   5  -3   19.92    1.50
  -5  -5   3   55.25    2.78
  -5  -5   3   56.60    2.73
   5  -5  -3   55.08    2.73
   5  -5  -3   54.24    2.46
  -5  -5   3   57.42    3.09
   5   5  -3   55.81    2.70
   5   5  -3   54.26    2.55
  -5   5   3   55.09    2.57
   5   5  -3   59.02    2.56
  -5   5   3   53.68    2.74
  -4  -5   3   25.84    1.60
   4  -5  -3   26.88    1.65
  -4  -5   3   24.18    2.11
  -4  -5   3   26.82    1.86
   4  -5  -3   27.43    1.77
   4  -5  -3   26.03    1.57
   4   5  -3   29.34    1.83
  -4   5   3   28.01    1.67
   4   5  -3   27.48    1.65
  -4   5   3   26.77    1.76
   4   5  -3   27.88    1.75
  -3  -5   3    6.86    0.85
  -3  -5   3    7.54    1.22
  -3  -5   3    7.06    0.85
   3  -5  -3    7.59    0.92
   3  -5  -3    7.95    1.05
   3  -5  -3    7.29    0.88
   3   5  -3    8.23    0.88
  -3   5   3    5.87    1.02
   3   5  -3    7.73    0.93
  -3   5   3    7.18    0.84
   3   5  -3    6.71    0.97
  -2  -5   3    0.48    0.73
   2  -5  -3   -0.58    0.52
   2  -5  -3   -0.95    0.63
   2  -5  -3    0.44    0.56
  -2  -5   3    0.18    0.70
  -2  -5   3   -0.74    0.87
   2   5  -3   -0.12    0.82
  -2   5   3    0.38    0.76
  -2   5   3   -0.56    0.75
   2   5  -3    0.33    0.50
   2   5  -3   -0.65    0.76
   1  -5  -3   68.83    2.93
  -1  -5   3   70.93    2.91
   1  -5  -3   72.33    2.95
   1  -5  -3   70.24    2.74
  -1  -5   3   72.75    2.85
  -1  -5   3   70.31    2.78
   1  -5  -3   66.79    2.86
  -1   5   3   71.42    2.94
  -1   5   3   69.35    2.96
   1   5  -3   71.00    2.85
   1   5  -3   69.02    3.04
   1   5  -3   66.35    2.90
   0  -5  -3   30.12    1.75
   0  -5   3   26.41    1.42
   0  -5  -3   24.35    1.47
   0  -5   3   31.02    1.88
   0  -5   3   26.82    1.51
   0  -5   3   31.33    1.62
   0  -5  -3   32.15    1.62
   0   5   3   30.42    1.69
   0   5   3   25.95    1.69
   0   5  -3   30.97    1.86
   0   5  -3   30.47    1.57
   0   5  -3   28.77    1.87
  -1  -5  -3   76.89    3.20
   1  -5   3   77.62    2.79
  -1  -5  -3   81.52    3.10
   1  -5   3   73.98    3.03
   1  -5   3   78.89    3.13
   1  -5   3   77.58    2.94
  -1  -5  -3   79.30    3.26
  -1  -5  -3   83.00    3.24
   1   5   3   78.11    3.10
   1   5   3   83.45    3.20
  -1   5  -3   75.00    3.21
  -1   5  -3   79.03    3.16
  -1   5  -3   72.32    2.93
  -2  -5  -3   14.13    1.19
  -2  -5  -3   12.57    1.10
  -2  -5  -3   13.91    1.11
   2  -5   3   14.34    0.88
   2  -5   3   15.65    1.19
  -2  -5  -3   15.31    1.35
  -2   5  -3   13.02    1.10
  -2   5  -3   15.89    1.05
  -2   5  -3   11.44    1.29
   2   5   3   14.01    1.09
  -3  -5  -3  109.13    4.13
  -3  -5  -3  105.64    4.21
   3  -5   3  107.21    4.18
  -3  -5  -3  108.36    4.30
  -3   5  -3  106.91    4.20
  -3   5  -3  114.74    4.38
   3   5   3  109.11    4.08
  -4  -5  -3    9.39    1.18
   4  -5   3    8.52    1.03
  -4  -5  -3    6.85    0.95
  -4  -5  -3    7.66    1.00
   4   5   3    9.40    1.01
  -4   5  -3    8.82    1.06
  -5  -5  -3   41.00    2.32
  -5  -5  -3   38.61    2.66
   5  -5   3   39.91    2.14
  -5  -5  -3   40.72    2.12
  -5   5  -3   39.14    1.93
   5   5   3   38.82    1.93
  -5   5  -3   40.37    2.13
  -6  -5  -3   17.82    1.92
  -6  -5  -3   14.66    1.32
   6  -5   3   18.09    1.39
  -6  -5  -3   17.06    1.58
  -6   5  -3   14.29    1.22
  -6   5  -3   16.37    1.25
   6   5   3   14.10    1.27
  -7  -5  -3    5.84    1.00
  -7  -5  -3    4.71    1.17
  -7  -5  -3    6.54    1.31
   7  -5   3    6.50    1.06
   7   5   3    4.73    0.95
  -7   5  -3    7.95    1.10
  -7  -6   3    1.68    1.23
  -7  -6   3    1.57    1.18
   7  -6  -3    1.77    1.15
  -7  -6   3    2.43    1.14
   7   6  -3    1.88    0.80
  -7   6   3    0.05    1.06
  -7   6   3    1.76    0.83
   7   6  -3    1.03    0.82
   6  -6  -3    4.75    1.21
  -6  -6   3    4.77    0.96
  -6  -6   3    6.05    1.26
  -6  -6   3    5.38    1.21
   6   6  -3    5.31    1.18
  -6   6   3    3.48    1.18
   6   6  -3    4.40    0.95
  -5  -6   3    8.69    1.13
  -5  -6   3   11.09    1.34
   5  -6  -3    7.12    1.05
  -5  -6   3    9.05    1.33
  -5  -6   3   10.48    1.30
  -5   6   3    9.64    1.34
   5   6  -3    9.16    1.17
  -5   6   3    8.25    1.15
   5   6  -3    9.12    1.07
   5   6  -3   10.29    1.36
   4  -6  -3   40.04    2.08
  -4  -6   3   37.65    2.10
  -4  -6   3   36.07    2.11
  -4  -6   3   39.54    2.17
  -4  -6   3   44.81    2.59
  -4   6   3   40.48    2.41
   4   6  -3   52.23    2.52
  -4   6   3   39.57    2.25
   3  -6  -3   16.72    1.40
  -3  -6   3   14.84    1.41
  -3  -6   3   14.14    1.32
  -3  -6   3   15.62    1.27
  -3  -6   3   15.06    1.39
   3  -6  -3   14.84    1.26
   3  -6  -3   15.02    1.43
  -3   6   3   13.99    1.42
  -3   6   3   15.30    1.34
   3   6  -3   11.04    1.31
   3   6  -3   16.31    1.52
   3   6  -3   15.29    1.28
   2  -6  -3   56.99    2.70
  -2  -6   3   59.19    2.57
  -2  -6   3   52.44    2.49
  -2  -6   3   56.53    2.65
  -2  -6   3   52.33    2.44
   2  -6  -3   52.30    2.53
   2  -6  -3   52.43    2.51
   2   6  -3   61.30    2.80
  -2   6   3   58.37    2.70
   2   6  -3   51.53    2.52
   2   6  -3   49.20    2.51
  -2   6   3   51.97    2.63
   1  -6  -3    1.33    0.58
  -1  -6   3    0.93    0.97
   1  -6  -3    0.54    0.84
  -1  -6   3    0.32    0.73
   1  -6  -3    0.69    0.79
  -1  -6   3    0.47    0.75
  -1  -6   3    1.38    0.67
   1  -6  -3    0.93    0.85
  -1   6   3    0.64    0.62
   1   6  -3    0.25    0.89
   1   6  -3    1.60    0.94
   1   6  -3    0.80    0.55
  -1   6   3    0.88    0.83
   0  -6  -3   24.26    1.66
   0  -6   3   38.00    1.80
   0  -6  -3   34.84    1.79
   0  -6  -3   35.20    2.01
   0  -6  -3   35.76    2.05
   0  -6   3   34.17    1.87
   0  -6   3   29.44    2.11
   0   6   3   36.07    1.98
   0   6   3   33.76    1.99
   0   6  -3   32.13    2.15
   0   6  -3   34.94    2.14
   0   6  -3   31.48    1.78
  -1  -6  -3   21.10    1.64
   1  -6   3   19.54    1.24
  -1  -6  -3   13.69    1.28
  -1  -6  -3   21.05    1.49
  -1  -6  -3   15.53    1.44
   1  -6   3   16.11    1.38
  -1   6  -3   13.04    1.25
  -1   6  -3   16.00    1.10
  -1   6  -3   17.98    1.58
   1   6   3   18.82    1.60
  -2  -6  -3  100.22    4.03
  -2  -6  -3   97.91    3.99
   2  -6   3   98.94    3.60
  -2  -6  -3   96.74    3.95
   2  -6   3   95.51    3.99
   2   6   3   96.08    3.93
  -2   6  -3   93.65    4.12
  -2   6  -3   99.94    4.03
  -3  -6  -3   14.44    1.32
  -3  -6  -3   18.67    1.60
  -3  -6  -3   16.43    1.43
   3  -6   3   14.32    1.39
  -3   6  -3   15.37    1.45
   3   6   3   15.24    1.34
  -3   6  -3   16.43    1.59
   4  -6   3    7.87    0.98
  -4  -6  -3    8.65    1.11
  -4  -6  -3    7.26    1.11
  -4  -6  -3   11.52    1.53
  -4   6  -3    6.88    0.96
   4   6   3    8.00    1.09
  -5  -6  -3    0.39    0.85
   5  -6   3    0.36    0.93
  -5  -6  -3    0.93    0.91
  -5  -6  -3   -0.74    1.03
  -5   6  -3    0.52    0.91
   5   6   3    0.10    0.83
  -6  -6  -3   57.21    3.45
   6  -6   3   47.94    2.67
  -6  -6  -3   55.93    2.95
  -6  -6  -3   49.81    2.66
  -6   6  -3   48.47    2.65
   6   6   3   49.06    2.62
   6  -7  -3    3.40    1.29
  -6  -7   3    5.61    1.54
  -6  -7   3    3.05    1.26
  -6  -7   3    1.26    0.86
   6   7  -3    3.22    0.93
   6   7  -3    1.52    0.95
  -6   7   3    1.62    0.91
  -5  -7   3   47.32    2.81
   5  -7  -3   48.15    2.58
  -5  -7   3   49.64    2.75
  -5  -7   3   47.24    2.79
   5   7  -3   47.92    2.63
   5   7  -3   43.85    2.46
  -5   7   3   50.29    2.87
  -4  -7   3   10.40    1.47
  -4  -7   3   10.05    1.37
  -4  -7   3   12.42    1.49
   4  -7  -3   12.35    1.30
  -4  -7   3   10.61    1.25
   4  -7  -3   12.74    1.26
   4   7  -3   10.99    1.47
  -4   7   3   12.77    1.54
   4   7  -3   11.48    1.21
  -4   7   3   10.70    1.12
   4   7  -3    9.42    1.16
  -3  -7   3   13.08    1.28
  -3  -7   3   13.43    1.29
   3  -7  -3   13.29    1.31
  -3  -7   3   14.22    1.28
   3  -7  -3   14.10    1.32
  -3  -7   3   14.07    1.31
   3  -7  -3   13.82    1.32
   3   7  -3   11.78    1.28
  -3   7   3   14.28    1.46
   3   7  -3   10.41    1.33
   3   7  -3   13.90    1.54
  -3   7   3   12.95    1.52
  -2  -7   3    3.21    1.14
   2  -7  -3    2.18    0.71
  -2  -7   3    3.80    0.93
   2  -7  -3    3.16    1.07
  -2  -7   3    3.63    0.79
   2  -7  -3    2.33    0.83
   2   7  -3    3.35    0.87
  -2   7   3    3.66    1.09
   2   7  -3    2.78    0.99
   2   7  -3    3.34    0.89
  -2   7   3    3.97    0.85
  -1  -7   3    8.88    1.05
  -1  -7   3    7.48    1.34
  -1  -7   3    9.02    0.98
   1  -7  -3    9.90    1.27
   1  -7  -3    8.55    1.21
   1  -7  -3   10.21    1.34
   1   7  -3    7.23    1.33
   1   7  -3    8.22    1.36
   1   7  -3    9.79    1.19
  -1   7   3    8.22    1.04
  -1   7   3    9.91    1.11
   0  -7   3    0.88    1.05
   0  -7  -3    2.24    0.72
   0  -7  -3    2.14    1.03
   0  -7   3    1.54    0.78
   0  -7  -3    4.19    1.02
   0  -7  -3    4.11    0.83
   0   7   3    0.61    0.70
   0   7  -3    2.05    1.08
   0   7  -3    1.92    0.84
   0   7  -3    3.27    0.86
  -1  -7  -3   22.90    1.69
  -1  -7  -3   20.71    1.63
   1  -7   3   23.43    1.50
   1  -7   3   23.81    1.83
  -1  -7  -3   21.95    1.89
  -1   7  -3   24.48    2.09
  -1   7  -3   23.48    1.99
   1   7   3   23.21    1.62
  -2  -7  -3    4.01    0.90
  -2  -7  -3    4.22    1.08
  -2  -7  -3    3.82    1.13
   2  -7   3    4.97    0.97
  -2   7  -3    4.16    1.01
  -2   7  -3    3.63    0.91
   2   7   3    4.93    1.10
  -3  -7  -3   35.34    2.20
  -3  -7  -3   47.96    2.69
  -3  -7  -3   37.92    2.37
   3  -7   3   33.96    2.42
  -3   7  -3   33.09    2.39
   3   7   3   41.56    2.35
   4  -7   3    8.30    1.35
  -4  -7  -3    7.29    1.26
  -4  -7  -3    8.97    1.53
  -4  -7  -3    5.96    1.36
   4   7   3    5.67    1.16
  -4   7  -3    4.49    1.26
   3  -8  -3   29.71    2.37
   3  -8  -3   25.45    2.01
  -3  -8   3   30.06    2.06
  -3  -8   3   24.08    1.91
  -3  -8   3   28.44    2.18
  -3   8   3   28.26    2.06
   3   8  -3   30.12    2.02
   3   8  -3   28.59    2.23
  -3   8   3   31.86    2.00
   3   8  -3   28.82    2.39
   2  -8  -3   26.81    1.94
   2  -8  -3   25.88    1.99
  -2  -8   3   27.01    1.81
  -2  -8   3   24.88    1.94
   2  -8  -3   26.02    2.22
   2   8  -3   27.60    1.83
  -2   8   3   27.26    2.24
   2   8  -3   28.36    2.02
   2   8  -3   27.47    2.35
  -2   8   3   27.47    1.92
  -1  -8   3    0.04    0.88
   1  -8  -3   -1.54    0.95
   1  -8  -3    1.53    1.16
  -1  -8   3    0.21    1.17
   1  -8  -3    1.38    1.10
  -1   8   3    0.70    0.79
   1   8  -3   -0.29    0.79
   1   8  -3   -0.18    0.65
   1   8  -3   -0.86    0.78
   0  -8   3    0.26    0.60
   0  -8   3   -1.31    1.08
   0  -8  -3    1.61    1.08
   0  -8  -3    0.15    0.76
   0   8  -3    0.60    0.86
   0   8  -3   -0.05    0.83
   0   8   3    1.98    1.10
  -1  -8  -3   33.63    2.37
  -1  -8  -3   31.40    2.26
   1  -8   3   27.52    1.65
   1  -8   3   30.58    2.42
   1   8   3   29.32    1.97
  -1   8  -3   30.03    2.06
  -1   8  -3   28.08    2.46
  11   0  -4   -1.11    0.88
  11   0  -4   -0.22    1.02
 -11   0   4    1.04    1.54
 -11   0   4    1.71    1.06
 -11   0   4    1.25    1.16
  11   0  -4   -0.17    0.79
  10   0  -4   69.60    3.11
 -10   0   4   66.27    3.01
  10   0  -4   65.08    2.97
 -10   0   4   69.94    3.31
 -10   0   4   52.54    3.57
  10   0  -4   64.34    3.34
   9   0  -4   -0.11    0.70
  -9   0   4   -0.16    0.57
   9   0  -4    1.27    0.87
  -9   0   4    0.90    0.72
   9   0  -4    0.60    0.62
  -9   0   4    0.24    1.05
  -8   0   4  103.65    4.71
   8   0  -4  117.09    4.39
  -8   0   4  118.27    4.43
  -8   0   4  123.07    4.61
   8   0  -4  112.17    4.64
   7   0  -4   -0.29    0.61
  -7   0   4    0.68    0.84
   7   0  -4    0.12    0.67
  -7   0   4   -0.57    0.68
  -7   0   4    0.22    0.74
   7   0  -4    0.16    0.73
  -7   0   4    0.82    1.45
   6   0  -4  213.98    7.40
  -6   0   4  218.54    7.44
  -6   0   4  212.89    7.38
   6   0  -4  209.26    7.51
   6   0  -4  209.95    7.41
  -6   0   4  216.61    7.44
  -5   0   4   -0.35    0.43
   5   0  -4   -0.66    0.59
  -5   0   4    0.57    0.64
   5   0  -4    0.39    0.71
   5   0  -4   -0.75    0.57
  -5   0   4    0.77    0.44
  -4   0   4  101.74    3.80
   4   0  -4  102.61    3.85
  -4   0   4  105.59    3.79
   4   0  -4  107.12    3.84
  -4   0   4  102.95    3.81
   4   0  -4  105.67    3.76
  -3   0   4    0.10    0.55
   3   0  -4   -0.03    0.39
   3   0  -4   -0.10    0.56
  -3   0   4    0.29    0.49
   3   0  -4   -0.27    0.34
   3   0  -4    0.08    0.58
  -3   0   4    0.18    0.45
   2   0  -4  248.03    8.13
  -2   0   4  241.15    8.09
  -2   0   4  251.84    8.14
  -2   0   4  241.52    8.12
   2   0  -4  235.73    8.22
   2   0  -4  245.07    8.19
   2   0  -4  242.70    8.15
  -1   0   4   -0.09    0.29
   1   0  -4    0.37    0.30
   1   0  -4   -0.18    0.46
  -1   0   4   -0.03    0.26
   1   0  -4   -0.23    0.26
  -1   0   4    0.22    0.39
   0   0   4   55.06    1.89
   0   0  -4   53.95    1.90
   0   0  -4   53.23    1.90
   0   0   4   54.18    1.82
   0   0   4   52.04    1.88
  -1   0  -4    0.90    0.57
  -1   0  -4   -0.02    0.11
  -1   0  -4   -0.18    0.29
   1   0   4   -0.13    0.11
  -1   0  -4   -0.05    0.14
   1   0   4   -0.01    0.11
  -2   0  -4  132.81    4.44
  -2   0  -4  130.77    4.66
  -2   0  -4  132.04    4.47
  -3   0  -4    0.15    0.26
  -3   0  -4    0.18    0.44
  -3   0  -4    0.07    0.21
  -4   0  -4  138.98    4.69
  -4   0  -4  137.63    5.05
  -5   0  -4   -0.34    0.52
  -5   0  -4   -0.19    0.25
  -5   0  -4    0.02    0.16
   5   0   4    0.08    0.11
  -5   0  -4   -0.19    0.14
   6   0   4  101.45    3.53
  -6   0  -4  108.58    4.21
  -7   0  -4    0.63    0.93
   7   0   4    0.07    0.33
  -8   0  -4   24.51    1.79
   8   0   4   26.02    1.30
  -9   0  -4   -0.17    1.10
   9   0   4    0.53    0.55
  -9   0  -4   -0.35    0.45
 -11  -1   4   19.09    1.91
 -11  -1   4   22.38    1.87
 -11  -1   4   21.27    2.53
  11  -1  -4   24.42    2.04
  11  -1  -4   21.42    2.13
 -11  -1   4   25.54    2.07
 -11   1   4   23.59    1.86
 -11   1   4   24.75    2.05
 -11   1   4   24.42    2.30
  11   1  -4   20.26    1.82
  11   1  -4   22.96    1.92
 -10  -1   4    1.20    1.16
 -10  -1   4    1.03    0.74
  10  -1  -4    0.59    0.95
  10  -1  -4    1.27    0.89
 -10  -1   4    2.57    1.16
  10   1  -4    2.29    1.03
 -10   1   4    2.55    1.02
 -10   1   4   -0.05    0.74
  10   1  -4    1.81    1.02
 -10   1   4    0.95    0.95
  10   1  -4    1.25    0.83
  -9  -1   4  103.72    4.09
  -9  -1   4   89.73    4.71
   9  -1  -4  105.94    4.29
  -9  -1   4  103.06    4.15
   9  -1  -4  102.30    4.13
   9   1  -4  101.22    4.23
  -9   1   4  105.66    4.14
   9   1  -4  104.72    3.98
   9   1  -4  102.72    4.04
  -9   1   4   85.76    4.18
  -8  -1   4   95.65    3.84
   8  -1  -4   97.84    3.98
   8  -1  -4   93.25    3.75
  -8  -1   4   98.10    3.89
  -8  -1   4   95.24    4.21
  -8   1   4   97.57    3.84
   8   1  -4   95.19    3.84
   8   1  -4   95.55    3.81
  -8   1   4   78.40    4.18
   8   1  -4  100.41    3.96
   7  -1  -4   29.12    2.02
  -7  -1   4   25.52    1.68
  -7   1   4   17.28    1.88
   7   1  -4   25.21    1.56
  -6  -1   4   38.29    2.40
   6  -1  -4   40.33    1.87
   6  -1  -4   41.25    1.83
  -6  -1   4   41.85    1.90
  -6  -1   4   35.40    1.97
   6  -1  -4   40.94    2.05
  -6  -1   4   39.54    2.00
   6   1  -4   40.05    1.85
   6   1  -4   39.99    2.08
   6   1  -4   37.17    1.82
  -6   1   4   39.84    1.80
  -6   1   4   39.02    2.03
   6   1  -4   36.45    1.83
  -5  -1   4  295.64    9.81
   5  -1  -4  290.15    9.83
  -5  -1   4  298.12    9.86
   5  -1  -4  293.20    9.85
  -5  -1   4  296.62    9.89
   5  -1  -4  281.21    9.94
   5   1  -4  288.96    9.87
   5   1  -4  282.98    9.90
   5   1  -4  285.48    9.81
  -5   1   4  292.72    9.81
  -5   1   4  290.64    9.85
   5   1  -4  289.58    9.87
  -4  -1   4   45.38    1.97
   4  -1  -4   46.23    1.92
   4  -1  -4   47.59    1.94
   4  -1  -4   43.73    2.16
  -4  -1   4   47.69    2.03
  -4  -1   4   43.09    2.03
  -4   1   4   48.06    2.02
   4   1  -4   45.87    2.08
   4   1  -4   46.30    2.03
   4   1  -4   44.58    1.94
  -4   1   4   45.72    1.99
   4   1  -4   46.28    2.00
  -3  -1   4    4.98    0.60
  -3  -1   4    4.69    0.70
   3  -1  -4    4.77    0.55
   3  -1  -4    4.30    0.65
   3  -1  -4    3.96    0.62
  -3  -1   4    4.32    0.62
   3   1  -4    3.97    0.62
  -3   1   4    4.27    0.65
   3   1  -4    4.94    0.68
   3   1  -4    3.85    0.56
  -3   1   4    4.05    0.49
  -2  -1   4  270.43    8.96
   2  -1  -4  271.60    8.99
  -2  -1   4  261.49    8.96
   2  -1  -4  264.90    9.06
   2  -1  -4  271.80    8.96
  -2  -1   4  267.21    8.90
   2   1  -4  268.84    9.00
   2   1  -4  269.61    8.94
   2   1  -4  274.47    9.03
  -2   1   4  270.78    8.97
   1  -1  -4  495.78   17.17
  -1  -1   4  551.68   17.19
   1  -1  -4  537.76   17.23
  -1  -1   4  521.80   17.15
   1  -1  -4  559.64   17.16
  -1  -1   4  539.79   17.09
   1   1  -4  518.13   17.13
   1   1  -4  547.71   17.21
   1   1  -4  488.26   17.23
  -1   1   4  492.49   17.15
   0  -1   4    9.81    0.70
   0  -1   4   11.59    0.59
   0  -1  -4   11.16    0.82
   0  -1  -4    9.98    0.63
   0  -1  -4    9.15    0.79
   0  -1  -4   10.58    0.50
   0   1  -4    9.74    0.60
   0   1   4   10.44    0.63
   0   1  -4    9.65    0.83
   0   1  -4   11.02    0.48
   0   1  -4   10.99    0.69
  -1  -1  -4   -0.12    0.40
  -1  -1  -4    0.27    0.19
   1  -1   4    0.45    0.22
   1  -1   4    0.33    0.16
  -1  -1  -4   -0.13    0.22
  -1  -1  -4   -0.06    0.40
  -1   1  -4    0.11    0.21
   1   1   4   -0.14    0.17
  -1   1  -4    0.18    0.17
   1   1   4    0.09    0.19
  -1   1  -4   -0.02    0.39
  -2  -1  -4   12.79    0.55
  -2  -1  -4   12.98    1.15
   2  -1   4   11.86    0.51
  -2  -1  -4   12.76    0.54
   2  -1   4   12.61    0.49
  -2  -1  -4   13.11    0.74
   2   1   4   12.79    0.51
   2   1   4   12.21    0.53
  -2   1  -4   11.90    0.54
  -2   1  -4   12.53    0.97
  -2   1  -4   12.61    0.51
  -2   1  -4   12.99    0.72
  -3  -1  -4  264.21    8.66
  -3  -1  -4  270.38    8.90
  -3  -1  -4  267.40    9.14
  -3  -1  -4  269.92    8.66
   3   1   4  264.73    8.64
  -3   1  -4  264.21    8.87
   3   1   4  259.03    8.64
  -3   1  -4  264.88    8.63
  -3   1  -4  269.50    9.00
  -4  -1  -4   10.57    1.01
  -4  -1  -4   10.29    0.48
  -4  -1  -4    9.48    0.48
   4  -1   4    9.38    0.42
  -4  -1  -4    9.40    0.79
  -4   1  -4   10.23    0.74
   4   1   4    9.46    0.46
   4   1   4    9.48    0.47
  -4   1  -4   10.00    0.46
  -4   1  -4   10.46    0.66
  -4   1  -4   10.50    0.87
  -4   1  -4    9.74    0.45
  -5  -1  -4   22.57    0.93
   5  -1   4   21.97    0.89
  -5  -1  -4   22.48    0.92
  -5  -1  -4   20.86    1.17
  -5  -1  -4   22.33    1.50
   5  -1   4   22.61    0.88
  -5   1  -4   21.39    1.47
   5   1   4   21.66    0.92
  -5   1  -4   22.34    0.90
  -5   1  -4   22.02    0.90
  -6  -1  -4    3.00    0.77
  -7  -1  -4  153.17    5.69
  -7  -1  -4  148.32    5.06
   7  -1   4  136.07    4.99
   7   1   4  143.61    5.03
  -7   1  -4  154.28    5.55
   8  -1   4   11.94    0.98
  -8  -1  -4   12.18    0.92
  -8  -1  -4   12.71    1.65
   8   1   4   13.67    1.01
  -8   1  -4   16.46    1.49
 -10  -2   4   17.57    1.95
 -10  -2   4   18.45    1.59
 -10  -2   4   18.20    1.66
  10  -2  -4   16.28    1.46
  10  -2  -4   17.42    1.74
  10   2  -4   17.14    1.61
  10   2  -4   17.41    1.45
 -10   2   4   18.91    1.78
 -10   2   4   16.24    1.74
   9  -2  -4   42.11    2.37
   9  -2  -4   39.99    2.43
  -9  -2   4   41.63    2.36
  -9  -2   4   36.67    2.15
  -9  -2   4   33.77    3.18
  -9   2   4   39.20    2.43
  -9   2   4   34.21    2.50
   9   2  -4   36.16    2.27
   9   2  -4   42.68    2.14
   8  -2  -4  129.99    4.94
  -8  -2   4  133.79    5.01
  -8  -2   4  128.38    5.55
  -8   2   4  113.44    5.02
   8   2  -4  129.67    4.76
  -8   2   4  128.64    4.91
   8   2  -4  131.64    4.94
   7  -2  -4    4.34    0.86
  -7  -2   4    4.05    1.23
  -7  -2   4    4.02    0.91
   7  -2  -4    4.52    0.76
  -7   2   4    2.72    1.24
   7   2  -4    2.97    0.87
  -7   2   4    4.70    0.97
  -7   2   4    4.01    0.80
   7   2  -4    3.52    0.83
   7   2  -4    3.46    0.64
  -6  -2   4   18.93    1.99
   6  -2  -4   18.61    1.35
  -6  -2   4   17.93    1.48
   6  -2  -4   18.18    1.40
   6   2  -4   15.67    1.39
  -6   2   4   19.07    1.20
   6   2  -4   17.48    1.46
   6   2  -4   17.95    1.38
  -6   2   4   20.77    1.52
   5  -2  -4  101.27    3.81
  -5  -2   4  107.67    3.92
  -5  -2   4   93.14    4.46
   5  -2  -4  103.14    3.88
  -5  -2   4  101.67    3.85
  -5   2   4  108.07    3.87
   5   2  -4  102.39    3.81
   5   2  -4  101.62    3.84
  -5   2   4  102.37    3.88
   5   2  -4  101.99    3.80
  -4  -2   4  417.40   13.93
   4  -2  -4  426.62   13.97
   4  -2  -4  414.92   13.92
  -4  -2   4  412.38   13.96
   4   2  -4  412.56   13.93
  -4   2   4  423.38   13.95
  -4   2   4  413.33   13.90
   4   2  -4  427.04   13.98
   4   2  -4  419.58   13.99
   3  -2  -4    0.18    0.54
  -3  -2   4    0.21    0.46
  -3  -2   4    0.52    0.53
   3  -2  -4    0.70    0.55
   3   2  -4    1.03    0.39
   3   2  -4    0.06    0.60
   3   2  -4   -0.61    0.38
  -3   2   4    0.59    0.55
   2  -2  -4  102.27    3.70
  -2  -2   4  103.01    3.67
   2  -2  -4  101.15    3.67
  -2  -2   4  100.37    3.63
   2  -2  -4  101.52    3.67
   2   2  -4  102.25    3.70
  -2   2   4  103.07    3.64
   2   2  -4  101.01    3.63
   2   2  -4  103.38    3.69
   1  -2  -4  105.78    3.76
   1  -2  -4  105.66    3.86
   1  -2  -4  103.60    3.79
  -1  -2   4  105.31    3.83
   1  -2  -4  111.33    3.82
  -1  -2   4  108.89    3.75
   1  -2  -4  108.31    3.85
   1   2  -4  109.22    3.71
  -1   2   4  109.50    3.78
   1   2  -4  107.82    3.84
   1   2  -4  104.84    3.84
   0  -2  -4  386.21   12.64
   0  -2  -4  412.42   12.78
   0  -2  -4  362.98   12.66
   0  -2  -4  398.89   12.61
   0  -2  -4  365.08   12.77
   0  -2   4  367.01   12.59
   0  -2   4  402.07   12.68
   0   2   4  371.45   12.64
   0   2  -4  391.34   12.78
   0   2  -4  393.92   12.69
   0   2  -4  377.58   12.57
  -1  -2  -4   27.61    1.29
  -1  -2  -4   27.66    1.54
  -1  -2  -4   27.30    1.20
   1  -2   4   26.93    1.17
  -1   2  -4   28.71    1.24
  -1   2  -4   28.14    1.42
  -1   2  -4   29.07    1.18
   1   2   4   28.46    1.19
  -2  -2  -4  188.36    6.31
  -2  -2  -4  189.23    6.64
   2  -2   4  191.26    6.27
  -2  -2  -4  187.48    6.20
  -2  -2  -4  186.81    6.31
  -2  -2  -4  188.60    6.48
   2   2   4  190.77    6.30
  -2   2  -4  187.72    6.29
  -2   2  -4  188.02    6.48
   2   2   4  188.34    6.29
  -2   2  -4  184.40    6.20
  -2   2  -4  191.82    6.31
  -3  -2  -4   64.08    2.28
  -3  -2  -4   64.20    2.28
   3  -2   4   64.92    2.23
  -3  -2  -4   62.98    2.78
  -3  -2  -4   64.51    2.52
  -3   2  -4   62.23    2.25
  -3   2  -4   64.56    2.28
   3   2   4   61.28    2.28
  -3   2  -4   60.80    2.23
  -3   2  -4   63.71    2.45
   3   2   4   62.36    2.25
   4  -2   4   49.34    1.79
  -4  -2  -4   50.02    1.85
  -4  -2  -4   50.61    2.05
  -4  -2  -4   47.92    1.86
  -4  -2  -4   47.99    2.45
   4   2   4   49.77    1.85
  -4   2  -4   47.87    2.05
  -4   2  -4   50.12    1.81
   4   2   4   47.85    1.82
  -4   2  -4   48.00    2.05
  -4   2  -4   48.78    1.83
  -4   2  -4   48.18    1.83
  -5  -2  -4    7.36    0.81
   5  -2   4    7.03    0.59
  -5  -2  -4    7.93    1.02
  -5  -2  -4    6.63    0.55
   5   2   4    6.91    0.57
  -5   2  -4    7.25    0.61
  -5   2  -4    7.81    0.67
  -5   2  -4    6.62    0.80
  -6  -2  -4   51.51    2.71
  -6  -2  -4   62.40    2.42
  -6  -2  -4   57.17    2.18
   6  -2   4   45.95    2.05
  -6   2  -4   59.22    2.15
  -6   2  -4   54.83    2.40
  -6   2  -4   54.85    2.19
   6   2   4   56.16    2.14
  -7  -2  -4   17.77    1.61
  -7  -2  -4   15.92    1.00
  -7  -2  -4   15.17    1.25
   7  -2   4   16.52    1.09
  -7   2  -4   15.88    1.00
   7   2   4   16.68    1.08
  -7   2  -4   16.83    1.35
  -8  -2  -4    0.53    0.57
   8  -2   4    0.82    0.60
  -8  -2  -4   -0.38    1.22
  -8   2  -4    0.61    0.54
   8   2   4    0.41    0.54
 -10  -3   4   30.02    2.34
 -10  -3   4   31.17    2.69
 -10  -3   4   29.97    2.25
  10  -3  -4   31.43    2.27
 -10   3   4   30.54    2.03
  10   3  -4   24.78    2.17
  -9  -3   4    2.26    1.25
  -9  -3   4    4.76    0.98
  -9  -3   4    2.89    1.06
   9  -3  -4    2.89    0.82
   9   3  -4    3.76    0.71
  -9   3   4    5.19    1.19
   9   3  -4    4.04    1.09
  -8  -3   4    4.55    1.13
  -8  -3   4    2.29    0.99
  -8   3   4    1.91    1.00
  -8   3   4    3.86    1.00
  -7  -3   4   84.15    3.48
  -7  -3   4   83.94    3.82
   7  -3  -4   83.28    3.42
  -7  -3   4   86.58    3.57
  -7   3   4   82.08    3.48
   7   3  -4   69.62    3.33
  -7   3   4   80.24    3.16
   7   3  -4   85.24    3.32
   7   3  -4   77.63    3.39
  -7   3   4   72.27    3.38
   6  -3  -4    2.42    0.61
   6  -3  -4    1.47    0.65
  -6  -3   4    2.45    0.86
  -6  -3   4    1.35    1.58
  -6   3   4    1.90    0.77
   6   3  -4    1.18    0.61
  -6   3   4    2.21    0.86
   6   3  -4    2.01    0.82
   6   3  -4    0.39    0.70
   5  -3  -4   52.77    2.32
  -5  -3   4   47.34    2.35
   5  -3  -4   52.29    2.36
  -5  -3   4   45.57    3.05
   5   3  -4   50.10    2.37
   5   3  -4   50.70    2.30
   5   3  -4   48.10    2.32
  -5   3   4   52.33    2.19
  -4  -3   4    3.00    0.60
   4  -3  -4    4.02    0.78
   4  -3  -4    3.02    0.77
  -4  -3   4    4.08    1.10
   4   3  -4    3.33    0.74
   4   3  -4    3.96    0.68
  -4   3   4    4.04    0.78
   4   3  -4    3.99    0.62
  -3  -3   4  213.79    7.31
   3  -3  -4  206.80    7.27
   3  -3  -4  206.99    7.24
   3  -3  -4  211.91    7.28
   3   3  -4  213.82    7.30
   3   3  -4  210.86    7.23
   3   3  -4  209.06    7.34
  -3   3   4  215.82    7.28
   2  -3  -4   46.16    1.95
  -2  -3   4   45.91    1.90
   2  -3  -4   46.36    1.94
   2  -3  -4   46.62    2.01
   2   3  -4   42.91    1.92
   2   3  -4   44.47    2.08
   2   3  -4   48.29    2.10
  -2   3   4   47.15    1.92
  -2   3   4   45.95    1.98
  -1  -3   4   68.78    2.63
   1  -3  -4   68.64    2.66
   1  -3  -4   73.53    2.74
   1  -3  -4   69.86    2.66
   1  -3  -4   67.68    2.68
   1   3  -4   70.17    2.69
  -1   3   4   70.22    2.69
   1   3  -4   71.28    2.58
   1   3  -4   70.70    2.81
  -1   3   4   67.09    2.65
   0  -3   4  101.04    3.66
   0  -3  -4  103.44    3.84
   0  -3  -4  100.28    3.81
   0  -3  -4   97.93    3.72
   0  -3   4  100.59    3.67
   0  -3  -4  122.56    3.73
   0   3  -4  104.65    3.84
   0   3   4   97.47    3.69
   0   3  -4   99.00    3.63
   0   3  -4  119.04    3.85
   1  -3   4   53.93    1.98
   1  -3   4   58.45    2.12
  -1  -3  -4   54.61    2.16
  -1  -3  -4   51.80    2.37
  -1  -3  -4   53.93    2.21
  -1  -3  -4   51.55    1.97
  -1  -3  -4   52.88    2.01
  -1   3  -4   53.94    2.19
  -1   3  -4   53.89    1.97
  -1   3  -4   56.43    2.26
   1   3   4   53.42    2.13
   2  -3   4   45.21    1.58
  -2  -3  -4   45.33    1.85
  -2  -3  -4   44.85    2.20
  -2  -3  -4   43.81    1.94
   2   3   4   43.25    1.82
  -2   3  -4   44.74    1.97
  -2   3  -4   43.73    1.80
  -3  -3  -4   85.17    3.51
  -3  -3  -4   86.55    3.21
  -3  -3  -4   89.02    3.42
   3   3   4   88.66    3.19
  -3   3  -4   87.83    3.21
  -3   3  -4   88.33    3.43
  -4  -3  -4    0.42    0.68
   4  -3   4    1.39    0.51
  -4  -3  -4    0.20    0.68
  -4  -3  -4    1.00    0.45
  -4   3  -4    1.18    0.40
  -4   3  -4    0.46    0.49
   4   3   4    0.58    0.44
  -4   3  -4    1.58    0.70
  -5  -3  -4    8.08    0.73
  -5  -3  -4    7.14    0.93
   5  -3   4    7.92    0.72
  -5  -3  -4    7.16    1.28
  -5   3  -4    9.23    0.74
  -5   3  -4    7.77    0.72
   5   3   4    7.58    0.70
   6  -3   4  149.46    5.27
  -6  -3  -4  154.93    5.34
  -6  -3  -4  146.68    5.53
  -6  -3  -4  150.86    6.00
  -6   3  -4  149.26    5.31
   6   3   4  151.60    5.29
  -7  -3  -4   35.39    1.85
  -7  -3  -4   31.23    1.69
  -7  -3  -4   44.33    2.85
   7  -3   4   38.09    1.83
   7   3   4   34.95    1.71
  -7   3  -4   35.76    1.73
  -8  -3  -4    1.99    0.85
  -8  -3  -4    1.72    1.07
  -8  -3  -4    2.26    0.64
   8  -3   4    1.63    0.65
  -8   3  -4    1.46    0.62
   8   3   4    2.48    0.65
  -9  -4   4    7.78    1.35
  -9  -4   4    9.80    1.27
   9  -4  -4   10.18    1.40
  -9  -4   4    7.51    2.04
   9   4  -4    8.32    1.31
  -9   4   4    6.52    1.31
   9   4  -4    8.09    0.94
   8  -4  -4   32.64    2.17
  -8  -4   4   28.44    2.27
  -8  -4   4   32.80    2.18
  -8  -4   4   27.07    2.55
  -8   4   4   25.80    1.85
   8   4  -4   32.68    1.87
   8   4  -4   27.70    2.05
  -7  -4   4   47.40    2.72
  -7  -4   4   48.86    2.93
  -7  -4   4   48.40    2.62
   7  -4  -4   51.45    2.43
   7   4  -4   46.21    2.55
  -7   4   4   51.34    2.44
  -7   4   4   50.30    2.41
   7   4  -4   50.53    2.41
  -6  -4   4   14.06    1.30
  -6  -4   4   15.70    1.32
   6  -4  -4   14.79    1.35
  -6  -4   4   13.27    1.59
   6  -4  -4   15.95    1.32
  -6   4   4   16.06    1.39
  -6   4   4   14.72    1.21
   6   4  -4   16.63    1.32
   6   4  -4   15.98    1.38
   6   4  -4   17.45    1.44
  -5  -4   4   -0.41    0.88
   5  -4  -4    0.12    0.60
   5  -4  -4   -0.35    0.52
  -5  -4   4    0.68    0.59
  -5  -4   4   -0.36    1.42
   5   4  -4    1.09    0.86
   5   4  -4    0.10    0.57
   5   4  -4    1.10    0.76
  -5   4   4    1.31    0.80
  -5   4   4    0.15    0.75
  -4  -4   4    0.58    0.82
   4  -4  -4    2.08    0.80
  -4  -4   4   -0.26    0.70
  -4  -4   4    0.26    1.34
   4  -4  -4    1.05    0.81
  -4   4   4    0.38    0.52
   4   4  -4    0.45    0.72
   4   4  -4    1.41    0.64
  -4   4   4    0.41    0.73
   4   4  -4    0.48    0.73
   3  -4  -4   67.71    2.83
  -3  -4   4   64.98    3.24
  -3  -4   4   66.04    2.83
   3  -4  -4   68.91    2.75
   3  -4  -4   62.55    2.78
  -3  -4   4   67.57    2.79
   3   4  -4   70.02    2.86
   3   4  -4   64.26    2.75
  -3   4   4   65.93    2.80
  -3   4   4   66.75    2.82
   3   4  -4   62.33    2.64
   2  -4  -4   25.58    1.40
   2  -4  -4   27.31    1.55
  -2  -4   4   24.24    2.09
  -2  -4   4   25.34    1.37
   2  -4  -4   24.36    1.43
  -2  -4   4   25.46    1.54
  -2   4   4   28.33    1.44
   2   4  -4   27.83    1.69
   2   4  -4   26.65    1.50
  -2   4   4   26.85    1.57
   2   4  -4   29.11    1.53
   1  -4  -4   13.36    1.24
   1  -4  -4   16.74    1.18
  -1   4   4   16.71    1.19
   1   4  -4   15.22    1.10
  -1   4   4   17.02    1.28
   0  -4  -4   59.18    2.54
   0  -4   4   56.03    2.30
   0  -4  -4   59.23    2.40
   0  -4   4   59.45    2.35
   0  -4  -4   60.39    2.39
   0  -4  -4   62.48    2.53
   0   4  -4   57.05    2.49
   0   4  -4   56.03    2.30
   0   4   4   61.21    2.40
   0   4   4   57.70    2.37
   0   4  -4   58.13    2.54
   1  -4   4   47.15    1.96
  -1  -4  -4   49.03    2.18
  -1  -4  -4   49.95    2.18
  -1  -4  -4   50.73    2.23
   1  -4   4   50.99    1.94
  -1  -4  -4   49.00    2.03
   1   4   4   48.49    2.03
  -1   4  -4   50.47    2.24
  -1   4  -4   49.14    1.94
   1   4   4   47.88    2.15
  -1   4  -4   54.56    2.28
   2  -4   4   59.92    2.21
  -2  -4  -4   61.48    2.55
  -2  -4  -4   61.52    2.81
  -2  -4  -4   65.74    2.73
   2   4   4   62.35    2.53
  -2   4  -4   62.98    2.51
  -2   4  -4   60.18    2.64
  -3  -4  -4    6.70    0.97
   3  -4   4    7.04    0.87
  -3  -4  -4    7.35    0.72
  -3  -4  -4    8.16    0.86
   3   4   4    7.29    0.79
  -3   4  -4    7.96    0.87
  -3   4  -4    8.15    1.05
  -4  -4  -4  119.87    4.65
  -4  -4  -4  122.16    4.42
  -4  -4  -4  120.19    4.80
   4  -4   4  123.70    4.45
  -4   4  -4  121.01    4.30
   4   4   4  124.98    4.44
  -4   4  -4  115.42    4.39
  -4   4  -4  123.55    4.61
   5  -4   4   83.96    3.23
  -5  -4  -4   81.85    3.49
  -5  -4  -4   80.40    3.24
  -5  -4  -4   87.71    3.92
  -5   4  -4   78.16    3.12
   5   4   4   84.36    3.23
  -5   4  -4   81.39    3.23
  -6  -4  -4    4.56    0.75
   6  -4   4    4.18    0.78
  -6  -4  -4    4.52    1.41
  -6  -4  -4    5.70    1.04
   6   4   4    5.28    0.77
  -6   4  -4    2.74    0.74
  -7  -4  -4    3.32    1.44
   7  -4   4    5.13    0.83
  -7  -4  -4    2.58    0.72
  -7  -4  -4    3.08    0.75
  -7   4  -4    2.70    0.78
   7   4   4    0.83    0.67
  -9  -5   4    3.01    1.46
   9  -5  -4    1.78    1.15
  -9  -5   4    1.89    1.27
  -9  -5   4    1.34    1.23
  -9   5   4    2.42    1.23
   9   5  -4    1.03    1.16
   8  -5  -4    0.39    0.78
  -8  -5   4    1.92    1.73
  -8  -5   4    0.39    1.05
  -8  -5   4    1.57    1.18
  -8   5   4    1.13    1.03
   8   5  -4    2.62    1.08
   8   5  -4    0.38    0.77
   7  -5  -4    8.82    1.26
  -7  -5   4    6.70    1.70
  -6  -5   4  115.73    4.80
   6  -5  -4  121.00    4.74
  -6  -5   4  111.17    4.73
  -6  -5   4  117.33    4.93
   6   5  -4  115.50    4.70
   6   5  -4  117.22    4.59
  -6   5   4  118.53    4.57
   6   5  -4  120.88    4.61
  -6   5   4  121.30    4.76
  -5  -5   4    4.24    1.43
  -5  -5   4    3.23    0.95
  -5  -5   4    2.85    1.05
   5  -5  -4    2.05    0.97
   5  -5  -4    1.60    0.66
   5   5  -4    3.33    0.92
  -5   5   4    2.07    0.91
  -5   5   4    1.86    0.73
   5   5  -4    2.13    0.97
   5   5  -4    1.68    0.68
   4  -5  -4  106.31    3.97
  -4  -5   4   99.76    4.10
  -4  -5   4  100.47    4.16
  -4  -5   4   98.46    3.98
   4  -5  -4  101.96    3.98
   4  -5  -4  103.91    3.99
   4   5  -4   99.96    4.03
  -4   5   4  102.68    4.13
  -4   5   4  102.49    4.03
   4   5  -4  100.42    4.06
   4   5  -4   99.98    4.12
  -3  -5   4   10.46    1.01
   3  -5  -4   12.18    1.17
   3  -5  -4   11.28    1.05
   3  -5  -4   12.32    1.13
  -3  -5   4   10.62    1.00
  -3  -5   4   10.74    1.43
   3   5  -4    9.10    0.99
   3   5  -4    9.33    1.20
   3   5  -4   10.41    1.10
  -3   5   4    9.37    1.16
  -3   5   4    9.17    1.10
  -2  -5   4  212.00    7.52
   2  -5  -4  209.31    7.51
  -2  -5   4  222.79    7.61
   2  -5  -4  214.41    7.54
  -2  -5   4  212.91    7.46
   2  -5  -4  215.84    7.53
  -2   5   4  211.88    7.52
   2   5  -4  217.25    7.63
   2   5  -4  208.84    7.44
  -2   5   4  211.01    7.52
   2   5  -4  210.67    7.55
   1  -5  -4    4.72    0.74
  -1  -5   4    5.18    0.78
   1  -5  -4    5.84    0.94
   1  -5  -4    6.45    0.83
  -1  -5   4    3.35    0.93
   1  -5  -4    6.07    0.90
  -1   5   4    5.99    0.91
   1   5  -4    5.37    0.84
  -1   5   4    6.78    0.92
   1   5  -4    4.34    1.02
   1   5  -4    5.95    0.80
   0  -5  -4  168.83    6.05
   0  -5   4  169.33    5.98
   0  -5   4  176.55    5.98
   0  -5  -4  166.58    6.15
   0  -5   4  164.67    5.99
   0  -5  -4  172.43    6.14
   0  -5  -4  177.02    6.19
   0   5   4  172.93    6.10
   0   5  -4  176.45    6.23
   0   5  -4  170.69    6.22
   0   5  -4  166.34    5.95
   0   5   4  168.41    6.12
  -1  -5  -4   29.14    1.82
  -1  -5  -4   30.12    1.59
  -1  -5  -4   29.78    1.67
   1  -5   4   31.52    1.44
  -1  -5  -4   29.10    1.62
   1  -5   4   28.80    1.41
  -1   5  -4   29.88    1.87
  -1   5  -4   29.67    1.45
  -1   5  -4   30.89    1.99
   1   5   4   30.56    1.59
   2  -5   4   18.38    1.57
  -2  -5  -4   20.50    1.47
  -2  -5  -4   20.34    1.63
  -2  -5  -4   18.26    1.46
   2  -5   4   20.73    1.01
   2   5   4   20.77    1.48
  -2   5  -4   18.86    1.46
  -2   5  -4   21.16    1.58
   3  -5   4    7.07    0.83
  -3  -5  -4    7.70    0.86
  -3  -5  -4    9.47    1.36
  -3  -5  -4    7.37    1.14
   3   5   4    6.07    0.90
  -3   5  -4    7.09    0.97
  -3   5  -4    7.89    1.01
  -4  -5  -4  188.83    6.88
  -4  -5  -4  188.83    7.11
   4  -5   4  182.17    6.59
  -4  -5  -4  187.68    6.69
  -4   5  -4  183.09    6.81
   4   5   4  186.07    6.63
  -4   5  -4  186.37    6.68
  -5  -5  -4   26.21    2.45
  -5  -5  -4   24.92    1.65
   5  -5   4   25.58    1.74
  -5  -5  -4   26.92    1.96
  -5   5  -4   24.52    1.69
   5   5   4   24.34    1.65
  -6  -5  -4    2.08    1.05
   6  -5   4    0.75    0.60
  -6  -5  -4    0.96    0.75
  -6  -5  -4    3.27    0.83
   6   5   4    2.22    0.81
  -6   5  -4    1.36    0.81
  -7  -6   4   58.30    3.15
  -7  -6   4   54.82    2.95
   7  -6  -4   62.95    3.18
  -7  -6   4   61.21    3.77
  -7   6   4   57.77    3.10
   7   6  -4   57.55    2.72
   7   6  -4   57.75    3.09
  -6  -6   4    0.71    1.43
  -6  -6   4   -0.17    0.67
   6  -6  -4    1.22    1.09
  -6  -6   4    0.61    1.10
  -6  -6   4   -0.04    0.99
  -6   6   4    0.81    1.06
   6   6  -4   -0.58    0.67
   6   6  -4   -0.53    0.83
   5  -6  -4   16.76    1.57
  -5  -6   4   17.30    1.87
  -5  -6   4   14.87    1.57
   5   6  -4   21.85    1.92
  -5   6   4   15.56    1.42
   5   6  -4   16.56    1.40
  -5   6   4   13.10    1.37
   5   6  -4   15.47    1.34
   4  -6  -4   32.13    1.91
  -4  -6   4   29.36    1.89
   4  -6  -4   31.27    1.92
  -4  -6   4   33.15    1.94
   4  -6  -4   39.93    2.27
  -4  -6   4   34.99    2.40
  -4   6   4   34.27    2.14
   4   6  -4   31.78    2.11
   4   6  -4   31.01    2.11
   4   6  -4   32.23    2.00
  -4   6   4   31.80    1.96
  -3  -6   4  258.59    9.25
   3  -6  -4  267.34    9.37
  -3  -6   4  266.37    9.34
   3  -6  -4  264.77    9.32
   3  -6  -4  263.65    9.22
  -3  -6   4  261.48    9.25
   3   6  -4  258.77    9.19
  -3   6   4  271.43    9.25
  -3   6   4  263.67    9.33
   3   6  -4  264.65    9.31
   3   6  -4  261.94    9.34
  -2  -6   4   18.32    1.34
   2  -6  -4   19.69    1.47
  -2  -6   4   22.08    1.65
  -2  -6   4   19.81    1.39
   2  -6  -4   19.96    1.40
   2  -6  -4   19.72    1.44
  -2   6   4   19.62    1.70
   2   6  -4   17.62    1.58
  -2   6   4   19.07    1.53
   2   6  -4   22.38    1.85
   2   6  -4   22.94    1.57
  -1  -6   4   21.77    1.54
   1  -6  -4   18.92    1.67
   1   6  -4   17.85    1.41
  -1   6   4   17.81    1.35
   0  -6   4   10.10    1.29
   0  -6   4    9.90    0.95
   0  -6  -4   11.41    1.24
   0  -6  -4    8.96    0.95
   0  -6  -4   10.57    1.24
   0  -6  -4   10.24    1.10
   0   6  -4   10.53    1.27
   0   6  -4    7.64    1.04
   0   6   4    7.41    1.08
   0   6  -4    9.66    0.99
   1  -6   4  196.47    6.95
  -1  -6  -4  193.42    7.07
  -1  -6  -4  192.24    6.95
  -1  -6  -4  191.55    7.03
   1  -6   4  184.16    6.67
   1   6   4  193.85    6.97
  -1   6  -4  185.18    7.06
  -1   6  -4  206.90    7.11
   2  -6   4   49.79    2.58
  -2  -6  -4   59.91    2.64
  -2  -6  -4   51.48    2.51
  -2  -6  -4   49.42    2.50
  -2   6  -4   49.25    2.57
  -2   6  -4   47.52    2.59
   2   6   4   48.46    2.34
  -3  -6  -4   56.26    2.90
  -3  -6  -4   67.09    3.33
  -3  -6  -4   65.24    2.98
   3  -6   4   64.58    3.00
  -3   6  -4   65.41    3.00
  -3   6  -4   63.65    3.18
   3   6   4   66.86    2.94
  -4  -6  -4    1.99    1.27
  -4  -6  -4    1.29    1.03
  -4  -6  -4    0.98    0.86
   4  -6   4    0.30    0.92
   4   6   4    0.26    0.81
  -4   6  -4    1.21    0.91
  -5  -6  -4   82.53    4.17
  -5  -6  -4   82.53    3.66
   5  -6   4   78.14    3.44
  -5  -6  -4   82.16    3.59
   5   6   4   88.58    3.58
  -5   6  -4   79.81    3.60
  -6  -7   4   24.73    2.09
  -6  -7   4   21.91    2.06
  -6  -7   4   25.98    2.41
   6  -7  -4   24.48    2.05
  -6   7   4   24.71    1.94
   6   7  -4   26.27    1.88
   6   7  -4   21.12    1.85
  -5  -7   4   17.20    1.55
  -5  -7   4   18.84    1.76
  -5  -7   4   20.48    1.96
   5  -7  -4   16.87    1.77
  -5  -7   4   14.71    1.68
   5   7  -4   16.68    1.68
   5   7  -4   16.40    1.63
  -5   7   4   18.86    1.65
  -5   7   4   16.59    1.58
  -4  -7   4   35.03    2.35
   4  -7  -4   36.12    1.97
  -4  -7   4   41.21    2.57
  -4  -7   4   32.78    2.09
   4  -7  -4   39.00    2.39
   4  -7  -4   32.85    2.42
  -4  -7   4   36.27    2.36
  -4   7   4   34.04    2.33
   4   7  -4   35.65    2.46
   4   7  -4   30.30    2.00
   4   7  -4   35.80    2.36
  -4   7   4   36.58    2.19
  -3  -7   4    5.38    1.12
   3  -7  -4    2.46    1.10
  -3  -7   4    3.79    0.88
   3  -7  -4    2.37    0.76
  -3  -7   4    0.87    0.85
  -3  -7   4    3.95    1.07
   3  -7  -4    4.82    1.21
  -3   7   4    3.59    0.87
   3   7  -4    3.23    1.02
   3   7  -4    4.09    1.15
   3   7  -4    1.46    1.17
  -3   7   4    3.27    0.84
  -2  -7   4   48.02    2.51
   2  -7  -4   48.84    2.47
  -2  -7   4   48.49    2.60
   2  -7  -4   45.66    2.68
   2  -7  -4   49.15    2.41
  -2  -7   4   47.94    2.52
  -2  -7   4   49.74    2.46
   2   7  -4   47.07    2.77
  -2   7   4   51.65    2.71
   2   7  -4   47.56    2.52
   2   7  -4   46.09    2.55
  -2   7   4   51.24    2.71
  -1  -7   4   58.16    2.66
   1  -7  -4   52.62    2.50
   1  -7  -4   50.80    2.62
  -1  -7   4   54.36    2.96
   1  -7  -4   57.43    2.93
   1  -7  -4   58.13    2.81
   1   7  -4   55.51    2.81
   1   7  -4   58.00    3.01
   1   7  -4   54.48    2.49
  -1   7   4   54.46    2.85
   0  -7   4    2.45    0.78
   0  -7   4    4.79    1.20
   0  -7  -4    2.78    0.83
   0  -7  -4    2.74    1.07
   0  -7  -4    4.66    0.95
   0   7  -4    4.70    1.22
   0   7   4    4.08    0.85
   0   7  -4    2.70    1.20
  -1  -7  -4   31.51    2.24
   1  -7   4   33.83    1.77
  -1  -7  -4   33.98    2.01
   1  -7   4   32.75    2.03
  -1  -7  -4   31.31    2.11
  -1   7  -4   34.62    2.32
  -1   7  -4   31.94    2.12
   1   7   4   35.48    2.21
  -2  -7  -4   27.28    2.04
   2  -7   4   24.91    2.09
  -2  -7  -4   22.08    1.74
  -2  -7  -4   28.11    2.11
  -2   7  -4   22.57    1.86
   2   7   4   22.02    1.64
  -2   7  -4   26.35    2.06
   3  -7   4    4.93    1.22
  -3  -7  -4    4.55    1.00
  -3  -7  -4    5.35    1.20
  -3  -7  -4    7.67    1.18
   3   7   4    6.13    1.16
  -3   7  -4    5.65    1.26
  -3   7  -4    6.01    1.12
  -4  -7  -4   22.59    2.07
  -4  -7  -4   22.96    1.72
   4  -7   4   22.81    1.88
  -4  -7  -4   28.20    2.24
   4   7   4   22.13    1.68
  -4   7  -4   25.17    2.11
   2  -8  -4    3.01    0.97
   2  -8  -4    3.14    1.12
   2  -8  -4    3.70    1.19
  -2  -8   4    3.21    1.11
  -2  -8   4    2.09    1.32
  -2   8   4    3.06    1.20
   2   8  -4    3.99    1.31
   2   8  -4    2.37    1.27
   2   8  -4    3.82    1.03
   1  -8  -4   17.40    1.80
  -1  -8   4   16.43    1.52
  -1  -8   4   17.54    1.78
   1  -8  -4   14.38    1.62
   1   8  -4   15.32    1.85
   1   8  -4   17.84    1.83
  -1   8   4   15.74    1.67
   0  -8  -4   17.12    1.53
   0  -8  -4   15.17    1.50
   0  -8   4   13.06    1.71
   0  -8   4   14.52    1.24
   0   8  -4   12.60    1.49
   0   8  -4   17.25    1.81
   0   8   4   17.05    1.68
 -11   0   5   28.24    2.34
  11   0  -5   27.26    2.10
  11   0  -5   24.48    1.86
 -11   0   5   26.16    2.50
  11   0  -5   26.61    2.05
 -11   0   5   23.18    1.85
 -10   0   5   -0.34    1.14
 -10   0   5    0.48    0.72
 -10   0   5   -0.98    0.71
  10   0  -5    0.80    1.00
  10   0  -5    0.19    0.69
  10   0  -5   -0.23    0.77
  -9   0   5   62.89    3.45
   9   0  -5   69.74    3.37
  -9   0   5   67.53    3.23
  -9   0   5   64.93    3.01
   9   0  -5   70.85    3.04
   9   0  -5   69.05    3.01
  -8   0   5   -0.53    0.80
   8   0  -5    0.38    0.63
   8   0  -5   -0.32    0.67
  -8   0   5    0.86    0.79
   8   0  -5   -0.37    0.83
  -8   0   5    0.33    0.92
  -8   0   5    0.65    1.59
  -7   0   5   54.45    2.38
   7   0  -5   53.31    2.52
   7   0  -5   55.86    2.63
   7   0  -5   53.83    2.44
  -7   0   5   55.53    2.47
   7   0  -5   53.34    2.57
  -7   0   5   56.80    2.48
  -6   0   5    0.53    0.73
  -6   0   5   -1.05    0.74
   6   0  -5    0.39    0.54
  -6   0   5   -0.09    0.55
   6   0  -5   -0.04    0.77
   6   0  -5    0.48    0.86
   6   0  -5   -0.09    0.72
   5   0  -5  231.52    8.01
  -5   0   5  228.49    7.84
  -5   0   5  221.11    7.85
   5   0  -5  230.68    7.88
  -5   0   5  227.03    7.87
   5   0  -5  232.24    7.92
   5   0  -5  227.52    7.95
   4   0  -5   -0.04    0.58
   4   0  -5   -0.18    0.46
   4   0  -5   -0.17    0.47
  -4   0   5   -0.02    0.65
  -4   0   5   -0.33    0.54
  -4   0   5    0.21    0.58
   4   0  -5   -0.67    0.47
   3   0  -5   11.91    0.88
  -3   0   5   11.13    0.89
  -3   0   5   10.63    0.88
   3   0  -5   12.14    0.98
   3   0  -5   11.45    0.99
   3   0  -5   10.58    0.81
  -3   0   5   10.29    0.92
  -2   0   5    0.33    0.51
   2   0  -5   -0.04    0.41
  -2   0   5    0.52    0.42
  -2   0   5    1.03    0.38
   2   0  -5   -0.44    0.49
   2   0  -5   -0.29    0.28
   1   0  -5  430.04   13.59
  -1   0   5  395.38   13.53
  -1   0   5  441.64   13.48
  -1   0   5  398.34   13.50
   1   0  -5  400.65   13.63
   1   0  -5  408.50   13.48
   0   0  -5   -0.14    0.24
   0   0   5   -0.15    0.24
   0   0  -5   -0.20    0.28
   0   0  -5   -0.01    0.29
   0   0   5    0.09    0.28
   0   0   5   -0.27    0.17
  -1   0  -5   98.83    3.28
  -1   0  -5   94.19    3.65
   1   0   5   99.28    3.27
   1   0   5   99.21    3.27
  -1   0  -5   96.63    3.42
  -1   0  -5   97.25    3.29
  -2   0  -5   -0.41    0.43
  -2   0  -5   -0.34    0.27
  -3   0  -5  475.43   15.63
  -3   0  -5  479.95   15.58
  -3   0  -5  474.32   15.93
  -4   0  -5    0.31    0.36
  -4   0  -5   -0.05    0.75
  -5   0  -5  187.53    6.40
  -5   0  -5  192.70    6.88
  -6   0  -5   -0.09    0.90
   6   0   5   -0.32    0.21
   7   0   5   83.18    2.89
  -7   0  -5   81.30    3.74
   8   0   5    0.17    0.37
  -8   0  -5   -0.68    0.36
  -8   0  -5    0.91    1.09
 -11  -1   5    0.03    1.23
  11  -1  -5   -0.51    1.05
  11  -1  -5    0.95    1.30
  11  -1  -5    0.62    1.07
 -11  -1   5    0.06    1.07
 -11  -1   5   -0.54    0.82
 -11   1   5    1.34    0.89
  11   1  -5   -0.07    1.07
 -11   1   5   -2.88    1.38
 -11   1   5   -2.83    0.93
  11   1  -5   -0.33    0.77
  11   1  -5    1.25    0.99
 -10  -1   5   85.57    4.79
  10  -1  -5   96.94    4.47
 -10  -1   5   98.07    4.18
  10  -1  -5   94.13    3.97
 -10  -1   5   94.53    4.23
 -10   1   5  102.42    4.28
  10   1  -5   98.50    4.04
  10   1  -5   95.33    4.11
 -10   1   5   99.69    4.17
 -10   1   5   90.48    4.55
  10   1  -5   88.60    4.19
   9  -1  -5   10.90    1.30
   9  -1  -5   13.11    1.61
  -9  -1   5    8.71    1.29
  -9  -1   5   10.05    1.60
  -9  -1   5   12.07    1.41
   9   1  -5   10.25    1.17
   9   1  -5   10.70    1.14
  -9   1   5    9.63    1.37
  -9   1   5   11.55    1.35
   9   1  -5   11.67    1.27
  -9   1   5   11.13    1.82
   8  -1  -5   57.44    2.73
  -8  -1   5   54.10    2.77
  -8  -1   5   56.05    3.13
  -8  -1   5   51.20    2.71
  -8  -1   5   54.97    2.60
   8  -1  -5   58.21    2.80
   8   1  -5   59.08    2.74
  -8   1   5   56.42    2.59
  -8   1   5   54.86    2.96
   8   1  -5   60.06    2.70
   8   1  -5   58.15    2.71
  -8   1   5   52.35    2.75
   7  -1  -5   39.63    1.96
   7  -1  -5   41.19    2.48
   7  -1  -5   41.60    2.22
  -7  -1   5   40.64    2.22
  -7  -1   5   43.06    2.21
  -7  -1   5   41.90    2.72
  -7  -1   5   42.99    2.23
   7   1  -5   37.95    2.14
   7   1  -5   38.26    2.29
  -7   1   5   40.68    2.23
   7   1  -5   42.18    2.20
   7   1  -5   43.30    2.20
  -7   1   5   39.69    2.10
   6  -1  -5  206.24    7.34
  -6  -1   5  210.52    7.27
  -6  -1   5  207.42    7.34
   6  -1  -5  205.27    7.51
   6  -1  -5  206.73    7.34
  -6  -1   5  219.04    7.36
   6   1  -5  201.44    7.35
  -6   1   5  210.57    7.31
  -6   1   5  207.59    7.24
   6   1  -5  209.96    7.39
   6   1  -5  210.44    7.37
   6   1  -5  207.57    7.33
  -5  -1   5    0.24    0.47
   5  -1  -5    0.42    0.49
  -5  -1   5   -0.08    0.75
   5  -1  -5   -0.57    0.47
  -5  -1   5    0.56    0.47
   5  -1  -5    0.21    0.59
   5   1  -5    0.50    0.68
  -5   1   5   -0.22    0.71
   5   1  -5   -0.55    0.62
   5   1  -5   -0.61    0.48
  -5   1   5    0.81    0.68
   5   1  -5   -0.18    0.73
   4  -1  -5   45.86    2.06
   4  -1  -5   43.03    2.07
  -4  -1   5   47.37    2.00
  -4  -1   5   46.24    2.00
  -4  -1   5   44.38    1.95
   4  -1  -5   44.40    1.97
   4   1  -5   47.47    2.01
   4   1  -5   46.00    2.13
   4   1  -5   46.91    2.04
  -4   1   5   45.59    2.01
  -4   1   5   45.47    2.08
  -3  -1   5   -0.43    0.30
   3  -1  -5   -0.13    0.39
   3  -1  -5   -0.57    0.51
   3  -1  -5    0.26    0.47
  -3  -1   5   -0.48    0.34
   3   1  -5    0.67    0.51
   3   1  -5   -1.12    0.58
  -3   1   5   -0.26    0.48
  -3   1   5   -0.29    0.39
   3   1  -5   -1.16    0.59
   2  -1  -5  323.11   10.54
  -2  -1   5  321.94   10.59
   2  -1  -5  308.30   10.58
   2  -1  -5  328.89   10.65
  -2  -1   5  322.03   10.48
  -2  -1   5  288.90   10.51
   2   1  -5  324.84   10.52
  -2   1   5  298.83   10.54
   2   1  -5  333.06   10.67
  -2   1   5  317.61   10.56
   2   1  -5  325.30   10.62
  -1  -1   5   99.41    3.48
  -1  -1   5  104.06    3.32
   1  -1  -5   90.20    3.45
  -1  -1   5   90.89    3.37
   1  -1  -5  100.52    3.51
   1  -1  -5  103.24    3.40
   1   1  -5  105.70    3.61
  -1   1   5   91.57    3.43
  -1   1   5   98.99    3.41
   1   1  -5   97.56    3.47
   1   1  -5   93.84    3.35
   0  -1  -5    5.28    0.48
   0  -1  -5    4.16    0.60
   0  -1   5    4.81    0.50
   0  -1  -5    4.90    0.48
   0  -1  -5    4.54    0.65
   0   1  -5    4.71    0.51
   0   1   5    4.77    0.45
   0   1  -5    5.04    0.44
   0   1  -5    4.81    0.63
   1  -1   5   22.17    0.89
  -1  -1  -5   21.59    1.07
   1  -1   5   21.03    0.93
  -1  -1  -5   20.54    1.24
  -1  -1  -5   21.83    0.91
  -1  -1  -5   21.50    0.98
  -1   1  -5   22.04    0.99
   1   1   5   22.31    0.89
  -1   1  -5   22.74    0.91
   1   1   5   21.50    0.91
  -1   1  -5   22.64    1.16
   2  -1   5  443.91   14.26
  -2  -1  -5  439.39   14.49
  -2  -1  -5  444.53   14.29
   2  -1   5  418.73   14.26
  -2  -1  -5  437.49   14.69
  -2  -1  -5  442.15   14.32
  -2   1  -5  443.54   14.29
   2   1   5  432.99   14.28
  -2   1  -5  442.46   14.48
  -2   1  -5  442.68   14.27
   2   1   5  439.32   14.27
  -3  -1  -5   -0.07    0.15
  -3  -1  -5    0.04    0.16
   3  -1   5    0.12    0.11
   3  -1   5    0.13    0.12
  -3  -1  -5   -0.31    0.28
  -3  -1  -5    0.46    0.80
  -3   1  -5    0.04    0.17
  -3   1  -5    0.06    0.39
   3   1   5   -0.04    0.16
  -3   1  -5   -0.05    0.12
   3   1   5    0.19    0.15
  -3   1  -5   -0.16    0.63
  -4  -1  -5    1.63    0.21
   4  -1   5    1.80    0.14
  -4  -1  -5    1.43    0.21
  -4  -1  -5    2.21    0.50
  -4  -1  -5    1.75    0.65
   4  -1   5    1.74    0.13
  -4   1  -5    1.78    0.18
  -4   1  -5    1.71    0.44
  -4   1  -5    1.48    0.74
   4   1   5    1.73    0.19
  -4   1  -5    1.50    0.18
   4   1   5    2.13    0.22
  -5  -1  -5   63.38    2.82
  -5  -1  -5   60.17    2.20
  -5   1  -5   42.85    1.84
  -5   1  -5   61.49    2.55
  -5   1  -5   54.24    1.86
  -6  -1  -5  169.28    5.81
  -6  -1  -5  168.32    6.27
  -6  -1  -5  167.33    5.60
   6  -1   5  161.68    5.54
  -6   1  -5  165.94    5.56
   6   1   5  164.77    5.57
  -6   1  -5  172.96    6.16
  -7  -1  -5   21.29    1.78
   7  -1   5   19.57    1.01
  -7  -1  -5   19.58    1.01
  -7   1  -5   20.57    1.00
  -7   1  -5   19.28    1.73
   7   1   5   20.41    0.99
  -8  -1  -5    5.03    1.10
   8  -1   5    4.82    0.57
  -8  -1  -5    5.20    0.61
   8   1   5    4.04    0.57
  -8   1  -5    3.85    1.11
 -10  -2   5    8.35    1.13
 -10  -2   5    7.51    1.36
  10  -2  -5    7.28    1.31
 -10  -2   5    5.93    1.94
  10  -2  -5    7.10    1.66
 -10   2   5    8.53    1.64
 -10   2   5    7.05    1.14
  10   2  -5    9.28    1.06
  10   2  -5    8.54    1.14
   9  -2  -5  131.23    5.46
   9  -2  -5  133.24    5.13
  -9  -2   5  120.81    5.45
  -9  -2   5  129.76    5.16
  -9   2   5  130.14    5.05
  -9   2   5  123.11    5.28
   9   2  -5  129.67    4.91
   9   2  -5  128.52    4.99
   8  -2  -5    3.19    1.22
  -8  -2   5    5.20    1.82
  -8  -2   5    1.66    0.92
  -8   2   5    1.41    1.31
  -8   2   5    2.58    1.03
  -8   2   5    1.92    0.60
  -7  -2   5    9.96    1.58
   7  -2  -5    7.52    1.05
   7  -2  -5    8.81    1.15
  -7  -2   5    7.79    1.15
   7  -2  -5    6.46    1.07
  -7  -2   5    8.27    1.14
   7   2  -5    7.63    0.90
  -7   2   5    8.97    0.91
   7   2  -5    8.49    1.11
  -7   2   5    7.81    0.96
   7   2  -5    8.19    0.92
   6  -2  -5    2.00    1.08
   6  -2  -5    2.13    0.83
  -6  -2   5    3.04    0.94
  -6  -2   5    2.22    0.86
   6  -2  -5    1.07    0.83
  -6  -2   5    2.54    0.67
  -6   2   5    3.47    0.89
   6   2  -5    3.20    0.71
   6   2  -5    2.23    0.83
  -6   2   5    4.49    0.71
   6   2  -5    2.95    0.83
   5  -2  -5  361.68   12.00
  -5  -2   5  359.40   12.01
  -5  -2   5  352.93   11.94
   5  -2  -5  350.88   11.96
   5  -2  -5  351.49   12.13
   5   2  -5  365.29   12.03
  -5   2   5  362.72   11.97
   5   2  -5  346.61   11.92
  -5   2   5  338.91   11.89
   5   2  -5  349.79   11.96
  -4  -2   5   10.90    1.10
   4  -2  -5   11.09    1.03
  -4  -2   5   11.43    0.94
   4  -2  -5   10.58    0.98
   4  -2  -5   10.85    1.01
   4   2  -5    9.54    0.92
   4   2  -5    9.36    0.90
   4   2  -5   11.25    1.04
  -4   2   5   11.49    1.02
  -4   2   5   10.93    0.86
   3  -2  -5  152.39    5.63
   3  -2  -5  155.76    5.50
  -3  -2   5  157.94    5.51
  -3  -2   5  159.96    5.51
   3  -2  -5  153.66    5.50
   3   2  -5  160.66    5.55
  -3   2   5  159.00    5.47
   3   2  -5  155.04    5.46
   3   2  -5  157.45    5.55
   2  -2  -5    1.99    0.45
  -2  -2   5    2.48    0.40
   2  -2  -5    2.47    0.55
   2  -2  -5    2.19    0.67
  -2  -2   5    2.66    0.67
  -2   2   5    1.71    0.44
   2   2  -5    1.75    0.49
   2   2  -5    2.16    0.49
   2   2  -5    1.85    0.66
   1  -2  -5  129.55    4.65
   1  -2  -5  129.87    4.51
  -1  -2   5  130.11    4.56
   1  -2  -5  128.43    4.60
  -1  -2   5  131.55    4.49
   1  -2  -5  129.68    4.58
   1   2  -5  132.61    4.65
   1   2  -5  129.66    4.46
  -1   2   5  131.96    4.55
   1   2  -5  131.13    4.58
   0  -2  -5    3.65    0.49
   0  -2  -5    3.96    0.65
   0  -2  -5    4.12    0.39
   0  -2   5    3.31    0.56
   0  -2  -5    3.44    0.50
   0  -2  -5    2.94    0.61
   0   2  -5    3.88    0.32
   0   2  -5    3.89    0.67
   0   2   5    3.96    0.51
   0   2  -5    3.86    0.57
  -1  -2  -5  123.89    4.52
   1  -2   5  126.52    4.37
  -1  -2  -5  125.72    4.67
  -1  -2  -5  128.75    4.38
  -1  -2  -5  124.62    4.35
  -1   2  -5  127.22    4.50
  -1   2  -5  125.90    4.38
  -1   2  -5  127.95    4.34
   1   2   5  128.52    4.34
  -2  -2  -5   14.05    0.66
  -2  -2  -5   14.14    0.83
   2  -2   5   12.46    0.69
  -2  -2  -5   14.53    0.85
  -2  -2  -5   14.20    0.93
   2  -2   5   11.53    0.81
  -2  -2  -5   14.57    1.13
  -2   2  -5   15.80    0.82
   2   2   5   12.19    0.78
  -2   2  -5   11.89    0.90
  -2   2  -5   13.10    0.71
  -2   2  -5   15.41    0.52
   2   2   5   13.30    0.74
  -3  -2  -5    2.74    0.72
  -3  -2  -5    3.39    0.41
   3  -2   5    3.31    0.34
  -3  -2  -5    3.32    0.39
  -3  -2  -5    3.59    0.67
  -3   2  -5    4.75    0.68
  -3   2  -5    3.64    0.28
   3   2   5    3.37    0.41
   3   2   5    3.12    0.40
  -3   2  -5    3.25    0.45
  -3   2  -5    3.50    0.36
  -4  -2  -5    0.82    0.56
  -4  -2  -5    1.21    0.31
  -4  -2  -5    0.37    0.95
   4   2   5    1.39    0.35
  -4   2  -5    1.58    0.39
  -4   2  -5    0.88    0.55
  -4   2  -5    1.14    0.64
  -5  -2  -5   34.69    2.01
   5  -2   5   26.02    1.26
  -5  -2  -5   36.43    1.68
  -5  -2  -5   29.33    1.31
  -5   2  -5   27.35    1.31
   5   2   5   37.28    1.36
  -5   2  -5   37.38    1.77
  -6  -2  -5    2.11    1.17
   6  -2   5    0.42    0.40
  -6  -2  -5    1.22    0.42
  -6  -2  -5    0.50    0.56
  -6   2  -5    1.10    0.43
  -6   2  -5    0.47    0.70
   6   2   5    0.57    0.33
  -7  -2  -5    2.52    0.47
  -7  -2  -5    1.77    0.93
  -7  -2  -5    3.09    0.70
   7  -2   5    2.38    0.52
   7   2   5    3.19    0.54
  -7   2  -5    2.67    0.47
  -7   2  -5    1.60    0.83
   8  -2   5    0.22    0.54
  -8  -2  -5    1.08    0.97
  -8  -2  -5    1.86    0.56
  -8   2  -5    0.96    0.52
   8   2   5    0.44    0.54
 -10  -3   5   -0.90    1.13
  10  -3  -5    1.94    1.53
 -10  -3   5    1.91    1.85
 -10  -3   5    0.26    1.12
  10  -3  -5    2.57    1.17
  10   3  -5    1.46    1.12
  10   3  -5    1.25    0.91
 -10   3   5    2.54    1.21
  -9  -3   5   18.41    2.36
  -9  -3   5   16.12    1.61
  -9  -3   5   15.36    1.48
   9  -3  -5   17.40    1.60
  -9   3   5   18.34    1.71
   9   3  -5   15.58    1.55
   9   3  -5   20.25    1.41
  -8  -3   5   37.77    2.05
  -8  -3   5   38.44    2.39
  -8  -3   5   33.61    2.79
   8  -3  -5   31.72    1.96
  -8   3   5   32.64    2.44
   8   3  -5   36.40    2.07
   8   3  -5   36.80    2.01
  -8   3   5   32.28    2.00
  -7  -3   5   -0.99    1.14
   7  -3  -5    1.15    0.61
   7  -3  -5    0.24    0.88
  -7  -3   5   -0.43    0.85
  -7   3   5    0.60    0.55
   7   3  -5    0.53    0.60
   7   3  -5    0.71    0.88
  -7   3   5    1.75    0.93
   7   3  -5    0.39    0.64
   6  -3  -5   44.89    2.35
  -6  -3   5   47.02    2.29
  -6  -3   5   50.57    3.34
   6  -3  -5   43.44    2.41
   6   3  -5   50.21    2.38
   6   3  -5   46.56    2.43
  -6   3   5   49.21    2.39
   6   3  -5   47.12    2.40
  -6   3   5   54.09    2.45
  -5  -3   5   28.32    1.54
   5  -3  -5   24.37    1.48
   5  -3  -5   25.56    1.74
   5   3  -5   26.51    1.56
   5   3  -5   25.05    1.48
   5   3  -5   25.47    1.70
  -5   3   5   25.54    1.72
   4  -3  -5   29.58    1.54
  -4  -3   5   29.82    1.67
   4  -3  -5   25.64    1.48
   4   3  -5   27.68    1.47
   4   3  -5   26.60    1.78
   4   3  -5   26.31    1.53
  -4   3   5   30.87    1.73
   3  -3  -5    0.40    0.64
  -3  -3   5    0.75    0.44
   3  -3  -5    1.57    0.72
   3   3  -5   -0.33    0.57
   3   3  -5    0.80    0.52
  -3   3   5    1.10    0.50
   3   3  -5    1.11    0.79
   2  -3  -5   43.04    1.80
   2  -3  -5   39.81    1.84
   2  -3  -5   40.63    1.94
  -2  -3   5   42.06    1.84
   2   3  -5   41.62    1.81
   2   3  -5   40.40    2.03
  -2   3   5   41.26    1.93
   2   3  -5   43.19    2.04
   1  -3  -5    1.14    0.69
   1  -3  -5    1.75    0.58
  -1  -3   5    1.01    0.33
  -1   3   5    3.19    0.62
   1   3  -5    0.78    0.32
   1   3  -5    2.85    0.73
   0  -3  -5    9.50    0.79
   0  -3  -5   10.30    0.94
   0  -3  -5    9.72    0.82
   0  -3   5    9.76    0.69
   0  -3  -5    9.62    1.01
   0  -3  -5    9.05    0.84
   0   3  -5   10.21    0.87
   0   3   5    9.57    0.80
   0   3  -5    9.09    0.86
   0   3  -5    9.45    0.66
  -1  -3  -5  114.36    3.96
  -1  -3  -5  118.52    4.37
   1  -3   5  113.49    4.00
  -1  -3  -5  119.06    3.97
  -1  -3  -5  112.09    4.15
  -1  -3  -5  114.19    4.26
   1   3   5  118.24    4.13
  -1   3  -5  121.17    4.20
  -1   3  -5  117.02    4.35
  -2  -3  -5   85.31    3.10
  -2  -3  -5   82.74    3.47
   2  -3   5   82.12    2.85
  -2  -3  -5   80.12    3.22
  -2   3  -5   85.48    3.12
   2   3   5   84.15    3.07
  -2   3  -5   85.13    3.33
  -3  -3  -5    0.99    0.69
  -3  -3  -5    1.07    0.71
  -3  -3  -5    0.06    0.42
  -3   3  -5    0.55    0.69
   3   3   5    1.42    0.46
  -3   3  -5    1.25    0.33
  -3   3  -5    1.12    0.59
  -4  -3  -5   -0.29    0.68
  -4  -3  -5   -0.04    0.68
  -4  -3  -5    0.18    0.41
  -4   3  -5    0.20    0.47
  -4   3  -5    0.48    0.49
   4   3   5    0.32    0.42
   5  -3   5   39.21    1.66
  -5  -3  -5   39.04    2.57
  -5  -3  -5   37.43    1.67
  -5  -3  -5   33.45    1.93
  -5   3  -5   38.64    1.67
   5   3   5   37.21    1.65
  -6  -3  -5    6.69    1.38
   6  -3   5    2.17    0.63
  -6   3  -5    1.01    0.50
  -7  -3  -5   35.42    2.85
   7  -3   5   36.23    1.67
  -7  -3  -5   34.67    1.97
  -7  -3  -5   34.59    1.67
  -7   3  -5   35.60    1.68
   7   3   5   33.30    1.65
  -9  -4   5    3.31    1.91
  -9  -4   5    4.69    1.24
  -9  -4   5    6.37    1.14
   9  -4  -5    5.21    1.27
   9   4  -5    4.85    1.23
  -9   4   5    4.38    1.27
   9   4  -5    6.23    1.07
  -8  -4   5   40.53    2.49
   8  -4  -5   37.77    2.44
  -8  -4   5   41.53    3.44
  -8  -4   5   37.45    2.53
   8   4  -5   39.60    2.21
  -8   4   5   37.75    2.45
   8   4  -5   39.95    2.26
  -7  -4   5    1.93    0.84
  -7  -4   5   -1.31    1.61
   7  -4  -5    2.51    0.77
  -7  -4   5    1.66    0.98
  -7   4   5    2.48    1.02
   7   4  -5    2.62    0.91
   7   4  -5    2.69    0.93
  -7   4   5    1.43    0.86
   7   4  -5    0.39    0.68
  -6  -4   5    7.26    0.97
  -6  -4   5    6.36    1.76
   6  -4  -5    7.42    0.91
   6  -4  -5    7.37    0.93
  -6  -4   5    6.06    0.96
  -6   4   5    6.78    1.14
  -6   4   5    5.94    1.03
   6   4  -5    6.46    0.88
   6   4  -5    5.01    0.89
   6   4  -5    7.25    1.13
  -5  -4   5    2.74    1.00
   5  -4  -5    0.60    0.64
   5  -4  -5    2.15    0.67
  -5  -4   5    2.00    1.57
  -5  -4   5    2.22    0.67
   5   4  -5    2.87    0.69
  -5   4   5    3.39    0.92
   5   4  -5    2.67    0.75
   5   4  -5    1.11    0.83
   4  -4  -5   34.94    1.85
   4  -4  -5   40.13    1.92
  -4  -4   5   35.51    2.83
  -4  -4   5   36.82    1.92
  -4  -4   5   37.49    2.02
   4   4  -5   33.22    1.80
   4   4  -5   38.28    2.16
   4   4  -5   41.85    2.12
  -4   4   5   35.92    2.03
  -3  -4   5   13.84    1.07
   3  -4  -5   13.87    1.18
  -3  -4   5   13.81    1.24
   3  -4  -5   13.23    1.14
   3  -4  -5   12.79    1.16
  -3   4   5   15.84    1.23
   3   4  -5   14.63    1.31
   3   4  -5   18.03    1.50
   3   4  -5   14.14    1.13
  -2  -4   5   28.08    1.54
   2  -4  -5   28.33    1.63
   2  -4  -5   30.29    1.70
   2   4  -5   31.78    1.81
   2   4  -5   30.10    1.81
   2   4  -5   23.26    1.35
  -1  -4   5   40.46    1.76
  -1  -4   5   40.73    1.82
   1  -4  -5   40.58    1.88
   1  -4  -5   40.16    1.99
   1  -4  -5   40.22    2.02
   1  -4  -5   39.45    1.86
   1   4  -5   40.20    2.09
   1   4  -5   41.06    1.79
  -1   4   5   40.33    1.83
   1   4  -5   37.68    1.94
   0  -4  -5  119.37    4.35
   0  -4   5  119.88    4.32
   0  -4  -5  123.02    4.53
   0  -4  -5  119.67    4.58
   0  -4  -5  124.45    4.46
   0  -4  -5  120.39    4.36
   0  -4   5  125.77    4.34
   0   4  -5  121.98    4.29
   0   4   5  122.66    4.41
   0   4  -5  124.94    4.66
   0   4  -5  119.42    4.53
  -1  -4  -5   14.99    1.33
  -1  -4  -5   13.43    0.99
  -1  -4  -5   12.00    0.88
  -1  -4  -5   10.22    1.14
   1  -4   5   14.13    0.85
  -1  -4  -5   13.14    1.09
  -1   4  -5   12.38    1.22
   1   4   5   17.29    1.20
  -1   4  -5   14.38    1.25
  -2  -4  -5   29.65    1.57
  -2  -4  -5   26.34    1.88
   2  -4   5   27.35    1.10
  -2  -4  -5   29.58    1.53
  -2   4  -5   24.01    1.55
   2   4   5   25.24    1.36
  -2   4  -5   26.43    1.55
  -3  -4  -5   23.21    1.45
  -3  -4  -5   22.22    1.37
  -3  -4  -5   21.76    1.62
  -3   4  -5   24.12    1.74
   3   4   5   23.35    1.38
  -3   4  -5   22.70    1.42
  -4  -4  -5   87.57    3.61
  -4  -4  -5   86.55    3.77
   4  -4   5   89.62    3.36
  -4  -4  -5   84.13    3.34
   4   4   5   84.98    3.32
  -4   4  -5   87.72    3.37
  -4   4  -5   85.25    3.61
  -5  -4  -5   42.97    1.88
   5  -4   5   37.95    1.84
  -5  -4  -5   41.30    2.74
  -5  -4  -5   27.55    1.85
   5   4   5   29.08    1.75
  -5   4  -5   46.73    1.91
  -6  -4  -5    3.34    1.12
  -6  -4  -5    2.41    0.68
  -6  -4  -5    3.38    0.97
   6  -4   5    3.87    0.75
  -6   4  -5    2.52    0.70
   6   4   5    3.64    0.70
  -7  -4  -5   10.60    1.90
   7  -4   5    9.17    1.00
  -7  -4  -5    9.69    1.09
  -7  -4  -5   10.62    1.03
   7   4   5    8.79    0.96
  -7   4  -5    8.48    0.94
  -8  -5   5    2.20    0.94
  -8  -5   5    4.34    1.25
   8  -5  -5    3.73    0.95
  -8  -5   5    2.66    1.80
   8   5  -5    2.97    0.98
  -8   5   5    2.84    1.21
   8   5  -5    4.23    1.17
  -7  -5   5  209.83    8.07
  -7  -5   5  204.02    7.77
  -7  -5   5  220.20    7.89
   7  -5  -5  219.98    7.80
   7   5  -5  214.28    7.68
  -7   5   5  174.03    7.87
   7   5  -5  224.68    7.82
  -7   5   5  217.72    7.80
  -6  -5   5   -0.57    1.04
  -6  -5   5    1.09    0.97
   6  -5  -5    2.59    0.74
  -6  -5   5    0.62    1.52
   6  -5  -5    1.20    0.74
   6   5  -5    0.50    0.69
   6   5  -5    2.99    0.97
  -6   5   5    1.01    0.92
   6   5  -5    2.03    0.79
   5  -5  -5   53.89    2.58
  -5  -5   5   55.47    3.24
   5  -5  -5   52.75    2.55
  -5  -5   5   55.47    2.75
  -5  -5   5   57.72    2.85
   5   5  -5   56.38    2.83
  -5   5   5   59.21    2.75
   5   5  -5   56.36    2.59
   5   5  -5   52.60    2.54
   4  -5  -5    6.62    0.89
   4  -5  -5    6.41    1.08
  -4  -5   5    4.79    0.81
   4  -5  -5    5.40    0.97
  -4  -5   5    4.78    1.06
  -4  -5   5    5.58    1.47
  -4   5   5    5.32    1.02
   4   5  -5    4.39    0.84
  -4   5   5    6.14    1.05
   4   5  -5    5.32    0.94
   4   5  -5    5.63    1.00
   3  -5  -5  136.68    5.07
   3  -5  -5  133.61    5.12
  -3  -5   5  137.38    5.13
   3  -5  -5  135.95    5.19
  -3  -5   5  135.51    5.38
  -3  -5   5  131.56    5.04
   3   5  -5  140.32    5.17
  -3   5   5  136.78    5.09
   3   5  -5  139.11    5.24
   3   5  -5  133.71    5.05
  -3   5   5  138.86    5.07
   2  -5  -5    3.11    0.83
  -2  -5   5    2.75    0.63
   2  -5  -5    1.89    0.67
  -2  -5   5    1.43    0.54
   2  -5  -5    1.86    0.66
  -2  -5   5    3.47    1.19
  -2   5   5    3.04    0.83
   2   5  -5    1.98    0.70
   2   5  -5    2.68    0.95
  -2   5   5    4.21    0.91
   2   5  -5    2.67    0.96
   1  -5  -5  168.52    6.22
   1  -5  -5  169.23    6.21
   1  -5  -5  163.99    6.11
  -1  -5   5  170.26    6.07
   1  -5  -5  173.78    6.10
  -1  -5   5  173.31    6.22
  -1  -5   5  172.15    6.06
   1   5  -5  171.03    6.26
   1   5  -5  174.09    6.31
   1   5  -5  170.70    6.02
  -1   5   5  173.99    6.17
  -1   5   5  164.54    6.10
   0  -5  -5   10.62    1.16
   0  -5  -5   10.88    0.98
   0  -5  -5    9.32    1.12
   0  -5   5   10.06    0.83
   0  -5  -5   10.13    0.98
   0   5  -5    9.45    1.06
   0   5  -5    9.23    0.78
   0   5   5    9.39    0.91
   0   5  -5   10.80    1.20
  -1  -5  -5   61.94    2.88
  -1  -5  -5   58.85    2.83
  -1  -5  -5   54.27    2.58
   1  -5   5   57.98    2.38
  -1   5  -5   72.46    3.01
   1   5   5   57.49    2.55
  -1   5  -5   70.90    2.84
  -2  -5  -5   27.58    1.63
  -2  -5  -5   24.60    1.47
  -2  -5  -5   26.18    1.97
  -2   5  -5   28.50    1.75
  -2   5  -5   23.15    1.65
   2   5   5   24.00    1.60
  -3  -5  -5   68.22    3.04
   3  -5   5   66.19    2.87
  -3  -5  -5   68.54    2.98
  -3  -5  -5   77.07    3.47
  -3   5  -5   69.39    3.01
  -3   5  -5   71.13    3.13
   3   5   5   69.61    2.85
  -4  -5  -5    9.91    1.29
  -4  -5  -5    8.36    1.51
   4  -5   5    8.80    1.08
  -4  -5  -5    9.49    1.04
  -4   5  -5    8.09    1.06
   4   5   5    8.34    1.01
  -4   5  -5    9.55    1.26
   5  -5   5   14.19    1.27
  -5  -5  -5   15.26    1.30
  -5  -5  -5   16.84    1.42
  -5  -5  -5   17.05    1.92
   5   5   5   17.04    1.41
  -5   5  -5   16.06    1.42
   6  -5   5   11.33    1.22
  -6  -5  -5   14.89    2.03
  -6  -5  -5   14.54    1.37
  -6  -5  -5   13.41    1.25
  -6   5  -5   12.17    1.10
   6   5   5   12.29    1.07
   7  -6  -5    1.89    1.22
  -7  -6   5    4.69    1.26
  -7  -6   5    3.04    1.32
  -7  -6   5    5.19    1.77
   7   6  -5    2.35    1.06
  -7   6   5    2.94    1.22
   7   6  -5    3.05    1.20
  -6  -6   5   40.37    2.46
  -6  -6   5   48.09    3.14
  -6  -6   5   45.71    2.48
   6  -6  -5   42.39    2.41
   6   6  -5   48.74    2.67
   6   6  -5   50.21    2.62
  -6   6   5   42.65    2.31
   5  -6  -5   36.76    2.05
   5  -6  -5   32.52    1.96
  -5  -6   5   29.56    2.21
  -5  -6   5   32.29    2.04
  -5  -6   5   33.84    2.27
  -5   6   5   32.45    2.23
  -5   6   5   30.19    2.19
   5   6  -5   31.68    2.21
   5   6  -5   32.06    1.95
   5   6  -5   33.14    2.36
   4  -6  -5  216.79    7.71
  -4  -6   5  208.09    7.76
   4  -6  -5  218.41    7.82
   4  -6  -5  203.42    7.66
  -4  -6   5  214.44    7.82
  -4  -6   5  216.32    7.75
   4   6  -5  209.71    7.78
  -4   6   5  218.16    7.83
   4   6  -5  214.01    7.71
  -4   6   5  213.11    7.66
   4   6  -5  213.70    7.82
  -3  -6   5   26.01    1.64
   3  -6  -5   26.67    1.96
  -3  -6   5   26.10    2.09
   3  -6  -5   26.72    1.73
  -3  -6   5   24.64    1.61
   3  -6  -5   25.32    1.83
   3   6  -5   25.97    2.02
  -3   6   5   26.95    1.68
   3   6  -5   24.32    1.78
  -3   6   5   23.40    1.77
   3   6  -5   24.29    1.73
  -2  -6   5    2.85    0.84
  -2  -6   5    0.52    0.97
  -2  -6   5    2.76    0.85
   2  -6  -5    3.05    0.97
   2  -6  -5    3.36    0.93
   2  -6  -5    0.44    0.69
   2   6  -5    2.33    0.62
  -2   6   5    1.80    0.88
   2   6  -5    1.38    1.05
  -2   6   5    2.92    0.76
   2   6  -5    1.84    0.79
   1  -6  -5    4.86    1.06
   1  -6  -5    3.60    0.88
  -1  -6   5    4.31    0.72
  -1  -6   5    3.96    0.94
   1  -6  -5    4.81    0.85
   1  -6  -5    4.40    0.90
  -1   6   5    4.47    0.82
   1   6  -5    6.04    1.18
   1   6  -5    4.11    0.66
   1   6  -5    2.57    0.85
   0  -6  -5  213.81    7.94
   0  -6  -5  225.04    7.94
   0  -6   5  226.66    7.66
   0  -6  -5  212.26    7.80
   0   6  -5  220.69    7.95
   0   6   5  223.23    7.80
   0   6  -5  215.66    8.03
  -1  -6  -5   17.36    1.54
   1  -6   5   14.79    1.28
  -1  -6  -5   15.28    1.52
   1  -6   5   17.94    1.14
  -1  -6  -5   15.51    1.33
  -1   6  -5   15.61    1.40
  -1   6  -5   19.20    1.58
   1   6   5   16.43    1.32
   2  -6   5   11.73    1.14
  -2  -6  -5   14.43    1.56
  -2  -6  -5   13.81    1.46
  -2  -6  -5   13.12    1.33
   2   6   5   12.04    1.23
  -2   6  -5   11.29    1.28
  -2   6  -5   10.82    1.13
   3  -6   5    1.03    0.69
  -3  -6  -5    0.16    0.81
  -3  -6  -5    1.46    1.03
  -3  -6  -5    1.33    0.85
   3   6   5    2.14    0.89
  -3   6  -5    2.50    0.95
  -3   6  -5    0.42    1.06
  -4  -6  -5   40.24    2.52
   4  -6   5   36.60    2.27
  -4  -6  -5   39.51    2.23
  -4  -6  -5   34.52    2.16
  -4   6  -5   36.95    2.27
  -4   6  -5   37.55    2.25
   4   6   5   42.02    2.22
  -5  -6  -5    1.04    0.87
  -5  -6  -5    0.96    1.52
   5  -6   5    1.03    0.96
  -5  -6  -5    0.20    1.11
   5   6   5    0.72    0.86
  -5   6  -5    2.36    0.98
  -5  -7   5   -0.70    1.12
  -5  -7   5    0.95    1.08
  -5  -7   5    1.21    1.36
   5  -7  -5    0.00    1.12
  -5  -7   5    1.07    1.19
  -5   7   5   -0.27    0.72
  -5   7   5   -0.45    0.76
   5   7  -5   -0.07    0.69
   5   7  -5    0.36    0.75
   5   7  -5    0.47    1.22
  -4  -7   5    1.42    1.03
  -4  -7   5    0.49    0.77
  -4  -7   5    1.44    0.89
   4  -7  -5    1.00    0.70
   4  -7  -5    1.73    1.11
  -4  -7   5    0.74    0.87
   4  -7  -5    2.00    1.14
  -4   7   5    1.47    1.08
   4   7  -5    0.67    0.73
   4   7  -5    0.40    0.75
  -4   7   5    1.64    1.11
   4   7  -5    1.64    1.22
  -3  -7   5   40.45    2.42
   3  -7  -5   37.33    2.26
   3  -7  -5   38.41    2.46
  -3  -7   5   40.89    2.37
   3  -7  -5   40.30    2.18
  -3  -7   5   36.52    2.27
   3   7  -5   36.43    2.59
  -3   7   5   42.79    2.49
   3   7  -5   38.06    2.29
  -3   7   5   38.06    2.46
   3   7  -5   40.45    2.32
  -2  -7   5   35.27    2.61
   2  -7  -5   44.39    2.50
   2  -7  -5   41.63    2.55
   2  -7  -5   43.46    2.26
  -2  -7   5   42.77    2.19
   2   7  -5   43.92    2.45
  -2   7   5   43.48    2.55
   2   7  -5   43.58    2.32
   2   7  -5   43.32    2.69
   1  -7  -5   16.17    1.59
  -1  -7   5   12.30    1.14
  -1  -7   5   13.60    1.35
   1  -7  -5   15.41    1.57
   1  -7  -5   15.94    1.36
   1   7  -5   13.24    1.60
  -1   7   5   17.11    1.58
   1   7  -5   14.89    1.61
   0  -7  -5   10.85    1.20
   0  -7   5   10.33    1.08
   0  -7   5    8.05    1.13
   0  -7  -5   10.78    1.26
   0  -7  -5    8.35    1.34
   0   7   5   10.03    1.11
   0   7  -5    7.04    1.39
   0   7  -5    6.20    1.35
  -1  -7  -5   90.07    3.95
   1  -7   5   97.86    4.10
  -1  -7  -5   89.68    4.03
  -1  -7  -5   89.32    4.00
  -1   7  -5   88.50    4.05
  -1   7  -5   92.82    3.95
   1   7   5   97.86    4.01
  -2  -7  -5    1.47    0.82
  -2  -7  -5    1.94    1.16
  -2  -7  -5    0.42    1.01
   2  -7   5    0.93    0.80
  -2   7  -5   -0.25    1.06
  -2   7  -5    2.24    0.95
   2   7   5    2.26    1.02
  -3  -7  -5   27.89    2.17
  -3  -7  -5   30.66    2.16
   3  -7   5   30.59    2.26
  -3  -7  -5   23.84    1.90
  -3   7  -5   26.98    2.18
   3   7   5   27.48    2.07
  -3   7  -5   28.12    2.08
 -11   0   6   -1.40    1.74
 -11   0   6   -0.61    1.07
 -11   0   6   -0.38    0.77
  11   0  -6    0.57    0.81
  11   0  -6    0.35    0.77
  11   0  -6   -0.02    1.26
  10   0  -6   56.94    2.82
  10   0  -6   56.29    2.81
  10   0  -6   62.49    3.31
 -10   0   6   57.40    3.83
 -10   0   6   59.22    3.13
 -10   0   6   55.82    2.85
   9   0  -6   -0.42    0.68
  -9   0   6   -0.74    0.96
  -9   0   6    1.25    0.71
   9   0  -6    0.37    0.97
  -9   0   6   -0.57    1.68
   9   0  -6    0.55    0.80
  -8   0   6   39.56    2.27
   8   0  -6   35.21    2.15
  -8   0   6   35.81    1.94
   8   0  -6   38.52    2.05
   8   0  -6   37.10    2.16
   8   0  -6   38.26    2.28
  -8   0   6   39.15    2.25
   7   0  -6    0.59    0.62
  -7   0   6    0.76    0.85
   7   0  -6    0.41    0.85
   7   0  -6   -1.23    0.62
  -7   0   6   -0.09    0.60
   7   0  -6   -1.14    0.79
  -7   0   6   -0.87    0.79
  -6   0   6  242.41    8.73
  -6   0   6  255.09    8.77
   6   0  -6  259.00    8.83
   6   0  -6  259.93    8.84
   6   0  -6  251.24    8.92
   6   0  -6  249.92    8.73
  -6   0   6  250.40    8.81
  -5   0   6    0.08    0.48
   5   0  -6    0.26    0.57
   5   0  -6    0.35    0.48
  -5   0   6    0.85    0.80
   5   0  -6   -0.59    0.52
  -5   0   6   -0.71    0.64
   5   0  -6   -0.25    0.52
  -4   0   6   14.68    1.02
  -4   0   6   17.26    1.13
  -4   0   6   15.99    1.17
   4   0  -6   14.38    1.17
   4   0  -6   12.69    1.11
   4   0  -6   14.77    1.25
   4   0  -6   14.22    1.07
   3   0  -6   -0.05    0.34
   3   0  -6   -1.44    0.59
  -3   0   6   -0.13    0.49
   3   0  -6   -0.44    0.44
  -3   0   6   -0.55    0.59
  -3   0   6   -0.02    0.32
  -2   0   6  913.17   30.31
  -2   0   6  925.69   30.26
  -2   0   6  939.22   30.35
   2   0  -6  920.25   30.39
   2   0  -6  934.93   30.29
   2   0  -6  946.80   30.45
   1   0  -6   -0.09    0.31
  -1   0   6   -0.07    0.30
   1   0  -6   -0.12    0.23
   1   0  -6    0.04    0.50
  -1   0   6   -0.33    0.44
   0   0  -6   27.51    1.36
   0   0   6   27.51    1.03
   0   0  -6   27.60    1.22
   0   0   6   24.72    1.28
   0   0   6   28.69    1.21
   0   0  -6   29.17    1.20
  -1   0  -6    0.08    0.29
  -1   0  -6    0.27    0.26
   1   0   6    0.17    0.11
  -1   0  -6   -0.15    0.37
   1   0   6   -0.11    0.24
   1   0   6    0.11    0.23
   2   0   6  465.11   15.17
   2   0   6  466.25   15.17
  -2   0  -6  469.35   15.19
  -2   0  -6  478.29   15.36
  -2   0  -6  459.54   15.65
  -2   0  -6  464.75   15.19
  -3   0  -6    0.06    0.29
  -3   0  -6   -0.14    0.54
  -4   0  -6  226.08    7.76
  -4   0  -6  232.68    8.15
  -5   0  -6   -0.66    0.84
  -6   0  -6  134.85    5.34
  -7   0  -6   -0.66    1.00
 -11  -1   6   18.41    1.86
 -11  -1   6   21.33    2.55
  11  -1  -6   20.19    1.93
  11  -1  -6   22.48    1.92
  11  -1  -6   21.68    1.83
 -11  -1   6   20.12    1.97
  11   1  -6   21.05    1.91
 -11   1   6   19.14    1.71
 -11   1   6   24.64    2.24
 -11   1   6   19.83    1.94
  11   1  -6   22.74    1.81
  11   1  -6   20.88    1.82
  10  -1  -6   18.75    1.61
  10  -1  -6   19.25    1.77
 -10  -1   6   20.73    2.11
 -10  -1   6   18.48    1.62
 -10  -1   6   17.57    1.61
 -10   1   6   17.97    1.61
  10   1  -6   19.14    1.85
 -10   1   6   20.45    1.99
 -10   1   6   18.21    1.62
  10   1  -6   16.04    1.63
  10   1  -6   19.95    1.72
   9  -1  -6   81.19    3.60
   9  -1  -6   92.91    4.15
  -9  -1   6   80.58    3.65
  -9  -1   6   87.87    4.61
  -9  -1   6   84.54    3.82
  -9   1   6   88.80    4.38
   9   1  -6   87.76    3.65
  -9   1   6   79.72    3.62
   9   1  -6   91.92    3.96
   9   1  -6   89.69    3.66
  -9   1   6   82.36    3.67
  -8  -1   6   11.74    1.33
   8  -1  -6   10.97    1.09
  -8  -1   6   10.02    1.23
   8  -1  -6   10.44    1.26
   8  -1  -6   10.60    1.27
  -8  -1   6   13.91    1.25
  -8  -1   6   11.27    2.10
   8   1  -6   12.08    1.34
   8   1  -6   12.28    1.42
  -8   1   6   12.53    1.23
   8   1  -6   11.64    1.28
  -8   1   6   11.98    1.15
   8   1  -6   12.18    1.13
  -8   1   6   10.53    1.17
   7  -1  -6   68.15    2.98
  -7  -1   6   66.59    3.03
   7  -1  -6   63.06    2.98
  -7  -1   6   65.53    2.85
  -7  -1   6   68.48    3.02
   7  -1  -6   63.52    3.04
   7   1  -6   68.10    2.99
   7   1  -6   68.27    3.04
   7   1  -6   63.86    2.84
  -7   1   6   63.96    2.94
  -7   1   6   67.44    2.87
   7   1  -6   64.34    3.01
  -7   1   6   67.66    3.02
   6  -1  -6  141.84    5.48
  -6  -1   6  137.83    5.24
  -6  -1   6  141.36    5.31
   6  -1  -6  147.03    5.29
   6  -1  -6  145.30    5.33
  -6  -1   6  143.09    5.21
  -6   1   6  139.80    5.20
   6   1  -6  147.22    5.37
   6   1  -6  146.76    5.34
   6   1  -6  140.51    5.26
  -6   1   6  137.58    5.17
  -5  -1   6   65.89    2.78
  -5  -1   6   65.50    2.70
  -5  -1   6   64.20    2.85
   5  -1  -6   66.30    2.71
   5  -1  -6   62.52    2.64
   5  -1  -6   62.89    2.81
  -5   1   6   66.62    2.72
  -5   1   6   66.86    2.83
   5   1  -6   64.28    2.65
   5   1  -6   56.69    2.80
  -5   1   6   66.76    2.77
   5   1  -6   65.50    2.85
   4  -1  -6   24.66    1.52
  -4  -1   6   28.26    1.40
  -4  -1   6   27.19    1.69
  -4  -1   6   25.17    1.43
   4  -1  -6   27.23    1.63
   4  -1  -6   28.33    1.77
   4   1  -6   27.26    1.53
  -4   1   6   26.53    1.34
  -4   1   6   25.54    1.43
   4   1  -6   24.87    1.64
  -4   1   6   24.01    1.36
   4   1  -6   26.40    1.65
   3  -1  -6  327.64   10.87
   3  -1  -6  317.80   10.97
  -3  -1   6  324.41   10.74
  -3  -1   6  313.34   10.85
   3  -1  -6  328.45   10.83
  -3  -1   6  316.54   10.81
  -3   1   6  326.04   10.85
   3   1  -6  328.70   10.80
   3   1  -6  322.02   10.95
  -3   1   6  324.48   10.85
   3   1  -6  325.99   10.92
  -3   1   6  318.86   10.78
   2  -1  -6  121.53    4.35
  -2  -1   6  121.78    4.13
   2  -1  -6  120.42    4.22
  -2  -1   6  135.07    4.35
   2  -1  -6  115.85    4.26
  -2  -1   6  118.54    4.21
  -2   1   6  115.67    4.18
  -2   1   6  120.29    4.24
   2   1  -6  119.46    4.18
  -2   1   6  113.57    4.22
   2   1  -6  122.03    4.41
   2   1  -6  120.45    4.34
  -1  -1   6  126.72    4.56
   1  -1  -6  132.83    4.44
   1  -1  -6  126.20    4.61
   1  -1  -6  133.40    4.57
  -1  -1   6  129.65    4.43
   1   1  -6  131.07    4.57
   1   1  -6  137.84    4.42
  -1   1   6  129.96    4.54
  -1   1   6  128.10    4.45
   1   1  -6  128.10    4.64
   0  -1  -6   93.96    3.29
   0  -1  -6   90.58    3.35
   0  -1   6   91.39    3.29
   0   1  -6   91.82    3.32
   0   1   6   92.56    3.26
   0   1  -6   92.35    3.44
   0   1  -6   95.18    3.27
   1  -1   6  280.08    9.18
  -1  -1  -6  285.20    9.22
  -1  -1  -6  275.91    9.56
  -1  -1  -6  276.67    9.26
  -1  -1  -6  277.72    9.38
   1  -1   6  272.82    9.20
  -1   1  -6  285.23    9.24
   1   1   6  279.38    9.19
  -1   1  -6  282.63    9.39
  -1   1  -6  278.58    9.21
   1   1   6  273.20    9.21
   2  -1   6    0.90    0.28
   2  -1   6    0.86    0.22
  -2  -1  -6    0.57    0.26
  -2  -1  -6    1.10    0.82
  -2  -1  -6    0.62    0.27
  -2  -1  -6    1.27    0.52
  -2   1  -6    1.02    0.24
   2   1   6    1.00    0.27
  -2   1  -6    0.11    0.46
   2   1   6    0.55    0.24
  -2   1  -6    1.01    0.30
  -3  -1  -6    4.32    0.38
  -3  -1  -6    5.81    0.40
  -3  -1  -6    4.89    0.56
  -3  -1  -6    5.64    1.04
   3  -1   6    4.21    0.33
   3  -1   6    4.58    0.32
  -3   1  -6    5.23    0.62
  -3   1  -6    4.95    0.36
  -3   1  -6    4.99    0.35
  -3   1  -6    4.80    0.73
   3   1   6    5.26    0.37
   3   1   6    4.35    0.38
  -4  -1  -6   42.22    2.19
  -4  -1  -6   42.41    1.51
  -4  -1  -6   43.11    1.86
   4  -1   6   43.33    1.45
  -4  -1  -6   43.92    1.53
   4  -1   6   41.53    1.46
  -4   1  -6   41.76    1.78
   4   1   6   43.22    1.49
  -4   1  -6   43.00    1.49
  -4   1  -6   46.02    2.23
  -4   1  -6   41.71    1.48
  -5  -1  -6  180.32    6.25
  -5  -1  -6  178.24    5.94
  -5  -1  -6  178.37    6.67
   5   1   6  177.07    5.92
  -5   1  -6  183.53    5.91
  -5   1  -6  182.97    6.58
   6  -1   6    5.33    0.38
  -6  -1  -6    4.54    1.25
  -6  -1  -6    5.47    0.47
   6   1   6    4.68    0.38
  -6   1  -6    5.06    0.43
  -6   1  -6    5.79    1.09
  -7  -1  -6    0.27    0.33
  -7  -1  -6    0.08    1.14
  -7   1  -6    0.58    0.93
  -7   1  -6    0.67    0.32
  10  -2  -6  138.27    5.84
  10  -2  -6  136.07    5.48
 -10  -2   6  131.63    5.88
 -10  -2   6  133.10    5.51
 -10   2   6  132.33    5.53
 -10   2   6  141.67    5.56
  10   2  -6  132.67    5.46
  10   2  -6  138.15    5.37
   9  -2  -6   24.83    2.09
  -9  -2   6   29.74    2.77
  -9  -2   6   26.56    2.12
   9  -2  -6   27.59    2.29
   9   2  -6   26.14    1.74
   9   2  -6   23.85    2.07
  -9   2   6   29.68    2.19
  -9   2   6   28.94    2.36
  -8  -2   6   45.01    2.51
   8  -2  -6   45.35    2.58
  -8  -2   6   45.80    2.55
  -8  -2   6   47.31    3.03
   8  -2  -6   42.74    2.55
  -8  -2   6   48.94    2.60
  -8   2   6   46.37    2.43
   8   2  -6   48.33    2.33
  -8   2   6   49.63    2.61
   8   2  -6   44.88    2.49
   8   2  -6   47.27    2.55
   7  -2  -6   30.79    2.03
  -7  -2   6   29.30    2.05
  -7  -2   6   30.14    1.77
   7  -2  -6   29.68    2.31
  -7  -2   6   34.67    2.74
   7  -2  -6   27.72    1.93
  -7  -2   6   31.37    1.82
   7   2  -6   29.56    1.98
  -7   2   6   30.94    1.78
  -7   2   6   29.67    1.98
   7   2  -6   33.06    2.01
   7   2  -6   33.26    1.82
   6  -2  -6  132.29    4.90
   6  -2  -6  132.61    5.21
  -6  -2   6  131.79    4.87
  -6  -2   6  130.66    5.00
   6  -2  -6  128.38    4.98
  -6  -2   6  133.47    4.94
  -6   2   6  131.90    4.95
   6   2  -6  130.07    5.00
   6   2  -6  133.03    4.94
  -6   2   6  127.40    4.93
   6   2  -6  134.07    4.95
   5  -2  -6   60.76    2.71
   5  -2  -6   60.83    2.75
  -5  -2   6   55.81    2.78
  -5  -2   6   55.07    2.56
  -5  -2   6   58.96    2.55
   5  -2  -6   60.30    2.59
  -5   2   6   63.61    2.73
   5   2  -6   58.73    2.73
   5   2  -6   58.90    2.76
  -5   2   6   64.97    2.65
   5   2  -6   62.37    2.65
  -4  -2   6  137.53    5.09
   4  -2  -6  141.88    5.08
   4  -2  -6  138.07    5.20
  -4  -2   6  141.70    5.03
   4  -2  -6  134.47    4.96
  -4   2   6  137.88    4.98
  -4   2   6  135.76    5.02
   4   2  -6  144.90    4.96
   4   2  -6  132.75    5.03
   4   2  -6  134.90    5.03
  -3  -2   6   54.15    2.22
   3  -2  -6   52.11    2.38
   3  -2  -6   58.59    2.37
   3  -2  -6   61.50    2.58
  -3  -2   6   52.69    2.31
   3   2  -6   55.23    2.37
  -3   2   6   52.22    2.36
   3   2  -6   55.53    2.28
  -2  -2   6   17.88    1.09
   2  -2  -6   21.81    1.22
  -2  -2   6   23.71    1.44
   2   2  -6   22.61    1.41
   2   2  -6   15.90    1.05
   1  -2  -6   -0.82    0.56
   1  -2  -6    0.59    0.52
  -1  -2   6   -0.43    0.29
   1  -2  -6    0.30    0.36
  -1  -2   6    0.27    0.59
   1  -2  -6    0.36    0.50
   1   2  -6   -0.51    0.42
  -1   2   6    0.41    0.36
  -1   2   6    0.50    0.52
   1   2  -6    0.15    0.39
   1   2  -6    0.51    0.32
   0  -2  -6   76.43    2.84
   0  -2  -6   75.63    3.04
   0  -2   6   75.97    2.81
   0  -2  -6   74.69    2.92
   0  -2  -6   73.55    2.63
   0   2   6   78.31    2.81
   0   2  -6   77.90    2.96
   0   2  -6   76.38    2.88
   1  -2   6  119.18    4.16
  -1  -2  -6  119.21    4.47
  -1  -2  -6  119.52    4.17
  -1  -2  -6  119.69    4.15
  -1  -2  -6  116.47    4.34
  -1  -2  -6  119.79    4.14
   1   2   6  118.01    4.12
  -1   2  -6  116.02    4.30
  -1   2  -6  120.91    4.13
  -1   2  -6  119.03    4.18
  -2  -2  -6    2.17    0.42
   2  -2   6    1.55    0.43
  -2  -2  -6    2.33    0.30
  -2  -2  -6    3.32    0.68
  -2  -2  -6    2.22    0.39
   2  -2   6    2.04    0.39
  -2  -2  -6    2.08    0.91
  -2   2  -6    2.01    0.34
   2   2   6    1.57    0.36
   2   2   6    2.50    0.56
  -2   2  -6    1.58    0.41
  -2   2  -6    1.70    0.48
  -3  -2  -6    2.53    0.38
   3  -2   6    1.78    0.45
  -3  -2  -6    3.12    0.99
  -3  -2  -6    2.19    0.51
  -3   2  -6    2.03    0.49
   3   2   6    2.74    0.37
  -3   2  -6    1.91    0.38
  -4  -2  -6   16.43    1.09
  -4  -2  -6   19.77    1.65
  -4  -2  -6   17.73    0.90
  -4   2  -6   16.67    0.90
   4   2   6   17.09    0.89
  -4   2  -6   16.49    1.17
  -5  -2  -6    7.53    1.14
  -5  -2  -6    6.77    0.56
  -5  -2  -6    6.78    0.87
  -5   2  -6    7.34    0.57
   5   2   6    7.29    0.56
   6  -2   6   31.22    1.35
  -6  -2  -6   26.84    2.48
  -6  -2  -6   33.64    1.73
  -6  -2  -6   31.61    1.39
  -6   2  -6   31.94    1.91
   6   2   6   30.72    1.37
  -6   2  -6   32.33    1.37
   7  -2   6    6.78    0.64
  -7  -2  -6    6.44    1.54
  -7  -2  -6    5.72    0.62
   7   2   6    6.60    0.59
  -7   2  -6    7.06    0.65
  10  -3  -6    4.35    1.28
 -10  -3   6    2.16    1.29
 -10  -3   6    2.48    2.06
 -10  -3   6    4.21    1.02
  10  -3  -6    3.67    1.31
 -10   3   6    2.45    0.97
  10   3  -6    3.90    1.09
  10   3  -6    2.63    0.91
  -9  -3   6    2.52    0.83
   9  -3  -6    2.92    1.11
   9  -3  -6    3.27    1.15
  -9  -3   6    1.33    1.94
  -9   3   6    1.73    1.42
  -9   3   6    1.29    1.14
   9   3  -6    2.96    0.84
   9   3  -6    1.80    0.98
  -8  -3   6    0.84    1.00
   8  -3  -6    0.01    0.70
   8  -3  -6   -1.65    1.22
  -8  -3   6   -0.91    1.25
   8   3  -6    0.73    0.98
  -8   3   6    0.92    0.73
  -8   3   6   -0.05    0.87
   8   3  -6   -0.06    0.88
  -7  -3   6   61.24    2.93
  -7  -3   6   58.64    3.81
   7  -3  -6   60.69    3.00
   7  -3  -6   60.38    2.84
   7  -3  -6   58.71    2.72
   7   3  -6   57.46    2.84
  -7   3   6   55.21    2.87
  -7   3   6   58.52    2.64
   7   3  -6   59.71    2.89
   7   3  -6   60.33    2.86
   6  -3  -6    2.22    0.91
  -6  -3   6    2.02    0.89
   6  -3  -6    2.43    0.69
   6  -3  -6    3.12    1.16
   6   3  -6    2.31    0.70
   6   3  -6    1.43    0.69
   6   3  -6    1.27    0.63
  -6   3   6    2.12    0.92
  -6   3   6    2.72    0.95
   5  -3  -6   51.10    2.34
   5  -3  -6   54.87    2.51
  -5  -3   6   49.83    2.44
  -5  -3   6   50.40    2.64
   5  -3  -6   52.07    2.73
  -5   3   6   47.10    2.49
   5   3  -6   52.96    2.39
   5   3  -6   50.10    2.29
  -5   3   6   50.28    2.43
   5   3  -6   51.56    2.41
   4  -3  -6   38.85    2.13
  -4  -3   6   43.98    2.09
   4  -3  -6   41.77    2.11
   4  -3  -6   40.46    2.14
  -4  -3   6   41.67    2.31
  -4   3   6   41.95    2.15
   4   3  -6   44.10    2.08
   4   3  -6   40.46    2.20
   4   3  -6   42.17    2.06
   3  -3  -6  152.51    5.52
   3  -3  -6  153.87    5.61
  -3  -3   6  152.96    5.55
  -3  -3   6  156.22    5.49
   3  -3  -6  158.11    5.60
  -3   3   6  158.96    5.56
   3   3  -6  158.29    5.67
   3   3  -6  142.81    5.61
   3   3  -6  155.29    5.47
   2  -3  -6   19.32    1.28
  -2  -3   6   20.69    1.19
   2  -3  -6   20.75    1.31
   2  -3  -6   18.30    1.41
  -2  -3   6   20.06    1.59
   2  -3  -6   19.55    1.40
   2   3  -6   19.56    1.17
   2   3  -6   20.20    1.32
   2   3  -6   18.03    1.49
  -2   3   6   21.05    1.42
   1  -3  -6   28.10    1.59
   1  -3  -6   24.47    1.46
  -1  -3   6   24.56    1.21
  -1  -3   6   24.19    1.40
   1  -3  -6   25.28    1.33
   1  -3  -6   25.23    1.46
  -1   3   6   25.49    1.46
   1   3  -6   23.36    1.37
   1   3  -6   24.97    1.46
   1   3  -6   25.27    1.20
   0  -3  -6   65.35    2.45
   0  -3   6   66.72    2.60
   0  -3  -6   65.94    2.70
   0  -3  -6   66.58    2.58
   0  -3  -6   66.98    2.90
   0  -3  -6   63.06    2.56
   0   3  -6   67.17    2.74
   0   3  -6   67.48    2.38
   0   3   6   64.45    2.60
   0   3  -6   67.41    2.69
  -1  -3  -6   44.35    2.27
  -1  -3  -6   42.87    1.87
  -1  -3  -6   41.38    1.95
  -1   3  -6   41.34    1.90
  -1   3  -6   43.91    2.14
   1   3   6   41.72    1.84
  -2  -3  -6   77.34    3.44
   2  -3   6   77.87    2.72
  -2  -3  -6   78.42    2.78
  -2  -3  -6   78.50    3.12
  -2  -3  -6   79.30    2.97
  -2   3  -6   79.54    3.23
   2   3   6   78.33    2.93
  -2   3  -6   78.13    2.97
  -3  -3  -6   38.69    1.71
  -3  -3  -6   37.60    2.13
  -3  -3  -6   39.21    1.88
   3   3   6   38.75    1.68
  -3   3  -6   41.02    2.05
  -3   3  -6   38.95    1.72
  -4  -3  -6    2.91    0.63
  -4  -3  -6    2.87    0.53
  -4  -3  -6    3.56    1.20
  -4   3  -6    3.35    0.56
  -4   3  -6    3.14    0.66
   4   3   6    3.04    0.51
   5  -3   6   12.17    0.88
  -5  -3  -6    7.79    1.23
  -5  -3  -6    7.15    0.71
  -5   3  -6   13.56    1.14
   5   3   6    6.76    0.69
  -6  -3  -6   84.38    4.09
  -6  -3  -6   80.32    3.09
  -6  -3  -6   81.36    3.41
   6  -3   6   78.58    3.07
  -6   3  -6   80.12    3.10
   6   3   6   85.09    3.08
   7  -3   6    6.51    0.81
  -7  -3  -6    8.06    1.70
  -7  -3  -6    6.99    0.80
  -7  -3  -6    6.33    0.86
  -7   3  -6    6.15    0.80
   7   3   6    7.91    0.80
  -9  -4   6    9.83    1.80
   9  -4  -6    9.75    1.25
  -9  -4   6    9.66    1.47
  -9  -4   6   11.79    1.40
   9   4  -6    7.01    1.36
   9   4  -6    9.89    1.32
  -9   4   6    9.49    1.25
  -8  -4   6   12.91    1.36
  -8  -4   6    9.91    1.80
   8  -4  -6   14.53    1.55
  -8  -4   6   12.29    1.40
   8   4  -6   14.82    1.49
   8   4  -6   12.69    1.49
  -8   4   6   15.89    1.64
  -7  -4   6   23.53    2.19
  -7  -4   6   19.75    1.72
   7  -4  -6   21.54    1.83
  -7  -4   6   23.54    1.67
   7  -4  -6   19.71    1.71
  -7   4   6   22.25    1.67
   7   4  -6   21.48    1.66
   7   4  -6   20.47    1.56
   7   4  -6   21.80    1.73
  -7   4   6   24.85    1.97
  -6  -4   6    7.93    1.53
  -6  -4   6    7.24    1.16
   6  -4  -6    9.55    1.04
   6  -4  -6    5.46    1.11
   6   4  -6    6.74    1.16
  -6   4   6    5.92    0.93
  -6   4   6    6.93    1.13
   6   4  -6    7.00    0.96
   6   4  -6    5.24    1.15
  -5  -4   6   48.34    2.46
   5  -4  -6   49.94    2.50
  -5  -4   6   52.06    2.91
   5  -4  -6   51.41    2.50
   5   4  -6   45.66    2.26
  -5   4   6   45.23    2.46
   5   4  -6   46.04    2.49
   5   4  -6   47.49    2.38
  -4  -4   6    4.11    0.89
   4  -4  -6    4.74    0.99
   4  -4  -6    6.23    0.96
   4   4  -6    4.00    0.86
  -4   4   6    4.35    0.78
   4   4  -6    3.68    0.78
   4   4  -6    3.46    1.03
   3  -4  -6   54.68    2.53
  -3  -4   6   64.66    2.61
   3  -4  -6   54.95    2.55
   3  -4  -6   61.42    2.64
   3   4  -6   62.98    2.81
   3   4  -6   58.78    2.55
   3   4  -6   57.24    2.79
  -3   4   6   58.23    2.69
  -2  -4   6   14.69    0.99
   2  -4  -6   12.61    1.08
   1  -4  -6  101.77    3.87
   1  -4  -6  105.61    4.08
  -1  -4   6  100.50    3.80
   1  -4  -6  103.42    3.99
   1  -4  -6  101.36    3.99
   1  -4  -6  105.19    3.87
  -1  -4   6  103.74    3.82
  -1   4   6  104.51    3.96
   1   4  -6  107.14    3.78
   1   4  -6  105.05    4.06
   1   4  -6  102.69    4.04
   0  -4   6   74.49    2.83
   0  -4  -6   74.50    2.95
   0  -4  -6   69.75    2.85
   0  -4  -6   76.78    3.24
   0  -4  -6   70.53    3.11
   0   4  -6   77.21    3.13
   0   4  -6   73.01    3.07
   0   4   6   77.27    2.93
  -1  -4  -6    5.97    0.81
   1  -4   6    5.88    0.57
  -1  -4  -6    4.85    0.97
  -1  -4  -6    5.32    0.91
   1   4   6    5.14    0.77
  -1   4  -6    6.21    0.89
  -1   4  -6    5.27    1.00
  -2  -4  -6    6.86    0.73
  -2  -4  -6    8.40    1.07
  -2  -4  -6    5.48    0.82
  -2   4  -6    6.77    0.89
   2   4   6    5.50    0.77
  -2   4  -6    6.78    0.87
  -3  -4  -6  159.07    5.78
  -3  -4  -6  162.79    5.96
  -3  -4  -6  166.92    6.30
   3   4   6  161.49    5.75
  -3   4  -6  166.65    6.06
  -3   4  -6  158.43    5.78
  -4  -4  -6  105.07    4.09
  -4  -4  -6  108.87    4.30
  -4  -4  -6  116.47    4.82
   4   4   6  112.74    4.08
  -4   4  -6  106.55    4.09
  -4   4  -6  110.44    4.30
  -5  -4  -6    2.99    0.72
  -5  -4  -6    3.18    1.04
   5  -4   6    2.79    0.72
  -5  -4  -6    1.09    0.60
  -5   4  -6    5.81    1.03
  -5   4  -6    1.04    0.65
   5   4   6    2.44    0.63
  -6  -4  -6    5.13    0.79
  -6  -4  -6    2.49    1.49
  -6  -4  -6    5.25    1.07
   6  -4   6    5.56    0.91
  -6   4  -6    6.21    0.84
   6   4   6    5.84    0.79
  -8  -5   6   91.20    4.19
  -8  -5   6   94.23    4.99
   8  -5  -6   88.67    4.11
  -8  -5   6   90.47    4.22
   8   5  -6   92.35    4.10
   8   5  -6   85.79    3.92
  -8   5   6   86.40    4.10
   7  -5  -6   -1.20    0.99
  -7  -5   6   -0.02    1.04
  -7  -5   6    1.42    1.21
  -7  -5   6   -2.31    1.66
  -7   5   6   -1.13    1.02
  -7   5   6    1.05    0.73
   7   5  -6    0.36    0.74
   7   5  -6    1.81    1.01
  -6  -5   6   34.92    2.04
  -6  -5   6   31.15    2.05
   6  -5  -6   35.29    2.02
  -6  -5   6   32.94    2.57
   6  -5  -6   36.11    2.32
   6   5  -6   35.41    2.10
   6   5  -6   38.47    2.29
   6   5  -6   32.99    2.00
  -6   5   6   33.58    2.24
   5  -5  -6    0.59    0.95
  -5  -5   6   -0.51    1.50
  -5  -5   6    0.12    0.60
  -5  -5   6    0.02    0.72
   5  -5  -6    0.60    0.94
   5   5  -6    1.04    1.01
  -5   5   6   -0.43    0.63
   5   5  -6   -0.89    0.64
   5   5  -6   -0.34    0.86
  -4  -5   6  154.46    5.98
   4  -5  -6  147.83    5.53
  -4  -5   6  146.27    5.54
  -4  -5   6  142.98    5.48
   4  -5  -6  150.10    5.55
   4   5  -6  141.77    5.40
   4   5  -6  146.85    5.58
   4   5  -6  139.26    5.61
  -4   5   6  151.21    5.56
  -3  -5   6   30.71    1.85
  -3  -5   6   29.36    1.77
   3  -5  -6   29.17    1.93
   3  -5  -6   29.53    1.84
   3  -5  -6   22.69    1.57
  -3  -5   6   26.23    2.09
   3   5  -6   29.43    1.79
  -3   5   6   21.37    1.59
   3   5  -6   28.60    1.69
   3   5  -6   28.39    1.78
  -2  -5   6   11.82    1.04
  -2  -5   6   15.67    1.30
   2  -5  -6   14.56    1.33
   2  -5  -6   13.71    1.15
   2  -5  -6   13.15    1.29
  -2   5   6   15.81    1.31
   2   5  -6   12.80    1.07
   2   5  -6   12.43    1.37
   2   5  -6   14.09    1.40
   1  -5  -6    2.61    0.89
   1  -5  -6    3.93    0.76
   1  -5  -6    3.56    0.78
   1  -5  -6    5.42    1.02
  -1  -5   6    3.33    0.76
   1   5  -6    3.50    0.77
   1   5  -6    4.14    1.05
  -1   5   6    3.26    0.71
   1   5  -6    3.80    1.01
   0  -5  -6   48.75    2.19
   0  -5  -6   49.21    2.28
   0  -5  -6   49.14    2.50
   0  -5   6   49.98    2.14
   0  -5  -6   47.64    2.50
   0   5  -6   48.70    2.49
   0   5  -6   51.03    2.46
   0   5   6   49.11    2.24
  -1  -5  -6   34.05    1.90
  -1  -5  -6   34.41    1.98
  -1  -5  -6   32.34    1.75
   1  -5   6   34.05    1.53
  -1   5  -6   33.70    1.99
   1   5   6   35.13    1.90
  -1   5  -6   31.20    2.17
  -2  -5  -6   13.30    1.36
  -2  -5  -6   12.18    1.16
  -2  -5  -6   12.47    1.38
  -2   5  -6   14.31    1.30
   2   5   6   10.65    0.98
  -3  -5  -6   11.63    1.34
  -3  -5  -6   10.04    1.52
  -3  -5  -6    8.16    1.02
  -3   5  -6    9.80    1.15
   3   5   6   10.60    1.09
  -3   5  -6    9.11    1.11
  -4  -5  -6   81.99    3.36
  -4  -5  -6   83.07    4.05
   4  -5   6   83.11    3.38
  -4  -5  -6   81.26    3.50
   4   5   6   81.45    3.33
  -4   5  -6   75.93    3.25
  -4   5  -6   79.04    3.49
  -5  -5  -6   17.07    1.79
   5  -5   6   16.23    1.34
  -5  -5  -6   18.61    1.47
  -5  -5  -6   16.88    1.64
  -5   5  -6   17.87    1.48
   5   5   6   19.80    1.49
  -7  -6   6   37.88    3.35
  -7  -6   6   35.54    2.60
   7  -6  -6   42.61    2.72
  -7  -6   6   37.87    2.41
   7   6  -6   42.70    2.38
   7   6  -6   37.88    2.26
  -7   6   6   39.17    2.66
   6  -6  -6   20.46    1.82
  -6  -6   6   15.87    1.79
   6  -6  -6   21.00    1.81
  -6  -6   6   19.38    1.65
  -6  -6   6   19.36    1.93
   6   6  -6   19.53    1.76
  -6   6   6   20.14    1.65
   6   6  -6   18.27    1.70
   6   6  -6   18.95    1.68
  -5  -6   6   97.51    4.28
  -5  -6   6   96.39    4.32
   5  -6  -6  100.28    4.25
   5  -6  -6   95.88    4.21
  -5  -6   6   97.62    4.11
   5   6  -6   95.84    4.15
   5   6  -6   99.48    4.36
  -5   6   6   97.91    4.19
   5   6  -6  102.66    4.30
  -4  -6   6    5.14    1.10
   4  -6  -6    6.44    1.15
  -4  -6   6    4.87    1.51
   4  -6  -6    5.36    0.97
   4  -6  -6    5.69    0.96
  -4  -6   6    6.99    1.00
   4   6  -6    5.35    1.22
   4   6  -6    5.65    1.02
  -4   6   6    6.81    1.20
   4   6  -6    5.31    0.87
   3  -6  -6   10.04    1.30
   3  -6  -6   14.15    1.32
  -3  -6   6   11.29    1.29
   3  -6  -6   10.78    1.21
  -3  -6   6   10.23    1.55
   3   6  -6   10.90    1.03
   3   6  -6   11.89    1.45
   3   6  -6    8.96    1.37
  -3   6   6   14.17    1.42
   2  -6  -6   -0.39    0.65
  -2  -6   6    0.41    1.10
   2  -6  -6   -0.12    0.80
  -2  -6   6    2.35    0.87
   2  -6  -6    1.36    0.73
   2   6  -6    1.41    0.80
   2   6  -6    2.28    0.82
  -2   6   6   -0.49    0.89
   2   6  -6    0.39    0.71
  -1  -6   6   59.69    2.86
   1  -6  -6   63.08    2.86
   1  -6  -6   61.98    2.76
  -1  -6   6   64.38    2.74
   1  -6  -6   59.32    2.84
   1   6  -6   61.91    2.96
   1   6  -6   62.53    3.08
  -1   6   6   60.35    2.94
   0  -6   6   -0.05    0.58
   0  -6  -6    0.61    0.67
   0  -6  -6    0.21    0.66
   0  -6  -6    1.45    0.91
   0   6   6   -0.14    0.89
   0   6  -6    1.43    0.77
   0   6  -6    0.09    0.73
  -1  -6  -6    7.88    1.29
  -1  -6  -6    6.44    1.29
  -1  -6  -6    6.52    1.13
  -1   6  -6    6.49    1.06
   1   6   6    6.74    1.10
  -1   6  -6    8.18    1.21
  -2  -6  -6    0.56    0.85
  -2  -6  -6    0.60    1.00
   2  -6   6    1.55    1.00
  -2  -6  -6    0.77    1.14
  -2   6  -6    1.99    0.99
  -2   6  -6    0.84    1.09
   2   6   6    0.89    0.86
  -3  -6  -6   50.73    2.62
   3  -6   6   50.45    2.68
  -3  -6  -6   49.80    2.86
  -3  -6  -6   50.63    2.82
   3   6   6   50.95    2.58
  -3   6  -6   52.14    2.67
  -3   6  -6   54.47    2.98
  -4  -6  -6    2.54    0.86
  -4  -6  -6   -0.28    1.36
   4  -6   6    0.61    0.98
  -4  -6  -6    0.67    0.88
  -4   6  -6    1.80    0.97
  -4   6  -6    1.49    1.19
   4   6   6    0.37    0.88
  -5  -7   6    2.81    1.52
   5  -7  -6    7.16    1.15
   5  -7  -6    5.63    1.36
  -5  -7   6    4.58    1.27
  -5  -7   6    7.00    1.15
   5   7  -6    7.28    1.25
   5   7  -6    5.10    1.00
   5   7  -6    4.85    1.07
  -5   7   6    3.84    1.25
   4  -7  -6   84.03    3.67
  -4  -7   6   82.33    3.84
   4  -7  -6   87.76    3.97
  -4  -7   6   86.65    3.99
   4  -7  -6   87.70    3.89
   4   7  -6   82.75    3.76
  -4   7   6   80.83    3.68
   4   7  -6   85.53    3.86
   4   7  -6   82.58    3.79
  -3  -7   6    0.69    1.10
   3  -7  -6    0.83    0.81
   3  -7  -6    0.36    1.04
  -3  -7   6    3.33    1.06
   3  -7  -6    1.40    0.75
  -3   7   6    0.02    1.06
   3   7  -6    0.03    0.83
   3   7  -6    0.59    0.84
  -2  -7   6    1.42    0.92
   2  -7  -6    3.23    0.92
   2  -7  -6    2.16    0.79
  -2   7   6    3.25    1.15
   2   7  -6    2.26    1.26
   2   7  -6    3.59    1.23
   1  -7  -6    0.07    0.73
  -1  -7   6   -0.70    1.11
  -1  -7   6    0.65    0.79
   1  -7  -6    0.91    1.09
   1   7  -6    0.00    1.16
   1   7  -6   -0.25    0.81
  -1   7   6    0.59    1.03
   0  -7   6   82.69    3.86
   0  -7  -6   82.96    3.85
   0  -7  -6   84.84    3.68
   0  -7  -6   80.98    3.69
   0   7   6   81.25    3.72
   0   7  -6   89.36    3.91
   0   7  -6   78.91    3.96
   1  -7   6    1.84    0.86
  -1  -7  -6    0.63    0.76
  -1  -7  -6    1.51    1.13
  -1  -7  -6    2.22    0.89
  -1   7  -6    3.48    1.21
   1   7   6    2.21    0.81
  -1   7  -6    3.11    1.27
  -2  -7  -6   33.69    2.16
   2  -7   6   31.72    2.37
  -2  -7  -6   31.23    2.02
  -2  -7  -6   33.67    2.58
  -2   7  -6   38.39    2.42
   2   7   6   30.19    1.94
  -2   7  -6   28.65    2.54
  10   0  -7   -0.48    1.09
  10   0  -7   -0.46    0.74
 -10   0   7   -0.18    0.77
 -10   0   7   -0.56    0.70
  10   0  -7    1.07    0.90
 -10   0   7    2.01    1.34
   9   0  -7   43.39    2.81
  -9   0   7   36.61    2.49
   9   0  -7   38.88    2.32
  -9   0   7   47.39    3.63
   9   0  -7   43.27    2.53
  -9   0   7   41.57    2.41
  -9   0   7   41.79    2.53
   8   0  -7   -0.93    0.96
  -8   0   7   -0.07    0.65
   8   0  -7   -0.28    0.62
  -8   0   7    0.80    0.93
   8   0  -7   -0.92    0.85
  -8   0   7    0.19    0.70
   8   0  -7   -1.02    1.02
  -7   0   7  176.65    6.44
   7   0  -7  173.19    6.54
  -7   0   7  171.87    6.35
  -7   0   7  177.56    6.44
   7   0  -7  187.75    6.50
   7   0  -7  174.05    6.50
   7   0  -7  171.34    6.47
  -6   0   7    0.16    0.75
   6   0  -7   -0.48    0.86
   6   0  -7    0.27    0.89
  -6   0   7    0.42    0.88
   6   0  -7    0.32    0.68
   6   0  -7    0.55    0.56
  -6   0   7   -0.75    0.76
   5   0  -7   -0.05    0.49
  -5   0   7   -0.23    0.86
   5   0  -7    0.69    0.61
  -5   0   7    0.11    0.70
  -5   0   7    0.88    0.52
   5   0  -7    0.36    0.87
   5   0  -7   -0.49    0.82
  -4   0   7   -0.22    0.58
  -4   0   7    0.66    0.42
   4   0  -7   -0.09    0.76
   4   0  -7    0.47    0.54
   4   0  -7   -0.44    0.40
  -4   0   7    0.26    0.57
  -3   0   7  335.02   11.46
   3   0  -7  345.13   11.63
   3   0  -7  342.78   11.56
   3   0  -7  347.12   11.42
  -3   0   7  343.61   11.39
  -3   0   7  338.63   11.51
  -2   0   7    0.45    0.61
   2   0  -7    0.46    0.60
   2   0  -7   -0.45    0.42
  -2   0   7    0.23    0.36
   2   0  -7    0.49    0.28
  -2   0   7    0.65    0.39
  -1   0   7  110.56    3.93
  -1   0   7  109.67    3.75
   1   0  -7  107.14    4.04
   1   0  -7  112.93    3.70
   1   0  -7  107.39    3.91
   0   0  -7    0.36    0.40
   0   0  -7   -0.27    0.33
   0   0   7   -0.07    0.17
   0   0  -7    0.18    0.35
   0   0   7    0.17    0.41
  -1   0  -7  122.27    4.26
   1   0   7  122.74    4.23
  -1   0  -7  127.45    4.27
   1   0   7  121.17    4.23
  -1   0  -7  128.77    4.41
   2   0   7   -0.26    0.25
  -2   0  -7   -0.02    0.86
  -2   0  -7   -0.27    0.22
   2   0   7    0.30    0.22
  -2   0  -7   -0.03    0.26
  -2   0  -7    0.35    0.39
  -3   0  -7  124.37    4.28
   3   0   7   90.84    3.42
  -3   0  -7  118.69    3.68
  -3   0  -7   97.34    3.45
   3   0   7   94.04    3.43
  -3   0  -7  105.38    3.45
  -4   0  -7    0.07    0.11
  -4   0  -7    0.15    0.11
  -4   0  -7   -0.33    0.63
  -5   0  -7   -0.10    0.70
  -6   0  -7   -0.56    1.02
  -7   0  -7   29.46    2.08
  10  -1  -7   14.04    1.81
 -10  -1   7   15.20    1.92
 -10  -1   7   14.34    1.46
 -10   1   7   11.02    1.32
 -10   1   7   15.67    2.19
  10   1  -7   14.26    1.68
  10   1  -7   21.80    1.66
 -10   1   7   16.63    1.71
  -9  -1   7    1.79    1.05
   9  -1  -7    2.82    1.11
  -9  -1   7    4.16    1.20
  -9  -1   7    3.19    1.45
   9  -1  -7    5.19    1.34
  -9  -1   7    2.77    1.09
  -9   1   7    1.95    1.02
  -9   1   7    1.51    1.13
   9   1  -7    2.04    1.09
   9   1  -7    1.93    0.82
   9   1  -7    1.47    1.20
  -9   1   7    4.30    1.16
  -8  -1   7   71.61    3.35
   8  -1  -7   75.69    3.22
  -8  -1   7   72.07    3.17
   8  -1  -7   71.98    3.31
   8  -1  -7   73.59    3.42
  -8  -1   7   72.75    3.39
  -8   1   7   70.92    3.19
   8   1  -7   71.82    3.20
  -8   1   7   78.61    3.42
   8   1  -7   74.37    3.27
   8   1  -7   77.00    3.36
  -8   1   7   74.40    3.29
  -7  -1   7  123.73    4.71
   7  -1  -7  118.74    4.78
   7  -1  -7  118.71    4.70
  -7  -1   7  115.18    4.65
   7  -1  -7  120.77    4.61
  -7  -1   7  118.05    4.64
  -7   1   7  114.90    4.56
   7   1  -7  127.28    4.72
  -7   1   7  115.45    4.69
   7   1  -7  122.86    4.69
   7   1  -7  126.13    4.67
  -7   1   7  117.08    4.65
  -6  -1   7   73.47    3.31
   6  -1  -7   73.10    3.10
  -6  -1   7   74.47    3.07
   6  -1  -7   71.78    3.28
  -6  -1   7   78.44    3.17
   6  -1  -7   74.75    3.48
   6   1  -7   76.36    3.19
   6   1  -7   71.98    3.22
  -6   1   7   74.61    3.14
  -6   1   7   79.33    3.12
  -6   1   7   78.75    3.27
   6   1  -7   79.85    3.37
   5  -1  -7    7.91    1.20
  -5  -1   7    8.56    1.11
  -5  -1   7    7.43    0.99
   5  -1  -7    7.76    1.01
   5  -1  -7    7.49    0.90
  -5  -1   7    6.92    0.92
  -5   1   7    7.39    0.89
   5   1  -7    8.74    1.13
  -5   1   7    7.82    0.86
   5   1  -7    8.13    0.93
  -5   1   7    7.84    0.83
   5   1  -7    6.72    0.81
   4  -1  -7   83.27    3.27
   4  -1  -7   81.55    3.28
  -4  -1   7   82.04    3.38
   4  -1  -7   81.39    3.48
  -4  -1   7   88.49    3.19
  -4  -1   7   81.15    3.26
   4   1  -7   87.90    3.26
   4   1  -7   81.24    3.33
  -4   1   7   84.25    3.22
   4   1  -7   83.70    3.41
  -4   1   7   82.00    3.24
  -4   1   7   80.02    3.14
  -3  -1   7   14.67    0.99
  -3  -1   7   16.29    1.41
   3  -1  -7   17.50    1.35
   3  -1  -7   15.42    1.18
   3  -1  -7   17.13    1.32
   3  -1  -7   16.15    1.00
  -3  -1   7   15.93    1.09
  -3   1   7   15.40    1.09
   3   1  -7   15.15    0.95
  -3   1   7   14.41    0.97
   3   1  -7   15.31    1.37
  -3   1   7   15.18    1.16
   3   1  -7   16.37    1.27
  -2  -1   7    2.22    0.45
   2  -1  -7    2.27    0.64
   2  -1  -7    1.76    0.55
  -2  -1   7    2.00    0.40
  -2  -1   7    2.37    0.54
   2  -1  -7    2.26    0.48
  -2   1   7    2.67    0.67
   2   1  -7    2.52    0.75
  -2   1   7    2.62    0.49
   2   1  -7    2.33    0.45
  -2   1   7    2.55    0.51
   2   1  -7    2.14    0.54
   1  -1  -7   13.99    1.03
   1  -1  -7   14.31    0.99
   1  -1  -7   13.87    0.71
  -1  -1   7   13.55    1.00
   1   1  -7   14.82    1.24
  -1   1   7   13.27    1.04
   1   1  -7   13.71    1.01
   1   1  -7   14.61    0.67
   0  -1   7  206.80    7.07
   0  -1  -7  206.89    7.15
   0  -1  -7  212.86    7.09
   0   1  -7  214.69    7.09
   0   1  -7  206.42    7.11
   0   1   7  208.42    7.05
   0   1  -7  207.99    7.23
  -1  -1  -7   -0.32    0.37
  -1  -1  -7   -0.66    0.59
   1  -1   7   -0.58    0.44
   1  -1   7    0.72    0.28
  -1  -1  -7    0.35    0.34
  -1   1  -7    0.15    0.34
   1   1   7    0.33    0.32
   1   1   7   -0.52    0.39
  -1   1  -7    0.45    0.53
  -1   1  -7   -0.31    0.45
  -2  -1  -7    1.56    0.36
  -2  -1  -7    1.10    0.94
   2  -1   7    1.66    0.39
  -2  -1  -7    1.21    0.34
  -2  -1  -7    1.75    0.59
  -2   1  -7    1.51    0.32
   2   1   7    1.99    0.36
  -2   1  -7    1.41    0.34
  -2   1  -7    2.32    0.56
  -3  -1  -7   11.73    1.18
   3  -1   7   12.68    0.64
  -3  -1  -7   13.44    0.68
  -3  -1  -7   13.69    1.02
   3   1   7    9.85    0.63
  -3   1  -7    9.95    0.58
  -3   1  -7   13.50    0.71
  -3   1  -7   12.08    0.97
  -4  -1  -7   54.86    1.99
   4  -1   7   56.26    1.95
  -4  -1  -7   60.01    2.35
  -4  -1  -7   64.45    2.97
  -4   1  -7   57.56    2.26
  -4   1  -7   58.70    2.74
   4   1   7   54.41    1.96
  -4   1  -7   52.82    1.97
   5  -1   7    4.21    0.32
  -5  -1  -7    4.37    0.36
  -5  -1  -7    5.13    1.26
   5   1   7    4.26    0.33
  -5   1  -7    4.00    0.83
  -5   1  -7    4.22    0.34
  -6  -1  -7    5.21    1.35
  -6  -1  -7    4.83    0.38
  -6   1  -7    3.93    0.89
  -6   1  -7    4.50    0.37
  -7  -1  -7   29.89    2.20
  -7  -1  -7   27.58    1.16
  -7   1  -7   25.65    2.13
 -10  -2   7   75.41    3.43
  10  -2  -7   70.78    3.35
  10  -2  -7   69.73    3.65
 -10  -2   7   75.61    4.08
  10   2  -7   71.19    3.55
 -10   2   7   76.99    3.72
 -10   2   7   70.00    3.59
 -10   2   7   66.64    3.34
  10   2  -7   69.51    3.44
   9  -2  -7   65.93    3.06
  -9  -2   7   64.00    3.10
  -9  -2   7   61.03    4.18
   9  -2  -7   66.91    3.64
   9   2  -7   62.77    3.22
  -9   2   7   67.10    3.28
   9   2  -7   65.13    3.19
   8  -2  -7    3.90    1.09
   8  -2  -7    3.45    1.09
  -8  -2   7    5.07    1.57
   8  -2  -7    4.20    1.07
  -8  -2   7    6.41    1.21
  -8  -2   7    4.53    1.13
  -8  -2   7    1.94    1.04
   8   2  -7    2.68    0.85
   8   2  -7    5.14    1.12
  -8   2   7    3.25    1.03
   8   2  -7    3.59    0.89
  -8   2   7    4.84    0.93
   7  -2  -7   35.25    2.23
  -7  -2   7   34.61    1.95
   7  -2  -7   37.24    2.24
  -7  -2   7   34.75    2.01
   7  -2  -7   42.18    2.30
  -7  -2   7   39.03    2.34
   7   2  -7   37.55    2.06
  -7   2   7   34.20    1.97
  -7   2   7   36.73    2.00
   7   2  -7   37.59    2.20
   7   2  -7   38.67    2.27
  -6  -2   7   44.32    2.07
  -6  -2   7   40.95    2.46
   6  -2  -7   40.76    2.30
   6  -2  -7   42.67    2.35
  -6  -2   7   40.92    2.27
   6  -2  -7   38.60    2.27
  -6   2   7   40.50    2.22
   6   2  -7   44.84    2.28
  -6   2   7   45.19    2.14
   6   2  -7   40.16    2.14
   6   2  -7   40.34    2.38
  -5  -2   7   67.44    2.85
   5  -2  -7   66.92    2.90
  -5  -2   7   63.07    3.07
   5  -2  -7   71.69    2.99
   5  -2  -7   68.69    3.05
  -5  -2   7   68.09    2.85
  -5   2   7   69.25    2.83
   5   2  -7   65.98    2.91
   5   2  -7   70.04    2.96
   5   2  -7   69.73    2.95
  -5   2   7   70.90    3.03
  -4  -2   7   55.64    2.30
   4  -2  -7   46.57    2.31
  -4  -2   7   54.70    2.41
   4  -2  -7   55.40    2.51
   4  -2  -7   55.46    2.43
  -4   2   7   52.66    2.35
   4   2  -7   57.20    2.39
  -4   2   7   49.31    2.31
   4   2  -7   55.72    2.58
   4   2  -7   51.59    2.56
   3  -2  -7    4.94    0.74
  -3  -2   7    3.94    0.67
   3  -2  -7    4.59    0.73
  -3  -2   7    5.83    0.96
   3   2  -7    4.36    0.67
   3   2  -7    3.89    0.90
   3   2  -7    6.25    0.97
  -3   2   7    3.73    0.82
   2  -2  -7   81.36    3.08
  -2  -2   7   83.85    3.07
   2  -2  -7   83.56    3.27
   2  -2  -7   83.41    3.26
  -2  -2   7   87.22    3.24
  -2   2   7   83.18    3.11
   2   2  -7   85.46    3.26
  -2   2   7   86.57    3.26
   2   2  -7   81.79    3.30
   2   2  -7   83.39    3.03
   1  -2  -7   53.12    1.98
  -1  -2   7   49.75    2.25
   1  -2  -7   52.00    2.12
   1   2  -7   55.50    2.28
   1   2  -7   52.02    2.26
  -1   2   7   54.32    2.19
  -1   2   7   45.09    1.98
   1   2  -7   51.80    1.91
   0  -2   7    7.07    0.78
   0  -2  -7    7.89    0.90
   0  -2  -7    6.85    0.72
   0  -2  -7    6.65    0.73
   0   2  -7    7.46    0.91
   0   2  -7    6.55    0.77
   0   2   7    7.20    0.70
   1  -2   7   58.12    2.31
  -1  -2  -7   56.70    2.27
  -1  -2  -7   60.32    2.66
  -1  -2  -7   57.46    2.24
  -1  -2  -7   58.50    2.51
  -1   2  -7   58.95    2.32
  -1   2  -7   57.60    2.52
   1   2   7   59.98    2.26
  -2  -2  -7   37.90    2.06
  -2  -2  -7   36.38    1.49
   2  -2   7   39.25    1.68
  -2  -2  -7   37.32    1.89
  -2  -2  -7   36.85    1.57
  -2   2  -7   38.12    1.65
  -2   2  -7   36.34    1.87
   2   2   7   38.54    1.56
  -3  -2  -7    5.56    0.79
   3  -2   7    3.50    0.54
  -3  -2  -7    4.64    0.47
  -3  -2  -7    6.17    1.19
   3   2   7    3.18    0.43
  -3   2  -7    6.23    0.79
  -3   2  -7    4.16    0.47
  -4  -2  -7    8.85    0.72
  -4  -2  -7   10.46    1.00
  -4  -2  -7   10.24    1.23
  -4   2  -7    9.69    0.73
  -4   2  -7   11.25    0.97
   4   2   7    8.95    0.71
  -5  -2  -7   30.24    2.48
  -5  -2  -7   31.99    1.39
  -5  -2  -7   33.31    1.77
   5   2   7   33.77    1.37
  -5   2  -7   31.50    1.40
   6  -2   7   34.34    1.46
  -6  -2  -7   35.13    1.47
  -6  -2  -7   32.68    2.34
  -6   2  -7   35.29    1.45
   6   2   7   34.44    1.45
 -10  -3   7    1.39    1.22
 -10  -3   7    6.95    2.27
  10  -3  -7    1.44    1.57
  10  -3  -7    2.60    1.28
  10   3  -7    1.48    1.22
 -10   3   7    0.23    1.21
  10   3  -7    2.06    1.11
  -9  -3   7   24.19    2.17
   9  -3  -7   23.30    2.08
   9  -3  -7   24.40    1.87
  -9  -3   7   28.53    2.82
   9   3  -7   24.51    1.95
  -9   3   7   25.75    2.06
   9   3  -7   23.80    1.76
  -8  -3   7  129.87    4.96
   8  -3  -7  118.85    5.29
  -8  -3   7  129.29    5.50
   8  -3  -7  120.48    5.31
   8  -3  -7  120.36    4.86
  -8   3   7  124.61    4.78
  -8   3   7  119.91    4.86
   8   3  -7  119.22    4.98
   8   3  -7  121.04    4.86
   8   3  -7  125.21    4.98
   7  -3  -7    6.91    0.99
  -7  -3   7    5.33    0.94
   7  -3  -7    5.37    1.11
   7  -3  -7    4.52    1.10
  -7  -3   7    8.50    2.11
   7   3  -7    6.29    1.21
  -7   3   7    6.22    1.16
   7   3  -7    4.94    1.15
   7   3  -7    4.10    1.07
  -7   3   7    6.13    1.14
  -6  -3   7    5.16    0.94
  -6  -3   7    4.07    1.02
   6  -3  -7    4.99    0.84
   6  -3  -7    5.57    0.90
   6  -3  -7    6.43    1.34
   6   3  -7    6.83    1.16
   6   3  -7    6.51    0.95
   6   3  -7    5.41    0.85
  -6   3   7    6.09    0.88
  -6   3   7    5.08    1.08
   5  -3  -7  120.24    4.73
   5  -3  -7  125.32    4.71
   5  -3  -7  118.81    4.90
  -5  -3   7  118.96    4.67
  -5  -3   7  125.87    4.82
   5   3  -7  116.33    4.67
  -5   3   7  123.27    4.61
  -5   3   7  124.04    4.67
   5   3  -7  124.43    4.81
   5   3  -7  121.35    4.57
   4  -3  -7  126.62    4.82
  -4  -3   7  127.17    4.58
   4  -3  -7  103.64    4.44
  -4  -3   7  131.24    4.76
   4  -3  -7  117.05    4.56
   4   3  -7  123.55    4.47
   4   3  -7  115.83    4.70
  -4   3   7  118.63    4.61
   4   3  -7  126.98    4.75
  -3  -3   7   59.11    2.81
   3  -3  -7   59.57    2.66
  -3  -3   7   58.83    2.46
   3  -3  -7   62.39    2.72
   3  -3  -7   62.97    2.63
  -3   3   7   60.10    2.68
   3   3  -7   59.33    2.80
   3   3  -7   60.09    2.64
   3   3  -7   61.57    2.52
  -2  -3   7    8.85    0.73
  -2  -3   7    7.80    0.91
   2  -3  -7    9.79    1.05
   2  -3  -7    9.54    0.81
   2  -3  -7   11.56    0.99
   2   3  -7    8.55    0.72
   2   3  -7   10.62    0.98
  -2   3   7    8.87    0.85
   2   3  -7    8.92    0.96
   1  -3  -7   67.66    2.66
   1  -3  -7   71.31    2.99
   1  -3  -7   71.65    2.84
   1  -3  -7   70.94    2.87
  -1  -3   7   70.22    2.95
   1   3  -7   70.73    2.93
   1   3  -7   71.22    2.57
  -1   3   7   69.33    2.82
   1   3  -7   65.24    3.02
   0  -3  -7  128.52    4.84
   0  -3   7  126.92    4.70
   0  -3  -7  129.98    4.68
   0  -3  -7  130.32    4.98
   0   3   7  123.08    4.62
   0   3  -7  133.28    4.73
   0   3  -7  130.35    4.88
  -1  -3  -7  184.15    6.39
  -1  -3  -7  181.20    6.31
   1  -3   7  179.10    6.34
  -1  -3  -7  182.46    6.58
  -1  -3  -7  188.04    6.79
  -1   3  -7  185.57    6.56
   1   3   7  180.14    6.34
  -1   3  -7  187.47    6.42
  -2  -3  -7    9.23    0.96
  -2  -3  -7    9.96    1.40
  -2  -3  -7   11.94    0.95
  -2   3  -7   10.78    1.00
  -2   3  -7   12.04    1.01
   2   3   7   11.73    0.87
  -3  -3  -7    4.34    0.61
  -3  -3  -7    5.13    1.24
  -3  -3  -7    3.38    0.67
  -3   3  -7    3.86    0.63
  -3   3  -7    3.17    0.68
   3   3   7    3.92    0.58
  -4  -3  -7   94.22    4.22
  -4  -3  -7  110.74    4.01
  -4  -3  -7   95.30    3.61
  -4   3  -7   97.48    3.61
  -4   3  -7   99.42    3.93
   4   3   7   97.62    3.59
  -5  -3  -7   80.06    3.40
  -5  -3  -7   86.54    3.18
  -5  -3  -7   85.33    4.16
  -5   3  -7   78.49    3.43
  -5   3  -7   85.64    3.19
   5   3   7   88.51    3.15
  -6  -3  -7    2.40    1.14
   6  -3   7    3.40    0.67
  -6  -3  -7    3.59    0.72
  -6  -3  -7    3.81    0.59
   6   3   7    3.24    0.56
  -6   3  -7    3.69    0.59
  -9  -4   7    7.64    2.28
   9  -4  -7    2.24    1.22
  -9  -4   7    5.83    1.44
  -9  -4   7    4.96    1.35
   9  -4  -7    4.58    1.31
   9   4  -7    3.96    0.95
  -9   4   7    5.09    1.06
   9   4  -7    5.42    1.09
  -8  -4   7   34.31    2.42
  -8  -4   7   32.93    2.84
   8  -4  -7   36.49    2.49
  -8  -4   7   31.44    2.53
   8  -4  -7   34.11    2.84
   8   4  -7   31.65    2.08
   8   4  -7   34.33    2.08
  -8   4   7   34.12    2.31
  -8   4   7   31.94    2.41
  -7  -4   7   72.80    3.40
   7  -4  -7   68.21    3.46
   7  -4  -7   75.33    3.43
  -7  -4   7   72.94    3.84
   7  -4  -7   75.51    3.39
   7   4  -7   70.97    3.20
   7   4  -7   69.29    3.25
  -7   4   7   69.31    3.20
  -7   4   7   69.79    3.15
   7   4  -7   71.47    3.40
   6  -4  -7   44.64    2.51
   6  -4  -7   38.08    2.16
  -6  -4   7   41.96    2.96
   6  -4  -7   41.89    2.22
  -6  -4   7   40.76    2.21
   6   4  -7   42.51    2.26
   6   4  -7   41.53    2.30
  -6   4   7   44.01    2.45
  -6   4   7   44.68    2.45
   6   4  -7   41.88    2.38
  -5  -4   7   24.44    1.81
   5  -4  -7   23.00    1.84
   5  -4  -7   26.37    1.66
   5  -4  -7   24.44    2.19
   5   4  -7   21.89    1.95
   5   4  -7   26.03    1.71
   5   4  -7   24.66    1.81
  -5   4   7   24.25    1.65
   4  -4  -7   25.81    1.84
   4  -4  -7   23.51    1.74
  -4   4   7   27.00    1.87
   4   4  -7   24.93    1.70
   3  -4  -7   97.38    3.93
   3  -4  -7   99.46    3.79
  -3   4   7  104.06    3.97
   3   4  -7   93.48    3.76
   3   4  -7   98.99    3.97
   2  -4  -7  158.86    5.61
   2  -4  -7  152.37    5.51
   2  -4  -7  151.50    5.57
   2  -4  -7  149.34    5.68
  -2   4   7  152.68    5.53
   2   4  -7  156.27    5.39
   2   4  -7  151.69    5.63
   2   4  -7  149.74    5.68
   1  -4  -7  195.81    6.92
   1  -4  -7  189.20    6.81
   1  -4  -7  181.96    6.71
   1   4  -7  189.39    6.80
  -1   4   7  191.18    6.76
   1   4  -7  197.56    6.98
   0  -4  -7    0.83    0.84
   0  -4  -7    0.83    0.71
   0  -4  -7    1.64    0.51
   0  -4   7    1.86    0.45
   0  -4  -7    0.77    0.97
   0   4  -7    1.16    0.79
   0   4  -7    2.31    0.72
   0   4   7    0.65    0.52
  -1  -4  -7   47.28    2.30
  -1  -4  -7   47.64    2.13
   1  -4   7   49.22    1.94
  -1  -4  -7   47.96    2.44
  -1   4  -7   47.33    2.32
  -1   4  -7   49.70    2.17
   1   4   7   46.76    2.18
  -2  -4  -7   65.17    3.15
  -2  -4  -7   67.99    3.09
  -2  -4  -7   68.10    2.75
  -2   4  -7   68.24    2.85
   2   4   7   70.73    2.82
  -2   4  -7   68.42    3.13
  -3  -4  -7  110.32    4.28
  -3  -4  -7  116.70    4.94
  -3  -4  -7  112.61    4.56
  -3   4  -7  113.84    4.29
  -3   4  -7  115.00    4.60
   3   4   7  120.34    4.27
  -4  -4  -7   15.71    1.34
  -4  -4  -7   18.98    1.73
  -4  -4  -7   14.79    1.20
  -4   4  -7   14.69    1.25
  -4   4  -7   17.98    1.48
   4   4   7   16.86    1.25
   5  -4   7   11.03    1.00
  -5  -4  -7   11.43    1.31
  -5  -4  -7    9.47    0.96
  -5  -4  -7    9.97    1.78
  -5   4  -7   12.33    1.03
   5   4   7   11.23    0.98
  -5   4  -7    9.76    1.09
   8  -5  -7   14.93    1.51
  -8  -5   7   14.99    1.75
  -8  -5   7   15.27    1.60
  -8  -5   7   14.66    2.41
   8   5  -7   14.21    1.46
  -8   5   7   12.86    1.70
   8   5  -7   14.69    1.63
   7  -5  -7    9.94    1.37
   7  -5  -7    5.02    1.03
  -7  -5   7    8.27    1.13
  -7  -5   7    6.31    1.62
  -7  -5   7    6.81    1.14
   7   5  -7    3.81    0.97
  -7   5   7    6.92    1.05
  -7   5   7    6.34    1.08
   7   5  -7    6.78    1.11
   7   5  -7    6.19    1.26
   6  -5  -7   13.95    1.37
  -6  -5   7   11.84    1.57
   6  -5  -7   13.90    1.33
  -6  -5   7   14.16    1.54
  -6  -5   7   11.85    1.71
   6   5  -7   13.60    1.57
   6   5  -7   13.61    1.31
  -6   5   7   15.07    1.48
   6   5  -7   12.76    1.55
   5  -5  -7   10.80    1.24
  -5  -5   7   12.99    1.39
  -5  -5   7   12.70    2.09
  -5  -5   7   13.08    1.51
   5  -5  -7   14.47    1.46
  -5   5   7   14.30    1.43
   5   5  -7   14.03    1.57
   5   5  -7   16.38    1.31
   5   5  -7   12.65    1.58
  -4  -5   7   55.59    2.78
  -4  -5   7   56.09    3.64
   4  -5  -7   58.85    2.77
   4  -5  -7   61.70    2.87
  -4  -5   7   59.96    2.91
   4   5  -7   61.46    3.06
  -4   5   7   57.44    2.71
   4   5  -7   59.53    3.03
   4   5  -7   63.10    2.80
   3  -5  -7    3.37    0.97
   3  -5  -7    4.71    1.11
  -3  -5   7    2.97    0.98
   3  -5  -7    3.47    0.92
   3  -5  -7    3.79    1.02
   3   5  -7    1.54    0.78
   3   5  -7    2.96    1.11
   3   5  -7    4.27    0.81
  -3   5   7    3.44    0.77
   2  -5  -7    0.43    0.53
  -2  -5   7   -0.44    0.74
   2  -5  -7    1.03    0.87
   2  -5  -7    0.21    0.89
   2  -5  -7    1.10    0.88
  -2   5   7    0.86    0.88
   2   5  -7   -0.80    0.66
   2   5  -7   -0.21    0.69
  -1  -5   7   13.82    1.08
   1  -5  -7   17.11    1.44
   1  -5  -7   12.93    1.40
   1  -5  -7   19.98    1.63
   1   5  -7   15.37    1.40
  -1   5   7   19.47    1.58
   1   5  -7   13.45    1.26
   0  -5  -7   69.72    3.04
   0  -5  -7   68.84    3.20
   0  -5  -7   74.34    3.20
   0  -5   7   67.56    2.72
   0   5  -7   64.65    3.04
   0   5  -7   63.70    3.19
   0   5   7   63.06    2.94
  -1  -5  -7    0.26    0.56
  -1  -5  -7   -0.30    0.63
  -1  -5  -7   -0.54    0.72
  -1   5  -7   -0.05    0.60
   1   5   7   -0.33    0.51
  -1   5  -7   -0.14    0.68
  -2  -5  -7   27.21    1.75
  -2  -5  -7   25.23    1.73
  -2  -5  -7   27.75    1.99
   2   5   7   28.15    1.76
  -2   5  -7   28.17    1.83
  -2   5  -7   24.67    2.08
  -3  -5  -7   35.84    2.49
  -3  -5  -7   45.44    2.31
  -3  -5  -7   44.65    2.21
  -3   5  -7   48.46    2.62
  -3   5  -7   43.84    2.24
   3   5   7   35.58    1.95
  -4  -5  -7   35.53    2.49
  -4  -5  -7   35.62    1.99
   4  -5   7   34.74    2.01
  -4  -5  -7   33.95    2.26
   4   5   7   30.09    1.73
  -4   5  -7   36.15    2.00
  -4   5  -7   36.85    2.35
  -7  -6   7    0.52    1.82
   7  -6  -7   -0.32    1.16
  -7  -6   7    0.53    1.29
  -7   6   7    0.97    1.20
  -7   6   7   -0.04    1.10
   7   6  -7    1.72    1.15
  -6  -6   7   19.83    2.28
  -6  -6   7   17.50    1.81
   6  -6  -7   18.77    1.64
  -6  -6   7   17.49    1.78
   6  -6  -7   19.79    1.81
   6   6  -7   19.09    1.91
   6   6  -7   19.02    1.57
   6   6  -7   18.07    1.82
  -6   6   7   19.70    1.76
  -5  -6   7    2.80    1.17
  -5  -6   7    3.82    1.09
  -5  -6   7   -2.43    1.51
   5  -6  -7    1.85    0.84
   5  -6  -7    3.64    1.16
   5   6  -7    3.02    0.83
   5   6  -7    2.02    1.24
   5   6  -7    3.53    1.21
  -5   6   7    1.47    1.08
  -4  -6   7    1.02    1.03
   4  -6  -7   -0.21    0.75
  -4  -6   7   -0.61    1.38
   4  -6  -7    0.54    0.68
   4   6  -7    0.82    0.85
  -4   6   7    0.02    0.71
   4   6  -7   -0.62    1.12
   4   6  -7    0.69    1.09
  -3  -6   7   -0.50    1.29
  -3  -6   7    0.55    0.93
   3  -6  -7    0.63    0.71
   3  -6  -7    1.18    0.66
   3  -6  -7   -0.31    0.67
   3   6  -7    0.79    0.80
  -3   6   7    1.51    1.04
   3   6  -7    0.49    0.79
   2  -6  -7   12.66    1.46
   2  -6  -7   14.92    1.47
  -2  -6   7   12.78    1.40
   2  -6  -7   12.18    1.44
  -2  -6   7   14.40    1.32
  -2   6   7   15.49    1.47
   2   6  -7   13.63    1.56
   2   6  -7   11.32    1.52
  -1  -6   7    3.97    1.25
  -1  -6   7    5.85    0.91
   1  -6  -7    5.93    1.21
   1  -6  -7    5.36    1.16
   1   6  -7    3.24    0.94
   1   6  -7    3.00    1.15
  -1   6   7    3.22    1.08
   0  -6   7   21.62    1.59
   0  -6  -7   19.08    1.61
   0  -6  -7   18.91    1.54
   0  -6  -7   21.13    1.80
   0   6  -7   20.80    1.76
   0   6  -7   18.99    1.69
   0   6   7   22.66    1.54
  -1  -6  -7    2.31    1.09
  -1  -6  -7   -0.55    1.07
  -1  -6  -7   -0.76    0.86
  -1   6  -7   -0.04    1.05
  -1   6  -7    0.25    1.00
   1   6   7   -0.10    0.85
  -2  -6  -7    8.92    1.39
  -2  -6  -7    8.39    1.56
  -2  -6  -7    8.60    1.21
  -2   6  -7    6.35    1.40
   2   6   7    8.68    1.18
  -2   6  -7   10.96    1.33
  -3  -6  -7    3.56    0.98
  -3  -6  -7    3.71    1.51
  -3  -6  -7    4.64    1.01
   3  -6   7    4.44    1.13
  -3   6  -7    4.59    1.10
  -3   6  -7    4.59    1.04
   3   6   7    5.07    1.06
   4  -7  -7   22.98    1.99
  -4  -7   7   20.13    2.03
  -4  -7   7   17.49    1.75
  -4   7   7   15.54    1.53
   4   7  -7   17.73    1.72
   4   7  -7   18.44    1.96
  -3  -7   7   11.32    1.58
   3  -7  -7   11.95    1.54
   3  -7  -7   13.04    1.41
  -3  -7   7   12.29    1.44
   3   7  -7   11.39    1.69
   3   7  -7   10.16    1.36
  -3   7   7   10.14    1.27
   2  -7  -7    0.89    1.16
  -2  -7   7    1.14    0.91
   2  -7  -7    0.31    1.09
   2   7  -7    0.68    0.90
  -2   7   7    1.75    1.16
   2   7  -7   -0.06    1.20
  -1  -7   7   37.26    2.11
   1  -7  -7   36.66    2.25
   1  -7  -7   41.79    2.60
   1   7  -7   37.91    2.40
   1   7  -7   35.05    2.29
  -1   7   7   38.65    2.22
   0  -7  -7   21.96    1.91
   0  -7  -7   18.82    1.82
   0  -7  -7   21.30    1.80
   0   7  -7   20.54    1.80
   0   7   7   24.82    2.06
   0   7  -7   19.70    1.79
 -10   0   8    1.14    0.87
  10   0  -8    1.96    1.25
 -10   0   8   -0.13    1.99
  10   0  -8    1.17    1.31
  10   0  -8    0.53    1.09
 -10   0   8    1.59    0.86
  -9   0   8    0.80    1.10
  -9   0   8    0.27    0.71
   9   0  -8   -0.42    0.71
   9   0  -8    0.87    0.82
   9   0  -8    0.36    1.19
  -9   0   8   -0.44    0.95
   8   0  -8   67.24    3.42
  -8   0   8   57.83    3.11
   8   0  -8   68.67    3.05
  -8   0   8   67.29    3.19
  -8   0   8   67.41    3.00
   8   0  -8   64.42    2.98
   8   0  -8   68.22    3.30
   7   0  -8   -0.59    0.94
  -7   0   8    1.25    0.73
   7   0  -8   -0.61    0.83
  -7   0   8   -0.30    0.59
   7   0  -8    1.07    1.01
   7   0  -8    0.60    0.76
  -7   0   8    0.14    0.62
  -6   0   8   79.58    3.33
   6   0  -8   78.05    3.36
   6   0  -8   78.02    3.47
   6   0  -8   83.01    3.45
   6   0  -8   77.78    3.26
  -6   0   8   83.29    3.43
  -6   0   8   82.44    3.51
   5   0  -8   -0.30    0.61
  -5   0   8   -0.46    0.61
  -5   0   8    0.25    0.68
  -5   0   8   -0.20    0.48
   5   0  -8   -0.43    0.88
   5   0  -8    0.24    0.71
  -4   0   8   74.13    2.87
  -4   0   8   73.21    2.90
  -4   0   8   75.21    3.14
   4   0  -8   67.89    3.10
   4   0  -8   72.29    3.07
   4   0  -8   72.35    2.94
   3   0  -8   -0.66    0.71
  -3   0   8   -0.26    0.32
   3   0  -8    0.87    0.38
   3   0  -8   -0.39    0.75
  -3   0   8    0.21    0.75
  -3   0   8   -0.23    0.47
   2   0  -8  115.67    4.06
  -2   0   8  119.39    4.23
  -2   0   8  115.12    4.10
  -2   0   8  118.30    4.06
   2   0  -8  116.03    4.35
   2   0  -8  114.49    4.32
  -1   0   8    0.20    0.57
   1   0  -8    0.07    0.44
  -1   0   8   -0.26    0.30
   1   0  -8   -0.36    0.54
   0   0  -8   21.27    1.33
   0   0  -8   20.01    1.17
   0   0   8   19.80    0.80
   0   0   8   20.34    1.17
  -1   0  -8    0.18    0.47
  -1   0  -8   -0.04    0.35
   1   0   8   -0.26    0.36
   2   0   8  128.42    4.08
  -2   0  -8  121.47    4.09
  -2   0  -8  105.59    4.18
  -3   0  -8   -0.06    0.29
  -3   0  -8    0.70    0.96
   3   0   8   -0.24    0.24
   4   0   8   15.57    0.69
  -4   0  -8   14.53    0.69
  -4   0  -8   15.91    1.61
  -5   0  -8    0.22    0.17
  -5   0  -8    0.15    1.06
  -6   0  -8   18.19    1.82
  10  -1  -8    2.62    1.44
  10  -1  -8    3.22    1.04
 -10  -1   8    2.80    0.93
 -10  -1   8    2.63    1.21
  10  -1  -8    2.84    1.21
 -10  -1   8    0.99    2.09
  10   1  -8    3.14    0.93
 -10   1   8    3.98    1.27
 -10   1   8    2.78    1.49
 -10   1   8    4.14    1.28
  10   1  -8    2.18    1.23
  -9  -1   8   24.73    2.01
   9  -1  -8   18.63    1.77
   9  -1  -8   17.86    1.76
  -9  -1   8   20.08    1.68
  -9  -1   8   19.28    1.78
   9  -1  -8   20.26    1.79
  -9   1   8   19.49    1.67
   9   1  -8   19.20    1.67
   9   1  -8   20.14    1.71
  -9   1   8   18.00    1.73
  -9   1   8   21.42    1.69
  -8  -1   8   10.40    1.18
   8  -1  -8   11.70    1.37
   8  -1  -8   10.83    1.17
   8  -1  -8   10.02    1.16
  -8  -1   8   11.90    1.40
   8  -1  -8    9.62    1.48
  -8  -1   8   10.50    1.33
  -8   1   8    9.07    1.28
   8   1  -8   10.39    1.18
   8   1  -8   11.98    1.37
  -8   1   8   12.46    1.42
  -8   1   8   11.34    1.21
   8   1  -8    9.37    1.21
  -7  -1   8    2.35    0.74
   7  -1  -8    3.10    1.21
   7  -1  -8    2.47    1.13
   7  -1  -8    3.03    0.81
   7  -1  -8    4.88    0.90
  -7  -1   8    0.91    1.05
  -7  -1   8    3.73    1.02
  -7   1   8    3.12    1.02
   7   1  -8    4.68    0.83
   7   1  -8    2.42    0.86
   7   1  -8    3.46    0.89
  -7   1   8    4.10    1.05
  -7   1   8    2.92    1.07
   6  -1  -8    4.35    0.95
   6  -1  -8    4.32    1.10
  -6  -1   8    4.63    0.92
  -6  -1   8    3.24    1.07
  -6  -1   8    3.94    0.95
   6  -1  -8    2.64    0.93
   6  -1  -8    4.99    1.13
   6   1  -8    5.47    0.94
  -6   1   8    4.23    0.85
   6   1  -8    3.64    0.76
  -6   1   8    3.70    0.94
   6   1  -8    2.83    1.02
  -6   1   8    3.50    0.96
  -5  -1   8   99.80    3.86
  -5  -1   8  101.17    3.70
   5  -1  -8   96.54    3.87
   5  -1  -8   92.31    4.07
   5  -1  -8   97.11    3.84
   5  -1  -8   96.14    3.93
  -5  -1   8   98.95    3.99
   5   1  -8   96.03    3.74
  -5   1   8   99.90    3.88
  -5   1   8   98.59    3.83
   5   1  -8   96.08    4.01
  -5   1   8   97.23    3.79
   5   1  -8   95.77    4.01
   4  -1  -8    5.64    0.86
  -4  -1   8    5.29    0.80
   4  -1  -8    6.33    0.88
   4  -1  -8    5.14    0.80
  -4   1   8    4.89    0.96
   4   1  -8    6.98    0.89
   4   1  -8    6.22    1.04
   3  -1  -8    8.12    0.79
  -3  -1   8    7.36    0.71
   3  -1  -8    9.08    1.06
  -3  -1   8    8.40    0.79
  -3  -1   8    6.06    0.83
   3  -1  -8    6.21    0.95
  -3   1   8    7.54    0.99
  -3   1   8    8.60    0.82
  -3   1   8    7.42    0.80
   3   1  -8    8.62    0.78
   3   1  -8    7.38    0.86
   3   1  -8    7.64    0.89
   2  -1  -8   31.02    1.80
  -2  -1   8   31.86    1.76
   2  -1  -8   29.60    1.40
  -2  -1   8   30.52    1.31
  -2  -1   8   31.53    1.39
   2  -1  -8   32.04    1.70
   2   1  -8   30.54    1.35
  -2   1   8   31.54    1.44
  -2   1   8   32.71    1.70
   2   1  -8   32.18    1.75
   2   1  -8   30.98    1.84
  -2   1   8   29.86    1.42
  -1  -1   8   68.15    2.80
   1  -1  -8   69.11    2.78
   1  -1  -8   71.56    2.87
   1   1  -8   72.25    2.94
  -1   1   8   70.02    2.75
  -1   1   8   69.01    2.58
   1   1  -8   70.42    2.83
   0  -1   8   -0.15    0.54
   0  -1  -8    0.25    0.52
   0  -1  -8    0.43    0.47
   0   1   8    1.25    0.51
   0   1  -8    0.42    0.55
   0   1  -8   -0.33    0.60
  -1  -1  -8   20.74    1.17
  -1  -1  -8   20.09    1.16
   1  -1   8   19.66    1.24
  -1   1  -8   20.89    1.17
   1   1   8   21.50    1.12
  -1   1  -8   22.71    1.23
  -2  -1  -8  117.58    4.77
   2  -1   8  122.29    4.25
  -2  -1  -8  119.56    4.28
  -2  -1  -8  119.01    4.24
   2   1   8  128.24    4.24
  -2   1  -8  129.92    4.49
  -2   1  -8  121.69    4.26
  -3  -1  -8   27.68    1.85
  -3  -1  -8   27.91    1.18
  -3   1  -8   26.56    1.45
   3   1   8   27.59    1.17
  -4  -1  -8   23.38    1.79
   4  -1   8   21.33    0.97
  -4  -1  -8   23.09    0.99
  -4   1  -8   22.29    0.98
   4   1   8   22.70    0.97
  -5  -1  -8    8.27    0.53
  -5  -1  -8    8.50    1.23
  -5   1  -8    6.96    0.51
  -6  -1  -8   28.11    1.10
  -6  -1  -8   29.54    2.55
  -6   1  -8   26.55    2.21
 -10  -2   8   37.76    3.09
  10  -2  -8   32.79    2.91
  10  -2  -8   30.66    2.46
 -10  -2   8   30.05    2.16
 -10   2   8   28.91    2.32
 -10   2   8   38.96    3.02
 -10   2   8   33.11    2.45
  10   2  -8   31.73    2.46
  10   2  -8   29.06    2.08
   9  -2  -8    9.08    1.23
   9  -2  -8   11.89    1.82
  -9  -2   8   12.18    2.46
  -9  -2   8   12.92    1.54
  -9  -2   8   13.11    1.37
  -9  -2   8   11.77    1.27
   9   2  -8   12.83    1.50
  -9   2   8   15.41    1.67
  -9   2   8   14.07    1.30
  -9   2   8   13.11    1.58
   9   2  -8   13.76    1.58
   8  -2  -8    6.43    1.23
   8  -2  -8    6.82    1.26
  -8  -2   8    7.73    1.29
  -8  -2   8    7.86    1.12
  -8  -2   8    6.26    0.99
   8  -2  -8    6.40    1.25
   8   2  -8    7.38    1.02
  -8   2   8    5.71    1.19
   8   2  -8    6.13    1.27
  -8   2   8    4.91    1.23
   8   2  -8    7.90    1.31
  -8   2   8    7.46    1.09
  -7  -2   8   47.59    2.45
   7  -2  -8   47.16    2.37
  -7  -2   8   47.04    2.30
  -7  -2   8   46.45    2.55
   7  -2  -8   46.27    2.88
   7  -2  -8   44.26    2.60
  -7   2   8   46.39    2.56
  -7   2   8   49.38    2.64
  -7   2   8   46.82    2.52
   7   2  -8   45.82    2.43
   7   2  -8   50.76    2.57
   7   2  -8   48.16    2.67
   6  -2  -8   36.64    2.49
   6  -2  -8   40.37    2.30
  -6  -2   8   36.03    2.38
  -6  -2   8   37.44    2.16
  -6  -2   8   37.76    1.91
   6  -2  -8   36.02    1.99
  -6   2   8   39.65    2.31
  -6   2   8   40.57    2.20
   6   2  -8   37.47    2.10
   6   2  -8   38.70    2.33
   6   2  -8   38.64    1.98
  -6   2   8   35.96    1.94
   5  -2  -8   12.60    1.42
   5  -2  -8   11.60    1.19
  -5  -2   8   13.79    1.19
  -5  -2   8   11.79    1.16
   5  -2  -8   11.60    1.30
  -5   2   8   11.53    1.03
   5   2  -8   13.50    1.35
  -5   2   8   12.62    1.13
   5   2  -8   11.67    1.16
  -5   2   8    9.93    1.27
   5   2  -8   12.60    1.20
  -4  -2   8   58.31    2.66
   4  -2  -8   62.90    2.95
  -4  -2   8   59.77    2.60
   4  -2  -8   62.07    2.81
   4  -2  -8   65.39    2.67
  -4   2   8   59.80    2.55
  -4   2   8   58.58    2.75
   4   2  -8   60.49    2.74
   4   2  -8   55.87    2.54
   4   2  -8   57.16    2.83
  -4   2   8   64.45    2.62
   3  -2  -8  122.00    4.51
  -3  -2   8  124.03    4.61
   3  -2  -8  128.33    4.67
  -3  -2   8  123.74    4.48
   3  -2  -8  114.48    4.72
   3   2  -8  125.36    4.45
  -3   2   8  118.98    4.48
   3   2  -8  133.71    4.68
   3   2  -8  123.62    4.69
  -3   2   8  120.42    4.52
  -3   2   8  124.34    4.62
   2  -2  -8    1.26    0.78
   2  -2  -8    0.98    0.48
   2  -2  -8    0.30    0.69
  -2  -2   8    1.85    0.82
   2   2  -8    1.65    0.42
   2   2  -8    0.38    0.77
   2   2  -8    2.36    0.86
  -2   2   8    0.81    0.70
   1  -2  -8   25.42    1.32
   1  -2  -8   23.80    1.36
  -1  -2   8   22.52    1.36
   1   2  -8   25.05    1.69
   1   2  -8   23.59    1.53
  -1   2   8   23.25    1.28
   0  -2  -8   59.17    2.38
   0  -2   8   56.11    2.43
   0  -2  -8   57.45    2.39
   0   2  -8   59.47    2.62
   0   2   8   57.63    2.36
   0   2  -8   55.61    2.43
  -1  -2  -8   95.04    3.81
  -1  -2  -8  101.74    3.60
   1  -2   8   98.16    3.61
  -1  -2  -8   96.46    4.00
  -1  -2  -8   99.07    3.56
   1   2   8  101.06    3.57
  -1   2  -8   95.54    3.62
  -1   2  -8   95.08    3.81
  -2  -2  -8   70.16    2.95
  -2  -2  -8   68.14    2.65
  -2  -2  -8   68.27    3.16
   2  -2   8   73.73    2.68
  -2   2  -8   68.18    2.84
   2   2   8   71.23    2.63
  -2   2  -8   70.49    2.67
  -3  -2  -8    1.14    0.39
  -3  -2  -8    1.38    0.70
  -3  -2  -8    2.08    1.18
   3  -2   8    0.83    0.50
  -3   2  -8    1.39    0.53
   3   2   8    1.67    0.40
  -3   2  -8    1.01    0.40
  -4  -2  -8   85.20    3.57
  -4  -2  -8   87.12    4.21
  -4  -2  -8   93.22    3.33
   4   2   8   95.53    3.31
  -4   2  -8   97.16    3.63
  -4   2  -8   94.12    3.32
  -5  -2  -8  131.73    5.51
  -5  -2  -8  124.85    4.45
  -5   2  -8  126.38    4.44
   5   2   8  131.34    4.44
  -6  -2  -8   91.13    3.27
  -6  -2  -8   92.82    4.54
  -6   2  -8   90.84    3.24
   9  -3  -8   55.63    2.84
   9  -3  -8   52.37    3.12
  -9  -3   8   53.54    4.12
  -9  -3   8   55.98    3.12
  -9   3   8   54.28    3.11
   9   3  -8   55.50    2.84
   9   3  -8   56.93    3.08
  -8  -3   8    3.86    0.93
  -8  -3   8    3.62    1.60
   8  -3  -8    3.53    1.48
   8  -3  -8    2.96    0.90
   8  -3  -8    3.36    1.15
  -8   3   8    4.40    1.22
   8   3  -8    2.47    1.10
  -8   3   8    4.49    1.16
   8   3  -8    3.33    0.95
   8   3  -8    3.72    1.18
   7  -3  -8    8.48    1.28
   7  -3  -8    7.22    1.06
   7  -3  -8    8.82    1.54
  -7  -3   8    8.67    1.10
  -7  -3   8    6.05    1.32
   7   3  -8    8.70    1.25
  -7   3   8    8.48    1.09
   7   3  -8    4.93    1.28
  -7   3   8    7.16    1.24
   7   3  -8    6.68    1.31
   6  -3  -8  153.29    6.09
   6  -3  -8  144.30    5.92
   6  -3  -8  157.46    5.96
  -6  -3   8  159.50    5.99
  -6  -3   8  160.46    6.07
   6   3  -8  160.99    6.00
  -6   3   8  167.91    6.04
  -6   3   8  155.82    5.93
   6   3  -8  164.62    5.88
   6   3  -8  163.00    6.11
  -5  -3   8  108.77    4.42
   5  -3  -8  117.67    4.74
  -5  -3   8  117.52    4.64
   5  -3  -8  104.97    4.41
   5  -3  -8  115.29    4.47
  -5   3   8  119.03    4.53
   5   3  -8  114.05    4.62
  -5   3   8  113.46    4.35
   5   3  -8  111.54    4.48
   5   3  -8  115.03    4.42
   4  -3  -8   83.92    3.45
   4  -3  -8   82.35    3.56
  -4  -3   8   84.06    3.41
   4  -3  -8   85.31    3.47
  -4  -3   8   86.82    3.68
  -4   3   8   83.37    3.41
   4   3  -8   85.70    3.54
   4   3  -8   83.17    3.38
   4   3  -8   83.92    3.64
  -3  -3   8    7.04    0.97
   3  -3  -8    9.24    1.16
   3  -3  -8    7.81    0.95
  -3  -3   8    8.36    0.89
   3  -3  -8    7.17    0.89
   3   3  -8    6.48    0.94
   3   3  -8    6.76    0.79
  -3   3   8    7.78    0.88
   3   3  -8    8.27    1.17
  -2  -3   8   75.32    3.11
   2  -3  -8   69.14    3.16
   2  -3  -8   75.11    3.17
   2  -3  -8   83.04    3.17
   2   3  -8   74.91    3.19
   2   3  -8   75.40    3.12
  -2   3   8   77.86    3.13
  -1  -3   8  200.53    6.95
   1  -3  -8  196.24    7.05
   1  -3  -8  192.03    6.91
  -1   3   8  194.53    6.87
   1   3  -8  195.71    7.09
   1   3  -8  196.75    6.97
   0  -3  -8  147.21    5.35
   0  -3   8  153.58    5.39
   0  -3  -8  144.25    5.51
   0  -3  -8  146.47    5.34
   0   3  -8  147.37    5.38
   0   3  -8  147.77    5.55
   0   3   8  151.01    5.31
  -1  -3  -8    3.07    1.12
  -1  -3  -8    3.30    0.68
  -1  -3  -8    3.65    0.56
  -1  -3  -8    3.38    0.69
   1  -3   8    4.11    0.77
   1   3   8    3.37    0.67
  -1   3  -8    4.05    0.76
  -1   3  -8    3.47    0.74
  -2  -3  -8   10.02    1.13
  -2  -3  -8   11.55    1.00
  -2  -3  -8    7.31    1.16
  -2   3  -8   12.14    1.19
   2   3   8   10.59    0.86
  -2   3  -8   11.68    1.05
  -3  -3  -8  176.38    6.26
  -3  -3  -8  183.94    6.98
  -3  -3  -8  175.74    6.49
  -3   3  -8  175.13    6.25
  -3   3  -8  186.31    6.55
   3   3   8  178.54    6.21
  -4  -3  -8   30.08    2.62
  -4  -3  -8   28.98    1.89
  -4  -3  -8   29.47    1.49
  -4   3  -8   30.92    1.50
  -4   3  -8   29.55    1.68
   4   3   8   31.19    1.48
  -5  -3  -8    1.67    1.09
  -5  -3  -8    3.84    0.65
  -5  -3  -8    2.03    0.65
  -5   3  -8    3.12    0.58
   5   3   8    2.60    0.62
  -9  -4   8    6.09    1.43
  -9  -4   8    2.26    1.44
   9  -4  -8    3.58    1.34
  -9  -4   8    6.33    2.40
   9  -4  -8    5.93    1.41
   9   4  -8    5.84    1.39
  -9   4   8    3.66    1.05
   9   4  -8    3.16    1.31
  -8  -4   8  153.32    6.88
   8  -4  -8  155.05    6.46
  -8  -4   8  156.72    6.04
   8  -4  -8  159.05    6.13
   8   4  -8  154.42    6.26
   8   4  -8  157.32    6.08
  -8   4   8  141.41    5.84
   8   4  -8  157.10    6.13
  -8   4   8  154.30    5.99
  -7  -4   8   64.79    4.29
   7  -4  -8   69.18    3.30
   7  -4  -8   64.53    3.64
  -7  -4   8   68.15    3.29
   7  -4  -8   61.43    3.03
   7   4  -8   66.46    3.24
   7   4  -8   61.10    3.09
   7   4  -8   69.22    3.38
  -7   4   8   65.79    3.27
  -7   4   8   66.28    3.05
  -6  -4   8   37.30    2.15
   6  -4  -8   41.12    2.44
   6  -4  -8   37.52    2.77
   6  -4  -8   41.63    2.46
   6   4  -8   37.83    2.51
   6   4  -8   42.15    2.40
  -6   4   8   41.81    2.25
  -6   4   8   41.18    2.18
   6   4  -8   38.83    2.26
   5  -4  -8    4.68    1.26
   5  -4  -8    5.69    1.05
  -5   4   8    8.39    1.19
   4  -4  -8  226.31    8.26
  -4  -4   8  222.15    7.98
   4  -4  -8  232.44    8.18
   4  -4  -8  225.54    8.00
   4   4  -8  226.97    8.19
   4   4  -8  213.06    8.18
   4   4  -8  236.75    8.00
  -4   4   8  231.38    8.11
   3  -4  -8   63.96    3.16
   3  -4  -8   71.19    3.13
   3  -4  -8   66.50    2.96
  -3   4   8   73.65    3.11
   3   4  -8   67.20    3.07
   3   4  -8   70.64    3.23
   3   4  -8   67.35    2.82
   2  -4  -8   92.14    3.89
   2  -4  -8   95.77    4.00
   2  -4  -8   99.70    3.94
  -2   4   8   94.34    3.87
   2   4  -8  100.48    4.00
   2   4  -8   97.77    3.89
   1  -4  -8   16.64    1.48
   1  -4  -8   14.87    1.42
   1  -4  -8   16.53    1.37
   1   4  -8   18.78    1.62
  -1   4   8   20.71    1.51
   1   4  -8   19.07    1.59
   0  -4  -8   28.09    1.75
   0  -4  -8   30.50    2.20
   0  -4  -8   28.69    1.96
   0   4  -8   28.82    1.81
   0   4  -8   29.12    1.65
   0   4   8   31.42    1.76
  -1  -4  -8   29.07    1.96
  -1  -4  -8   30.49    1.73
  -1  -4  -8   27.22    1.74
   1   4   8   27.17    1.68
  -1   4  -8   26.33    1.73
  -1   4  -8   30.80    2.05
  -2  -4  -8  123.42    4.75
  -2  -4  -8  127.48    4.95
  -2  -4  -8  127.56    5.33
  -2   4  -8  126.81    4.95
   2   4   8  129.59    4.74
  -2   4  -8  132.94    4.80
  -3  -4  -8   18.61    1.37
  -3  -4  -8   20.43    1.83
  -3  -4  -8   19.67    1.65
  -3   4  -8   20.75    1.81
  -3   4  -8   20.10    1.43
   3   4   8   21.35    1.41
  -4  -4  -8    7.49    1.21
  -4  -4  -8    8.32    1.36
  -4  -4  -8    6.94    0.85
   4   4   8    5.69    0.92
  -4   4  -8    6.08    0.98
  -4   4  -8    5.84    0.93
  -8  -5   8   11.09    1.72
  -8  -5   8   10.51    1.94
   8  -5  -8    9.70    1.99
  -8  -5   8   14.27    1.51
   8  -5  -8   12.09    1.41
  -8   5   8   14.08    1.52
  -8   5   8   10.43    1.29
   8   5  -8   13.97    1.66
  -7  -5   8   25.05    1.99
  -7  -5   8   20.39    1.79
  -7  -5   8   22.75    2.27
   7  -5  -8   24.48    2.15
   7  -5  -8   21.26    1.90
   7  -5  -8   23.42    2.10
  -7   5   8   18.76    1.63
   7   5  -8   21.20    1.98
   7   5  -8   20.05    1.65
  -7   5   8   21.67    1.91
   7   5  -8   20.50    1.94
  -6  -5   8    9.77    2.18
   6  -5  -8   14.62    1.61
  -6  -5   8   10.64    1.56
   6  -5  -8   12.81    1.49
   6  -5  -8   16.81    1.72
  -6  -5   8   11.82    1.26
   6   5  -8   12.41    1.38
   6   5  -8   10.50    1.36
  -6   5   8   10.86    1.26
   6   5  -8   15.11    1.48
  -5  -5   8   68.96    4.17
  -5  -5   8   67.19    3.14
   5  -5  -8   67.33    3.52
   5  -5  -8   71.34    3.23
   5  -5  -8   67.11    3.33
   5   5  -8   66.96    3.41
   5   5  -8   66.27    3.20
   5   5  -8   65.78    2.98
  -5   5   8   68.18    3.10
   4  -5  -8    9.01    1.43
  -4  -5   8    8.46    1.08
   4  -5  -8    9.27    1.23
   4  -5  -8    9.93    1.35
   4   5  -8    8.97    1.41
   4   5  -8    6.91    1.33
  -4   5   8   10.64    1.14
   4   5  -8    9.02    1.12
  -3  -5   8   -0.44    0.83
   3  -5  -8   -0.04    0.99
   3  -5  -8    0.77    0.69
  -3   5   8    0.91    0.73
   3   5  -8    0.20    0.74
   3   5  -8    1.30    1.10
   2  -5  -8    3.28    0.78
   2  -5  -8    2.81    0.81
  -2  -5   8    3.26    0.89
   2  -5  -8    2.42    0.93
   2   5  -8    1.00    0.79
  -2   5   8    3.06    0.96
   1  -5  -8   72.27    3.31
  -1  -5   8   77.62    3.11
   1  -5  -8   73.79    3.30
   1   5  -8   74.35    3.41
   1   5  -8   76.02    3.55
  -1   5   8   75.67    3.28
   0  -5  -8    0.76    0.79
   0  -5  -8    1.30    0.65
   0  -5   8    0.79    0.59
   0  -5  -8    0.11    0.95
   0   5  -8    0.71    0.76
   0   5  -8    0.75    0.66
   0   5   8    0.99    0.82
  -1  -5  -8    6.80    1.05
  -1  -5  -8    7.22    1.42
  -1  -5  -8    7.20    1.07
  -1   5  -8    8.95    1.37
  -1   5  -8    7.30    0.95
   1   5   8    6.85    1.04
  -2  -5  -8    6.64    1.05
  -2  -5  -8    7.70    1.24
  -2  -5  -8    5.74    0.96
  -2   5  -8    6.52    1.05
   2   5   8    5.16    0.79
  -2   5  -8    5.18    0.97
  -3  -5  -8   14.60    1.30
  -3  -5  -8   16.94    1.64
  -3  -5  -8   13.51    1.63
  -3   5  -8   13.23    1.37
  -3   5  -8   11.69    1.26
   3   5   8   12.71    1.23
  -6  -6   8    1.38    1.84
   6  -6  -8    0.73    1.15
  -6  -6   8    0.21    0.85
   6  -6  -8   -0.48    1.08
   6  -6  -8    0.85    1.03
   6   6  -8    1.08    1.04
   6   6  -8    0.35    0.86
   6   6  -8   -0.79    0.87
  -6   6   8    0.88    1.18
   5  -6  -8    5.09    1.45
   5  -6  -8    6.29    0.99
  -5  -6   8    4.01    1.26
  -5  -6   8    2.48    0.88
   5   6  -8    1.71    1.30
  -5   6   8    1.54    0.88
   5   6  -8    6.60    1.09
   5   6  -8    5.86    1.10
  -4  -6   8    0.52    1.60
   4  -6  -8    4.39    1.08
   4  -6  -8    5.12    1.28
  -4  -6   8    1.09    1.07
  -4   6   8    4.66    0.95
   4   6  -8    4.05    1.05
   4   6  -8    6.56    1.37
  -3  -6   8   -1.42    1.49
   3  -6  -8    0.07    1.01
   3  -6  -8    1.22    0.82
   3  -6  -8    1.40    0.80
  -3  -6   8    0.14    0.66
   3   6  -8    1.63    1.20
   3   6  -8   -0.76    1.11
  -3   6   8    1.50    1.06
   2  -6  -8    9.63    1.38
   2  -6  -8    9.42    1.21
  -2  -6   8    8.86    1.16
   2   6  -8    6.31    1.38
  -2   6   8    9.92    1.32
   2   6  -8    7.65    1.19
  -1  -6   8   24.37    1.61
   1  -6  -8   23.91    1.96
   1  -6  -8   24.61    1.72
   1   6  -8   23.87    1.79
   1   6  -8   23.52    2.01
  -1   6   8   19.46    1.69
   0  -6  -8    0.94    0.83
   0  -6  -8    0.76    0.77
   0  -6  -8    2.86    1.04
   0   6  -8   -0.09    1.07
   0   6  -8   -0.29    1.13
   0   6   8   -0.85    0.91
  -1  -6  -8   10.62    1.37
  -1  -6  -8   11.53    1.50
  -1  -6  -8   10.79    1.35
   1   6   8   10.12    1.27
  -1   6  -8    8.90    1.27
  -1   6  -8   10.46    1.21
  -2  -6  -8    2.02    0.89
  -2  -6  -8    0.11    1.29
  -2  -6  -8    0.67    0.91
   2   6   8   -0.35    0.90
  -2   6  -8    2.56    1.08
 -10   0   9   -0.27    1.10
  10   0  -9    0.05    1.16
 -10   0   9    0.81    0.88
  10   0  -9   -0.21    0.93
  10   0  -9    0.61    1.23
  -9   0   9  108.30    4.60
   9   0  -9  117.91    4.83
   9   0  -9  113.65    4.90
  -9   0   9  116.80    4.81
   9   0  -9  120.20    4.88
  -9   0   9  108.50    4.69
   9   0  -9  118.55    4.85
  -8   0   9   -0.88    0.96
   8   0  -9   -0.79    0.93
   8   0  -9    0.10    0.74
   8   0  -9   -0.51    0.77
  -8   0   9    1.83    1.04
  -8   0   9    0.49    1.04
   8   0  -9   -0.68    1.19
  -7   0   9  113.41    4.77
  -7   0   9  123.63    4.74
   7   0  -9  116.99    4.83
   7   0  -9  122.76    4.78
   7   0  -9  120.75    4.77
  -7   0   9  122.35    4.85
  -6   0   9   -0.43    0.77
   6   0  -9    0.17    0.82
   6   0  -9    1.21    1.00
   6   0  -9   -0.40    0.65
  -6   0   9    1.07    0.73
  -6   0   9   -0.59    0.77
   5   0  -9    2.11    0.72
   5   0  -9    1.78    0.96
  -4   0   9    0.40    0.59
   4   0  -9   -0.50    0.61
  -4   0   9    0.41    0.64
   4   0  -9    0.34    0.90
   4   0  -9   -0.31    0.60
  -4   0   9   -0.42    0.58
   3   0  -9  399.74   13.68
   3   0  -9  396.56   13.35
   3   0  -9  408.05   13.58
  -3   0   9  396.56   13.50
  -3   0   9  405.10   13.33
  -2   0   9   -1.08    0.34
  -2   0   9   -1.32    0.46
   2   0  -9   -0.16    0.72
   2   0  -9   -0.63    0.47
  -1   0   9    0.29    0.46
   1   0  -9    0.20    0.47
  -1   0   9    0.23    0.32
   1   0  -9    0.76    0.64
   0   0  -9    0.42    0.54
   0   0  -9   -0.20    0.59
   0   0   9    0.32    0.54
  -1   0  -9   77.47    2.96
   1   0   9   79.51    2.94
  -1   0  -9   80.56    3.10
  -2   0  -9    0.40    0.47
  -2   0  -9    0.03    0.35
   2   0   9   -0.38    0.42
   3   0   9   24.43    1.10
  -3   0  -9   23.25    1.11
   4   0   9    0.11    0.29
  -4   0  -9   -0.03    0.29
  -5   0  -9   43.38    1.65
  -5   0  -9   49.89    2.91
  10  -1  -9   55.86    3.17
 -10  -1   9   57.10    2.99
 -10  -1   9   54.41    3.11
 -10  -1   9   58.84    3.76
  10  -1  -9   51.57    3.13
  10  -1  -9   57.89    3.09
  10   1  -9   59.69    3.29
  10   1  -9   54.92    3.14
 -10   1   9   57.05    2.99
 -10   1   9   54.87    3.19
  -9  -1   9   14.41    1.60
   9  -1  -9   12.49    1.58
  -9  -1   9   13.10    1.38
   9  -1  -9   14.39    1.39
   9  -1  -9   14.30    1.65
  -9  -1   9   14.17    1.41
   9  -1  -9   12.54    1.71
  -9   1   9    9.75    1.46
   9   1  -9   13.44    1.54
   9   1  -9   11.29    1.41
  -9   1   9   16.02    1.47
  -9   1   9   12.09    1.57
   9   1  -9   16.35    1.97
   8  -1  -9    7.67    1.08
   8  -1  -9    5.96    1.17
   8  -1  -9    5.71    1.09
  -8  -1   9    7.59    1.36
  -8  -1   9    7.25    1.24
   8  -1  -9    7.48    1.31
  -8  -1   9    6.05    1.24
   8   1  -9    6.53    1.03
  -8   1   9    7.34    1.09
  -8   1   9    7.64    1.31
  -8   1   9    8.41    1.30
   8   1  -9    7.77    1.36
   8   1  -9    6.52    1.11
   7  -1  -9    2.26    0.84
  -7  -1   9    3.87    1.01
   7  -1  -9    2.40    0.77
   7  -1  -9    1.26    1.17
  -7  -1   9    2.78    1.15
   7  -1  -9    2.46    0.91
  -7  -1   9    2.88    0.77
   7   1  -9    2.33    0.88
   7   1  -9    1.71    1.09
  -7   1   9    1.49    0.95
  -7   1   9    1.48    0.96
  -7   1   9    2.82    1.11
   7   1  -9    3.11    1.03
  -6  -1   9  130.16    5.03
   6  -1  -9  125.57    5.23
  -6  -1   9  134.21    5.07
   6  -1  -9  127.87    5.02
   6  -1  -9  131.43    5.19
   6  -1  -9  130.61    5.32
  -6  -1   9  135.95    4.97
   6   1  -9  128.31    4.93
  -6   1   9  132.46    5.01
  -6   1   9  136.21    5.16
   6   1  -9  135.73    5.22
  -6   1   9  129.31    4.98
   6   1  -9  129.11    5.13
  -5  -1   9   35.65    2.02
  -5  -1   9   36.53    2.00
   5  -1  -9   36.59    2.09
   5  -1  -9   39.19    2.17
   5  -1  -9   39.18    1.90
   5  -1  -9   32.03    1.97
  -5  -1   9   34.61    1.88
  -5   1   9   35.82    2.01
  -5   1   9   40.62    2.29
  -5   1   9   39.44    2.00
   5   1  -9   37.82    1.85
   5   1  -9   35.65    2.03
   5   1  -9   37.02    2.09
   4  -1  -9   13.70    1.10
   4  -1  -9   17.34    1.39
  -4  -1   9   15.12    1.09
   4  -1  -9   15.06    1.39
  -4  -1   9   16.52    1.16
  -4  -1   9   17.22    1.41
   4   1  -9   17.28    1.45
  -4   1   9   14.98    1.33
  -4   1   9   14.00    1.06
   4   1  -9   16.01    1.36
   4   1  -9   14.67    1.06
  -4   1   9   14.77    1.11
  -3  -1   9   67.52    2.87
  -3  -1   9   70.98    2.64
   3  -1  -9   68.88    2.73
   3  -1  -9   69.90    3.00
   3  -1  -9   69.68    3.10
   3   1  -9   68.77    2.69
   3   1  -9   67.43    2.91
   3   1  -9   68.25    2.97
  -3   1   9   69.07    2.73
  -3   1   9   68.61    2.96
  -2  -1   9  136.72    5.21
   2  -1  -9  142.14    5.27
  -2  -1   9  139.86    4.87
   2  -1  -9  147.40    5.20
   2   1  -9  148.18    5.23
  -2   1   9  141.93    5.00
   2   1  -9  146.69    5.39
  -2   1   9  143.27    5.20
   1  -1  -9    2.66    0.59
   1  -1  -9    1.39    0.64
  -1  -1   9    1.88    0.72
   1   1  -9    1.10    0.76
  -1   1   9    1.57    0.66
   1   1  -9    1.85    0.73
  -1   1   9    1.90    0.50
   0  -1  -9   40.02    1.88
   0  -1   9   44.90    1.96
   0  -1  -9   43.42    1.89
   0   1  -9   40.83    2.09
   0   1   9   40.87    1.88
   0   1   9   41.71    1.64
   0   1  -9   42.58    1.97
  -1  -1  -9   83.08    3.17
  -1  -1  -9   86.07    3.12
   1  -1   9   82.09    3.11
  -1   1  -9   84.08    3.32
  -1   1  -9   83.09    3.20
   1   1   9   80.97    3.12
  -2  -1  -9   60.26    2.49
   2  -1   9   73.74    2.58
   2   1   9   67.33    2.53
  -2   1  -9   65.53    2.58
  -3  -1  -9   15.45    1.70
   3  -1   9   14.53    0.93
  -3  -1  -9   15.05    0.92
   3   1   9   15.90    0.93
  -3   1  -9   14.91    0.94
  -4  -1  -9   48.73    2.60
  -4  -1  -9   42.58    1.72
   4  -1   9   41.89    1.71
   4   1   9   44.60    1.71
  -4   1  -9   43.49    1.69
  -5  -1  -9    9.85    0.65
  -5  -1  -9   12.66    1.74
  -5   1  -9    9.26    0.60
  -9  -2   9   21.02    1.74
  -9  -2   9   19.13    1.77
   9  -2  -9   20.74    1.93
  -9  -2   9   16.90    1.77
   9  -2  -9   21.63    1.88
  -9   2   9   20.72    1.87
   9   2  -9   19.95    1.78
   9   2  -9   22.02    1.85
  -9   2   9   20.95    1.78
  -9   2   9   18.89    1.84
  -8  -2   9   11.63    1.47
   8  -2  -9   12.24    1.49
  -8  -2   9   11.17    1.40
  -8  -2   9   11.54    1.30
   8  -2  -9   12.20    1.34
   8  -2  -9   10.00    1.43
   8   2  -9   12.44    1.58
  -8   2   9   10.87    1.29
   8   2  -9   10.23    1.30
  -8   2   9   12.35    1.50
   8   2  -9   14.38    1.34
  -8   2   9   11.44    1.46
   7  -2  -9    0.72    0.96
  -7  -2   9    0.47    0.94
   7  -2  -9    0.40    1.03
  -7  -2   9    1.22    1.15
   7  -2  -9    0.81    1.16
  -7  -2   9    0.13    0.86
   7   2  -9    0.32    0.69
   7   2  -9    0.63    1.07
  -7   2   9    1.22    1.07
  -7   2   9    0.91    0.97
   7   2  -9   -0.23    1.06
  -7   2   9    1.20    0.70
   6  -2  -9   33.05    2.09
  -6  -2   9   31.71    1.85
  -6  -2   9   34.79    1.95
   6  -2  -9   33.88    2.46
   6  -2  -9   33.10    2.25
  -6  -2   9   29.88    2.31
   6   2  -9   35.44    2.30
  -6   2   9   33.27    1.90
   6   2  -9   34.89    2.31
  -6   2   9   33.16    1.98
   6   2  -9   32.67    2.05
  -6   2   9   35.02    1.86
  -5  -2   9   42.32    2.57
  -5  -2   9   43.12    2.30
   5  -2  -9   39.78    2.28
   5  -2  -9   52.78    2.41
   5  -2  -9   53.01    2.77
   5   2  -9   49.38    2.63
  -5   2   9   50.14    2.36
   5   2  -9   40.89    2.34
  -5   2   9   52.37    2.59
  -5   2   9   46.44    2.36
   5   2  -9   49.61    2.21
   4  -2  -9   17.72    1.43
  -4  -2   9   14.58    1.44
   4  -2  -9   16.02    1.44
   4  -2  -9   14.17    1.15
   4   2  -9   18.28    1.47
  -4   2   9   15.30    1.16
  -4   2   9   17.51    1.45
   4   2  -9   15.15    1.11
  -4   2   9   19.16    1.38
   4   2  -9   15.28    1.39
  -3  -2   9   26.32    1.88
   3  -2  -9   18.72    1.86
   3  -2  -9   24.91    1.71
   3  -2  -9   21.61    1.85
   3  -2  -9   23.27    1.84
   3   2  -9   24.04    1.86
  -3   2   9   24.74    1.46
   3   2  -9   23.28    1.79
  -3   2   9   23.90    1.72
  -2  -2   9   14.29    1.26
   2  -2  -9   14.01    1.28
   2  -2  -9   14.36    1.14
   2   2  -9   14.00    1.26
  -2   2   9   12.95    1.13
   2   2  -9   14.93    1.20
   1  -2  -9  141.13    5.14
  -1  -2   9  143.55    5.18
   1  -2  -9  138.65    5.15
   1   2  -9  139.04    5.13
   1   2  -9  144.46    5.27
  -1   2   9  139.41    5.10
   0  -2  -9   55.57    2.30
   0  -2  -9   51.34    2.27
   0  -2   9   49.67    2.21
   0   2   9   53.67    2.27
   0   2  -9   52.73    2.39
   0   2  -9   50.24    2.32
  -1  -2  -9   89.57    3.24
  -1  -2  -9   85.04    3.27
   1  -2   9   86.50    3.29
  -1   2  -9   83.75    3.42
  -1   2  -9   87.99    3.32
   1   2   9   82.78    3.23
  -2  -2  -9   10.62    0.89
   2  -2   9   11.65    0.95
  -2  -2  -9   10.23    1.29
  -2   2  -9   10.35    0.92
  -2   2  -9   10.67    1.11
   2   2   9   10.35    0.81
  -3  -2  -9   33.17    1.51
  -3  -2  -9   31.19    1.88
  -3  -2  -9   34.51    2.59
   3  -2   9   34.96    1.54
  -3   2  -9   33.60    1.59
   3   2   9   33.29    1.57
  -3   2  -9   32.30    1.85
  -4  -2  -9   25.98    1.51
  -4  -2  -9   36.72    2.65
  -4  -2  -9   24.20    1.27
   4   2   9   24.27    1.21
  -4   2  -9   22.97    1.25
  -5  -2  -9  120.09    4.23
  -5  -2  -9  115.32    5.15
   5   2   9  122.19    4.22
  -5   2  -9  122.18    4.21
   9  -3  -9   11.93    1.39
  -9  -3   9   14.96    2.23
  -9  -3   9   11.88    1.42
   9  -3  -9    9.40    1.53
   9   3  -9   12.46    1.66
  -9   3   9   13.82    1.67
  -9   3   9   13.02    1.67
   9   3  -9   12.63    1.58
  -9   3   9   11.25    1.53
   8  -3  -9   20.96    1.78
  -8  -3   9   21.77    1.88
   8  -3  -9   21.58    1.89
   8  -3  -9   24.03    2.08
  -8  -3   9   21.34    1.77
   8   3  -9   22.60    1.87
  -8   3   9   20.51    1.85
  -8   3   9   22.97    1.90
   8   3  -9   24.85    2.06
   8   3  -9   22.68    2.02
   7  -3  -9   58.68    3.15
   7  -3  -9   57.25    2.86
   7  -3  -9   61.22    2.97
  -7  -3   9   61.93    3.24
  -7  -3   9   61.02    2.91
  -7   3   9   61.34    3.07
   7   3  -9   64.19    3.03
   7   3  -9   60.12    2.99
  -7   3   9   63.75    3.15
   7   3  -9   61.06    3.03
   6  -3  -9   39.88    2.37
   6  -3  -9   43.61    2.52
  -6  -3   9   40.10    2.65
  -6  -3   9   40.26    2.32
   6  -3  -9   37.71    2.71
  -6   3   9   41.22    2.52
   6   3  -9   42.00    2.34
   6   3  -9   41.24    2.60
   6   3  -9   44.32    2.36
  -6   3   9   39.65    2.35
  -5  -3   9   54.04    3.00
   5  -3  -9   62.15    2.96
  -5  -3   9   57.75    2.60
   5  -3  -9   55.63    3.06
   5  -3  -9   57.94    2.76
  -5   3   9   60.50    2.72
   5   3  -9   57.83    2.70
   5   3  -9   58.60    2.83
  -5   3   9   55.88    2.58
   5   3  -9   58.51    2.99
   4  -3  -9   14.92    1.30
   4  -3  -9   17.34    1.48
  -4  -3   9   19.22    1.66
   4  -3  -9   17.18    1.45
  -4   3   9   15.37    1.32
   4   3  -9   15.81    1.42
  -4   3   9   15.27    1.27
   4   3  -9   15.78    1.16
   4   3  -9   17.26    1.57
   3  -3  -9    8.68    1.19
   3  -3  -9    6.01    1.08
  -3  -3   9    4.76    1.16
  -3   3   9    6.58    1.03
   3   3  -9    6.81    1.19
   3   3  -9    8.50    1.06
   2  -3  -9  112.81    4.43
   2  -3  -9  112.78    4.46
  -2  -3   9  112.92    4.48
   2   3  -9  118.08    4.51
  -2   3   9  114.72    4.38
   2   3  -9  114.08    4.50
  -1  -3   9   27.74    1.89
   1  -3  -9   28.78    1.77
   1  -3  -9   30.28    1.75
  -1   3   9   28.47    1.74
   1   3  -9   28.64    1.85
   1   3  -9   28.80    1.98
   0  -3   9   16.66    1.28
   0  -3  -9   14.16    1.04
   0  -3  -9   15.36    1.11
   0  -3  -9   14.71    1.38
   0   3  -9   14.03    1.37
   0   3   9   14.36    1.15
   0   3  -9   14.85    1.15
  -2  -3  -9   55.57    2.41
  -2  -3  -9   57.06    2.97
  -2  -3  -9   58.54    2.75
  -2   3  -9   57.57    2.45
   2   3   9   55.99    2.40
  -2   3  -9   55.77    2.73
  -3  -3  -9    1.43    0.86
  -3  -3  -9   -0.39    0.49
  -3  -3  -9    2.67    1.38
  -3   3  -9    0.30    0.54
  -3   3  -9   -0.73    0.79
   3   3   9    0.69    0.54
  -4  -3  -9    8.78    1.70
  -4  -3  -9    7.02    1.12
  -4  -3  -9    7.58    0.77
  -4   3  -9    7.27    1.06
  -4   3  -9    7.59    0.79
   4   3   9    7.42    0.76
  -8  -4   9   53.40    2.84
  -8  -4   9   53.67    3.68
   8  -4  -9   54.80    3.20
   8  -4  -9   52.41    3.09
   8  -4  -9   50.63    2.82
   8   4  -9   52.92    3.13
   8   4  -9   56.80    3.19
  -8   4   9   54.61    3.11
  -8   4   9   59.64    2.87
   8   4  -9   58.35    3.09
   7  -4  -9   18.70    1.87
  -7  -4   9   17.75    1.68
   7  -4  -9   20.73    1.79
   7  -4  -9   16.24    1.71
   7   4  -9   17.38    1.83
   7   4  -9   13.95    1.56
  -7   4   9   17.57    1.55
   7   4  -9   15.61    1.54
  -7   4   9   15.92    1.47
   6  -4  -9    7.96    1.21
   6  -4  -9    8.36    1.52
   6  -4  -9    5.92    1.01
   6   4  -9    6.88    1.12
  -6   4   9    6.29    1.22
  -6   4   9    5.78    1.23
   5  -4  -9   49.10    2.71
   5  -4  -9   49.79    2.58
   5  -4  -9   49.85    2.91
   5   4  -9   48.94    2.59
   5   4  -9   45.74    2.57
   5   4  -9   48.27    2.33
  -5   4   9   48.58    2.70
  -5   4   9   49.24    2.57
   4  -4  -9   47.74    2.58
   4  -4  -9   42.52    2.67
  -4   4   9   47.15    2.57
   4   4  -9   51.30    2.72
   4   4  -9   41.47    2.66
  -3  -4   9   35.51    2.31
   3  -4  -9   30.80    2.15
   3  -4  -9   33.92    2.12
  -3   4   9   33.89    1.91
   3   4  -9   31.96    2.20
   3   4  -9   33.88    2.06
   2  -4  -9   38.38    1.97
   2  -4  -9   36.91    2.10
   2   4  -9   33.62    2.07
   2   4  -9   35.59    2.00
  -2   4   9   33.50    1.88
   1  -4  -9    2.52    0.90
   1  -4  -9    3.86    0.86
   1   4  -9    4.23    0.91
  -1   4   9    3.86    0.92
   1   4  -9    3.22    0.98
   0  -4  -9   29.54    1.79
   0  -4  -9   33.10    1.75
   0  -4  -9   35.51    2.17
   0   4  -9   30.99    1.96
   0   4   9   31.66    1.89
   0   4  -9   31.10    1.94
  -1  -4  -9    9.38    1.32
  -1  -4  -9    8.99    1.31
  -1  -4  -9    9.53    1.05
  -1   4  -9    7.51    1.23
   1   4   9    9.28    1.02
  -1   4  -9    8.82    0.93
  -2  -4  -9    5.93    0.88
  -2  -4  -9    6.61    1.46
  -2  -4  -9    5.13    1.14
  -2   4  -9    3.54    0.86
  -2   4  -9    4.02    0.90
   2   4   9    5.55    0.89
  -3  -4  -9    8.69    0.97
  -3  -4  -9    8.66    1.10
  -3  -4  -9    9.77    1.44
  -3   4  -9    9.71    1.04
  -3   4  -9    8.82    1.30
   3   4   9    8.55    0.97
   7  -5  -9    0.08    1.15
   7  -5  -9    3.19    0.97
  -7  -5   9    1.19    2.11
   7  -5  -9    2.66    1.64
  -7  -5   9    1.18    0.97
   7   5  -9   -0.36    1.25
  -7   5   9    2.47    0.93
  -7   5   9    1.71    1.23
   7   5  -9    2.61    1.02
   7   5  -9    2.09    1.13
   6  -5  -9   32.89    2.37
   6  -5  -9   27.11    2.28
  -6  -5   9   35.13    3.06
  -6  -5   9   33.12    2.46
   6  -5  -9   30.18    2.09
  -6   5   9   32.75    2.07
   6   5  -9   32.15    2.17
   6   5  -9   32.21    2.54
   6   5  -9   32.56    2.26
  -6   5   9   33.68    2.46
   5  -5  -9    9.20    1.42
   5  -5  -9   12.42    1.76
  -5   5   9   10.23    1.46
   5   5  -9   11.54    1.60
   5   5  -9   10.06    1.31
   4  -5  -9    1.57    0.80
   4  -5  -9    1.58    1.17
   4   5  -9    0.73    0.89
  -4   5   9    1.96    0.84
   4   5  -9    0.88    1.19
   3  -5  -9   18.10    1.64
  -3  -5   9   14.09    1.44
   3  -5  -9   13.44    1.50
   3   5  -9   13.73    1.64
   3   5  -9   13.97    1.63
  -3   5   9   13.56    1.46
   2  -5  -9   12.41    1.51
   2  -5  -9   12.17    1.30
   2  -5  -9   13.56    1.46
  -2  -5   9   13.58    1.32
  -2   5   9   14.45    1.42
   2   5  -9   11.48    1.59
   2   5  -9   14.03    1.35
   1  -5  -9   39.74    2.35
  -1  -5   9   42.67    2.11
   1  -5  -9   37.43    2.25
   1   5  -9   42.87    2.25
   1   5  -9   40.44    2.64
  -1   5   9   41.39    2.34
   0  -5  -9    0.17    0.62
   0  -5  -9    1.82    1.09
   0   5  -9    0.49    1.08
   0   5   9    0.88    0.65
   0   5  -9   -1.58    0.91
  -1  -5  -9   12.22    1.31
  -1  -5  -9   12.09    1.72
  -1  -5  -9   11.16    1.50
   1   5   9   15.22    1.36
  -1   5  -9   12.71    1.37
  -1   5  -9   14.15    1.60
  -2  -5  -9   -0.11    0.95
  -2  -5  -9   -1.05    0.76
  -2  -5  -9    1.81    1.12
  -2   5  -9   -0.13    0.84
   2   5   9    1.38    0.85
  -2   5  -9    0.38    0.74
  -5  -6   9   -2.26    1.74
   5  -6  -9    0.79    1.21
   5  -6  -9    1.17    1.37
  -5  -6   9   -0.50    1.10
  -5   6   9    0.32    1.23
   5   6  -9    2.38    1.38
   5   6  -9    0.32    1.27
   4  -6  -9   22.47    1.99
  -4  -6   9   22.94    2.17
   4  -6  -9   27.98    2.24
  -4  -6   9   22.00    1.88
   4   6  -9   24.78    2.18
  -4   6   9   23.47    1.86
   4   6  -9   26.76    2.22
   3  -6  -9    0.17    1.03
  -3  -6   9    1.54    0.99
   3  -6  -9    0.36    1.12
   3   6  -9   -0.07    0.83
  -3   6   9    1.47    1.14
   3   6  -9    1.30    1.24
   2  -6  -9   12.72    1.35
  -2  -6   9   12.70    1.31
   2  -6  -9   12.69    1.63
  -2   6   9   10.78    1.23
   2   6  -9    9.95    1.53
   2   6  -9   12.66    1.67
   1  -6  -9    9.67    1.25
   1  -6  -9   10.62    1.44
   1   6  -9    7.43    1.45
   1   6  -9   12.63    1.69
  -1   6   9    8.02    1.09
   0  -6  -9   91.10    3.97
   0  -6  -9   84.69    3.94
   0   6   9   89.89    3.89
   0   6  -9   88.41    4.24
   0   6  -9   88.96    4.03
  -9   0  10    0.69    1.18
  -9   0  10    0.16    1.05
   9   0 -10    0.93    0.87
   9   0 -10    0.20    0.75
  -9   0  10   -0.89    0.72
   9   0 -10   -0.18    1.21
   8   0 -10  250.35    9.44
   8   0 -10  257.17    9.34
   8   0 -10  259.19    9.47
  -8   0  10  258.01    9.24
  -8   0  10  266.56    9.38
  -8   0  10  266.45    9.41
   7   0 -10    1.05    1.13
   7   0 -10   -0.75    1.08
  -7   0  10   -1.02    0.84
   7   0 -10   -1.55    0.87
  -7   0  10   -0.30    0.61
  -7   0  10   -0.56    0.71
  -6   0  10   49.83    2.53
  -6   0  10   49.37    2.55
   6   0 -10   53.49    2.59
  -6   0  10   50.55    2.32
   6   0 -10   50.63    2.78
   6   0 -10   48.85    2.62
   5   0 -10   -0.05    0.70
  -5   0  10   -0.45    0.67
   5   0 -10    0.51    0.71
  -5   0  10   -0.72    0.69
   5   0 -10    0.12    0.69
  -4   0  10  203.93    7.58
  -4   0  10  216.03    7.33
   4   0 -10  208.94    7.67
   4   0 -10  218.16    7.69
  -3   0  10   -0.99    0.82
   3   0 -10   -0.19    0.58
   3   0 -10    0.51    0.84
  -3   0  10   -0.25    0.47
   2   0 -10    2.71    0.83
  -2   0  10    3.90    0.69
   2   0 -10    4.01    0.94
  -2   0  10    4.27    0.58
  -1   0  10    0.66    0.66
   1   0 -10    0.51    0.74
   1   0 -10    0.22    0.67
   0   0 -10  119.96    4.44
   0   0  10  113.74    4.27
   0   0 -10  116.32    4.32
  -1   0 -10    0.25    0.42
   1   0  10   -0.06    0.49
  -1   0 -10   -0.89    0.57
  -2   0 -10    5.29    0.69
   2   0  10    4.70    0.66
  -3   0 -10    0.25    0.42
   3   0  10    0.40    0.42
  -4   0 -10  101.50    3.57
   9  -1 -10    0.84    1.19
   9  -1 -10    1.42    1.14
  -9  -1  10   -0.46    1.04
   9  -1 -10    0.33    1.33
  -9  -1  10    1.18    0.90
   9  -1 -10   -0.24    0.88
  -9  -1  10    0.95    0.83
  -9   1  10   -0.28    1.10
   9   1 -10    1.66    0.84
  -9   1  10   -0.91    1.10
   9   1 -10    0.12    0.83
   9   1 -10    0.24    1.22
  -9   1  10    0.58    0.85
   8  -1 -10    0.33    0.81
  -8  -1  10    0.64    0.74
   8  -1 -10    0.23    1.00
   8  -1 -10    1.07    0.97
  -8  -1  10    0.47    0.81
   8  -1 -10    0.37    1.21
  -8  -1  10    1.41    1.02
   8   1 -10    0.23    0.84
  -8   1  10    2.32    1.19
  -8   1  10    0.24    0.98
   8   1 -10    0.77    1.01
  -8   1  10    0.06    0.72
   8   1 -10    0.26    1.14
   7  -1 -10  152.89    6.06
   7  -1 -10  160.85    6.18
  -7  -1  10  156.77    6.16
   7  -1 -10  155.68    6.03
  -7  -1  10  160.03    5.95
   7  -1 -10  163.51    6.38
  -7  -1  10  155.49    5.99
  -7   1  10  160.10    6.13
  -7   1  10  158.83    5.99
   7   1 -10  159.48    6.28
   7   1 -10  158.44    6.02
   7   1 -10  160.37    6.10
  -7   1  10  160.55    6.08
   6  -1 -10   20.50    1.71
  -6  -1  10   19.16    1.75
   6  -1 -10   20.14    1.48
   6  -1 -10   21.46    1.92
   6  -1 -10   22.69    2.00
  -6  -1  10   19.47    1.50
  -6  -1  10   21.92    1.67
  -6   1  10   18.94    1.63
  -6   1  10   22.58    1.46
   6   1 -10   20.53    1.45
   6   1 -10   19.64    1.77
   6   1 -10   16.70    1.56
  -6   1  10   19.61    1.69
   5  -1 -10    8.65    1.28
   5  -1 -10    8.13    1.03
  -5  -1  10    9.33    0.98
  -5  -1  10    9.16    1.08
   5  -1 -10    7.01    1.08
   5   1 -10    8.83    1.12
   5   1 -10    7.67    1.01
   5   1 -10    6.99    1.28
  -5   1  10    9.04    1.28
  -5   1  10    7.24    1.04
  -4  -1  10   33.15    2.09
  -4  -1  10   30.15    1.60
   4  -1 -10   31.33    1.93
   4  -1 -10   31.25    2.07
   4   1 -10   29.88    2.09
  -4   1  10   31.86    2.06
   4   1 -10   29.44    2.16
  -4   1  10   33.92    1.73
   3  -1 -10  173.59    6.48
  -3  -1  10  165.68    6.39
   3  -1 -10  185.37    6.50
  -3  -1  10  177.11    6.07
  -3   1  10  178.21    6.40
   3   1 -10  182.43    6.60
   3   1 -10  176.04    6.48
  -3   1  10  175.17    6.17
  -2  -1  10    2.87    0.87
   2  -1 -10    2.33    0.68
   2  -1 -10    2.52    0.81
   2   1 -10    0.95    0.91
  -2   1  10    2.89    0.85
   2   1 -10    2.55    0.87
  -2   1  10    3.06    0.57
   1  -1 -10   53.01    2.39
   1  -1 -10   51.63    2.33
  -1  -1  10   51.22    2.41
   1   1 -10   53.43    2.57
  -1   1  10   51.89    2.36
   1   1 -10   52.80    2.32
   0  -1 -10    3.70    0.61
   0  -1 -10    3.18    0.71
   0  -1  10    3.15    0.72
   0   1 -10    4.73    0.88
   0   1 -10    3.41    0.74
   0   1  10    4.84    0.73
  -1  -1 -10  157.41    5.73
  -1  -1 -10  154.69    5.72
   1  -1  10  161.92    5.69
  -1   1 -10  159.59    5.73
  -1   1 -10  167.88    5.91
   1   1  10  170.47    5.68
   2  -1  10   10.96    0.85
  -2  -1 -10   10.05    0.82
  -2   1 -10    9.75    0.99
   2   1  10   10.98    0.84
  -2   1 -10   12.05    0.94
   3  -1  10   21.82    1.19
  -3  -1 -10   21.42    1.12
   3   1  10   21.86    1.20
  -3   1 -10   20.13    1.20
  -4  -1 -10    5.93    0.56
  -4   1 -10    4.62    0.58
   4   1  10    5.13    0.56
   9  -2 -10    3.22    1.16
   9  -2 -10    3.04    1.27
   9  -2 -10    2.77    1.09
  -9  -2  10    2.76    1.33
   9  -2 -10    4.28    1.37
  -9  -2  10    2.41    1.21
   9   2 -10    3.96    1.24
   9   2 -10    6.14    1.44
  -9   2  10    2.27    0.94
  -9   2  10    1.72    0.94
  -9   2  10    3.25    0.98
   9   2 -10    3.07    1.31
   8  -2 -10    2.73    0.96
   8  -2 -10    3.84    1.45
  -8  -2  10    2.44    1.05
  -8  -2  10    2.90    0.88
  -8  -2  10    2.28    1.02
   8  -2 -10    1.62    1.11
   8  -2 -10    4.22    1.38
  -8   2  10    4.62    0.97
  -8   2  10    1.19    1.12
  -8   2  10    3.51    1.27
   8   2 -10    1.67    0.93
   8   2 -10    2.80    1.29
   8   2 -10    0.74    1.08
   7  -2 -10    5.60    1.12
   7  -2 -10    5.70    1.30
  -7  -2  10    3.36    1.28
   7  -2 -10    6.25    1.39
  -7  -2  10    4.35    0.88
   7  -2 -10    3.78    1.12
  -7   2  10   10.05    1.26
   7   2 -10    7.12    1.34
   7   2 -10    5.82    1.13
  -7   2  10    3.48    0.85
   7   2 -10    4.74    1.03
  -7   2  10    4.51    1.27
   6  -2 -10  107.23    4.62
  -6  -2  10   96.43    4.24
   6  -2 -10  101.08    4.30
   6  -2 -10  105.27    4.42
   6  -2 -10  110.57    4.30
   6   2 -10  105.45    4.24
   6   2 -10   99.21    4.35
  -6   2  10  107.53    4.42
   6   2 -10  100.67    4.32
  -6   2  10  112.14    4.27
  -5  -2  10    0.77    0.78
   5  -2 -10    0.91    1.08
   5  -2 -10    1.40    0.84
   5  -2 -10    1.38    1.05
   5  -2 -10    2.41    0.88
   5   2 -10    1.03    0.76
  -5   2  10    0.97    0.61
   5   2 -10    1.33    1.07
  -5   2  10    1.28    0.77
   5   2 -10    0.41    0.75
   4  -2 -10   34.28    2.25
   4  -2 -10   30.41    2.10
  -4  -2  10   33.41    1.95
   4   2 -10   32.74    2.26
  -4   2  10   31.94    1.83
  -4   2  10   33.78    2.14
   4   2 -10   33.17    1.95
  -3  -2  10   10.38    1.27
   3  -2 -10   11.24    1.10
   3  -2 -10   13.42    1.22
  -3   2  10   11.86    1.04
  -3   2  10   11.18    1.05
   3   2 -10   12.21    1.30
   3   2 -10   11.67    1.36
   2  -2 -10   75.09    3.20
  -2  -2  10   75.51    3.26
   2  -2 -10   70.99    3.15
  -2   2  10   72.25    2.92
  -2   2  10   78.23    3.18
   2   2 -10   77.32    3.16
   2   2 -10   74.62    3.23
   1  -2 -10    0.32    0.69
   1  -2 -10    0.04    0.70
  -1  -2  10    0.63    0.81
   1   2 -10    0.10    0.55
  -1   2  10    1.60    0.75
   1   2 -10   -0.53    0.83
   0  -2 -10  142.07    5.08
   0  -2  10  145.57    5.10
   0  -2 -10  136.77    5.06
   0   2 -10  139.48    5.11
   0   2 -10  139.99    5.29
   0   2  10  127.46    4.94
  -1  -2 -10    3.53    0.70
   1  -2  10    3.36    0.75
  -1   2 -10    2.73    0.86
  -1   2 -10    3.35    0.74
   1   2  10    4.08    0.71
   2  -2  10    3.32    0.69
  -2  -2 -10    2.42    0.61
  -2   2 -10    2.65    0.82
  -2   2 -10    3.99    0.66
   2   2  10    4.01    0.65
  -3  -2 -10    2.35    1.40
   3  -2  10    0.83    0.62
  -3  -2 -10    1.50    0.50
  -3   2 -10    1.07    0.59
   3   2  10    0.91    0.47
  -4  -2 -10  101.19    4.86
  -4  -2 -10  102.33    3.75
   4   2  10  103.52    3.73
  -4   2 -10  101.81    3.72
   8  -3 -10   -0.57    0.82
  -8  -3  10    0.47    0.78
   8  -3 -10   -0.86    0.96
   8  -3 -10    0.54    1.17
  -8  -3  10   -2.04    0.81
   8   3 -10   -0.85    1.02
  -8   3  10   -0.39    0.74
  -8   3  10   -0.72    1.08
   8   3 -10   -0.10    0.82
  -8   3  10   -0.15    1.19
   8   3 -10   -1.85    1.12
   7  -3 -10    6.63    1.48
  -7  -3  10    5.66    1.39
   7  -3 -10    4.50    1.19
   7  -3 -10    6.75    1.39
   7   3 -10    6.66    1.38
  -7   3  10    4.95    1.19
  -7   3  10    4.27    0.99
   7   3 -10    5.57    0.95
   7   3 -10    7.34    1.41
  -7   3  10    6.10    1.06
   6  -3 -10   30.34    2.07
   6  -3 -10   28.22    2.17
   6  -3 -10   36.55    1.99
  -6  -3  10   30.13    2.51
   6   3 -10   33.73    2.19
  -6   3  10   34.32    2.41
   6   3 -10   38.28    2.49
  -6   3  10   36.20    2.18
   6   3 -10   31.80    2.12
  -5  -3  10    8.93    1.43
   5  -3 -10    6.92    1.27
   5  -3 -10    5.90    1.36
  -5   3  10    7.16    1.13
  -5   3  10    8.59    1.32
   5   3 -10    6.51    1.34
   5   3 -10    4.87    1.30
   4  -3 -10    4.23    0.88
  -4  -3  10    5.86    1.02
   4  -3 -10    6.70    1.02
  -4   3  10    6.12    1.01
  -4   3  10    5.70    1.10
   4   3 -10    4.50    0.96
   4   3 -10    7.51    1.32
   3  -3 -10   18.02    1.60
   3  -3 -10   14.69    1.44
  -3  -3  10   19.76    1.54
   3  -3 -10   16.26    1.57
   3   3 -10   15.27    1.38
   3   3 -10   16.08    1.62
  -3   3  10   16.35    1.42
   2  -3 -10    0.62    0.82
   2  -3 -10    0.19    0.60
  -2  -3  10    0.80    0.73
   2   3 -10    0.74    1.00
  -2   3  10    2.04    0.85
   2   3 -10    1.74    0.74
   1  -3 -10    0.35    0.70
   1  -3 -10   -0.32    0.53
  -1  -3  10   -0.70    0.84
  -1   3  10   -0.35    0.75
   1   3 -10   -0.49    0.83
   1   3 -10    0.10    0.69
   1  -3  10   30.91    1.83
  -1  -3 -10   30.26    1.73
   1   3  10   28.02    1.69
  -1   3 -10   32.17    1.85
  -1   3 -10   27.93    1.74
  -2  -3 -10    2.82    0.72
   2  -3  10    2.27    0.74
  -2   3 -10    1.27    0.68
   2   3  10    1.97    0.79
  -2   3 -10    3.18    0.97
  -3  -3 -10   -0.06    1.45
  -3  -3 -10    1.27    0.58
  -3  -3 -10    0.75    0.88
  -3   3 -10   -0.84    0.84
   3   3  10    1.70    0.72
  -3   3 -10    0.36    0.70
   7  -4 -10   21.84    1.88
   7  -4 -10   21.34    1.75
   7  -4 -10   28.71    2.45
  -7   4  10   21.99    1.78
  -7   4  10   24.11    2.02
   7   4 -10   21.61    1.74
   7   4 -10   21.59    2.04
   7   4 -10   21.64    2.10
   6  -4 -10    4.02    1.11
   6  -4 -10    4.38    1.26
  -6   4  10    2.85    1.11
   6   4 -10    3.53    1.00
   6   4 -10    2.75    1.27
  -6   4  10    4.52    0.98
  -5  -4  10   69.88    3.50
   5  -4 -10   61.21    3.22
   5  -4 -10   67.56    3.19
   5   4 -10   66.76    3.28
  -5   4  10   71.59    3.37
   5   4 -10   72.71    3.52
  -5   4  10   69.70    3.20
   4  -4 -10   -1.31    0.96
  -4  -4  10   -1.43    0.79
   4  -4 -10   -0.15    1.02
   4   4 -10    0.92    1.12
   4   4 -10   -0.07    0.78
  -4   4  10    0.63    1.05
  -3  -4  10    8.00    1.11
   3  -4 -10    6.98    1.00
   3  -4 -10    7.75    1.21
  -3   4  10    6.19    1.17
   3   4 -10    6.00    1.02
   3   4 -10    9.33    1.20
   2  -4 -10    6.51    0.96
  -2  -4  10    8.43    1.31
  -2   4  10    6.93    0.96
   2   4 -10    7.89    1.13
   2   4 -10    7.46    1.26
   1  -4 -10    9.90    1.19
   1  -4 -10    9.05    1.19
   1   4 -10   11.80    1.50
   1   4 -10    9.99    1.29
  -1   4  10   12.86    1.28
   0  -4 -10   16.44    1.61
   0  -4 -10   17.16    1.54
   0   4 -10   15.28    1.43
   0   4 -10   17.97    1.59
   0   4  10   19.32    1.57
  -1  -4 -10   15.77    1.33
  -1  -4 -10   14.95    1.53
  -1   4 -10   13.56    1.32
  -1   4 -10   15.32    1.56
   1   4  10   14.43    1.27
  -2  -4 -10    2.27    0.81
  -2  -4 -10    1.56    0.77
  -2  -4 -10   -0.32    0.98
  -2   4 -10    1.16    0.76
  -2   4 -10    1.84    0.82
   2   4  10    1.51    0.75
   6  -5 -10   34.01    2.22
   6  -5 -10   30.45    2.82
   6   5 -10   35.79    2.34
   6   5 -10   31.20    2.29
  -6   5  10   32.47    2.39
  -6   5  10   32.21    2.20
   5  -5 -10    8.11    1.58
   5  -5 -10    6.91    1.37
   5   5 -10    7.82    1.53
   5   5 -10    5.50    1.15
  -5   5  10    7.11    1.42
   4  -5 -10   61.15    3.24
   4  -5 -10   61.41    3.01
  -4   5  10   60.40    2.95
   4   5 -10   63.56    3.34
   4   5 -10   59.18    3.12
   3  -5 -10    6.41    1.28
   3  -5 -10    5.24    0.96
   3   5 -10    4.60    1.32
  -3   5  10    4.14    1.20
   3   5 -10    5.64    1.41
   2  -5 -10  164.88    6.21
  -2  -5  10  157.99    5.97
  -2   5  10  161.62    6.10
   2   5 -10  159.15    6.35
   2   5 -10  155.40    6.23
   1  -5 -10   -0.03    1.07
   1  -5 -10    0.39    0.95
  -1   5  10    0.58    0.97
   1   5 -10   -0.28    1.15
   1   5 -10    0.75    1.05
   0  -5 -10   28.78    2.20
   0  -5 -10   25.63    1.99
   0   5 -10   26.13    2.17
   0   5 -10   29.06    2.10
   0   5  10   27.21    1.75
   9   0 -11   74.77    4.13
   9   0 -11   87.65    4.14
   9   0 -11   84.88    3.96
  -9   0  11   87.77    3.90
  -9   0  11   80.66    4.09
  -9   0  11   85.81    3.85
  -8   0  11    0.39    0.88
  -8   0  11    0.19    1.01
   8   0 -11    0.24    1.04
   8   0 -11   -0.07    1.15
   8   0 -11    1.48    1.31
   7   0 -11   38.34    2.32
  -7   0  11   33.47    2.18
   7   0 -11   38.54    2.55
   7   0 -11   37.87    2.35
  -7   0  11   32.13    2.17
   6   0 -11   -0.30    0.75
   6   0 -11    0.67    1.10
  -6   0  11   -0.80    0.51
  -6   0  11   -0.45    1.07
  -5   0  11   26.53    1.63
   5   0 -11   23.82    2.14
  -5   0  11   24.52    1.88
   5   0 -11   22.69    1.91
  -4   0  11   -0.77    0.68
   4   0 -11   -0.31    0.67
  -4   0  11    0.76    0.60
   4   0 -11   -0.88    0.66
   3   0 -11   14.36    1.41
  -3   0  11   12.58    1.23
   3   0 -11   12.03    1.39
  -3   0  11   12.90    1.34
   2   0 -11   -0.13    0.57
   2   0 -11   -0.24    0.81
  -2   0  11   -0.74    0.81
   1   0 -11   52.20    2.58
  -1   0  11   57.30    2.46
   1   0 -11   60.38    2.62
   0   0 -11    0.81    0.72
   0   0 -11   -0.03    0.63
   0   0  11   -0.35    0.63
  -1   0 -11   99.40    3.68
   1   0  11   96.80    3.62
  -1   0 -11   89.94    3.72
  -2   0 -11    0.13    0.61
   2   0  11   -0.22    0.59
   3   0  11   51.80    2.15
  -3   0 -11   51.79    2.19
   9  -1 -11    4.58    1.51
   9  -1 -11    4.95    1.32
  -9  -1  11    2.30    1.40
   9  -1 -11    4.94    1.42
  -9  -1  11    2.67    1.15
   9  -1 -11    3.98    1.63
  -9  -1  11    3.57    1.03
  -9   1  11    3.58    1.37
   9   1 -11    4.70    1.27
   9   1 -11    2.78    1.07
  -9   1  11    2.69    1.25
   9   1 -11    7.16    1.22
  -9   1  11    5.07    1.08
   8  -1 -11   70.19    3.42
  -8  -1  11   73.95    3.64
   8  -1 -11   69.46    3.37
   8  -1 -11   70.03    3.72
  -8  -1  11   72.34    3.33
  -8   1  11   69.98    3.39
   8   1 -11   68.26    3.21
   8   1 -11   67.96    3.43
   8   1 -11   66.65    3.58
  -8   1  11   70.62    3.59
  -7  -1  11    0.73    0.87
  -7  -1  11   -0.24    0.88
   7  -1 -11    0.79    0.98
   7  -1 -11    1.01    1.24
   7  -1 -11    1.89    0.90
   7   1 -11    1.85    1.19
   7   1 -11    0.29    1.12
   7   1 -11    0.26    0.90
  -7   1  11   -0.12    0.94
  -7   1  11    0.16    1.17
   6  -1 -11    5.92    1.13
  -6  -1  11    7.73    1.40
  -6  -1  11   10.12    1.13
   6  -1 -11    6.73    1.11
   6   1 -11    8.24    1.43
  -6   1  11    8.70    1.39
  -6   1  11    8.55    0.98
   6   1 -11    7.89    1.17
  -5  -1  11    3.33    0.79
   5  -1 -11    4.02    0.95
  -5  -1  11    3.40    0.91
   5  -1 -11    1.94    0.86
  -5   1  11    4.71    0.75
   5   1 -11    3.93    1.20
   5   1 -11    2.70    0.89
  -5   1  11    2.74    1.13
   4  -1 -11  170.66    6.32
  -4  -1  11  159.23    5.84
  -4  -1  11  166.79    6.24
   4  -1 -11  164.86    6.30
  -4   1  11  168.68    5.97
  -4   1  11  163.79    6.22
   4   1 -11  173.83    6.35
   4   1 -11  165.25    6.31
   3  -1 -11   31.57    2.04
   3  -1 -11   33.00    1.97
  -3  -1  11   29.07    2.05
   3   1 -11   31.00    2.21
   3   1 -11   29.22    2.06
  -3   1  11   32.23    2.04
  -3   1  11   30.66    1.59
   2  -1 -11    1.46    0.87
  -2  -1  11   -0.35    0.58
   2  -1 -11   -0.40    0.53
   2   1 -11    0.64    0.85
   2   1 -11    0.72    0.65
  -2   1  11   -0.53    0.79
   1  -1 -11    9.52    1.09
  -1  -1  11    8.63    1.06
   1  -1 -11   10.07    1.12
   1   1 -11    9.45    1.10
  -1   1  11   11.32    1.11
   1   1 -11    9.65    1.03
   0  -1  11   61.76    2.70
   0  -1 -11   61.53    2.74
   0  -1 -11   61.54    2.69
   0   1 -11   61.03    2.63
   0   1  11   63.93    2.68
   0   1 -11   65.95    2.91
  -1  -1 -11   13.89    1.17
   1  -1  11   14.70    1.19
  -1   1 -11   16.42    1.24
   1   1  11   14.80    1.11
  -1   1 -11   15.25    1.32
  -2  -1 -11   18.04    1.16
   2  -1  11   15.71    1.18
   2   1  11   17.18    1.16
  -2   1 -11   16.69    1.19
  -3  -1 -11   38.20    1.80
   3  -1  11   38.07    1.82
  -3   1 -11   41.56    1.83
   3   1  11   38.86    1.80
   8  -2 -11    2.73    1.37
  -8  -2  11    4.13    1.40
   8  -2 -11    6.23    1.53
  -8   2  11    2.27    0.83
   8   2 -11    2.86    0.98
   7  -2 -11   84.57    3.58
  -7  -2  11   79.01    3.72
   7  -2 -11   84.03    3.95
   7  -2 -11   84.84    4.08
   7  -2 -11   84.70    3.93
   7   2 -11   80.86    3.81
   7   2 -11   78.54    3.94
  -7   2  11   80.36    3.66
  -7   2  11   81.66    3.68
   6  -2 -11   -0.36    0.82
   6  -2 -11   -0.95    0.86
   6  -2 -11   -1.89    1.07
  -6  -2  11    0.30    0.83
  -6   2  11    0.29    0.81
   6   2 -11   -0.63    0.77
  -6   2  11    0.21    0.64
   6   2 -11   -0.48    1.11
   5  -2 -11   75.86    3.62
   5  -2 -11   78.12    3.74
  -5  -2  11   79.86    3.67
  -5   2  11   76.16    3.29
   5   2 -11   77.95    3.66
  -5   2  11   80.58    3.59
   5   2 -11   72.85    3.51
   4  -2 -11   25.55    2.00
   4  -2 -11   28.25    2.15
  -4  -2  11   22.47    1.72
  -4   2  11   23.75    1.62
   4   2 -11   20.68    1.84
  -4   2  11   24.45    1.80
   4   2 -11   23.53    1.73
   3  -2 -11   16.48    1.56
   3  -2 -11   13.77    1.47
  -3  -2  11   16.24    1.55
  -3   2  11   15.82    1.45
  -3   2  11   17.37    1.26
   3   2 -11   17.58    1.67
   3   2 -11   15.80    1.54
   2  -2 -11    4.80    0.99
  -2  -2  11    3.72    0.83
   2  -2 -11    4.14    0.99
   2   2 -11    3.19    1.00
   2   2 -11    4.42    1.15
  -2   2  11    4.70    0.72
  -2   2  11    4.17    0.96
   1  -2 -11  163.07    6.14
  -1  -2  11  163.30    6.11
   1  -2 -11  172.79    6.13
   1   2 -11  171.14    6.32
  -1   2  11  167.74    6.07
   1   2 -11  162.59    6.14
   0  -2  11   13.31    1.23
   0  -2 -11   14.78    1.32
   0  -2 -11   12.03    1.33
   0   2 -11   13.37    1.39
   0   2  11   15.44    1.19
   0   2 -11   13.27    1.21
  -1  -2 -11    0.68    0.65
   1  -2  11    2.23    0.92
  -1   2 -11    2.42    0.69
  -1   2 -11    2.38    0.73
   1   2  11    1.44    0.81
   2  -2  11    1.08    0.80
  -2  -2 -11    2.85    0.67
   2   2  11    2.33    0.65
  -2   2 -11    0.65    0.60
  -2   2 -11    1.38    0.74
   7  -3 -11   14.04    1.84
   7  -3 -11    9.92    1.37
  -7  -3  11   11.86    1.43
   7   3 -11   10.17    1.41
   7   3 -11    8.62    1.32
  -7   3  11    9.15    1.51
  -7   3  11   11.31    1.48
   6  -3 -11    3.22    1.25
  -6  -3  11    2.70    1.29
   6  -3 -11    5.14    1.39
   6   3 -11    2.18    0.96
  -6   3  11    4.66    1.14
  -6   3  11    1.80    0.89
   6   3 -11    4.03    1.05
   5  -3 -11   16.08    1.69
   5  -3 -11   15.77    1.73
   5  -3 -11   20.87    1.83
  -5  -3  11   14.35    1.73
   5   3 -11   12.41    1.42
  -5   3  11   13.59    1.56
  -5   3  11   13.68    1.39
   5   3 -11   13.00    1.64
   4  -3 -11   33.79    2.39
  -4  -3  11   30.23    2.07
   4  -3 -11   32.18    2.27
   4   3 -11   35.54    2.43
  -4   3  11   32.71    2.27
   4   3 -11   36.95    2.14
  -4   3  11   31.36    1.96
  -3  -3  11    0.67    1.11
   3  -3 -11    1.26    0.77
   3  -3 -11    0.05    0.94
   3   3 -11    2.79    1.09
  -3   3  11    0.93    0.58
   3   3 -11    1.25    0.82
  -3   3  11    2.09    1.00
   2  -3 -11   22.77    1.79
  -2  -3  11   19.11    1.73
   2  -3 -11   23.78    1.63
   2   3 -11   23.35    1.87
  -2   3  11   23.23    1.55
   2   3 -11   23.49    1.64
   1  -3 -11    1.94    0.80
   1  -3 -11    3.39    0.91
  -1  -3  11    1.64    0.97
   1   3 -11    2.72    0.96
  -1   3  11    2.21    0.66
   1   3 -11    4.90    1.16
   0  -3  11   21.44    1.67
   0   3 -11   23.19    1.89
   0   3 -11   11.23    1.29
   0   3  11   13.45    1.13
  -1  -3 -11    1.19    0.73
   1  -3  11    0.43    0.81
  -1   3 -11    1.63    0.80
  -1   3 -11    0.43    0.95
   1   3  11    0.46    0.71
  -2  -3 -11   30.67    1.78
  -2   3 -11   33.68    1.83
   2   3  11   30.43    1.78
  -2   3 -11   31.28    1.93
  -6  -4  11   12.23    1.74
   6  -4 -11    9.87    1.70
   6  -4 -11    9.74    1.60
   6   4 -11   14.11    1.79
   6   4 -11   11.03    1.67
  -6   4  11    9.87    1.43
  -6   4  11   12.24    1.64
   5  -4 -11    1.72    0.92
  -5  -4  11    2.70    1.04
   5  -4 -11    1.81    0.87
  -5   4  11    1.04    1.15
   5   4 -11    0.35    1.21
   5   4 -11    0.22    1.23
  -5   4  11    2.61    0.81
   4  -4 -11   12.00    1.27
   4  -4 -11   12.67    1.56
  -4  -4  11   10.83    1.58
   4   4 -11   12.18    1.44
  -4   4  11   14.46    1.26
   4   4 -11   13.05    1.64
  -4   4  11    8.79    1.18
   3  -4 -11    4.62    1.18
  -3  -4  11    4.47    1.29
  -3   4  11    5.72    0.93
   3   4 -11    2.87    1.27
   3   4 -11    5.11    1.31
   2  -4 -11   25.49    1.78
   2  -4 -11   26.16    2.01
  -2  -4  11   28.02    1.90
  -2   4  11   26.83    2.02
   2   4 -11   28.49    2.31
   2   4 -11   24.69    2.11
   1  -4 -11    1.54    0.94
   1   4 -11    3.03    0.90
  -1   4  11    2.18    0.97
   1   4 -11    1.69    0.76
   0  -4 -11   -0.11    0.59
   0   4  11    0.53    0.86
   0   4 -11    0.37    1.09
   0   4 -11    0.23    0.89
   3  -5 -11  122.86    4.97
   3   5 -11  120.06    5.18
  -3   5  11  122.23    5.03
   8   0 -12    1.04    1.34
  -8   0  12    3.74    1.08
   8   0 -12    0.57    0.93
  -8   0  12    2.91    1.08
  -7   0  12    0.46    0.90
   7   0 -12   -0.10    1.24
  -7   0  12    0.17    0.86
   7   0 -12    0.73    0.90
   6   0 -12    1.87    0.95
  -6   0  12    1.08    0.85
   6   0 -12    1.39    1.21
  -6   0  12    0.99    1.19
  -5   0  12   -1.23    0.64
   5   0 -12    1.31    0.83
  -5   0  12    0.38    0.80
   5   0 -12   -0.48    0.73
  -4   0  12   55.20    2.89
   4   0 -12   51.05    2.96
   4   0 -12   54.83    2.88
  -3   0  12    0.29    0.95
   3   0 -12   -0.54    0.90
   3   0 -12    0.97    1.01
   2   0 -12    2.56    0.94
  -2   0  12    2.57    0.96
   2   0 -12    2.83    0.78
   1   0 -12    0.74    0.82
   1   0 -12   -0.20    0.55
  -1   0  12    0.97    0.81
   0   0 -12   98.87    3.88
   0   0 -12   98.16    3.96
   0   0  12   94.21    3.81
  -1   0 -12    0.35    0.63
   1   0  12   -0.48    0.61
   8  -1 -12   54.10    3.08
   8  -1 -12   59.50    3.30
  -8  -1  12   55.05    3.32
  -8  -1  12   54.55    2.87
   8   1 -12   51.78    3.00
  -8   1  12   52.76    2.93
   8   1 -12   52.88    2.99
  -8   1  12   59.20    3.31
  -7  -1  12    1.33    0.96
  -7  -1  12    3.27    1.01
   7  -1 -12    1.03    1.25
   7  -1 -12    3.35    1.08
  -7   1  12    3.03    1.33
  -7   1  12    1.43    1.01
   7   1 -12    0.77    1.27
   7   1 -12    0.78    1.24
  -6  -1  12    0.21    1.20
   6  -1 -12    0.16    0.83
   6  -1 -12   -0.18    1.16
  -6  -1  12    0.42    0.78
  -6   1  12    1.45    1.16
   6   1 -12    0.58    1.19
   6   1 -12   -0.36    1.17
  -6   1  12    0.04    0.81
  -5  -1  12   30.46    1.72
   5  -1 -12   33.52    2.43
   5  -1 -12   31.54    2.07
  -5  -1  12   32.96    2.37
  -5   1  12   29.99    1.84
   5   1 -12   30.10    2.35
   5   1 -12   29.88    2.39
  -5   1  12   30.66    2.03
   4  -1 -12   97.63    4.11
  -4  -1  12   96.93    4.11
   4  -1 -12   93.71    4.13
  -4   1  12   94.96    4.08
  -4   1  12   93.20    3.68
   4   1 -12   94.15    4.17
   4   1 -12   95.09    4.12
  -3  -1  12    0.73    0.97
   3  -1 -12    0.24    0.64
   3  -1 -12    0.34    0.68
   3   1 -12    0.39    0.94
  -3   1  12    0.88    0.95
   3   1 -12   -0.65    0.65
  -2  -1  12   30.41    2.04
   2  -1 -12   31.69    2.12
   2  -1 -12   30.09    2.00
  -2   1  12   31.90    2.01
   2   1 -12   30.98    2.18
   2   1 -12   28.85    1.81
   1  -1 -12   36.10    2.14
  -1  -1  12   34.41    2.09
   1  -1 -12   36.79    2.08
   1   1 -12   33.15    1.89
  -1   1  12   37.99    2.08
   1   1 -12   35.55    2.04
   0  -1  12   20.18    1.58
   0  -1 -12   22.25    1.57
   0   1  12   21.25    1.57
   0   1 -12   19.42    1.56
   0   1 -12   22.12    1.76
  -1  -1 -12    5.42    0.85
   1  -1  12    5.46    0.85
  -1   1 -12    4.65    0.86
   1   1  12    5.50    0.86
  -1   1 -12    5.94    1.17
  -7  -2  12   57.53    3.09
   7  -2 -12   56.04    3.33
   7  -2 -12   59.67    3.45
   7   2 -12   58.17    3.16
  -7   2  12   61.33    3.03
  -7   2  12   62.93    3.38
   7   2 -12   55.63    3.32
   6  -2 -12  138.42    5.65
  -6  -2  12  141.36    5.70
   6  -2 -12  143.32    5.73
  -6   2  12  135.11    5.36
  -6   2  12  138.12    5.64
   6   2 -12  138.58    5.67
   6   2 -12  135.88    5.70
   5  -2 -12   32.81    2.47
  -5  -2  12   35.71    2.49
   5  -2 -12   34.27    2.39
  -5   2  12   33.29    2.39
   5   2 -12   27.11    2.12
   5   2 -12   27.96    2.39
  -5   2  12   33.41    1.81
  -4  -2  12    1.01    0.86
   4  -2 -12    1.41    0.83
   4  -2 -12    1.91    1.09
   4   2 -12    0.52    0.80
  -4   2  12    0.89    0.77
  -4   2  12    1.44    1.10
   4   2 -12   -0.28    1.12
   3  -2 -12   10.01    1.15
  -3  -2  12    9.83    1.38
   3  -2 -12   13.60    1.48
  -3   2  12    9.23    1.10
   3   2 -12   10.27    1.50
   3   2 -12   10.63    1.41
   2  -2 -12   96.76    4.07
   2  -2 -12   97.21    4.03
  -2  -2  12   95.00    4.11
  -2   2  12   97.16    4.04
   2   2 -12  100.21    4.14
   2   2 -12   99.97    4.29
   1  -2 -12   88.52    3.62
  -1  -2  12   92.40    3.77
   1  -2 -12   88.97    3.64
  -1   2  12   89.56    3.68
   1   2 -12   85.66    3.64
   1   2 -12   85.49    3.90
   0  -2 -12   16.08    1.45
   0  -2  12   15.10    1.38
   0   2  12   14.19    1.26
   0   2 -12   15.61    1.54
   0   2 -12   15.21    1.34
  -1  -2 -12    5.17    0.87
   1  -2  12    4.04    0.91
  -1   2 -12    5.23    0.90
   1   2  12    4.05    0.85
  -1   2 -12    4.61    0.91
   6  -3 -12    2.13    1.30
   6  -3 -12    2.68    1.40
  -6  -3  12   -0.75    0.89
   6  -3 -12    0.44    0.89
   6   3 -12   -3.15    1.21
   6   3 -12    1.24    1.36
  -6   3  12   -0.38    1.00
  -6   3  12   -1.01    1.18
   5  -3 -12   61.58    3.19
   5  -3 -12   65.70    3.34
  -5  -3  12   54.15    3.33
  -5   3  12   59.87    2.96
   5   3 -12   65.03    3.45
   5   3 -12   63.66    3.15
  -5   3  12   65.79    3.32
   4  -3 -12    8.61    1.22
  -4  -3  12    5.39    1.14
   4  -3 -12    7.12    1.36
   4   3 -12    7.62    1.23
  -4   3  12    5.12    1.26
   4   3 -12    8.80    1.47
  -4   3  12    8.91    1.13
   3  -3 -12   82.60    3.88
  -3  -3  12   82.94    3.87
   3  -3 -12   83.34    3.80
   3   3 -12   89.83    3.91
   3   3 -12   83.64    3.82
  -3   3  12   83.85    3.75
  -3   3  12   83.71    3.47
   2  -3 -12    6.67    0.99
  -2  -3  12    4.67    0.94
   2  -3 -12    5.44    1.10
   2   3 -12    4.31    0.93
   2   3 -12    4.35    0.98
  -2   3  12    4.44    0.87
   1  -3 -12   31.19    2.06
  -1  -3  12   32.39    2.21
  -1   3  12   31.93    2.06
   1   3 -12   34.31    2.39
   1   3 -12   27.67    2.09
   0  -3  12   50.26    2.63
   0  -3 -12   49.81    2.41
   0   3 -12   49.09    2.60
   0   3  12   52.34    2.54
   0   3 -12   50.16    2.63
  -4   4  12    3.67    1.05
   3  -4 -12   19.90    1.71
  -3  -4  12   19.48    1.90
   3  -4 -12   17.79    1.77
  -3   4  12   17.97    1.72
  -3   4  12   20.22    1.46
   3   4 -12   21.49    1.98
   3   4 -12   22.13    1.91
  -6   0  13    0.19    0.81
   6   0 -13    0.18    1.21
  -6   0  13    1.36    0.93
   6   0 -13    0.94    0.92
  -5   0  13   32.60    2.47
   5   0 -13   30.63    2.45
   5   0 -13   32.25    2.55
  -4   0  13   -1.42    1.03
   4   0 -13    0.60    1.07
   4   0 -13    0.27    0.77
   3   0 -13   24.40    1.84
   3   0 -13   26.40    2.05
  -3   0  13   23.22    2.04
   2   0 -13   -0.45    0.95
  -2   0  13    0.05    0.90
   2   0 -13    0.31    0.66
  -1   0  13    4.89    1.04
   1   0 -13    6.26    1.12
   1   0 -13    3.08    0.99
  -6  -1  13   15.40    1.55
   6  -1 -13   17.21    1.91
   6  -1 -13   17.47    1.85
   6   1 -13   14.75    1.83
  -6   1  13   11.87    1.68
  -6   1  13   13.80    1.41
   6   1 -13   17.34    1.85
   5  -1 -13   44.47    2.94
  -5  -1  13   49.18    2.92
   5  -1 -13   49.45    2.65
  -5   1  13   45.64    2.58
   5   1 -13   44.40    2.68
   5   1 -13   45.77    2.90
  -4  -1  13   16.33    1.48
   4  -1 -13   12.41    1.44
   4  -1 -13   19.96    1.79
  -4   1  13   17.45    1.68
   4   1 -13   16.11    1.82
   4   1 -13   15.99    1.50
   3  -1 -13    8.37    1.34
   3  -1 -13    7.90    1.10
  -3  -1  13    9.64    1.31
   3   1 -13   10.31    1.39
  -3   1  13    9.41    1.33
   3   1 -13    7.08    1.40
  -2  -1  13   45.89    2.49
   2  -1 -13   42.94    2.51
   2  -1 -13   38.64    2.40
  -2   1  13   39.71    2.18
   2   1 -13   46.78    2.66
   2   1 -13   38.12    2.23
   1  -1 -13   -0.15    0.83
   1  -1 -13    1.32    0.89
  -1  -1  13    0.11    0.88
   1   1 -13   -0.01    0.85
   1   1 -13    0.56    0.99
  -1   1  13    0.66    0.88
  -5  -2  13    6.31    1.18
   5  -2 -13    2.70    1.33
   5  -2 -13    6.77    1.45
  -5   2  13    5.35    1.42
  -5   2  13    5.99    1.07
   5   2 -13    6.16    1.17
   5   2 -13    4.82    1.42
  -4  -2  13   22.88    1.96
   4  -2 -13   21.48    1.81
   4  -2 -13   22.92    1.80
  -4   2  13   20.84    1.74
   4   2 -13   20.45    1.98
   4   2 -13   22.52    1.99
  -3  -2  13   43.87    2.65
   3  -2 -13   38.22    2.38
   3  -2 -13   40.58    2.54
   3   2 -13   40.44    2.74
   3   2 -13   44.40    2.65
  -3   2  13   44.81    2.56
  -2  -2  13   19.56    1.72
   2  -2 -13   18.60    1.65
   2  -2 -13   17.25    1.61
   2   2 -13   17.11    1.58
   2   2 -13   19.29    1.71
  -2   2  13   17.73    1.44
   0   0   0    0.00    0.00
;
loop_
_symmetry_equiv_pos_as_xyz
'x, y, z'
'-x+1/2, y+1/2, -z+1/2'
'-x, -y, -z'
'x-1/2, -y-1/2, z-1/2'
loop_
_atom_site_label
_atom_site_type_symbol
_atom_site_fract_x
_atom_site_fract_y
_atom_site_fract_z
_atom_site_U_iso_or_equiv
_atom_site_adp_type
_atom_site_occupancy
_atom_site_site_symmetry_order
_atom_site_calc_flag
_atom_site_refinement_flags_posn
_atom_site_refinement_flags_adp
C1 C 0.8454(5) 0.8595(6) 0.0552(4) 0.0073(9) Uani 1 1 d . .
H1A H 0.828049 0.745899 -0.005136 0.009 Uiso 1 1 calc R U
H1B H 0.759936 0.956644 0.016757 0.009 Uiso 1 1 calc R U
C2 C 1.0039(5) 0.9553(6) 0.0655(4) 0.0093(9) Uani 1 1 d . .
H2A H 1.089095 0.854838 0.091794 0.011 Uiso 1 1 calc R U
H2B H 1.028723 1.060236 0.132593 0.011 Uiso 1 1 calc R U
C3 C 1.0108(5) 0.6327(6) 0.2783(4) 0.0079(9) Uani 1 1 d . .
H3A H 1.101466 0.725457 0.299429 0.01 Uiso 1 1 calc R U
H3B H 1.009521 0.571714 0.360532 0.01 Uiso 1 1 calc R U
C4 C 1.0364(5) 0.4716(6) 0.1904(5) 0.0114(9) Uani 1 1 d . .
H4A H 0.943447 0.384977 0.163145 0.017 Uiso 1 1 calc R U
H4B H 1.130193 0.393924 0.237586 0.017 Uiso 1 1 calc R U
H4C H 1.0523 0.531878 0.113791 0.017 Uiso 1 1 calc R U
S1 S 0.82822(12) 0.77280(15) 0.20858(10) 0.0060(2) Uani 1 1 d . .
Cl1 Cl 0.86838(12) 0.86552(15) 0.55214(11) 0.0101(2) Uani 1 1 d . .
Cu1 Cu 0.86702(6) 1.03513(8) 0.35608(5) 0.00819(17) Uani 1 1 d . .
loop_
_atom_site_aniso_label
_atom_site_aniso_U_11
_atom_site_aniso_U_22
_atom_site_aniso_U_33
_atom_site_aniso_U_23
_atom_site_aniso_U_13
_atom_site_aniso_U_12
C1 0.009(2) 0.0057(19) 0.006(2) 0.0032(17) 0.0015(17) 0.0013(17)
C2 0.008(2) 0.009(2) 0.010(2) -0.0011(19) 0.0025(18) -0.0011(18)
C3 0.005(2) 0.008(2) 0.007(2) 0.0031(18) -0.0020(17) 0.0019(17)
C4 0.013(2) 0.008(2) 0.014(2) 0.0015(19) 0.0043(19) 0.0026(18)
S1 0.0060(5) 0.0063(5) 0.0058(5) 0.0003(4) 0.0019(4) 0.0001(4)
Cl1 0.0082(5) 0.0125(5) 0.0093(6) 0.0029(4) 0.0023(4) -0.0022(4)
Cu1 0.0071(3) 0.0099(3) 0.0074(3) -0.0001(2) 0.0022(2) 0.0020(2)
loop_
_atom_type_symbol
_atom_type_description
_atom_type_scat_dispersion_real
_atom_type_scat_dispersion_imag
_atom_type_scat_source
C C 0.0033 0.0016 'International Tables Vol C Tables 4.2.6.8 and 6.1.1.4'
H H 0 0 'International Tables Vol C Tables 4.2.6.8 and 6.1.1.4'
S S 0.1246 0.1234 'International Tables Vol C Tables 4.2.6.8 and 6.1.1.4'
Cl Cl 0.1484 0.1585 'International Tables Vol C Tables 4.2.6.8 and 6.1.1.4'
Cu Cu 0.3201 1.2651 'International Tables Vol C Tables 4.2.6.8 and 6.1.1.4'
loop_
_geom_angle_atom_site_label_1
_geom_angle_atom_site_label_2
_geom_angle_atom_site_label_3
_geom_angle
_geom_angle_site_symmetry_1
_geom_angle_site_symmetry_3
C2 C1 S1 114.9(3) . .
C1 C2 C2 109.8(5) . 3_775
C4 C3 S1 114.1(3) . .
C3 S1 C1 102.6(2) . .
C3 S1 Cu1 104.48(14) . 2_645
C1 S1 Cu1 103.00(15) . 2_645
C3 S1 Cu1 101.25(15) . .
C1 S1 Cu1 110.34(14) . .
Cu1 S1 Cu1 131.70(5) 2_645 .
Cu1 Cl1 Cu1 87.43(4) 3_776 .
S1 Cu1 S1 112.94(3) 2_655 .
S1 Cu1 Cl1 119.18(4) 2_655 3_776
S1 Cu1 Cl1 114.38(4) . 3_776
S1 Cu1 Cl1 112.66(4) 2_655 .
S1 Cu1 Cl1 101.78(4) . .
Cl1 Cu1 Cl1 92.57(4) 3_776 .
loop_
_geom_bond_atom_site_label_1
_geom_bond_atom_site_label_2
_geom_bond_distance
_geom_bond_site_symmetry_2
C1 C2 1.528(6) .
C1 S1 1.824(4) .
C2 C2 1.531(9) 3_775
C3 C4 1.516(6) .
C3 S1 1.823(4) .
S1 Cu1 2.3058(11) 2_645
S1 Cu1 2.3418(12) .
Cl1 Cu1 2.3440(12) 3_776
Cl1 Cu1 2.4210(12) .
loop_
_geom_hbond_atom_site_label_D
_geom_hbond_atom_site_label_H
_geom_hbond_atom_site_label_A
_geom_hbond_distance_DH
_geom_hbond_distance_HA
_geom_hbond_distance_DA
_geom_hbond_angle_DHA
_geom_hbond_site_symmetry_A
C1 H1B Cl1 0.99 2.99 3.906(4) 153.9 2_655
C4 H4B Cl1 0.98 2.88 3.497(5) 121.6 3_766
C1 H1B Cl1 0.99 2.99 3.906(4) 153.9 2_655
C4 H4B Cl1 0.98 2.88 3.497(5) 121.6 3_766
