#------------------------------------------------------------------------------
#$Date: 2019-09-04 06:26:17 +0300 (Wed, 04 Sep 2019) $
#$Revision: 217956 $
#$URL: file:///home/coder/svn-repositories/cod/cif/7/23/36/7233630.cif $
#------------------------------------------------------------------------------
#
# This file is available in the Crystallography Open Database (COD),
# http://www.crystallography.net/
#
# All data on this site have been placed in the public domain by the
# contributors.
#
data_7233630
loop_
_publ_author_name
'Wiedemann, Dennis'
'Suard, Emmanuelle'
'Lerch, Martin'
_publ_section_title
;
 Structural complexities and sodium-ion diffusion in the intercalates
 NaxTiS2: move it, change it, re-diffract it
;
_journal_issue                   48
_journal_name_full               'RSC Advances'
_journal_page_first              27780
_journal_paper_doi               10.1039/C9RA05690D
_journal_volume                  9
_journal_year                    2019
_chemical_compound_source        synthetic
_chemical_formula_iupac          'Na0.5 Ti S2'
_chemical_formula_sum            'Na0.5 S2 Ti'
_chemical_formula_weight         123.5
_chemical_name_systematic
;
sodium titanium disulfide, sodium deficient
;
_space_group_IT_number           166
_space_group_name_Hall           '-R 3 2"'
_space_group_name_H-M_alt        'R -3 m :H'
_symmetry_cell_setting           trigonal
_symmetry_Int_Tables_number      166
_symmetry_space_group_name_Hall  '-R 3 2"'
_symmetry_space_group_name_H-M   'R -3 m :H'
_audit_update_record
;
2019-07-22 deposited with the CCDC.    2019-08-26 downloaded from the CCDC.
;
_cell_angle_alpha                90
_cell_angle_beta                 90
_cell_angle_gamma                120
_cell_formula_units_Z            3
_cell_length_a                   3.47973(6)
_cell_length_b                   3.47973(6)
_cell_length_c                   21.3240(7)
_cell_measurement_temperature    873.15
_cell_volume                     223.610(9)
_computing_cell_refinement       'JANA2006 (Pet\<r\'i\<cek et al., 2014)'
_computing_data_collection       'NOMAD 3.0.16 (Institut Laue-Langevin, 2016)'
_computing_data_reduction        'Lamp 8.5 (Richard et al., 1996)'
_computing_molecular_graphics    'Diamond 4.5 (Brandenbrug, 2019)'
_computing_publication_material  'JANA2006 (Pet\<r\'i\<cek et al., 2014)'
_computing_structure_refinement  'JANA2006 (Pet\<r\'i\<cek et al., 2014)'
_diffrn_ambient_environment      vacuum
_diffrn_ambient_temperature      873.15
_diffrn_detector                 '^3^He counter'
_diffrn_detector_details
;
array of 128 counting tubes (Suard & Hewat, 2001)
;
_diffrn_measurement_device       'two-axis diffractometer'
_diffrn_measurement_device_details 'Hewat (1986)'
_diffrn_measurement_device_type  D2B
_diffrn_measurement_method       'profile data from 2\q scans'
_diffrn_radiation_monochromator  'Ge 335'
_diffrn_radiation_probe          neutron
_diffrn_radiation_type           neutron
_diffrn_radiation_wavelength     1.594
_diffrn_source                   'nuclear reactor'
_diffrn_source_type              'ILL, beam tube H11'
_exptl_absorpt_coefficient_mu    0.014
_exptl_absorpt_correction_type   cylinder
_exptl_absorpt_process_details
;
correction for a cylindrical sample with \mR = 0.041 as implemented in
 JANA2006 (Pet\<r\'i\<cek et al., 2014)
;
_exptl_crystal_density_diffrn    2.7513
_exptl_crystal_density_method    'not measured'
_exptl_crystal_F_000             37.799
_pd_calc_method                  'Rietveld refinement'
_pd_char_atten_coef_mu_calc      0.008
_pd_char_colour                  grey-black
_pd_instr_2theta_monochr_pre     135
_pd_instr_beam_size_ax           50
_pd_instr_beam_size_eq           20
_pd_instr_dist_src/mono          3000
_pd_instr_geometry               Debye-Scherrer
_pd_instr_location
;
D2B, high-resolution two-axis diffractometer, Institut Laue-Langevin
 (Grenoble, France)
;
_pd_instr_monochr_pre_spec       'Ge 335'
_pd_instr_slit_ax_mono/spec      2985
_pd_instr_slit_eq_mono/spec      500
_pd_instr_soller_eq_spec/detc    0.083333
_pd_instr_soller_eq_src/mono     0.166667
_pd_meas_2theta_range_inc        0.05
_pd_meas_2theta_range_max        159.900
_pd_meas_2theta_range_min        0.100
_pd_meas_number_of_points        3197
_pd_meas_scan_method             step
_pd_proc_2theta_range_inc        0.05
_pd_proc_2theta_range_max        156.45
_pd_proc_2theta_range_min        7.55
_pd_proc_ls_background_function
;
manual background (visual estimation, unrefined) interpolated by 10 Legendre
 polynomials [1st: 0.78(19), 2nd: -2.0(3), 3rd: -0.1(4), 4th: -1.0(4),
 5th: -2.2(5), 6th: 0.8(6), 7th: 2.0(6), 8th: 0.8(6), 9th: 2.5(7),
 10th: 6.1(7)]
;
_pd_proc_ls_pref_orient_corr     none
_pd_proc_ls_profile_function
;
pseudo-Voigt profile according to Thompson, Cox & Hastings (1987):
 G~U~ = 72.6(16), G~V~ = -338.2107, G~W~ = 352(4), L~X~ = 12.5(2), L~Y~ = 0;
asymmetry correction according to Howard (1982): P = 17.4(3)
;
_pd_proc_ls_prof_R_factor        0.0178
_pd_proc_ls_prof_wR_expected     0.0175
_pd_proc_ls_prof_wR_factor       0.0232
_pd_proc_wavelength              1.594
_pd_spec_mounting                'compacted powder in vanadium can'
_pd_spec_mount_mode              transmission
_pd_spec_orientation             horizontal
_pd_spec_preparation             'grinding in an agate mortar'
_pd_spec_shape                   cylinder
_pd_spec_size_axial              49.8
_pd_spec_size_equat              13.9
_refine_diff_density_max         0.13
_refine_diff_density_min         -0.14
_refine_ls_extinction_method     none
_refine_ls_goodness_of_fit_all   1.33
_refine_ls_matrix_type           fullcycle
_refine_ls_number_constraints    0
_refine_ls_number_parameters     28
_refine_ls_number_restraints     0
_refine_ls_R_factor_all          0.0352
_refine_ls_R_factor_gt           0.0312
_refine_ls_R_I_factor            0.0438
_refine_ls_shift/su_max          0.0095
_refine_ls_shift/su_mean         0.0013
_refine_ls_structure_factor_coef Inet
_refine_ls_weighting_details     w=1/[\s^2^(I)+(0.01*I)^2^]
_refine_ls_weighting_scheme      sigma
_refine_ls_wR_factor_all         0.0355
_refine_ls_wR_factor_gt          0.0350
_reflns_number_gt                71
_reflns_number_total             79
_reflns_threshold_expression     I>3\s(I)
_cod_data_source_file            c9ra05690d2.cif
_cod_data_source_block           nd-600C
_cod_original_cell_volume        223.610(12)
_cod_original_sg_symbol_H-M      'R -3 m'
_cod_database_code               7233630
loop_
_space_group_symop_id
_space_group_symop_operation_xyz
1 x,y,z
2 -y,x-y,z
3 -x+y,-x,z
4 y,x,-z
5 x-y,-y,-z
6 -x,-x+y,-z
7 -x,-y,-z
8 y,-x+y,-z
9 x-y,x,-z
10 -y,-x,z
11 -x+y,y,z
12 x,x-y,z
13 x+2/3,y+1/3,z+1/3
14 -y+2/3,x-y+1/3,z+1/3
15 -x+y+2/3,-x+1/3,z+1/3
16 y+2/3,x+1/3,-z+1/3
17 x-y+2/3,-y+1/3,-z+1/3
18 -x+2/3,-x+y+1/3,-z+1/3
19 -x+2/3,-y+1/3,-z+1/3
20 y+2/3,-x+y+1/3,-z+1/3
21 x-y+2/3,x+1/3,-z+1/3
22 -y+2/3,-x+1/3,z+1/3
23 -x+y+2/3,y+1/3,z+1/3
24 x+2/3,x-y+1/3,z+1/3
25 x+1/3,y+2/3,z+2/3
26 -y+1/3,x-y+2/3,z+2/3
27 -x+y+1/3,-x+2/3,z+2/3
28 y+1/3,x+2/3,-z+2/3
29 x-y+1/3,-y+2/3,-z+2/3
30 -x+1/3,-x+y+2/3,-z+2/3
31 -x+1/3,-y+2/3,-z+2/3
32 y+1/3,-x+y+2/3,-z+2/3
33 x-y+1/3,x+2/3,-z+2/3
34 -y+1/3,-x+2/3,z+2/3
35 -x+y+1/3,y+2/3,z+2/3
36 x+1/3,x-y+2/3,z+2/3
loop_
_atom_site_label
_atom_site_type_symbol
_atom_site_fract_x
_atom_site_fract_y
_atom_site_fract_z
_atom_site_adp_type
_atom_site_U_iso_or_equiv
_atom_site_site_symmetry_multiplicity
_atom_site_occupancy
_atom_site_calc_flag
Ti1 Ti 0 0 0 Uani 0.0318(11) 3 1 d
Na1 Na 0 0 0.166667 Uani 0.139(5) 6 0.25 d
S1 S 0 0 0.39903(9) Uani 0.0256(8) 6 1 d
loop_
_atom_site_aniso_label
_atom_site_aniso_type_symbol
_atom_site_aniso_U_11
_atom_site_aniso_U_22
_atom_site_aniso_U_33
_atom_site_aniso_U_12
_atom_site_aniso_U_13
_atom_site_aniso_U_23
Ti1 Ti 0.0264(10) 0.0264(10) 0.043(3) 0.0132(5) 0 0
Na1 Na 0.183(6) 0.183(6) 0.051(5) 0.092(3) 0 0
S1 S 0.0235(8) 0.0235(8) 0.0299(18) 0.0117(4) 0 0
loop_
_atom_type_symbol
_atom_type_scat_length_neutron
_atom_type_scat_source
Na 3.630 International_Tables_Vol_C
S 2.847 International_Tables_Vol_C
Ti -3.438 International_Tables_Vol_C
loop_
_geom_angle_atom_site_label_1
_geom_angle_atom_site_label_2
_geom_angle_atom_site_label_3
_geom_angle_site_symmetry_1
_geom_angle_site_symmetry_3
_geom_angle
S1 Ti1 S1 25_444 25_544 90.53(4)
S1 Ti1 S1 25_444 25_554 90.53(4)
S1 Ti1 S1 25_444 16_445 89.47(4)
S1 Ti1 S1 25_444 16_455 89.47(4)
S1 Ti1 S1 25_444 16_555 180
S1 Ti1 S1 25_544 25_554 90.53(4)
S1 Ti1 S1 25_544 16_445 89.47(4)
S1 Ti1 S1 25_544 16_455 180
S1 Ti1 S1 25_544 16_555 89.47(4)
S1 Ti1 S1 25_554 16_445 180
S1 Ti1 S1 25_554 16_455 89.47(4)
S1 Ti1 S1 25_554 16_555 89.47(4)
S1 Ti1 S1 16_445 16_455 90.53(4)
S1 Ti1 S1 16_445 16_555 90.53(4)
S1 Ti1 S1 16_455 16_555 90.53(4)
S1 Na1 S1 25_444 25_544 72.43(3)
S1 Na1 S1 25_444 25_554 72.43(3)
S1 Na1 S1 25_444 28_445 93.97(4)
S1 Na1 S1 25_444 28_545 140.111(14)
S1 Na1 S1 25_444 28_555 140.111(14)
S1 Na1 S1 25_544 25_554 72.43(3)
S1 Na1 S1 25_544 28_445 140.111(14)
S1 Na1 S1 25_544 28_545 93.97(4)
S1 Na1 S1 25_544 28_555 140.111(14)
S1 Na1 S1 25_554 28_445 140.111(14)
S1 Na1 S1 25_554 28_545 140.111(14)
S1 Na1 S1 25_554 28_555 93.97(4)
S1 Na1 S1 28_445 28_545 72.43(3)
S1 Na1 S1 28_445 28_555 72.43(3)
S1 Na1 S1 28_545 28_555 72.43(3)
loop_
_geom_bond_atom_site_label_1
_geom_bond_atom_site_label_2
_geom_bond_site_symmetry_2
_geom_bond_distance
Ti1 S1 25_444 2.4492(11)
Ti1 S1 25_544 2.4492(11)
Ti1 S1 25_554 2.4492(11)
Ti1 S1 16_445 2.4492(11)
Ti1 S1 16_455 2.4492(11)
Ti1 S1 16_555 2.4492(11)
Na1 S1 25_444 2.9448(14)
Na1 S1 25_544 2.9448(14)
Na1 S1 25_554 2.9448(14)
Na1 S1 28_445 2.9448(14)
Na1 S1 28_545 2.9448(14)
Na1 S1 28_555 2.9448(14)
loop_
_pd_proc_point_id
_pd_proc_2theta_corrected
_pd_proc_d_spacing
_pd_proc_intensity_net
_pd_calc_intensity_net
_pd_proc_ls_weight
1 7.4300 12.300606 521.86 511.28 7.45
2 7.4800 12.218497 514.40 509.83 7.39
3 7.5300 12.137481 507.88 508.39 7.31
4 7.5800 12.057534 512.64 506.93 7.36
5 7.6300 11.978636 503.35 505.48 7.29
6 7.6800 11.900765 503.63 504.03 7.27
7 7.7300 11.823903 498.76 502.57 7.23
8 7.7800 11.748030 500.98 501.11 7.23
9 7.8300 11.673126 500.41 499.65 7.24
10 7.8800 11.599174 499.45 498.19 7.23
11 7.9300 11.526155 498.01 496.73 7.20
12 7.9800 11.454051 497.60 495.26 7.21
13 8.0300 11.382848 496.78 493.79 7.20
14 8.0800 11.312525 497.16 492.32 7.20
15 8.1300 11.243067 483.45 490.48 7.09
16 8.1800 11.174459 487.28 488.09 7.10
17 8.2300 11.106688 488.43 485.70 7.12
18 8.2800 11.039733 478.86 483.30 7.04
19 8.3300 10.973584 476.97 480.90 7.03
20 8.3800 10.908225 467.99 478.50 6.96
21 8.4300 10.843641 471.88 476.10 6.96
22 8.4800 10.779822 464.45 473.70 6.93
23 8.5300 10.716749 463.70 471.29 6.89
24 8.5800 10.654412 462.10 468.89 6.90
25 8.6300 10.592800 464.49 466.48 6.91
26 8.6800 10.531897 463.80 464.31 6.91
27 8.7300 10.471693 463.96 463.09 6.93
28 8.7800 10.412175 470.05 461.88 6.93
29 8.8300 10.353332 464.44 460.66 6.91
30 8.8800 10.295151 457.56 459.44 6.86
31 8.9300 10.237623 458.47 458.22 6.83
32 8.9800 10.180737 452.01 457.00 6.81
33 9.0300 10.124481 463.01 455.78 6.86
34 9.0800 10.068845 451.92 454.55 6.81
35 9.1300 10.013819 443.37 453.33 6.75
36 9.1800 9.959393 449.71 452.11 6.76
37 9.2300 9.905559 451.41 450.88 6.80
38 9.2800 9.852304 450.85 449.65 6.77
39 9.3300 9.799621 453.19 448.42 6.79
40 9.3800 9.747499 451.07 447.20 6.78
41 9.4300 9.695931 449.87 445.97 6.76
42 9.4800 9.644909 448.40 444.74 6.77
43 9.5300 9.594421 441.89 443.51 6.73
44 9.5800 9.544462 448.31 442.28 6.75
45 9.6300 9.495022 440.29 441.05 6.71
46 9.6800 9.446093 437.19 439.82 6.68
47 9.7300 9.397669 439.69 438.58 6.69
48 9.7800 9.349738 434.41 437.35 6.62
49 9.8300 9.302298 434.03 436.12 6.64
50 9.8800 9.255336 435.03 434.89 6.64
51 9.9300 9.208849 431.54 433.66 6.63
52 9.9800 9.162828 429.50 432.27 6.60
53 10.0300 9.117268 423.93 430.88 6.56
54 10.0800 9.072159 423.65 429.49 6.56
55 10.1300 9.027495 432.02 428.11 6.62
56 10.1800 8.983272 431.69 426.72 6.61
57 10.2300 8.939482 418.81 425.34 6.52
58 10.2800 8.896118 413.29 423.95 6.48
59 10.3300 8.853174 415.19 422.57 6.52
60 10.3800 8.810644 416.01 421.19 6.53
61 10.4300 8.768523 414.89 419.82 6.51
62 10.4800 8.726805 422.68 418.44 6.56
63 10.5300 8.685483 419.11 417.07 6.55
64 10.5800 8.644551 405.03 415.70 6.43
65 10.6300 8.604006 408.90 414.33 6.44
66 10.6800 8.563841 416.44 412.97 6.49
67 10.7300 8.524052 419.40 411.77 6.52
68 10.7800 8.484631 411.43 411.20 6.45
69 10.8300 8.445575 408.44 410.64 6.44
70 10.8800 8.406878 403.67 410.08 6.41
71 10.9300 8.368536 412.24 409.54 6.46
72 10.9800 8.330544 420.04 409.00 6.54
73 11.0300 8.292897 415.21 408.47 6.51
74 11.0800 8.255590 415.58 407.96 6.50
75 11.1300 8.218618 419.39 407.46 6.52
76 11.1800 8.181978 412.86 406.97 6.51
77 11.2300 8.145666 408.73 406.51 6.44
78 11.2800 8.109675 412.68 406.07 6.50
79 11.3300 8.074002 410.04 405.66 6.43
80 11.3800 8.038644 413.45 405.29 6.46
81 11.4300 8.003595 413.36 404.97 6.47
82 11.4800 7.968852 408.15 404.74 6.45
83 11.5300 7.934412 418.69 404.64 6.52
84 11.5800 7.900268 419.44 404.74 6.53
85 11.6300 7.866419 413.93 405.12 6.53
86 11.6800 7.832860 423.37 405.95 6.56
87 11.7300 7.799588 423.28 407.38 6.53
88 11.7800 7.766599 420.78 409.64 6.54
89 11.8300 7.733889 420.50 412.99 6.54
90 11.8800 7.701454 421.66 417.68 6.53
91 11.9300 7.669292 419.12 423.95 6.51
92 11.9800 7.637400 430.14 431.97 6.60
93 12.0300 7.605773 430.17 441.76 6.59
94 12.0800 7.574408 437.86 453.18 6.65
95 12.1300 7.543302 437.61 465.94 6.65
96 12.1800 7.512452 447.90 479.72 6.72
97 12.2300 7.481855 454.44 494.14 6.81
98 12.2800 7.451508 460.22 508.63 6.84
99 12.3300 7.421406 472.13 522.53 6.96
100 12.3800 7.391549 485.66 535.45 7.04
101 12.4300 7.361932 496.64 547.61 7.11
102 12.4800 7.332553 518.58 559.53 7.22
103 12.5300 7.303410 524.72 571.44 7.26
104 12.5800 7.274498 539.89 582.87 7.36
105 12.6300 7.245815 557.36 592.71 7.47
106 12.6800 7.217360 572.09 599.30 7.56
107 12.7300 7.189128 590.49 600.84 7.68
108 12.7800 7.161117 584.83 595.89 7.65
109 12.8300 7.133326 587.33 583.69 7.67
110 12.8800 7.105750 585.90 564.55 7.66
111 12.9300 7.078388 569.44 540.10 7.58
112 12.9800 7.051238 540.69 512.99 7.40
113 13.0300 7.024296 524.30 485.94 7.26
114 13.0800 6.997561 511.54 461.09 7.18
115 13.1300 6.971029 485.35 439.76 7.00
116 13.1800 6.944700 466.01 422.49 6.86
117 13.2300 6.918571 451.25 409.21 6.76
118 13.2800 6.892637 435.32 399.42 6.63
119 13.3300 6.866900 422.16 392.44 6.52
120 13.3800 6.841354 419.41 387.55 6.50
121 13.4300 6.816000 405.35 384.10 6.40
122 13.4800 6.790834 407.90 381.59 6.42
123 13.5300 6.765855 402.38 379.68 6.41
124 13.5800 6.741060 402.41 378.13 6.36
125 13.6300 6.716447 391.56 376.80 6.28
126 13.6800 6.692015 385.65 375.61 6.24
127 13.7300 6.667761 379.38 374.50 6.19
128 13.7800 6.643684 379.89 373.46 6.18
129 13.8300 6.619781 374.37 372.47 6.13
130 13.8800 6.596050 376.13 371.52 6.23
131 13.9300 6.572491 365.54 370.59 6.18
132 13.9800 6.549100 364.52 369.70 6.12
133 14.0300 6.525877 363.37 368.83 6.06
134 14.0800 6.502819 367.30 367.97 6.08
135 14.1300 6.479924 362.45 367.14 6.07
136 14.1800 6.457191 375.12 366.31 6.16
137 14.2300 6.434619 356.91 365.50 6.07
138 14.2800 6.412205 359.92 364.71 6.04
139 14.3300 6.389947 356.55 363.92 6.09
140 14.3800 6.367846 349.90 363.14 6.03
141 14.4300 6.345897 364.40 362.36 6.06
142 14.4800 6.324100 355.69 361.60 5.99
143 14.5300 6.302454 352.44 360.84 5.95
144 14.5800 6.280957 353.27 360.08 5.96
145 14.6300 6.259607 357.50 359.34 6.01
146 14.6800 6.238403 359.19 358.59 6.04
147 14.7300 6.217344 359.96 357.85 6.03
148 14.7800 6.196427 358.12 357.16 6.03
149 14.8300 6.175652 362.40 356.54 6.08
150 14.8800 6.155016 362.42 355.93 6.10
151 14.9300 6.134520 350.00 355.31 5.95
152 14.9800 6.114160 359.09 354.70 6.05
153 15.0300 6.093936 358.93 354.10 6.03
154 15.0800 6.073847 353.30 353.49 5.99
155 15.1300 6.053891 351.01 352.89 5.95
156 15.1800 6.034067 346.83 352.29 5.93
157 15.2300 6.014374 350.79 351.68 5.94
158 15.2800 5.994809 357.37 351.09 6.03
159 15.3300 5.975373 355.86 350.49 5.99
160 15.3800 5.956063 347.82 349.89 5.92
161 15.4300 5.936879 349.92 349.30 6.01
162 15.4800 5.917819 339.63 348.70 5.90
163 15.5300 5.898882 338.49 348.11 5.90
164 15.5800 5.880068 346.09 347.52 5.90
165 15.6300 5.861374 343.36 346.92 5.89
166 15.6800 5.842800 340.90 346.33 5.88
167 15.7300 5.824344 346.41 345.74 5.92
168 15.7800 5.806005 343.43 345.15 5.92
169 15.8300 5.787783 343.56 344.56 5.90
170 15.8800 5.769676 345.70 343.97 5.97
171 15.9300 5.751682 344.42 343.39 5.95
172 15.9800 5.733802 337.83 342.93 5.87
173 16.0300 5.716033 336.99 342.57 5.83
174 16.0800 5.698376 333.55 342.21 5.83
175 16.1300 5.680829 344.97 341.85 5.89
176 16.1800 5.663390 342.28 341.49 5.90
177 16.2300 5.646059 344.13 341.14 5.98
178 16.2800 5.628834 339.04 340.78 5.91
179 16.3300 5.611717 342.05 340.46 5.86
180 16.3800 5.594703 346.52 340.10 5.93
181 16.4300 5.577793 343.01 339.74 5.99
182 16.4800 5.560987 335.61 339.39 5.84
183 16.5300 5.544282 333.17 339.03 5.81
184 16.5800 5.527678 333.14 338.67 5.81
185 16.6300 5.511175 331.67 338.32 5.78
186 16.6800 5.494771 326.48 337.96 5.73
187 16.7300 5.478466 336.66 337.61 5.82
188 16.7800 5.462257 338.84 337.25 5.88
189 16.8300 5.446146 338.64 336.90 5.84
190 16.8800 5.430131 334.04 336.54 5.80
191 16.9300 5.414210 334.89 336.19 5.82
192 16.9800 5.398384 344.84 335.83 5.88
193 17.0300 5.382649 341.53 335.48 5.86
194 17.0800 5.367009 348.40 335.12 5.91
195 17.1300 5.351460 346.30 334.77 5.92
196 17.1800 5.336001 333.81 334.42 5.80
197 17.2300 5.320633 327.92 334.06 5.78
198 17.2800 5.305354 329.38 333.71 5.80
199 17.3300 5.290164 333.88 333.36 5.79
200 17.3800 5.275062 338.73 333.00 5.84
201 17.4300 5.260046 334.66 332.65 5.82
202 17.4800 5.245116 324.74 332.30 5.74
203 17.5300 5.230272 330.11 331.94 5.76
204 17.5800 5.215512 331.37 331.59 5.77
205 17.6300 5.200838 336.09 331.24 5.81
206 17.6800 5.186245 337.63 330.89 5.87
207 17.7300 5.171737 324.32 330.53 5.77
208 17.7800 5.157309 328.35 330.18 5.75
209 17.8300 5.142963 331.57 329.83 5.80
210 17.8800 5.128698 336.80 329.48 5.83
211 17.9300 5.114512 332.64 329.12 5.82
212 17.9800 5.100406 329.75 328.77 5.90
213 18.0300 5.086378 325.64 328.42 5.77
214 18.0800 5.072428 322.73 328.07 5.79
215 18.1300 5.058556 334.24 327.72 5.82
216 18.1800 5.044759 323.12 327.37 5.74
217 18.2300 5.031040 330.51 327.02 5.81
218 18.2800 5.017395 337.44 326.67 5.87
219 18.3300 5.003825 323.37 326.32 5.75
220 18.3800 4.990330 331.50 325.97 5.81
221 18.4300 4.976907 332.45 325.62 5.83
222 18.4800 4.963558 334.16 325.27 5.84
223 18.5300 4.950281 326.42 325.04 5.74
224 18.5800 4.937076 325.43 324.82 5.72
225 18.6300 4.923943 324.81 324.59 5.72
226 18.6800 4.910879 322.87 324.36 5.70
227 18.7300 4.897886 325.25 324.14 5.80
228 18.7800 4.884962 325.87 323.92 5.73
229 18.8300 4.872108 324.12 323.69 5.72
230 18.8800 4.859322 325.84 323.47 5.74
231 18.9300 4.846602 317.68 323.24 5.68
232 18.9800 4.833951 319.76 323.02 5.69
233 19.0300 4.821367 320.34 322.80 5.70
234 19.0800 4.808849 322.76 322.57 5.77
235 19.1300 4.796397 320.48 322.35 5.73
236 19.1800 4.784009 325.02 322.12 5.73
237 19.2300 4.771688 323.69 321.90 5.72
238 19.2800 4.759429 321.54 321.68 5.72
239 19.3300 4.747235 318.36 321.45 5.67
240 19.3800 4.735104 326.03 321.23 5.77
241 19.4300 4.723035 328.20 321.01 5.75
242 19.4800 4.711029 331.18 320.79 5.82
243 19.5300 4.699084 322.23 320.56 5.76
244 19.5800 4.687201 318.39 320.34 5.67
245 19.6300 4.675379 319.06 320.12 5.68
246 19.6800 4.663617 319.81 319.90 5.69
247 19.7300 4.651915 309.49 319.68 5.60
248 19.7800 4.640272 316.64 319.45 5.66
249 19.8300 4.628688 313.99 319.23 5.62
250 19.8800 4.617164 308.58 319.01 5.66
251 19.9300 4.605697 315.40 318.79 5.73
252 19.9800 4.594288 319.38 318.57 5.71
253 20.0300 4.582936 313.21 318.35 5.63
254 20.0800 4.571640 317.81 318.13 5.68
255 20.1300 4.560402 319.04 317.91 5.66
256 20.1800 4.549220 311.21 317.69 5.59
257 20.2300 4.538092 325.27 317.47 5.71
258 20.2800 4.527020 317.44 317.25 5.70
259 20.3300 4.516003 312.15 317.03 5.64
260 20.3800 4.505041 307.73 316.81 5.56
261 20.4300 4.494131 309.68 316.60 5.58
262 20.4800 4.483276 307.74 316.38 5.61
263 20.5300 4.472474 320.77 316.16 5.71
264 20.5800 4.461724 321.88 315.94 5.71
265 20.6300 4.451027 312.20 315.72 5.61
266 20.6800 4.440382 302.95 315.50 5.60
267 20.7300 4.429789 305.42 315.29 5.61
268 20.7800 4.419247 313.50 315.07 5.66
269 20.8300 4.408755 311.25 314.85 5.64
270 20.8800 4.398315 318.90 314.64 5.67
271 20.9300 4.387924 317.33 314.42 5.68
272 20.9800 4.377584 308.58 314.20 5.58
273 21.0300 4.367292 316.19 314.05 5.66
274 21.0800 4.357050 316.96 313.99 5.64
275 21.1300 4.346857 316.63 313.93 5.66
276 21.1800 4.336712 317.22 313.88 5.69
277 21.2300 4.326615 315.00 313.82 5.65
278 21.2800 4.316566 319.25 313.76 5.70
279 21.3300 4.306564 318.20 313.70 5.72
280 21.3800 4.296609 304.74 313.65 5.60
281 21.4300 4.286701 309.40 313.59 5.62
282 21.4800 4.276840 308.86 313.53 5.61
283 21.5300 4.267024 314.46 313.48 5.62
284 21.5800 4.257254 312.71 313.42 5.64
285 21.6300 4.247530 316.37 313.50 5.67
286 21.6800 4.237851 316.73 313.44 5.66
287 21.7300 4.228216 312.33 313.39 5.60
288 21.7800 4.218626 307.11 313.33 5.55
289 21.8300 4.209081 303.45 313.28 5.60
290 21.8800 4.199579 315.74 313.23 5.70
291 21.9300 4.190121 307.69 313.18 5.62
292 21.9800 4.180706 315.23 313.12 5.67
293 22.0300 4.171334 314.28 313.07 5.64
294 22.0800 4.162004 305.88 313.02 5.62
295 22.1300 4.152718 307.64 312.97 5.58
296 22.1800 4.143473 312.08 312.92 5.63
297 22.2300 4.134271 315.39 312.87 5.64
298 22.2800 4.125109 318.97 312.82 5.71
299 22.3300 4.115990 310.94 312.78 5.69
300 22.3800 4.106911 306.49 312.73 5.60
301 22.4300 4.097873 318.35 312.68 5.66
302 22.4800 4.088875 311.47 312.64 5.61
303 22.5300 4.079917 301.91 312.59 5.52
304 22.5800 4.071000 307.61 312.56 5.61
305 22.6300 4.062122 308.65 312.47 5.59
306 22.6800 4.053284 307.63 312.42 5.56
307 22.7300 4.044485 308.26 312.38 5.60
308 22.7800 4.035724 311.64 312.34 5.62
309 22.8300 4.027002 313.77 312.23 5.61
310 22.8800 4.018319 308.80 312.11 5.57
311 22.9300 4.009674 301.61 312.00 5.52
312 22.9800 4.001066 309.41 311.89 5.61
313 23.0300 3.992496 311.15 311.78 5.65
314 23.0800 3.983964 309.77 311.67 5.64
315 23.1300 3.975469 311.86 311.56 5.65
316 23.1800 3.967010 311.43 311.45 5.60
317 23.2300 3.958589 312.02 311.35 5.61
318 23.2800 3.950204 321.78 311.24 5.68
319 23.3300 3.941855 324.12 311.14 5.71
320 23.3800 3.933542 317.22 311.04 5.67
321 23.4300 3.925264 306.52 310.94 5.60
322 23.4800 3.917022 316.37 310.85 5.65
323 23.5300 3.908816 310.70 310.75 5.61
324 23.5800 3.900645 315.75 310.66 5.65
325 23.6300 3.892508 317.22 310.57 5.66
326 23.6800 3.884406 304.90 310.48 5.55
327 23.7300 3.876338 302.99 310.40 5.55
328 23.7800 3.868305 309.96 310.32 5.58
329 23.8300 3.860306 303.74 310.24 5.54
330 23.8800 3.852340 312.82 310.17 5.61
331 23.9300 3.844407 317.44 310.10 5.65
332 23.9800 3.836509 320.56 310.03 5.67
333 24.0300 3.828643 313.87 309.99 5.63
334 24.0800 3.820810 314.84 309.99 5.68
335 24.1300 3.813010 311.28 310.00 5.60
336 24.1800 3.805242 307.70 310.02 5.59
337 24.2300 3.797507 304.31 310.05 5.57
338 24.2800 3.789804 307.94 310.08 5.59
339 24.3300 3.782132 304.92 310.13 5.58
340 24.3800 3.774493 311.60 310.19 5.61
341 24.4300 3.766885 312.73 310.26 5.60
342 24.4800 3.759308 315.36 310.35 5.66
343 24.5300 3.751762 314.54 310.45 5.78
344 24.5800 3.744248 310.16 310.58 5.61
345 24.6300 3.736764 313.19 310.74 5.69
346 24.6800 3.729310 316.48 310.92 5.72
347 24.7300 3.721887 309.73 311.14 5.62
348 24.7800 3.714494 319.38 311.41 5.69
349 24.8300 3.707132 321.11 311.74 5.68
350 24.8800 3.699799 316.07 312.17 5.63
351 24.9300 3.692496 319.31 312.73 5.66
352 24.9800 3.685222 322.20 313.52 5.71
353 25.0300 3.677977 324.29 314.66 5.76
354 25.0800 3.670762 325.50 316.35 5.83
355 25.1300 3.663575 325.71 318.86 5.72
356 25.1800 3.656418 337.45 322.56 5.83
357 25.2300 3.649289 342.64 327.87 5.86
358 25.2800 3.642188 345.38 335.27 5.89
359 25.3300 3.635116 336.25 345.26 5.92
360 25.3800 3.628072 348.58 358.30 6.00
361 25.4300 3.621055 372.32 374.74 6.14
362 25.4800 3.614067 390.89 394.64 6.27
363 25.5300 3.607105 408.77 417.63 6.41
364 25.5800 3.600172 442.63 442.95 6.67
365 25.6300 3.593266 464.38 469.52 6.83
366 25.6800 3.586387 489.51 495.73 7.01
367 25.7300 3.579535 517.63 518.87 7.20
368 25.7800 3.572709 545.41 534.97 7.39
369 25.8300 3.565911 547.84 539.90 7.41
370 25.8800 3.559139 545.99 531.47 7.42
371 25.9300 3.552393 529.97 510.90 7.30
372 25.9800 3.545673 498.71 482.03 7.07
373 26.0300 3.538980 479.27 449.56 6.93
374 26.0800 3.532312 443.56 417.65 6.68
375 26.1300 3.525671 414.71 389.25 6.51
376 26.1800 3.519054 385.79 365.91 6.28
377 26.2300 3.512463 365.01 348.18 6.09
378 26.2800 3.505898 353.40 335.31 6.00
379 26.3300 3.499357 335.15 326.51 5.87
380 26.3800 3.492842 325.58 320.74 5.78
381 26.4300 3.486351 327.25 317.03 5.81
382 26.4800 3.479886 315.19 314.66 5.64
383 26.5300 3.473445 302.63 313.09 5.53
384 26.5800 3.467028 306.82 312.00 5.66
385 26.6300 3.460636 317.89 311.19 5.71
386 26.6800 3.454268 313.09 310.55 5.61
387 26.7300 3.447923 308.82 310.02 5.58
388 26.7800 3.441603 305.76 309.58 5.56
389 26.8300 3.435307 317.02 309.19 5.68
390 26.8800 3.429034 303.16 308.85 5.58
391 26.9300 3.422785 315.23 308.55 5.72
392 26.9800 3.416559 312.32 308.27 5.67
393 27.0300 3.410356 312.92 308.03 5.63
394 27.0800 3.404177 307.56 307.81 5.60
395 27.1300 3.398020 310.75 307.62 5.62
396 27.1800 3.391886 307.72 307.43 5.59
397 27.2300 3.385776 306.22 307.27 5.56
398 27.2800 3.379688 305.21 307.12 5.61
399 27.3300 3.373622 306.61 306.98 5.59
400 27.3800 3.367579 300.26 306.85 5.49
401 27.4300 3.361557 297.85 306.74 5.48
402 27.4800 3.355558 304.35 306.63 5.53
403 27.5300 3.349581 308.36 306.53 5.58
404 27.5800 3.343626 306.16 306.43 5.60
405 27.6300 3.337693 302.18 306.35 5.61
406 27.6800 3.331781 300.01 306.24 5.56
407 27.7300 3.325891 297.98 306.11 5.55
408 27.7800 3.320022 299.67 305.98 5.51
409 27.8300 3.314175 308.20 305.85 5.60
410 27.8800 3.308349 301.73 305.73 5.59
411 27.9300 3.302544 307.58 305.62 5.57
412 27.9800 3.296760 305.12 305.51 5.58
413 28.0300 3.290996 302.65 305.40 5.54
414 28.0800 3.285254 297.71 305.30 5.48
415 28.1300 3.279532 298.70 305.21 5.49
416 28.1800 3.273830 297.87 305.12 5.47
417 28.2300 3.268149 299.58 305.04 5.52
418 28.2800 3.262488 302.13 304.96 5.54
419 28.3300 3.256848 305.31 304.89 5.55
420 28.3800 3.251228 302.71 304.82 5.56
421 28.4300 3.245627 297.63 304.75 5.50
422 28.4800 3.240047 299.69 304.70 5.48
423 28.5300 3.234486 296.98 304.65 5.49
424 28.5800 3.228945 295.75 304.61 5.64
425 28.6300 3.223423 299.62 304.57 5.54
426 28.6800 3.217921 308.29 304.54 5.58
427 28.7300 3.212438 309.12 304.54 5.59
428 28.7800 3.206975 303.68 304.53 5.54
429 28.8300 3.201530 304.09 304.52 5.52
430 28.8800 3.196105 299.70 304.54 5.53
431 28.9300 3.190699 296.85 304.55 5.48
432 28.9800 3.185311 303.93 304.59 5.53
433 29.0300 3.179943 298.88 304.66 5.47
434 29.0800 3.174592 298.04 304.75 5.49
435 29.1300 3.169261 301.15 304.87 5.51
436 29.1800 3.163948 294.76 305.00 5.45
437 29.2300 3.158653 304.56 305.15 5.54
438 29.2800 3.153377 294.55 305.33 5.45
439 29.3300 3.148119 299.68 305.53 5.54
440 29.3800 3.142879 296.17 305.76 5.52
441 29.4300 3.137657 301.80 306.03 5.53
442 29.4800 3.132453 294.26 306.33 5.45
443 29.5300 3.127267 300.48 306.68 5.53
444 29.5800 3.122099 295.53 307.07 5.47
445 29.6300 3.116948 299.42 307.52 5.49
446 29.6800 3.111815 297.42 308.04 5.47
447 29.7300 3.106699 293.29 308.64 5.45
448 29.7800 3.101600 297.90 309.33 5.49
449 29.8300 3.096519 304.45 310.14 5.59
450 29.8800 3.091455 299.21 311.07 5.50
451 29.9300 3.086408 306.00 312.18 5.54
452 29.9800 3.081379 312.45 313.53 5.62
453 30.0300 3.076366 307.62 315.21 5.57
454 30.0800 3.071370 324.44 317.40 5.72
455 30.1300 3.066391 324.86 320.41 5.74
456 30.1800 3.061428 325.49 324.73 5.72
457 30.2300 3.056482 342.37 331.16 5.86
458 30.2800 3.051553 358.22 340.82 6.00
459 30.3300 3.046640 369.62 355.33 6.09
460 30.3800 3.041744 395.28 376.56 6.32
461 30.4300 3.036864 421.82 406.85 6.51
462 30.4800 3.032000 453.77 448.57 6.76
463 30.5300 3.027152 495.75 503.68 7.06
464 30.5800 3.022320 568.42 573.00 7.55
465 30.6300 3.017504 641.35 655.22 8.02
466 30.6800 3.012704 728.52 746.25 8.55
467 30.7300 3.007920 827.76 839.57 9.11
468 30.7800 3.003152 916.05 926.78 9.59
469 30.8300 2.998399 985.47 996.99 9.94
470 30.8800 2.993662 1045.07 1036.69 10.24
471 30.9300 2.988940 1031.24 1034.22 10.17
472 30.9800 2.984234 1010.90 987.12 10.07
473 31.0300 2.979543 933.36 904.67 9.68
474 31.0800 2.974868 823.74 802.76 9.09
475 31.1300 2.970208 709.01 697.23 8.44
476 31.1800 2.965563 616.57 600.16 7.87
477 31.2300 2.960932 540.44 518.81 7.37
478 31.2800 2.956317 461.45 456.12 6.83
479 31.3300 2.951717 421.06 411.64 6.53
480 31.3800 2.947132 392.93 382.88 6.32
481 31.4300 2.942561 384.08 366.56 6.22
482 31.4800 2.938006 366.05 359.45 6.08
483 31.5300 2.933464 357.76 358.82 6.00
484 31.5800 2.928938 369.53 362.43 6.11
485 31.6300 2.924426 359.71 368.44 6.02
486 31.6800 2.919928 367.48 375.29 6.07
487 31.7300 2.915445 375.45 381.52 6.14
488 31.7800 2.910975 377.37 385.60 6.16
489 31.8300 2.906521 374.40 386.01 6.13
490 31.8800 2.902080 365.47 381.91 6.08
491 31.9300 2.897654 366.36 373.72 6.10
492 31.9800 2.893241 355.28 362.85 5.97
493 32.0300 2.888843 344.21 351.01 5.88
494 32.0800 2.884458 330.33 339.65 5.77
495 32.1300 2.880087 324.48 329.72 5.76
496 32.1800 2.875731 318.36 321.67 5.65
497 32.2300 2.871387 323.52 315.55 5.71
498 32.2800 2.867058 316.98 311.14 5.65
499 32.3300 2.862742 303.97 308.10 5.53
500 32.3800 2.858439 297.15 306.03 5.49
501 32.4300 2.854150 297.60 304.62 5.51
502 32.4800 2.849874 302.13 303.63 5.51
503 32.5300 2.845612 299.37 302.90 5.53
504 32.5800 2.841363 296.95 302.33 5.50
505 32.6300 2.837127 297.40 301.86 5.49
506 32.6800 2.832904 302.06 301.46 5.54
507 32.7300 2.828695 300.02 301.11 5.55
508 32.7800 2.824498 299.94 300.80 5.54
509 32.8300 2.820314 299.07 300.53 5.50
510 32.8800 2.816144 293.67 300.30 5.47
511 32.9300 2.811986 291.12 300.09 5.45
512 32.9800 2.807841 287.52 299.90 5.39
513 33.0300 2.803709 298.64 299.74 5.51
514 33.0800 2.799589 300.22 299.60 5.49
515 33.1300 2.795482 299.35 299.48 5.49
516 33.1800 2.791388 301.94 299.39 5.53
517 33.2300 2.787305 293.11 299.31 5.57
518 33.2800 2.783236 297.58 299.26 5.53
519 33.3300 2.779179 292.55 299.22 5.48
520 33.3800 2.775134 289.54 299.20 5.43
521 33.4300 2.771101 296.29 299.21 5.47
522 33.4800 2.767081 280.26 299.27 5.38
523 33.5300 2.763073 290.65 299.36 5.44
524 33.5800 2.759077 292.99 299.47 5.50
525 33.6300 2.755093 301.87 299.61 5.58
526 33.6800 2.751121 300.39 299.78 5.55
527 33.7300 2.747161 291.60 299.98 5.45
528 33.7800 2.743213 297.96 300.21 5.49
529 33.8300 2.739277 294.57 300.48 5.45
530 33.8800 2.735353 292.32 300.79 5.42
531 33.9300 2.731440 295.45 301.15 5.45
532 33.9800 2.727539 298.61 301.57 5.50
533 34.0300 2.723650 303.34 302.05 5.56
534 34.0800 2.719772 288.48 302.60 5.47
535 34.1300 2.715906 290.28 303.23 5.44
536 34.1800 2.712051 302.82 303.97 5.56
537 34.2300 2.708208 298.77 304.82 5.47
538 34.2800 2.704376 298.07 305.81 5.47
539 34.3300 2.700555 306.76 306.97 5.55
540 34.3800 2.696746 302.27 308.36 5.51
541 34.4300 2.692948 302.49 310.04 5.57
542 34.4800 2.689162 304.36 312.16 5.57
543 34.5300 2.685386 313.81 314.94 5.61
544 34.5800 2.681621 323.47 318.81 5.72
545 34.6300 2.677868 336.67 324.45 5.85
546 34.6800 2.674126 350.01 332.98 5.94
547 34.7300 2.670394 367.60 346.04 6.14
548 34.7800 2.666673 384.91 365.94 6.25
549 34.8300 2.662963 406.82 395.58 6.41
550 34.8800 2.659265 455.18 438.22 6.76
551 34.9300 2.655576 508.64 496.95 7.15
552 34.9800 2.651899 574.97 573.71 7.60
553 35.0300 2.648232 655.61 667.97 8.11
554 35.0800 2.644576 758.71 775.31 8.72
555 35.1300 2.640931 875.57 887.14 9.37
556 35.1800 2.637295 981.95 991.68 9.93
557 35.2300 2.633671 1086.67 1074.78 10.44
558 35.2800 2.630057 1121.19 1120.51 10.61
559 35.3300 2.626453 1109.54 1115.47 10.55
560 35.3800 2.622860 1035.75 1057.69 10.19
561 35.4300 2.619277 951.56 959.49 9.78
562 35.4800 2.615704 833.45 840.59 9.16
563 35.5300 2.612142 708.44 719.68 8.43
564 35.5800 2.608589 604.11 610.19 7.79
565 35.6300 2.605047 513.35 519.63 7.18
566 35.6800 2.601515 438.78 450.28 6.64
567 35.7300 2.597993 397.75 400.67 6.34
568 35.7800 2.594481 366.74 367.17 6.08
569 35.8300 2.590979 337.83 345.55 5.86
570 35.8800 2.587487 322.50 331.95 5.84
571 35.9300 2.584005 322.05 323.39 5.71
572 35.9800 2.580532 316.53 317.82 5.68
573 36.0300 2.577070 310.43 313.99 5.64
574 36.0800 2.573617 300.43 311.17 5.52
575 36.1300 2.570174 296.77 308.97 5.48
576 36.1800 2.566741 297.29 307.18 5.50
577 36.2300 2.563317 306.25 305.67 5.59
578 36.2800 2.559903 307.73 304.39 5.59
579 36.3300 2.556498 299.29 303.29 5.49
580 36.3800 2.553103 291.08 302.33 5.41
581 36.4300 2.549718 292.00 301.51 5.41
582 36.4800 2.546342 293.62 300.79 5.45
583 36.5300 2.542975 301.09 300.17 5.55
584 36.5800 2.539618 287.04 299.62 5.46
585 36.6300 2.536270 295.03 299.16 5.50
586 36.6800 2.532931 288.58 298.76 5.44
587 36.7300 2.529602 293.33 298.42 5.46
588 36.7800 2.526282 289.55 298.15 5.41
589 36.8300 2.522970 299.11 297.94 5.49
590 36.8800 2.519669 297.77 297.80 5.49
591 36.9300 2.516376 302.89 297.73 5.61
592 36.9800 2.513093 310.97 297.77 5.61
593 37.0300 2.509818 316.29 297.96 5.64
594 37.0800 2.506552 304.07 298.38 5.57
595 37.1300 2.503296 306.22 299.16 5.57
596 37.1800 2.500048 312.16 300.50 5.60
597 37.2300 2.496809 313.15 302.68 5.62
598 37.2800 2.493579 317.36 306.03 5.65
599 37.3300 2.490358 320.09 310.92 5.68
600 37.3800 2.487145 308.32 317.68 5.57
601 37.4300 2.483942 320.01 326.43 5.72
602 37.4800 2.480747 336.74 336.97 5.86
603 37.5300 2.477561 341.86 348.61 5.87
604 37.5800 2.474383 362.80 360.20 6.04
605 37.6300 2.471214 368.16 370.25 6.09
606 37.6800 2.468054 375.36 377.10 6.14
607 37.7300 2.464902 367.73 379.07 6.08
608 37.7800 2.461759 367.24 375.34 6.08
609 37.8300 2.458624 364.65 366.63 6.07
610 37.8800 2.455497 349.98 354.86 5.96
611 37.9300 2.452379 338.82 342.18 5.83
612 37.9800 2.449270 326.72 330.28 5.78
613 38.0300 2.446168 313.02 320.17 5.68
614 38.0800 2.443075 308.10 312.29 5.60
615 38.1300 2.439991 299.51 306.61 5.49
616 38.1800 2.436914 288.24 302.81 5.41
617 38.2300 2.433846 287.96 300.31 5.40
618 38.2800 2.430786 284.16 298.84 5.39
619 38.3300 2.427734 296.00 298.04 5.45
620 38.3800 2.424690 296.41 297.70 5.45
621 38.4300 2.421654 289.29 297.71 5.48
622 38.4800 2.418627 292.99 298.01 5.50
623 38.5300 2.415607 295.78 298.67 5.46
624 38.5800 2.412595 298.14 299.84 5.52
625 38.6300 2.409591 295.67 301.84 5.46
626 38.6800 2.406596 306.79 305.14 5.56
627 38.7300 2.403608 316.31 310.49 5.64
628 38.7800 2.400628 326.80 318.88 5.75
629 38.8300 2.397655 335.08 331.48 5.80
630 38.8800 2.394691 357.45 349.51 6.00
631 38.9300 2.391734 373.21 373.86 6.15
632 38.9800 2.388786 413.72 404.62 6.47
633 39.0300 2.385845 457.20 440.53 6.78
634 39.0800 2.382911 483.97 478.62 6.97
635 39.1300 2.379985 517.91 514.47 7.21
636 39.1800 2.377067 536.29 542.79 7.34
637 39.2300 2.374156 565.43 557.86 7.53
638 39.2800 2.371253 556.35 555.21 7.47
639 39.3300 2.368358 532.39 534.51 7.31
640 39.3800 2.365470 508.61 500.47 7.15
641 39.4300 2.362589 467.79 460.15 6.85
642 39.4800 2.359716 418.03 419.90 6.49
643 39.5300 2.356851 375.46 384.07 6.14
644 39.5800 2.353992 359.44 354.93 6.01
645 39.6300 2.351142 337.92 332.98 5.82
646 39.6800 2.348298 327.60 317.51 5.74
647 39.7300 2.345462 318.48 307.18 5.66
648 39.7800 2.342633 312.67 300.53 5.65
649 39.8300 2.339812 309.67 296.31 5.60
650 39.8800 2.336997 309.98 293.57 5.66
651 39.9300 2.334190 301.04 291.70 5.65
652 39.9800 2.331390 286.46 290.33 5.55
653 40.0300 2.328597 293.39 289.26 5.62
654 40.0800 2.325811 300.76 288.23 5.71
655 40.1300 2.323033 299.40 287.46 5.71
656 40.1800 2.320261 296.36 286.77 5.70
657 40.2300 2.317497 297.41 286.16 5.75
658 40.2800 2.314739 305.50 285.61 5.83
659 40.3300 2.311989 302.14 285.10 5.80
660 40.3800 2.309245 301.89 284.63 5.80
661 40.4300 2.306509 304.10 284.20 5.83
662 40.4800 2.303779 294.27 283.79 5.76
663 40.5300 2.301056 290.56 283.40 5.70
664 40.5800 2.298340 290.85 283.04 5.71
665 40.6300 2.295631 289.83 282.70 5.70
666 40.6800 2.292929 281.84 282.37 5.63
667 40.7300 2.290234 290.98 282.05 5.72
668 40.7800 2.287545 285.08 281.75 5.64
669 40.8300 2.284863 279.05 281.46 5.60
670 40.8800 2.282188 284.13 281.17 5.63
671 40.9300 2.279519 278.62 280.90 5.60
672 40.9800 2.276857 282.95 280.62 5.61
673 41.0300 2.274202 279.61 280.36 5.58
674 41.0800 2.271553 272.04 280.11 5.51
675 41.1300 2.268911 272.67 279.86 5.52
676 41.1800 2.266276 272.74 279.61 5.53
677 41.2300 2.263647 275.41 279.38 5.56
678 41.2800 2.261025 278.75 279.14 5.59
679 41.3300 2.258409 278.45 278.91 5.60
680 41.3800 2.255799 275.65 278.68 5.57
681 41.4300 2.253196 273.37 278.50 5.54
682 41.4800 2.250600 268.84 278.46 5.49
683 41.5300 2.248010 271.49 278.42 5.51
684 41.5800 2.245426 273.42 278.39 5.54
685 41.6300 2.242848 281.62 278.36 5.61
686 41.6800 2.240278 285.56 278.33 5.64
687 41.7300 2.237713 283.86 278.31 5.63
688 41.7800 2.235154 276.04 278.28 5.56
689 41.8300 2.232602 271.81 278.26 5.57
690 41.8800 2.230056 275.95 278.24 5.59
691 41.9300 2.227516 274.06 278.23 5.54
692 41.9800 2.224983 280.23 278.21 5.64
693 42.0300 2.222456 283.10 278.20 5.65
694 42.0800 2.219934 282.15 278.19 5.65
695 42.1300 2.217419 292.57 278.19 5.71
696 42.1800 2.214910 296.52 278.18 5.77
697 42.2300 2.212408 299.79 278.18 5.80
698 42.2800 2.209911 300.63 278.18 5.80
699 42.3300 2.207420 301.58 278.18 5.86
700 42.3800 2.204935 305.06 278.19 5.84
701 42.4300 2.202456 305.76 278.20 5.91
702 42.4800 2.199984 299.97 278.21 5.80
703 42.5300 2.197517 304.46 278.23 5.82
704 42.5800 2.195056 290.86 278.26 5.71
705 42.6300 2.192601 281.43 278.29 5.69
706 42.6800 2.190153 277.94 278.33 5.59
707 42.7300 2.187710 291.00 278.38 5.70
708 42.7800 2.185272 280.70 278.44 5.63
709 42.8300 2.182841 282.64 278.52 5.65
710 42.8800 2.180415 277.55 278.62 5.60
711 42.9300 2.177995 287.61 278.75 5.70
712 42.9800 2.175582 276.68 278.92 5.59
713 43.0300 2.173173 278.26 279.15 5.65
714 43.0800 2.170771 291.46 279.46 5.77
715 43.1300 2.168374 284.53 279.90 5.66
716 43.1800 2.165983 287.57 280.51 5.71
717 43.2300 2.163598 286.08 281.35 5.67
718 43.2800 2.161218 297.64 282.47 5.76
719 43.3300 2.158844 304.07 283.92 5.82
720 43.3800 2.156475 310.02 285.72 5.91
721 43.4300 2.154112 305.90 287.83 5.90
722 43.4800 2.151755 303.64 290.13 5.84
723 43.5300 2.149403 301.17 292.48 5.82
724 43.5800 2.147057 312.72 294.68 5.94
725 43.6300 2.144716 309.29 296.58 5.92
726 43.6800 2.142381 311.81 298.08 5.90
727 43.7300 2.140052 298.80 299.31 5.78
728 43.7800 2.137727 303.94 300.49 5.83
729 43.8300 2.135408 319.36 301.86 5.97
730 43.8800 2.133095 316.94 303.60 5.94
731 43.9300 2.130787 324.25 305.77 6.02
732 43.9800 2.128485 326.41 308.40 6.05
733 44.0300 2.126188 326.76 311.42 6.05
734 44.0800 2.123896 326.76 314.74 6.09
735 44.1300 2.121609 332.49 318.25 6.11
736 44.1800 2.119328 345.37 321.83 6.26
737 44.2300 2.117053 336.25 325.37 6.16
738 44.2800 2.114782 333.90 328.76 6.10
739 44.3300 2.112517 339.51 331.74 6.20
740 44.3800 2.110256 332.36 334.51 6.09
741 44.4300 2.108002 336.39 336.83 6.13
742 44.4800 2.105752 338.55 338.61 6.16
743 44.5300 2.103508 343.89 339.79 6.19
744 44.5800 2.101269 343.33 340.31 6.19
745 44.6300 2.099035 347.12 340.17 6.23
746 44.6800 2.096806 337.15 339.35 6.15
747 44.7300 2.094582 327.91 337.89 6.07
748 44.7800 2.092363 329.88 335.85 6.06
749 44.8300 2.090149 325.95 333.29 6.06
750 44.8800 2.087941 313.59 330.31 6.00
751 44.9300 2.085738 315.95 326.99 6.03
752 44.9800 2.083539 314.73 323.42 5.94
753 45.0300 2.081346 311.79 319.71 5.90
754 45.0800 2.079157 307.27 315.92 5.88
755 45.1300 2.076974 295.15 312.15 5.87
756 45.1800 2.074796 291.60 308.46 5.74
757 45.2300 2.072622 289.63 304.90 5.68
758 45.2800 2.070454 299.04 301.53 5.78
759 45.3300 2.068290 287.13 298.38 5.67
760 45.3800 2.066132 285.60 295.48 5.67
761 45.4300 2.063978 282.86 292.84 5.67
762 45.4800 2.061829 281.21 290.47 5.65
763 45.5300 2.059685 281.78 288.37 5.63
764 45.5800 2.057546 290.72 286.53 5.70
765 45.6300 2.055411 280.67 284.93 5.61
766 45.6800 2.053282 279.19 283.56 5.63
767 45.7300 2.051157 274.98 282.40 5.61
768 45.7800 2.049037 283.64 281.42 5.64
769 45.8300 2.046922 284.76 280.61 5.66
770 45.8800 2.044811 276.31 279.94 5.59
771 45.9300 2.042706 282.02 279.40 5.62
772 45.9800 2.040605 271.08 278.96 5.52
773 46.0300 2.038509 267.59 278.61 5.50
774 46.0800 2.036417 276.88 278.34 5.56
775 46.1300 2.034330 280.71 278.12 5.66
776 46.1800 2.032248 279.03 277.96 5.66
777 46.2300 2.030170 266.08 277.85 5.49
778 46.2800 2.028097 274.27 277.77 5.61
779 46.3300 2.026029 270.78 277.75 5.56
780 46.3800 2.023965 278.38 277.79 5.60
781 46.4300 2.021906 276.44 277.91 5.58
782 46.4800 2.019851 281.82 278.17 5.67
783 46.5300 2.017801 285.53 278.64 5.67
784 46.5800 2.015756 287.89 279.43 5.71
785 46.6300 2.013715 289.47 280.64 5.75
786 46.6800 2.011678 276.98 282.41 5.59
787 46.7300 2.009646 281.87 284.79 5.61
788 46.7800 2.007619 288.12 287.73 5.71
789 46.8300 2.005596 307.20 291.02 5.86
790 46.8800 2.003577 306.26 294.27 5.84
791 46.9300 2.001563 308.63 296.93 5.91
792 46.9800 1.999553 300.93 298.43 5.82
793 47.0300 1.997548 306.16 298.32 5.86
794 47.0800 1.995547 302.42 296.55 5.83
795 47.1300 1.993551 289.66 293.59 5.74
796 47.1800 1.991558 279.71 290.11 5.59
797 47.2300 1.989571 293.63 286.67 5.72
798 47.2800 1.987587 286.51 283.68 5.69
799 47.3300 1.985608 280.93 281.29 5.61
800 47.3800 1.983633 274.85 279.54 5.53
801 47.4300 1.981663 280.11 278.32 5.65
802 47.4800 1.979697 275.26 277.53 5.62
803 47.5300 1.977735 272.28 277.02 5.54
804 47.5800 1.975777 278.76 276.70 5.63
805 47.6300 1.973824 270.14 276.48 5.55
806 47.6800 1.971874 276.07 276.32 5.55
807 47.7300 1.969929 275.28 276.20 5.56
808 47.7800 1.967989 274.69 276.10 5.58
809 47.8300 1.966052 273.86 276.01 5.63
810 47.8800 1.964120 270.76 275.93 5.54
811 47.9300 1.962191 271.69 275.86 5.56
812 47.9800 1.960267 276.76 275.80 5.59
813 48.0300 1.958347 277.06 275.74 5.56
814 48.0800 1.956432 277.04 275.69 5.58
815 48.1300 1.954520 272.06 275.59 5.52
816 48.1800 1.952612 273.67 275.54 5.53
817 48.2300 1.950709 268.35 275.49 5.53
818 48.2800 1.948810 273.48 275.45 5.59
819 48.3300 1.946914 282.99 275.41 5.66
820 48.3800 1.945023 277.73 275.37 5.60
821 48.4300 1.943135 270.79 275.33 5.51
822 48.4800 1.941252 277.44 275.29 5.59
823 48.5300 1.939373 276.94 275.24 5.57
824 48.5800 1.937498 267.64 275.18 5.49
825 48.6300 1.935627 267.66 275.13 5.50
826 48.6800 1.933759 276.01 275.08 5.56
827 48.7300 1.931896 271.69 275.02 5.56
828 48.7800 1.930037 279.48 274.97 5.58
829 48.8300 1.928181 275.91 274.92 5.55
830 48.8800 1.926330 279.87 274.87 5.59
831 48.9300 1.924482 280.13 274.82 5.63
832 48.9800 1.922639 280.29 274.77 5.65
833 49.0300 1.920799 263.37 274.73 5.48
834 49.0800 1.918963 269.49 274.68 5.53
835 49.1300 1.917131 267.63 274.64 5.50
836 49.1800 1.915303 268.50 274.59 5.47
837 49.2300 1.913479 270.32 274.55 5.49
838 49.2800 1.911659 275.89 274.50 5.59
839 49.3300 1.909842 273.54 274.46 5.59
840 49.3800 1.908029 281.23 274.42 5.63
841 49.4300 1.906220 274.44 274.37 5.57
842 49.4800 1.904415 277.89 274.33 5.65
843 49.5300 1.902614 278.28 274.29 5.62
844 49.5800 1.900816 272.79 274.25 5.57
845 49.6300 1.899022 276.31 274.21 5.58
846 49.6800 1.897232 271.31 274.18 5.61
847 49.7300 1.895445 278.45 274.14 5.61
848 49.7800 1.893663 265.38 274.11 5.53
849 49.8300 1.891884 272.29 274.07 5.58
850 49.8800 1.890108 263.99 274.04 5.43
851 49.9300 1.888337 276.96 274.01 5.61
852 49.9800 1.886569 270.31 273.98 5.53
853 50.0300 1.884805 268.46 273.95 5.52
854 50.0800 1.883044 270.15 273.93 5.53
855 50.1300 1.881287 276.03 273.90 5.58
856 50.1800 1.879534 270.89 273.89 5.53
857 50.2300 1.877784 264.42 273.88 5.44
858 50.2800 1.876038 277.63 273.87 5.60
859 50.3300 1.874295 267.12 273.88 5.53
860 50.3800 1.872556 274.12 273.89 5.55
861 50.4300 1.870821 273.00 273.96 5.55
862 50.4800 1.869089 267.05 274.06 5.51
863 50.5300 1.867361 273.67 274.19 5.56
864 50.5800 1.865636 269.22 274.36 5.50
865 50.6300 1.863915 272.81 274.56 5.53
866 50.6800 1.862198 272.17 274.81 5.58
867 50.7300 1.860484 269.72 275.11 5.59
868 50.7800 1.858773 270.01 275.49 5.54
869 50.8300 1.857066 276.61 275.95 5.56
870 50.8800 1.855362 270.68 276.51 5.49
871 50.9300 1.853662 270.26 277.18 5.52
872 50.9800 1.851966 284.90 277.98 5.66
873 51.0300 1.850273 278.72 278.93 5.57
874 51.0800 1.848583 282.70 280.04 5.62
875 51.1300 1.846896 274.55 281.31 5.53
876 51.1800 1.845214 287.96 282.76 5.70
877 51.2300 1.843534 291.13 284.40 5.71
878 51.2800 1.841858 304.91 286.21 5.84
879 51.3300 1.840185 286.29 288.20 5.65
880 51.3800 1.838516 291.92 290.34 5.75
881 51.4300 1.836850 300.97 292.62 5.82
882 51.4800 1.835187 301.46 295.00 5.89
883 51.5300 1.833528 306.36 297.44 5.85
884 51.5800 1.831872 316.07 299.89 5.95
885 51.6300 1.830220 307.55 302.30 5.99
886 51.6800 1.828571 318.40 304.60 6.02
887 51.7300 1.826925 314.58 306.74 5.94
888 51.7800 1.825282 315.00 308.63 5.93
889 51.8300 1.823643 310.59 310.23 5.96
890 51.8800 1.822007 323.06 311.46 6.12
891 51.9300 1.820374 308.65 312.27 5.95
892 51.9800 1.818745 311.82 312.64 5.91
893 52.0300 1.817119 315.90 312.54 5.95
894 52.0800 1.815496 309.38 311.98 5.88
895 52.1300 1.813876 313.70 310.98 5.96
896 52.1800 1.812260 303.44 309.59 5.90
897 52.2300 1.810647 287.60 307.87 5.70
898 52.2800 1.809036 300.71 305.88 5.84
899 52.3300 1.807430 304.73 303.68 5.84
900 52.3800 1.805826 296.11 301.35 5.73
901 52.4300 1.804226 286.29 298.94 5.57
902 52.4800 1.802629 286.59 296.53 5.47
903 52.5300 1.801034 283.35 294.15 5.41
904 52.5800 1.799443 286.13 291.85 5.41
905 52.6300 1.797856 283.12 289.67 5.36
906 52.6800 1.796271 280.16 287.64 5.36
907 52.7300 1.794690 274.11 285.78 5.28
908 52.7800 1.793111 268.04 284.10 5.24
909 52.8300 1.791536 271.71 282.60 5.28
910 52.8800 1.789964 276.85 281.28 5.31
911 52.9300 1.788395 268.68 280.14 5.23
912 52.9800 1.786829 272.96 279.18 5.28
913 53.0300 1.785266 275.11 278.37 5.26
914 53.0800 1.783706 264.68 277.70 5.17
915 53.1300 1.782149 269.47 277.15 5.23
916 53.1800 1.780596 271.56 276.71 5.28
917 53.2300 1.779045 262.59 276.37 5.20
918 53.2800 1.777497 267.00 276.10 5.25
919 53.3300 1.775953 277.88 275.98 5.31
920 53.3800 1.774411 276.19 275.84 5.30
921 53.4300 1.772873 272.73 275.74 5.28
922 53.4800 1.771337 267.70 275.68 5.30
923 53.5300 1.769805 268.00 275.67 5.22
924 53.5800 1.768275 269.43 275.69 5.22
925 53.6300 1.766748 272.33 275.74 5.26
926 53.6800 1.765225 276.05 275.84 5.28
927 53.7300 1.763704 274.86 275.97 5.26
928 53.7800 1.762187 273.12 276.15 5.25
929 53.8300 1.760671 267.99 276.40 5.22
930 53.8800 1.759160 273.99 276.77 5.25
931 53.9300 1.757651 276.85 277.33 5.27
932 53.9800 1.756145 274.33 278.22 5.24
933 54.0300 1.754642 273.45 279.67 5.25
934 54.0800 1.753142 277.49 281.97 5.28
935 54.1300 1.751644 284.97 285.48 5.36
936 54.1800 1.750150 291.61 290.53 5.42
937 54.2300 1.748659 303.18 297.25 5.53
938 54.2800 1.747170 312.39 305.45 5.62
939 54.3300 1.745684 318.44 314.41 5.66
940 54.3800 1.744201 339.68 322.84 5.86
941 54.4300 1.742721 338.53 329.01 5.86
942 54.4800 1.741244 343.00 331.26 5.87
943 54.5300 1.739770 332.26 328.78 5.78
944 54.5800 1.738298 321.49 322.30 5.74
945 54.6300 1.736829 316.18 313.64 5.68
946 54.6800 1.735363 310.03 304.62 5.59
947 54.7300 1.733900 297.74 296.51 5.47
948 54.7800 1.732440 288.04 289.97 5.41
949 54.8300 1.730982 278.23 285.14 5.32
950 54.8800 1.729528 277.10 281.85 5.29
951 54.9300 1.728076 281.45 279.75 5.38
952 54.9800 1.726626 277.62 278.47 5.35
953 55.0300 1.725180 281.80 277.70 5.40
954 55.0800 1.723736 274.99 277.24 5.28
955 55.1300 1.722295 276.41 276.96 5.37
956 55.1800 1.720857 269.38 276.77 5.24
957 55.2300 1.719421 275.18 276.66 5.26
958 55.2800 1.717989 272.57 276.58 5.27
959 55.3300 1.716558 278.46 276.54 5.30
960 55.3800 1.715131 281.77 276.54 5.40
961 55.4300 1.713706 270.95 276.65 5.26
962 55.4800 1.712284 271.87 276.83 5.24
963 55.5300 1.710865 273.16 277.03 5.26
964 55.5800 1.709448 272.77 277.29 5.24
965 55.6300 1.708035 275.55 277.62 5.30
966 55.6800 1.706623 276.53 278.08 5.28
967 55.7300 1.705215 282.45 278.74 5.40
968 55.7800 1.703809 283.15 279.77 5.39
969 55.8300 1.702405 279.06 281.36 5.31
970 55.8800 1.701004 292.77 283.77 5.45
971 55.9300 1.699606 293.51 287.28 5.52
972 55.9800 1.698211 302.63 292.04 5.56
973 56.0300 1.696818 309.28 297.99 5.57
974 56.0800 1.695428 314.11 304.69 5.64
975 56.1300 1.694040 330.63 311.27 5.78
976 56.1800 1.692655 330.45 316.53 5.77
977 56.2300 1.691273 332.95 318.99 5.80
978 56.2800 1.689893 336.73 317.92 5.81
979 56.3300 1.688515 324.08 313.65 5.70
980 56.3800 1.687140 313.25 307.51 5.68
981 56.4300 1.685768 302.57 300.93 5.53
982 56.4800 1.684399 296.85 294.94 5.48
983 56.5300 1.683031 298.36 290.08 5.49
984 56.5800 1.681667 296.30 286.52 5.45
985 56.6300 1.680305 284.75 284.13 5.34
986 56.6800 1.678945 290.01 282.65 5.44
987 56.7300 1.677588 289.10 281.80 5.41
988 56.7800 1.676234 283.68 281.36 5.35
989 56.8300 1.674882 281.85 281.15 5.33
990 56.8800 1.673532 277.58 281.08 5.32
991 56.9300 1.672185 282.58 281.10 5.37
992 56.9800 1.670841 283.36 281.16 5.38
993 57.0300 1.669499 283.68 281.26 5.34
994 57.0800 1.668159 284.55 281.39 5.35
995 57.1300 1.666822 289.37 281.54 5.39
996 57.1800 1.665487 291.25 281.71 5.41
997 57.2300 1.664155 283.01 281.91 5.33
998 57.2800 1.662825 280.23 282.14 5.32
999 57.3300 1.661498 285.86 282.38 5.39
1000 57.3800 1.660173 278.91 282.66 5.31
1001 57.4300 1.658851 275.26 282.96 5.30
1002 57.4800 1.657531 286.74 283.30 5.39
1003 57.5300 1.656213 278.15 283.68 5.30
1004 57.5800 1.654898 273.98 284.03 5.32
1005 57.6300 1.653585 279.38 284.43 5.33
1006 57.6800 1.652275 287.03 284.91 5.40
1007 57.7300 1.650967 287.50 285.47 5.38
1008 57.7800 1.649661 282.98 286.14 5.37
1009 57.8300 1.648358 285.71 286.99 5.41
1010 57.8800 1.647057 277.14 288.11 5.29
1011 57.9300 1.645758 285.78 289.72 5.36
1012 57.9800 1.644462 293.13 292.17 5.43
1013 58.0300 1.643168 297.14 296.09 5.46
1014 58.0800 1.641877 316.42 302.44 5.64
1015 58.1300 1.640588 313.83 312.46 5.63
1016 58.1800 1.639301 332.16 327.47 5.78
1017 58.2300 1.638016 350.80 348.44 5.93
1018 58.2800 1.636734 390.48 375.36 6.26
1019 58.3300 1.635454 415.60 406.55 6.46
1020 58.3800 1.634177 440.52 438.12 6.65
1021 58.4300 1.632902 478.71 464.07 6.93
1022 58.4800 1.631629 479.39 477.51 6.93
1023 58.5300 1.630358 474.32 473.80 6.90
1024 58.5800 1.629090 453.02 454.03 6.74
1025 58.6300 1.627824 421.56 424.45 6.51
1026 58.6800 1.626560 380.40 392.24 6.19
1027 58.7300 1.625299 351.39 362.62 5.94
1028 58.7800 1.624039 334.64 338.42 5.80
1029 58.8300 1.622782 314.83 320.44 5.62
1030 58.8800 1.621528 299.79 308.13 5.49
1031 58.9300 1.620275 292.80 300.30 5.50
1032 58.9800 1.619025 288.87 295.48 5.46
1033 59.0300 1.617777 292.38 292.58 5.43
1034 59.0800 1.616531 285.45 290.81 5.42
1035 59.1300 1.615287 282.95 289.67 5.35
1036 59.1800 1.614046 281.32 288.89 5.35
1037 59.2300 1.612807 274.23 288.33 5.28
1038 59.2800 1.611570 283.49 287.90 5.39
1039 59.3300 1.610335 288.54 287.57 5.42
1040 59.3800 1.609103 292.63 287.31 5.46
1041 59.4300 1.607872 284.61 287.13 5.36
1042 59.4800 1.606644 288.54 286.99 5.39
1043 59.5300 1.605418 278.65 286.90 5.32
1044 59.5800 1.604195 280.95 286.85 5.32
1045 59.6300 1.602973 282.83 286.84 5.33
1046 59.6800 1.601754 285.97 286.86 5.36
1047 59.7300 1.600536 283.61 286.91 5.34
1048 59.7800 1.599321 284.55 286.99 5.35
1049 59.8300 1.598108 282.53 287.10 5.35
1050 59.8800 1.596897 278.25 287.24 5.34
1051 59.9300 1.595689 282.11 287.41 5.32
1052 59.9800 1.594482 285.29 287.62 5.35
1053 60.0300 1.593278 282.54 287.85 5.33
1054 60.0800 1.592075 285.82 288.13 5.47
1055 60.1300 1.590875 296.73 288.44 5.46
1056 60.1800 1.589677 295.10 288.80 5.44
1057 60.2300 1.588481 291.01 289.22 5.44
1058 60.2800 1.587287 280.72 289.69 5.33
1059 60.3300 1.586095 283.20 290.24 5.36
1060 60.3800 1.584906 284.32 290.88 5.35
1061 60.4300 1.583718 288.14 291.61 5.39
1062 60.4800 1.582532 282.98 292.48 5.38
1063 60.5300 1.581349 281.62 293.51 5.43
1064 60.5800 1.580167 288.81 294.77 5.44
1065 60.6300 1.578988 300.06 296.32 5.55
1066 60.6800 1.577811 296.31 298.37 5.49
1067 60.7300 1.576636 300.50 301.24 5.53
1068 60.7800 1.575462 313.20 305.59 5.63
1069 60.8300 1.574291 311.33 312.56 5.61
1070 60.8800 1.573122 327.78 323.94 5.75
1071 60.9300 1.571955 335.53 342.21 5.82
1072 60.9800 1.570790 369.26 370.16 6.09
1073 61.0300 1.569627 408.42 410.11 6.41
1074 61.0800 1.568466 455.52 462.59 6.76
1075 61.1300 1.567307 522.63 524.87 7.24
1076 61.1800 1.566150 594.10 589.66 7.72
1077 61.2300 1.564995 660.90 644.84 8.15
1078 61.2800 1.563842 695.32 675.58 8.35
1079 61.3300 1.562691 692.69 671.03 8.34
1080 61.3800 1.561542 649.32 632.47 8.07
1081 61.4300 1.560395 575.84 572.81 7.60
1082 61.4800 1.559250 500.26 507.29 7.11
1083 61.5300 1.558107 430.87 447.02 6.57
1084 61.5800 1.556966 381.77 397.89 6.22
1085 61.6300 1.555827 353.71 361.66 5.99
1086 61.6800 1.554690 332.95 336.91 5.84
1087 61.7300 1.553555 313.19 321.13 5.63
1088 61.7800 1.552421 303.79 311.49 5.55
1089 61.8300 1.551290 301.00 305.66 5.52
1090 61.8800 1.550161 294.43 302.04 5.45
1091 61.9300 1.549033 298.58 299.64 5.48
1092 61.9800 1.547908 299.18 297.93 5.51
1093 62.0300 1.546785 288.51 296.64 5.39
1094 62.0800 1.545663 288.34 295.62 5.42
1095 62.1300 1.544543 290.95 294.80 5.43
1096 62.1800 1.543425 283.68 294.12 5.34
1097 62.2300 1.542310 285.59 293.57 5.35
1098 62.2800 1.541196 287.48 293.12 5.38
1099 62.3300 1.540084 275.13 292.76 5.28
1100 62.3800 1.538973 288.00 292.46 5.38
1101 62.4300 1.537865 297.40 292.23 5.47
1102 62.4800 1.536759 293.13 292.01 5.43
1103 62.5300 1.535654 285.63 291.85 5.45
1104 62.5800 1.534552 287.59 291.72 5.40
1105 62.6300 1.533451 295.47 291.64 5.48
1106 62.6800 1.532352 297.80 291.59 5.48
1107 62.7300 1.531255 298.94 291.56 5.54
1108 62.7800 1.530160 297.82 291.58 5.49
1109 62.8300 1.529066 301.66 291.64 5.53
1110 62.8800 1.527975 292.65 291.73 5.51
1111 62.9300 1.526885 300.40 291.86 5.56
1112 62.9800 1.525798 305.59 292.04 5.55
1113 63.0300 1.524712 298.68 292.26 5.50
1114 63.0800 1.523628 302.44 292.53 5.57
1115 63.1300 1.522545 298.69 292.87 5.53
1116 63.1800 1.521465 309.93 293.28 5.58
1117 63.2300 1.520386 298.43 293.78 5.57
1118 63.2800 1.519310 295.89 294.39 5.49
1119 63.3300 1.518235 302.59 295.15 5.52
1120 63.3800 1.517161 306.62 296.14 5.58
1121 63.4300 1.516090 293.49 297.48 5.51
1122 63.4800 1.515020 300.92 299.45 5.53
1123 63.5300 1.513953 298.70 302.54 5.48
1124 63.5800 1.512887 301.24 307.58 5.52
1125 63.6300 1.511822 312.51 315.85 5.61
1126 63.6800 1.510760 328.21 328.93 5.75
1127 63.7300 1.509699 350.90 348.44 6.00
1128 63.7800 1.508641 373.98 375.32 6.13
1129 63.8300 1.507583 418.58 409.00 6.48
1130 63.8800 1.506528 469.17 446.48 6.89
1131 63.9300 1.505475 494.87 481.78 7.05
1132 63.9800 1.504423 523.66 506.31 7.31
1133 64.0300 1.503373 532.91 511.85 7.32
1134 64.0800 1.502325 513.23 496.11 7.22
1135 64.1300 1.501278 477.77 465.00 6.94
1136 64.1800 1.500233 417.39 427.91 6.49
1137 64.2300 1.499190 377.94 392.49 6.17
1138 64.2800 1.498149 352.94 363.24 6.02
1139 64.3300 1.497109 331.36 341.70 5.80
1140 64.3800 1.496071 309.72 327.50 5.61
1141 64.4300 1.495035 310.74 319.03 5.61
1142 64.4800 1.494001 310.80 314.30 5.60
1143 64.5300 1.492968 311.02 311.42 5.64
1144 64.5800 1.491937 307.15 309.03 5.56
1145 64.6300 1.490908 307.09 306.50 5.56
1146 64.6800 1.489880 299.37 303.85 5.53
1147 64.7300 1.488854 296.23 301.31 5.53
1148 64.7800 1.487830 298.26 299.10 5.49
1149 64.8300 1.486808 295.80 297.33 5.53
1150 64.8800 1.485787 299.10 295.99 5.58
1151 64.9300 1.484768 289.28 295.05 5.43
1152 64.9800 1.483750 293.14 294.40 5.46
1153 65.0300 1.482735 283.94 293.96 5.36
1154 65.0800 1.481720 299.44 293.66 5.50
1155 65.1300 1.480708 292.21 293.46 5.44
1156 65.1800 1.479697 295.77 293.33 5.55
1157 65.2300 1.478688 290.02 293.24 5.39
1158 65.2800 1.477681 299.31 293.20 5.48
1159 65.3300 1.476675 289.93 293.15 5.46
1160 65.3800 1.475671 287.65 293.14 5.42
1161 65.4300 1.474668 287.77 293.17 5.43
1162 65.4800 1.473667 283.77 293.23 5.37
1163 65.5300 1.472668 292.45 293.32 5.51
1164 65.5800 1.471670 299.07 293.45 5.49
1165 65.6300 1.470674 285.83 293.61 5.36
1166 65.6800 1.469680 285.53 293.83 5.46
1167 65.7300 1.468687 297.65 294.09 5.56
1168 65.7800 1.467696 294.95 294.41 5.50
1169 65.8300 1.466707 306.28 294.81 5.58
1170 65.8800 1.465719 305.69 295.29 5.57
1171 65.9300 1.464733 295.68 295.88 5.48
1172 65.9800 1.463748 293.14 296.61 5.44
1173 66.0300 1.462765 302.54 297.56 5.57
1174 66.0800 1.461783 300.40 298.85 5.50
1175 66.1300 1.460804 300.61 300.72 5.52
1176 66.1800 1.459825 307.22 303.66 5.61
1177 66.2300 1.458849 313.67 308.47 5.65
1178 66.2800 1.457873 320.85 316.40 5.73
1179 66.3300 1.456900 326.38 329.05 5.77
1180 66.3800 1.455928 349.70 348.05 5.98
1181 66.4300 1.454958 380.73 374.38 6.23
1182 66.4800 1.453989 409.03 407.43 6.41
1183 66.5300 1.453022 445.85 444.19 6.69
1184 66.5800 1.452056 489.90 478.40 7.01
1185 66.6300 1.451092 518.15 501.25 7.21
1186 66.6800 1.450129 508.78 504.46 7.14
1187 66.7300 1.449168 485.01 486.54 6.98
1188 66.7800 1.448209 453.83 454.36 6.75
1189 66.8300 1.447251 416.78 417.44 6.49
1190 66.8800 1.446295 378.12 382.92 6.26
1191 66.9300 1.445340 340.67 354.65 5.86
1192 66.9800 1.444386 328.15 333.79 5.79
1193 67.0300 1.443435 314.85 319.68 5.74
1194 67.0800 1.442484 297.16 310.77 5.50
1195 67.1300 1.441536 309.10 305.38 5.67
1196 67.1800 1.440588 298.06 302.15 5.51
1197 67.2300 1.439643 298.45 300.14 5.51
1198 67.2800 1.438699 304.37 298.82 5.57
1199 67.3300 1.437756 305.29 297.89 5.68
1200 67.3800 1.436815 291.00 297.20 5.44
1201 67.4300 1.435875 289.71 296.68 5.41
1202 67.4800 1.434937 296.30 296.30 5.49
1203 67.5300 1.434000 292.77 296.03 5.43
1204 67.5800 1.433065 296.09 295.86 5.45
1205 67.6300 1.432132 290.36 295.69 5.44
1206 67.6800 1.431199 302.01 295.64 5.61
1207 67.7300 1.430269 298.16 295.72 5.55
1208 67.7800 1.429340 290.21 296.00 5.47
1209 67.8300 1.428412 296.71 296.59 5.48
1210 67.8800 1.427485 287.96 297.64 5.53
1211 67.9300 1.426561 293.55 299.29 5.50
1212 67.9800 1.425637 293.32 301.65 5.57
1213 68.0300 1.424716 296.53 304.73 5.56
1214 68.0800 1.423795 306.70 308.30 5.56
1215 68.1300 1.422876 320.39 311.82 5.67
1216 68.1800 1.421959 319.82 314.50 5.75
1217 68.2300 1.421043 316.95 315.52 5.68
1218 68.2800 1.420128 312.07 314.58 5.77
1219 68.3300 1.419215 309.14 312.27 5.61
1220 68.3800 1.418303 307.41 309.50 5.58
1221 68.4300 1.417393 304.61 307.02 5.56
1222 68.4800 1.416484 310.07 305.28 5.62
1223 68.5300 1.415577 312.05 304.48 5.61
1224 68.5800 1.414671 306.86 304.64 5.58
1225 68.6300 1.413767 298.91 305.80 5.52
1226 68.6800 1.412863 297.87 308.08 5.53
1227 68.7300 1.411962 308.55 311.97 5.60
1228 68.7800 1.411062 310.17 318.49 5.59
1229 68.8300 1.410163 319.88 329.50 5.67
1230 68.8800 1.409265 340.36 347.84 5.85
1231 68.9300 1.408369 379.30 377.01 6.17
1232 68.9800 1.407475 426.87 420.27 6.54
1233 69.0300 1.406582 480.27 479.02 6.94
1234 69.0800 1.405690 552.82 550.71 7.45
1235 69.1300 1.404799 623.57 627.00 7.91
1236 69.1800 1.403910 695.99 692.33 8.36
1237 69.2300 1.403023 725.97 726.47 8.54
1238 69.2800 1.402136 712.59 715.26 8.46
1239 69.3300 1.401252 666.42 663.42 8.18
1240 69.3800 1.400368 584.52 589.95 7.66
1241 69.4300 1.399486 510.01 513.96 7.16
1242 69.4800 1.398605 440.26 447.52 6.65
1243 69.5300 1.397726 384.72 395.94 6.22
1244 69.5800 1.396848 360.96 359.58 6.09
1245 69.6300 1.395972 339.69 335.89 5.88
1246 69.6800 1.395096 313.57 321.27 5.64
1247 69.7300 1.394222 312.10 312.45 5.63
1248 69.7800 1.393350 301.25 306.99 5.50
1249 69.8300 1.392479 304.98 303.42 5.57
1250 69.8800 1.391609 299.95 300.87 5.53
1251 69.9300 1.390741 290.66 298.93 5.47
1252 69.9800 1.389874 288.35 297.39 5.40
1253 70.0300 1.389008 284.79 296.11 5.37
1254 70.0800 1.388143 290.42 295.05 5.45
1255 70.1300 1.387280 295.79 294.15 5.51
1256 70.1800 1.386419 294.39 293.39 5.49
1257 70.2300 1.385558 291.34 292.74 5.44
1258 70.2800 1.384699 288.80 292.18 5.44
1259 70.3300 1.383841 290.87 291.70 5.44
1260 70.3800 1.382985 288.01 291.29 5.43
1261 70.4300 1.382130 298.99 290.93 5.51
1262 70.4800 1.381276 289.25 290.64 5.48
1263 70.5300 1.380424 282.33 290.36 5.33
1264 70.5800 1.379573 281.21 290.12 5.36
1265 70.6300 1.378723 290.88 289.92 5.49
1266 70.6800 1.377874 296.96 289.77 5.47
1267 70.7300 1.377027 295.74 289.67 5.45
1268 70.7800 1.376181 285.45 289.61 5.37
1269 70.8300 1.375337 282.63 289.60 5.33
1270 70.8800 1.374493 281.67 289.65 5.39
1271 70.9300 1.373651 289.05 289.77 5.42
1272 70.9800 1.372810 289.08 289.96 5.44
1273 71.0300 1.371971 289.62 290.25 5.41
1274 71.0800 1.371133 293.32 290.66 5.45
1275 71.1300 1.370296 300.91 291.23 5.51
1276 71.1800 1.369460 296.98 292.05 5.47
1277 71.2300 1.368626 297.58 293.26 5.48
1278 71.2800 1.367793 299.07 295.20 5.50
1279 71.3300 1.366961 292.04 298.43 5.42
1280 71.3800 1.366131 306.97 303.92 5.61
1281 71.4300 1.365302 318.24 313.02 5.74
1282 71.4800 1.364474 334.20 327.29 5.81
1283 71.5300 1.363647 349.43 347.93 5.92
1284 71.5800 1.362822 384.94 375.02 6.22
1285 71.6300 1.361997 412.00 406.56 6.43
1286 71.6800 1.361174 453.23 437.66 6.75
1287 71.7300 1.360353 465.80 460.26 6.84
1288 71.7800 1.359532 474.95 465.84 6.91
1289 71.8300 1.358713 456.43 451.75 6.83
1290 71.8800 1.357895 430.45 423.99 6.58
1291 71.9300 1.357079 407.91 391.78 6.47
1292 71.9800 1.356263 373.61 361.92 6.17
1293 72.0300 1.355449 346.37 337.96 5.92
1294 72.0800 1.354636 315.60 320.92 5.71
1295 72.1300 1.353824 306.19 310.08 5.63
1296 72.1800 1.353014 299.21 303.87 5.57
1297 72.2300 1.352205 304.95 300.56 5.58
1298 72.2800 1.351396 299.79 298.58 5.53
1299 72.3300 1.350590 295.48 296.80 5.52
1300 72.3800 1.349784 299.43 294.74 5.52
1301 72.4300 1.348980 279.65 292.47 5.33
1302 72.4800 1.348176 288.91 290.26 5.43
1303 72.5300 1.347375 286.52 288.31 5.39
1304 72.5800 1.346574 289.34 286.73 5.41
1305 72.6300 1.345774 286.22 285.50 5.49
1306 72.6800 1.344976 280.58 284.58 5.34
1307 72.7300 1.344179 284.46 283.88 5.36
1308 72.7800 1.343383 285.47 283.34 5.37
1309 72.8300 1.342588 284.36 282.90 5.37
1310 72.8800 1.341794 291.22 282.53 5.42
1311 72.9300 1.341002 283.85 282.20 5.39
1312 72.9800 1.340211 280.00 281.91 5.30
1313 73.0300 1.339421 278.08 281.65 5.29
1314 73.0800 1.338632 283.81 281.41 5.38
1315 73.1300 1.337845 281.61 281.19 5.39
1316 73.1800 1.337058 275.04 280.99 5.32
1317 73.2300 1.336273 272.82 280.80 5.28
1318 73.2800 1.335489 277.05 280.61 5.30
1319 73.3300 1.334706 279.23 280.44 5.35
1320 73.3800 1.333924 285.97 280.28 5.40
1321 73.4300 1.333144 276.54 280.12 5.29
1322 73.4800 1.332364 277.23 279.97 5.31
1323 73.5300 1.331586 277.79 279.83 5.36
1324 73.5800 1.330809 276.95 279.69 5.30
1325 73.6300 1.330033 275.93 279.55 5.28
1326 73.6800 1.329258 283.66 279.43 5.34
1327 73.7300 1.328485 282.44 279.30 5.36
1328 73.7800 1.327712 277.92 279.18 5.38
1329 73.8300 1.326941 277.89 279.07 5.39
1330 73.8800 1.326171 281.64 278.95 5.37
1331 73.9300 1.325402 280.76 278.85 5.37
1332 73.9800 1.324634 277.70 278.74 5.30
1333 74.0300 1.323867 272.89 278.64 5.26
1334 74.0800 1.323102 267.19 278.55 5.26
1335 74.1300 1.322337 269.40 278.46 5.26
1336 74.1800 1.321574 268.51 278.37 5.21
1337 74.2300 1.320812 271.87 278.29 5.27
1338 74.2800 1.320051 281.89 278.23 5.33
1339 74.3300 1.319291 286.89 278.18 5.40
1340 74.3800 1.318532 278.45 278.11 5.36
1341 74.4300 1.317774 279.45 278.14 5.34
1342 74.4800 1.317018 287.71 278.26 5.37
1343 74.5300 1.316262 280.46 278.49 5.31
1344 74.5800 1.315508 282.66 278.87 5.33
1345 74.6300 1.314755 283.94 279.41 5.38
1346 74.6800 1.314003 280.01 280.10 5.31
1347 74.7300 1.313252 290.78 280.74 5.42
1348 74.7800 1.312502 281.57 281.18 5.41
1349 74.8300 1.311753 293.99 281.22 5.47
1350 74.8800 1.311006 291.59 280.80 5.43
1351 74.9300 1.310259 291.89 280.09 5.45
1352 74.9800 1.309513 280.80 279.29 5.32
1353 75.0300 1.308769 288.17 278.56 5.38
1354 75.0800 1.308026 286.42 277.98 5.36
1355 75.1300 1.307284 278.15 277.56 5.29
1356 75.1800 1.306543 278.10 277.28 5.31
1357 75.2300 1.305803 283.40 277.10 5.39
1358 75.2800 1.305064 276.11 277.00 5.30
1359 75.3300 1.304326 279.68 276.95 5.33
1360 75.3800 1.303589 280.40 276.95 5.41
1361 75.4300 1.302853 278.18 276.98 5.36
1362 75.4800 1.302119 278.46 277.07 5.39
1363 75.5300 1.301385 291.12 277.31 5.45
1364 75.5800 1.300653 276.35 277.65 5.32
1365 75.6300 1.299922 276.82 278.09 5.27
1366 75.6800 1.299191 279.13 278.66 5.30
1367 75.7300 1.298462 272.20 279.39 5.23
1368 75.7800 1.297734 277.18 280.32 5.33
1369 75.8300 1.297007 274.48 281.49 5.26
1370 75.8800 1.296281 279.13 282.95 5.40
1371 75.9300 1.295556 278.17 284.74 5.41
1372 75.9800 1.294832 275.19 286.90 5.42
1373 76.0300 1.294109 280.54 289.46 5.37
1374 76.0800 1.293387 291.37 292.45 5.45
1375 76.1300 1.292666 297.39 295.85 5.47
1376 76.1800 1.291947 300.33 299.65 5.53
1377 76.2300 1.291228 297.75 303.78 5.48
1378 76.2800 1.290510 305.58 308.17 5.54
1379 76.3300 1.289794 306.40 312.70 5.55
1380 76.3800 1.289078 319.36 317.23 5.68
1381 76.4300 1.288364 318.83 321.57 5.67
1382 76.4800 1.287650 326.29 325.54 5.74
1383 76.5300 1.286938 338.76 328.90 5.86
1384 76.5800 1.286226 327.36 331.46 5.73
1385 76.6300 1.285516 326.97 333.02 5.76
1386 76.6800 1.284807 333.69 333.47 5.83
1387 76.7300 1.284098 341.41 332.78 5.88
1388 76.7800 1.283391 337.24 330.99 5.82
1389 76.8300 1.282685 326.70 328.26 5.78
1390 76.8800 1.281980 320.17 324.67 5.70
1391 76.9300 1.281275 321.67 320.64 5.70
1392 76.9800 1.280572 311.27 316.29 5.61
1393 77.0300 1.279870 314.82 311.81 5.63
1394 77.0800 1.279169 303.39 307.36 5.56
1395 77.1300 1.278469 301.44 303.09 5.51
1396 77.1800 1.277769 301.61 299.10 5.50
1397 77.2300 1.277071 293.40 295.46 5.43
1398 77.2800 1.276374 290.98 292.27 5.44
1399 77.3300 1.275678 299.94 289.45 5.50
1400 77.3800 1.274983 297.82 287.05 5.51
1401 77.4300 1.274289 293.32 285.05 5.44
1402 77.4800 1.273595 296.57 283.41 5.46
1403 77.5300 1.272903 290.67 282.09 5.44
1404 77.5800 1.272212 291.78 281.05 5.41
1405 77.6300 1.271522 281.44 280.23 5.33
1406 77.6800 1.270833 282.17 279.60 5.37
1407 77.7300 1.270145 282.66 279.12 5.36
1408 77.7800 1.269457 278.51 278.76 5.34
1409 77.8300 1.268771 276.07 278.49 5.33
1410 77.8800 1.268086 282.30 278.29 5.38
1411 77.9300 1.267402 277.73 278.14 5.32
1412 77.9800 1.266719 270.26 278.03 5.30
1413 78.0300 1.266036 267.22 277.95 5.20
1414 78.0800 1.265355 273.53 277.88 5.28
1415 78.1300 1.264675 273.99 277.84 5.32
1416 78.1800 1.263995 268.66 277.80 5.23
1417 78.2300 1.263317 269.99 277.78 5.25
1418 78.2800 1.262639 282.15 277.76 5.36
1419 78.3300 1.261963 279.00 277.75 5.38
1420 78.3800 1.261287 281.73 277.80 5.32
1421 78.4300 1.260613 279.28 277.86 5.34
1422 78.4800 1.259939 278.46 277.93 5.30
1423 78.5300 1.259267 278.22 278.00 5.29
1424 78.5800 1.258595 280.71 278.07 5.33
1425 78.6300 1.257924 277.46 278.15 5.30
1426 78.6800 1.257254 283.54 278.24 5.33
1427 78.7300 1.256586 283.15 278.32 5.35
1428 78.7800 1.255918 277.28 278.41 5.37
1429 78.8300 1.255251 282.48 278.51 5.34
1430 78.8800 1.254585 283.88 278.61 5.35
1431 78.9300 1.253920 286.48 278.71 5.42
1432 78.9800 1.253256 283.09 278.82 5.36
1433 79.0300 1.252593 287.07 278.93 5.45
1434 79.0800 1.251931 287.18 279.05 5.47
1435 79.1300 1.251269 290.03 279.18 5.41
1436 79.1800 1.250609 291.62 279.32 5.42
1437 79.2300 1.249950 293.35 279.48 5.44
1438 79.2800 1.249291 286.23 279.62 5.39
1439 79.3300 1.248634 285.66 279.87 5.41
1440 79.3800 1.247977 283.56 280.22 5.39
1441 79.4300 1.247321 295.67 280.72 5.49
1442 79.4800 1.246667 281.70 281.44 5.41
1443 79.5300 1.246013 280.62 282.41 5.34
1444 79.5800 1.245360 285.95 283.61 5.39
1445 79.6300 1.244708 291.88 284.92 5.43
1446 79.6800 1.244057 293.84 286.07 5.43
1447 79.7300 1.243407 294.25 286.66 5.49
1448 79.7800 1.242758 295.15 286.46 5.47
1449 79.8300 1.242109 294.43 285.65 5.44
1450 79.8800 1.241462 300.53 284.62 5.49
1451 79.9300 1.240815 292.52 283.66 5.48
1452 79.9800 1.240170 281.31 282.93 5.39
1453 80.0300 1.239525 278.68 282.46 5.30
1454 80.0800 1.238881 285.48 282.23 5.36
1455 80.1300 1.238239 276.49 282.18 5.27
1456 80.1800 1.237597 272.86 282.26 5.29
1457 80.2300 1.236956 274.30 282.45 5.35
1458 80.2800 1.236315 284.54 282.75 5.39
1459 80.3300 1.235676 277.55 283.19 5.33
1460 80.3800 1.235038 279.26 283.83 5.33
1461 80.4300 1.234400 284.26 284.85 5.36
1462 80.4800 1.233764 291.27 286.37 5.42
1463 80.5300 1.233128 278.65 288.42 5.30
1464 80.5800 1.232493 278.03 290.94 5.34
1465 80.6300 1.231859 287.56 293.60 5.38
1466 80.6800 1.231226 296.90 295.72 5.46
1467 80.7300 1.230594 290.73 296.51 5.43
1468 80.7800 1.229963 284.48 295.67 5.41
1469 80.8300 1.229333 290.64 293.76 5.42
1470 80.8800 1.228703 296.17 291.63 5.47
1471 80.9300 1.228075 288.51 289.82 5.39
1472 80.9800 1.227447 280.02 288.60 5.30
1473 81.0300 1.226820 284.71 288.00 5.34
1474 81.0800 1.226194 278.36 288.00 5.31
1475 81.1300 1.225569 284.68 288.55 5.37
1476 81.1800 1.224945 283.27 289.70 5.39
1477 81.2300 1.224321 288.02 291.73 5.41
1478 81.2800 1.223699 294.93 295.22 5.46
1479 81.3300 1.223077 299.61 301.14 5.53
1480 81.3800 1.222456 309.84 310.75 5.63
1481 81.4300 1.221836 316.62 325.21 5.65
1482 81.4800 1.221217 351.29 344.90 5.98
1483 81.5300 1.220599 373.48 368.57 6.12
1484 81.5800 1.219982 394.13 392.28 6.29
1485 81.6300 1.219365 409.59 408.84 6.41
1486 81.6800 1.218750 415.79 410.51 6.46
1487 81.7300 1.218135 396.69 396.38 6.31
1488 81.7800 1.217521 378.58 373.44 6.16
1489 81.8300 1.216908 346.87 349.42 5.91
1490 81.8800 1.216296 338.74 328.86 5.84
1491 81.9300 1.215684 318.99 313.44 5.67
1492 81.9800 1.215074 297.94 303.02 5.48
1493 82.0300 1.214464 284.65 296.52 5.36
1494 82.0800 1.213855 289.47 292.65 5.40
1495 82.1300 1.213247 287.99 290.35 5.39
1496 82.1800 1.212640 291.68 288.92 5.42
1497 82.2300 1.212034 270.43 287.96 5.30
1498 82.2800 1.211428 280.13 287.27 5.32
1499 82.3300 1.210824 286.76 286.74 5.39
1500 82.3800 1.210220 293.30 286.41 5.43
1501 82.4300 1.209617 289.34 286.10 5.40
1502 82.4800 1.209014 278.40 285.85 5.30
1503 82.5300 1.208413 279.12 285.66 5.31
1504 82.5800 1.207813 286.24 285.51 5.39
1505 82.6300 1.207213 282.18 285.40 5.33
1506 82.6800 1.206614 283.21 285.33 5.38
1507 82.7300 1.206016 285.32 285.28 5.36
1508 82.7800 1.205419 289.34 285.26 5.47
1509 82.8300 1.204823 280.89 285.26 5.33
1510 82.8800 1.204227 287.18 285.28 5.39
1511 82.9300 1.203632 280.28 285.33 5.33
1512 82.9800 1.203038 283.71 285.39 5.36
1513 83.0300 1.202445 284.61 285.48 5.35
1514 83.0800 1.201853 281.49 285.59 5.35
1515 83.1300 1.201261 276.48 285.73 5.32
1516 83.1800 1.200671 283.34 285.89 5.33
1517 83.2300 1.200081 286.88 286.09 5.36
1518 83.2800 1.199492 290.04 286.33 5.42
1519 83.3300 1.198903 281.20 286.62 5.38
1520 83.3800 1.198316 285.13 286.96 5.35
1521 83.4300 1.197729 277.20 287.38 5.33
1522 83.4800 1.197143 285.02 287.89 5.38
1523 83.5300 1.196558 286.17 288.53 5.45
1524 83.5800 1.195974 292.64 289.37 5.45
1525 83.6300 1.195391 277.77 290.54 5.34
1526 83.6800 1.194808 289.19 292.30 5.41
1527 83.7300 1.194226 295.00 295.15 5.47
1528 83.7800 1.193645 295.72 299.92 5.53
1529 83.8300 1.193065 311.06 307.75 5.64
1530 83.8800 1.192485 320.27 319.81 5.72
1531 83.9300 1.191907 336.10 336.72 5.87
1532 83.9800 1.191329 360.63 357.74 6.03
1533 84.0300 1.190752 383.45 379.82 6.23
1534 84.0800 1.190175 392.43 396.59 6.37
1535 84.1300 1.189600 400.30 400.29 6.35
1536 84.1800 1.189025 382.98 388.78 6.24
1537 84.2300 1.188451 363.61 368.26 6.06
1538 84.2800 1.187878 346.65 346.29 5.91
1539 84.3300 1.187305 330.31 327.40 5.76
1540 84.3800 1.186734 320.44 313.28 5.68
1541 84.4300 1.186163 310.16 303.79 5.58
1542 84.4800 1.185593 305.83 297.92 5.57
1543 84.5300 1.185023 300.36 294.43 5.55
1544 84.5800 1.184455 292.41 292.32 5.48
1545 84.6300 1.183887 294.87 290.95 5.45
1546 84.6800 1.183320 288.54 289.97 5.38
1547 84.7300 1.182754 296.94 289.24 5.47
1548 84.7800 1.182188 283.22 288.68 5.33
1549 84.8300 1.181624 288.28 288.24 5.38
1550 84.8800 1.181060 294.81 287.89 5.45
1551 84.9300 1.180496 301.16 287.71 5.50
1552 84.9800 1.179934 296.73 287.49 5.46
1553 85.0300 1.179372 297.64 287.32 5.48
1554 85.0800 1.178811 289.31 287.19 5.45
1555 85.1300 1.178251 299.32 287.08 5.49
1556 85.1800 1.177692 307.10 286.99 5.55
1557 85.2300 1.177133 301.54 286.92 5.53
1558 85.2800 1.176575 305.65 286.86 5.58
1559 85.3300 1.176018 308.11 286.82 5.61
1560 85.3800 1.175462 300.48 286.79 5.53
1561 85.4300 1.174906 303.63 286.77 5.53
1562 85.4800 1.174351 301.67 286.76 5.51
1563 85.5300 1.173797 298.64 286.76 5.48
1564 85.5800 1.173244 298.58 286.76 5.47
1565 85.6300 1.172691 291.50 286.77 5.41
1566 85.6800 1.172139 290.96 286.79 5.46
1567 85.7300 1.171588 291.31 286.80 5.44
1568 85.7800 1.171038 286.99 286.83 5.50
1569 85.8300 1.170488 281.34 286.85 5.34
1570 85.8800 1.169939 305.05 286.88 5.55
1571 85.9300 1.169391 300.72 286.92 5.54
1572 85.9800 1.168843 295.23 286.96 5.53
1573 86.0300 1.168296 290.52 287.00 5.43
1574 86.0800 1.167751 287.46 287.04 5.39
1575 86.1300 1.167205 289.74 287.09 5.40
1576 86.1800 1.166661 295.29 287.14 5.45
1577 86.2300 1.166117 301.25 287.20 5.51
1578 86.2800 1.165574 296.97 287.26 5.46
1579 86.3300 1.165031 289.71 287.33 5.39
1580 86.3800 1.164490 303.28 287.40 5.56
1581 86.4300 1.163949 290.77 287.48 5.44
1582 86.4800 1.163409 300.08 287.58 5.52
1583 86.5300 1.162869 293.22 287.69 5.44
1584 86.5800 1.162331 286.43 287.83 5.38
1585 86.6300 1.161793 296.14 288.03 5.48
1586 86.6800 1.161255 297.67 288.32 5.47
1587 86.7300 1.160719 290.97 288.74 5.45
1588 86.7800 1.160183 289.64 289.32 5.39
1589 86.8300 1.159648 299.29 290.05 5.50
1590 86.8800 1.159113 296.22 290.87 5.49
1591 86.9300 1.158580 299.75 291.57 5.52
1592 86.9800 1.158046 293.82 291.88 5.47
1593 87.0300 1.157514 296.85 291.66 5.47
1594 87.0800 1.156983 294.93 291.09 5.48
1595 87.1300 1.156452 290.44 290.45 5.43
1596 87.1800 1.155922 298.42 289.91 5.54
1597 87.2300 1.155392 284.54 289.54 5.37
1598 87.2800 1.154863 285.24 289.33 5.43
1599 87.3300 1.154335 292.95 289.24 5.45
1600 87.3800 1.153808 291.90 289.25 5.44
1601 87.4300 1.153281 282.64 289.31 5.33
1602 87.4800 1.152755 286.38 289.41 5.44
1603 87.5300 1.152230 284.14 289.54 5.35
1604 87.5800 1.151706 290.03 289.68 5.40
1605 87.6300 1.151182 284.11 289.84 5.38
1606 87.6800 1.150658 284.55 290.04 5.38
1607 87.7300 1.150136 287.12 290.33 5.51
1608 87.7800 1.149614 279.86 290.64 5.34
1609 87.8300 1.149093 290.30 290.98 5.47
1610 87.8800 1.148573 293.37 291.36 5.44
1611 87.9300 1.148053 293.77 291.77 5.48
1612 87.9800 1.147534 284.49 292.21 5.36
1613 88.0300 1.147016 284.69 292.72 5.35
1614 88.0800 1.146498 282.49 293.28 5.36
1615 88.1300 1.145981 287.80 293.91 5.42
1616 88.1800 1.145465 287.14 294.65 5.40
1617 88.2300 1.144949 279.82 295.49 5.33
1618 88.2800 1.144434 292.81 296.49 5.43
1619 88.3300 1.143920 288.36 297.67 5.43
1620 88.3800 1.143407 288.54 299.12 5.49
1621 88.4300 1.142894 291.95 300.95 5.45
1622 88.4800 1.142381 288.88 303.37 5.39
1623 88.5300 1.141870 299.26 306.84 5.49
1624 88.5800 1.141359 308.13 312.25 5.56
1625 88.6300 1.140849 317.96 321.19 5.65
1626 88.6800 1.140339 330.09 335.99 5.80
1627 88.7300 1.139830 341.59 359.46 5.86
1628 88.7800 1.139322 391.25 393.56 6.27
1629 88.8300 1.138815 453.99 437.60 6.75
1630 88.8800 1.138308 491.12 485.77 7.02
1631 88.9300 1.137802 540.66 524.19 7.37
1632 88.9800 1.137296 541.80 533.88 7.38
1633 89.0300 1.136792 503.61 508.87 7.11
1634 89.0800 1.136287 450.32 464.17 6.73
1635 89.1300 1.135784 411.10 417.73 6.43
1636 89.1800 1.135281 376.43 379.41 6.15
1637 89.2300 1.134779 338.08 352.30 5.86
1638 89.2800 1.134277 328.91 335.59 5.75
1639 89.3300 1.133777 332.05 326.64 5.78
1640 89.3800 1.133276 319.89 322.34 5.68
1641 89.4300 1.132777 313.99 319.85 5.67
1642 89.4800 1.132278 313.83 317.08 5.66
1643 89.5300 1.131780 318.09 313.55 5.66
1644 89.5800 1.131282 306.30 309.88 5.55
1645 89.6300 1.130785 299.95 306.67 5.49
1646 89.6800 1.130289 295.69 304.17 5.49
1647 89.7300 1.129793 307.35 302.39 5.57
1648 89.7800 1.129298 296.70 301.20 5.50
1649 89.8300 1.128804 288.78 300.43 5.40
1650 89.8800 1.128310 296.45 299.94 5.47
1651 89.9300 1.127817 291.90 299.63 5.49
1652 89.9800 1.127325 303.72 299.45 5.53
1653 90.0300 1.126833 294.37 299.39 5.50
1654 90.0800 1.126342 292.57 299.36 5.43
1655 90.1300 1.125852 291.36 299.40 5.43
1656 90.1800 1.125362 299.81 299.49 5.51
1657 90.2300 1.124873 298.96 299.64 5.48
1658 90.2800 1.124384 308.13 299.83 5.60
1659 90.3300 1.123896 293.74 300.09 5.51
1660 90.3800 1.123409 297.98 300.40 5.47
1661 90.4300 1.122922 298.48 300.79 5.48
1662 90.4800 1.122436 291.42 301.24 5.42
1663 90.5300 1.121951 311.48 301.79 5.59
1664 90.5800 1.121466 304.99 302.44 5.54
1665 90.6300 1.120982 291.80 303.22 5.42
1666 90.6800 1.120499 315.45 304.16 5.68
1667 90.7300 1.120016 311.07 305.31 5.61
1668 90.7800 1.119534 314.34 306.73 5.65
1669 90.8300 1.119052 314.21 308.52 5.62
1670 90.8800 1.118571 309.06 310.90 5.58
1671 90.9300 1.118091 315.80 314.26 5.64
1672 90.9800 1.117611 322.24 319.43 5.71
1673 91.0300 1.117132 319.24 327.88 5.66
1674 91.0800 1.116654 350.40 342.09 5.93
1675 91.1300 1.116176 368.19 365.02 6.08
1676 91.1800 1.115699 415.44 399.18 6.47
1677 91.2300 1.115222 474.01 444.60 6.94
1678 91.2800 1.114746 531.51 496.07 7.31
1679 91.3300 1.114271 559.24 539.32 7.50
1680 91.3800 1.113796 566.99 552.81 7.57
1681 91.4300 1.113322 527.28 527.66 7.28
1682 91.4800 1.112849 478.73 479.83 6.94
1683 91.5300 1.112376 423.26 429.67 6.55
1684 91.5800 1.111903 375.92 388.13 6.15
1685 91.6300 1.111432 356.21 358.31 5.99
1686 91.6800 1.110961 337.27 339.11 5.88
1687 91.7300 1.110490 316.88 327.64 5.69
1688 91.7800 1.110020 319.96 320.98 5.70
1689 91.8300 1.109551 308.35 316.93 5.58
1690 91.8800 1.109083 303.81 314.20 5.54
1691 91.9300 1.108615 311.07 312.21 5.64
1692 91.9800 1.108147 301.15 310.74 5.50
1693 92.0300 1.107680 315.23 309.66 5.65
1694 92.0800 1.107214 308.18 308.90 5.57
1695 92.1300 1.106749 310.94 308.41 5.61
1696 92.1800 1.106284 312.42 308.15 5.67
1697 92.2300 1.105819 310.80 308.09 5.60
1698 92.2800 1.105356 310.34 308.23 5.58
1699 92.3300 1.104892 303.59 308.61 5.52
1700 92.3800 1.104430 311.19 309.31 5.61
1701 92.4300 1.103968 302.65 310.53 5.54
1702 92.4800 1.103506 317.42 312.59 5.65
1703 92.5300 1.103045 317.01 315.98 5.65
1704 92.5800 1.102585 321.56 321.26 5.69
1705 92.6300 1.102126 334.83 328.71 5.80
1706 92.6800 1.101667 349.41 338.12 5.92
1707 92.7300 1.101208 352.39 348.06 5.95
1708 92.7800 1.100750 370.59 355.67 6.11
1709 92.8300 1.100293 366.77 358.32 6.11
1710 92.8800 1.099837 361.08 356.65 6.08
1711 92.9300 1.099380 353.46 353.93 5.97
1712 92.9800 1.098925 351.18 352.84 5.94
1713 93.0300 1.098470 364.78 354.39 6.05
1714 93.0800 1.098016 364.36 358.45 6.11
1715 93.1300 1.097562 366.37 364.28 6.10
1716 93.1800 1.097109 368.23 370.86 6.11
1717 93.2300 1.096656 376.65 377.08 6.18
1718 93.2800 1.096204 388.46 381.86 6.28
1719 93.3300 1.095753 384.66 384.27 6.21
1720 93.3800 1.095302 389.03 383.80 6.25
1721 93.4300 1.094852 382.77 380.45 6.21
1722 93.4800 1.094402 368.82 374.72 6.10
1723 93.5300 1.093953 357.52 367.39 6.01
1724 93.5800 1.093505 358.71 359.26 6.01
1725 93.6300 1.093057 350.79 350.99 5.93
1726 93.6800 1.092610 336.27 343.10 5.82
1727 93.7300 1.092163 330.79 335.92 5.78
1728 93.7800 1.091717 323.10 329.67 5.72
1729 93.8300 1.091271 320.95 324.43 5.70
1730 93.8800 1.090826 320.70 320.18 5.68
1731 93.9300 1.090381 315.87 316.85 5.65
1732 93.9800 1.089937 311.25 314.30 5.61
1733 94.0300 1.089494 316.11 312.42 5.64
1734 94.0800 1.089051 311.98 311.04 5.60
1735 94.1300 1.088609 310.48 310.06 5.58
1736 94.1800 1.088167 311.63 309.35 5.60
1737 94.2300 1.087726 312.52 308.86 5.63
1738 94.2800 1.087286 310.17 308.52 5.62
1739 94.3300 1.086846 316.25 308.27 5.64
1740 94.3800 1.086406 306.89 308.10 5.58
1741 94.4300 1.085968 304.12 307.99 5.54
1742 94.4800 1.085529 312.95 307.91 5.61
1743 94.5300 1.085092 301.49 307.86 5.52
1744 94.5800 1.084654 304.22 307.84 5.56
1745 94.6300 1.084218 319.81 307.85 5.68
1746 94.6800 1.083782 314.53 307.87 5.62
1747 94.7300 1.083346 308.71 307.83 5.59
1748 94.7800 1.082911 309.22 307.81 5.58
1749 94.8300 1.082477 303.20 307.81 5.52
1750 94.8800 1.082043 306.38 307.83 5.56
1751 94.9300 1.081610 312.19 307.86 5.73
1752 94.9800 1.081177 304.45 307.90 5.54
1753 95.0300 1.080745 319.15 307.96 5.69
1754 95.0800 1.080313 307.95 308.05 5.56
1755 95.1300 1.079883 310.14 308.15 5.63
1756 95.1800 1.079452 312.18 308.27 5.66
1757 95.2300 1.079022 318.42 308.42 5.73
1758 95.2800 1.078593 303.81 308.60 5.54
1759 95.3300 1.078164 304.18 308.82 5.58
1760 95.3800 1.077735 308.50 309.09 5.58
1761 95.4300 1.077308 309.77 309.40 5.62
1762 95.4800 1.076880 306.70 309.79 5.64
1763 95.5300 1.076454 315.64 310.27 5.66
1764 95.5800 1.076028 311.70 310.79 5.63
1765 95.6300 1.075602 307.24 311.56 5.61
1766 95.6800 1.075177 319.83 312.57 5.69
1767 95.7300 1.074752 319.76 313.99 5.67
1768 95.7800 1.074328 315.66 316.17 5.66
1769 95.8300 1.073905 327.07 319.72 5.73
1770 95.8800 1.073482 324.47 325.67 5.73
1771 95.9300 1.073060 336.08 335.34 5.81
1772 95.9800 1.072638 356.87 349.84 6.00
1773 96.0300 1.072217 371.14 369.13 6.13
1774 96.0800 1.071796 384.19 390.47 6.21
1775 96.1300 1.071376 389.35 406.36 6.25
1776 96.1800 1.070956 384.53 407.07 6.22
1777 96.2300 1.070537 377.07 392.16 6.18
1778 96.2800 1.070118 347.27 371.15 5.96
1779 96.3300 1.069700 343.60 351.93 5.95
1780 96.3800 1.069282 330.50 337.58 5.80
1781 96.4300 1.068865 321.77 328.35 5.70
1782 96.4800 1.068449 324.71 323.29 5.74
1783 96.5300 1.068033 313.67 321.12 5.65
1784 96.5800 1.067617 319.45 320.68 5.70
1785 96.6300 1.067203 322.55 320.84 5.69
1786 96.6800 1.066788 320.82 320.44 5.68
1787 96.7300 1.066374 320.28 318.91 5.74
1788 96.7800 1.065961 322.82 316.74 5.71
1789 96.8300 1.065548 307.14 314.67 5.68
1790 96.8800 1.065136 307.11 313.01 5.71
1791 96.9300 1.064724 308.97 311.84 5.57
1792 96.9800 1.064313 307.28 311.06 5.59
1793 97.0300 1.063902 306.22 310.57 5.59
1794 97.0800 1.063492 309.67 310.25 5.60
1795 97.1300 1.063082 304.95 310.04 5.55
1796 97.1800 1.062673 308.75 309.90 5.57
1797 97.2300 1.062264 311.86 309.81 5.62
1798 97.2800 1.061856 306.58 309.75 5.57
1799 97.3300 1.061448 305.58 309.73 5.56
1800 97.3800 1.061041 303.53 309.73 5.57
1801 97.4300 1.060635 305.84 309.76 5.55
1802 97.4800 1.060228 311.27 309.81 5.64
1803 97.5300 1.059823 303.08 309.85 5.64
1804 97.5800 1.059418 307.96 309.86 5.63
1805 97.6300 1.059013 312.02 309.89 5.68
1806 97.6800 1.058609 306.21 309.95 5.57
1807 97.7300 1.058206 309.14 310.05 5.60
1808 97.7800 1.057803 310.64 310.20 5.61
1809 97.8300 1.057400 306.34 310.39 5.57
1810 97.8800 1.056998 299.05 310.56 5.56
1811 97.9300 1.056597 314.66 310.89 5.63
1812 97.9800 1.056195 304.23 311.32 5.56
1813 98.0300 1.055795 309.73 311.89 5.65
1814 98.0800 1.055395 310.70 312.67 5.65
1815 98.1300 1.054996 311.26 313.79 5.60
1816 98.1800 1.054597 310.18 315.49 5.58
1817 98.2300 1.054198 314.84 318.26 5.70
1818 98.2800 1.053800 320.48 322.88 5.67
1819 98.3300 1.053403 335.23 330.33 5.81
1820 98.3800 1.053006 347.77 341.47 5.91
1821 98.4300 1.052609 362.17 356.25 6.03
1822 98.4800 1.052213 373.71 372.41 6.13
1823 98.5300 1.051818 372.50 383.88 6.11
1824 98.5800 1.051423 366.16 384.11 6.06
1825 98.6300 1.051028 366.46 374.88 6.06
1826 98.6800 1.050634 362.66 363.50 6.03
1827 98.7300 1.050241 356.90 354.51 6.00
1828 98.7800 1.049848 345.94 348.95 5.93
1829 98.8300 1.049455 340.83 346.08 5.90
1830 98.8800 1.049063 355.69 344.55 5.98
1831 98.9300 1.048672 344.76 343.14 5.90
1832 98.9800 1.048281 335.24 341.23 5.80
1833 99.0300 1.047890 333.82 338.71 5.97
1834 99.0800 1.047500 331.90 335.45 5.84
1835 99.1300 1.047110 343.33 331.26 5.87
1836 99.1800 1.046721 323.90 326.48 5.71
1837 99.2300 1.046333 315.95 321.91 5.64
1838 99.2800 1.045945 315.78 318.04 5.65
1839 99.3300 1.045557 323.07 315.01 5.74
1840 99.3800 1.045170 309.84 312.74 5.61
1841 99.4300 1.044783 311.08 311.10 5.61
1842 99.4800 1.044397 304.70 309.92 5.56
1843 99.5300 1.044011 308.70 309.05 5.59
1844 99.5800 1.043626 305.23 308.40 5.61
1845 99.6300 1.043242 304.16 307.89 5.52
1846 99.6800 1.042857 315.11 307.49 5.65
1847 99.7300 1.042474 308.60 307.16 5.68
1848 99.7800 1.042090 307.17 306.88 5.63
1849 99.8300 1.041708 306.20 306.63 5.61
1850 99.8800 1.041325 312.78 306.41 5.66
1851 99.9300 1.040943 314.54 306.21 5.73
1852 99.9800 1.040562 300.31 306.03 5.64
1853 100.0300 1.040181 308.40 305.87 5.65
1854 100.0800 1.039801 308.58 305.71 5.59
1855 100.1300 1.039421 311.68 305.57 5.72
1856 100.1800 1.039041 302.73 305.44 5.59
1857 100.2300 1.038662 300.26 305.28 5.60
1858 100.2800 1.038284 304.41 305.11 5.57
1859 100.3300 1.037906 301.61 304.95 5.51
1860 100.3800 1.037528 306.79 304.79 5.55
1861 100.4300 1.037151 300.47 304.64 5.51
1862 100.4800 1.036775 300.70 304.49 5.54
1863 100.5300 1.036399 305.31 304.38 5.58
1864 100.5800 1.036023 308.93 304.24 5.57
1865 100.6300 1.035648 311.12 304.10 5.61
1866 100.6800 1.035273 301.70 303.97 5.56
1867 100.7300 1.034899 298.81 303.84 5.50
1868 100.7800 1.034525 303.32 303.70 5.63
1869 100.8300 1.034152 305.94 303.58 5.64
1870 100.8800 1.033779 299.33 303.45 5.52
1871 100.9300 1.033406 302.95 303.32 5.56
1872 100.9800 1.033034 306.68 303.20 5.59
1873 101.0300 1.032663 300.23 303.08 5.52
1874 101.0800 1.032292 307.72 302.96 5.59
1875 101.1300 1.031921 299.44 302.84 5.55
1876 101.1800 1.031551 303.15 302.72 5.55
1877 101.2300 1.031182 304.68 302.61 5.54
1878 101.2800 1.030813 310.66 302.49 5.59
1879 101.3300 1.030444 300.87 302.38 5.51
1880 101.3800 1.030076 299.08 302.26 5.51
1881 101.4300 1.029708 298.70 302.15 5.48
1882 101.4800 1.029340 301.52 302.04 5.52
1883 101.5300 1.028974 298.62 301.93 5.56
1884 101.5800 1.028607 289.83 301.82 5.45
1885 101.6300 1.028241 302.21 301.71 5.55
1886 101.6800 1.027876 302.70 301.60 5.58
1887 101.7300 1.027511 296.48 301.50 5.47
1888 101.7800 1.027146 295.47 301.39 5.48
1889 101.8300 1.026782 294.96 301.29 5.45
1890 101.8800 1.026418 309.07 301.19 5.57
1891 101.9300 1.026055 301.03 301.09 5.50
1892 101.9800 1.025692 291.04 301.08 5.41
1893 102.0300 1.025330 303.38 301.10 5.55
1894 102.0800 1.024968 298.31 301.12 5.51
1895 102.1300 1.024607 291.84 301.14 5.42
1896 102.1800 1.024246 285.85 301.17 5.39
1897 102.2300 1.023885 296.91 301.19 5.51
1898 102.2800 1.023525 299.69 301.23 5.58
1899 102.3300 1.023166 303.68 301.26 5.60
1900 102.3800 1.022806 298.85 301.26 5.54
1901 102.4300 1.022448 299.39 301.30 5.57
1902 102.4800 1.022089 301.17 301.36 5.52
1903 102.5300 1.021732 309.61 301.41 5.58
1904 102.5800 1.021374 304.37 301.48 5.57
1905 102.6300 1.021017 306.84 301.56 5.56
1906 102.6800 1.020661 305.54 301.65 5.56
1907 102.7300 1.020305 316.90 301.76 5.67
1908 102.7800 1.019949 312.00 301.89 5.65
1909 102.8300 1.019594 306.84 302.04 5.59
1910 102.8800 1.019239 303.11 302.24 5.59
1911 102.9300 1.018885 308.39 302.49 5.59
1912 102.9800 1.018531 303.99 302.82 5.53
1913 103.0300 1.018178 305.91 303.28 5.58
1914 103.0800 1.017825 306.40 303.96 5.55
1915 103.1300 1.017472 302.89 305.04 5.51
1916 103.1800 1.017120 300.13 306.83 5.49
1917 103.2300 1.016768 307.30 309.78 5.55
1918 103.2800 1.016417 309.98 314.33 5.64
1919 103.3300 1.016066 315.14 320.32 5.73
1920 103.3800 1.015716 333.75 326.56 5.84
1921 103.4300 1.015366 339.37 329.73 5.88
1922 103.4800 1.015017 328.72 327.23 5.78
1923 103.5300 1.014668 316.35 321.23 5.66
1924 103.5800 1.014319 320.51 315.18 5.69
1925 103.6300 1.013971 325.45 310.56 5.72
1926 103.6800 1.013623 318.68 307.50 5.68
1927 103.7300 1.013276 312.12 305.65 5.64
1928 103.7800 1.012929 303.29 304.56 5.58
1929 103.8300 1.012582 308.28 303.91 5.56
1930 103.8800 1.012236 315.43 303.51 5.62
1931 103.9300 1.011891 302.39 303.24 5.51
1932 103.9800 1.011545 307.28 303.07 5.57
1933 104.0300 1.011201 313.12 302.95 5.65
1934 104.0800 1.010856 312.36 302.89 5.64
1935 104.1300 1.010512 299.73 302.88 5.53
1936 104.1800 1.010169 311.54 302.90 5.73
1937 104.2300 1.009826 312.30 302.95 5.76
1938 104.2800 1.009483 309.86 303.05 5.60
1939 104.3300 1.009141 296.19 303.19 5.54
1940 104.3800 1.008799 300.07 303.38 5.56
1941 104.4300 1.008458 309.86 303.64 5.66
1942 104.4800 1.008117 305.35 303.98 5.57
1943 104.5300 1.007777 304.00 304.44 5.54
1944 104.5800 1.007437 300.67 305.06 5.54
1945 104.6300 1.007097 304.75 306.01 5.55
1946 104.6800 1.006758 312.32 307.50 5.62
1947 104.7300 1.006419 304.28 309.93 5.55
1948 104.7800 1.006081 318.03 313.83 5.67
1949 104.8300 1.005743 315.85 319.68 5.63
1950 104.8800 1.005405 325.80 327.35 5.77
1951 104.9300 1.005068 334.96 335.15 5.80
1952 104.9800 1.004731 335.34 339.80 5.84
1953 105.0300 1.004395 335.48 338.36 5.87
1954 105.0800 1.004059 327.96 331.55 5.79
1955 105.1300 1.003723 318.24 323.46 5.74
1956 105.1800 1.003388 316.77 316.94 5.66
1957 105.2300 1.003054 307.14 312.55 5.57
1958 105.2800 1.002720 308.81 309.95 5.58
1959 105.3300 1.002386 308.73 308.55 5.57
1960 105.3800 1.002052 304.15 307.92 5.57
1961 105.4300 1.001719 309.15 307.77 5.64
1962 105.4800 1.001387 313.53 308.01 5.63
1963 105.5300 1.001055 307.24 308.61 5.58
1964 105.5800 1.000723 313.36 309.68 5.67
1965 105.6300 1.000391 317.86 311.49 5.67
1966 105.6800 1.000060 321.67 314.57 5.68
1967 105.7300 0.999730 328.55 319.83 5.74
1968 105.7800 0.999400 333.68 328.52 5.80
1969 105.8300 0.999070 351.48 341.68 5.98
1970 105.8800 0.998741 361.55 358.79 6.08
1971 105.9300 0.998412 378.88 374.42 6.21
1972 105.9800 0.998083 362.49 377.71 6.03
1973 106.0300 0.997755 348.10 365.76 5.91
1974 106.0800 0.997428 333.14 348.44 5.78
1975 106.1300 0.997100 333.97 333.55 5.79
1976 106.1800 0.996773 324.52 323.23 5.74
1977 106.2300 0.996447 314.40 316.90 5.62
1978 106.2800 0.996121 308.15 313.35 5.59
1979 106.3300 0.995795 314.97 311.66 5.66
1980 106.3800 0.995470 315.25 311.22 5.64
1981 106.4300 0.995145 307.94 311.66 5.58
1982 106.4800 0.994821 315.58 312.41 5.66
1983 106.5300 0.994497 311.13 312.42 5.70
1984 106.5800 0.994173 307.35 311.11 5.61
1985 106.6300 0.993850 309.20 309.20 5.64
1986 106.6800 0.993527 301.86 307.52 5.54
1987 106.7300 0.993204 303.32 306.30 5.54
1988 106.7800 0.992882 308.13 305.49 5.57
1989 106.8300 0.992561 310.11 304.98 5.60
1990 106.8800 0.992239 302.34 304.66 5.54
1991 106.9300 0.991919 304.71 304.45 5.56
1992 106.9800 0.991598 306.17 304.30 5.59
1993 107.0300 0.991278 296.37 304.21 5.47
1994 107.0800 0.990958 297.37 304.16 5.49
1995 107.1300 0.990639 304.08 304.13 5.54
1996 107.1800 0.990320 296.39 304.14 5.48
1997 107.2300 0.990002 303.64 304.16 5.56
1998 107.2800 0.989684 296.90 304.21 5.51
1999 107.3300 0.989366 302.17 304.29 5.57
2000 107.3800 0.989049 314.71 304.39 5.63
2001 107.4300 0.988732 303.51 304.52 5.53
2002 107.4800 0.988415 308.47 304.67 5.61
2003 107.5300 0.988099 304.48 304.86 5.61
2004 107.5800 0.987783 301.92 305.09 5.56
2005 107.6300 0.987468 297.49 305.36 5.51
2006 107.6800 0.987153 305.96 305.70 5.59
2007 107.7300 0.986838 306.10 306.10 5.54
2008 107.7800 0.986524 304.39 306.59 5.54
2009 107.8300 0.986210 299.73 307.19 5.52
2010 107.8800 0.985897 296.82 307.92 5.61
2011 107.9300 0.985584 299.73 308.84 5.55
2012 107.9800 0.985271 301.97 310.01 5.56
2013 108.0300 0.984959 306.31 311.53 5.56
2014 108.0800 0.984647 307.83 313.54 5.56
2015 108.1300 0.984336 315.37 316.32 5.64
2016 108.1800 0.984024 320.97 320.39 5.68
2017 108.2300 0.983714 329.62 326.76 5.82
2018 108.2800 0.983403 341.40 337.24 5.88
2019 108.3300 0.983093 357.68 354.51 5.99
2020 108.3800 0.982784 389.92 381.45 6.25
2021 108.4300 0.982475 418.34 418.21 6.49
2022 108.4800 0.982166 422.99 454.02 6.53
2023 108.5300 0.981857 433.60 463.21 6.60
2024 108.5800 0.981549 411.68 437.35 6.43
2025 108.6300 0.981242 389.26 399.15 6.26
2026 108.6800 0.980934 374.69 367.11 6.14
2027 108.7300 0.980627 358.08 345.33 6.03
2028 108.7800 0.980321 333.02 331.82 5.79
2029 108.8300 0.980015 326.51 323.69 5.74
2030 108.8800 0.979709 319.53 318.67 5.76
2031 108.9300 0.979403 317.02 315.37 5.75
2032 108.9800 0.979098 311.57 313.07 5.62
2033 109.0300 0.978794 302.62 311.39 5.55
2034 109.0800 0.978490 304.15 310.12 5.53
2035 109.1300 0.978186 300.61 309.14 5.50
2036 109.1800 0.977882 297.34 308.39 5.49
2037 109.2300 0.977579 307.71 307.79 5.59
2038 109.2800 0.977276 305.30 307.32 5.65
2039 109.3300 0.976974 309.35 306.94 5.61
2040 109.3800 0.976672 311.10 306.64 5.59
2041 109.4300 0.976370 307.92 306.41 5.56
2042 109.4800 0.976069 304.29 306.22 5.55
2043 109.5300 0.975768 306.45 306.08 5.56
2044 109.5800 0.975467 300.98 305.97 5.55
2045 109.6300 0.975167 299.63 305.90 5.53
2046 109.6800 0.974867 305.45 305.85 5.56
2047 109.7300 0.974568 308.58 305.83 5.57
2048 109.7800 0.974269 312.78 305.84 5.60
2049 109.8300 0.973970 309.51 305.88 5.59
2050 109.8800 0.973672 298.99 305.94 5.52
2051 109.9300 0.973374 294.28 306.03 5.45
2052 109.9800 0.973076 310.70 306.14 5.59
2053 110.0300 0.972779 299.33 306.29 5.50
2054 110.0800 0.972482 289.54 306.47 5.42
2055 110.1300 0.972186 293.51 306.66 5.48
2056 110.1800 0.971890 300.95 306.89 5.52
2057 110.2300 0.971594 306.31 307.18 5.59
2058 110.2800 0.971298 297.57 307.53 5.58
2059 110.3300 0.971003 299.14 307.97 5.52
2060 110.3800 0.970709 313.94 308.51 5.61
2061 110.4300 0.970414 319.07 309.19 5.70
2062 110.4800 0.970120 309.02 310.04 5.66
2063 110.5300 0.969827 298.98 311.13 5.55
2064 110.5800 0.969534 308.62 312.52 5.59
2065 110.6300 0.969241 306.46 314.38 5.62
2066 110.6800 0.968948 314.38 316.90 5.71
2067 110.7300 0.968656 309.30 320.43 5.61
2068 110.7800 0.968364 325.82 325.65 5.74
2069 110.8300 0.968073 321.57 333.83 5.76
2070 110.8800 0.967782 359.12 347.22 6.01
2071 110.9300 0.967491 391.33 369.22 6.27
2072 110.9800 0.967201 418.61 403.33 6.48
2073 111.0300 0.966911 447.67 447.55 6.70
2074 111.0800 0.966621 464.27 480.48 6.82
2075 111.1300 0.966332 449.58 471.83 6.73
2076 111.1800 0.966043 423.40 431.94 6.52
2077 111.2300 0.965755 401.96 390.86 6.35
2078 111.2800 0.965466 367.76 361.32 6.09
2079 111.3300 0.965179 350.52 342.81 5.94
2080 111.3800 0.964891 332.84 331.84 5.81
2081 111.4300 0.964604 331.39 325.48 5.82
2082 111.4800 0.964317 323.73 321.80 5.73
2083 111.5300 0.964031 322.46 319.41 5.71
2084 111.5800 0.963745 330.92 317.00 5.82
2085 111.6300 0.963459 319.78 314.41 5.66
2086 111.6800 0.963174 309.13 312.14 5.57
2087 111.7300 0.962889 315.75 310.41 5.64
2088 111.7800 0.962604 309.82 309.14 5.65
2089 111.8300 0.962320 311.16 308.19 5.68
2090 111.8800 0.962036 315.20 307.47 5.63
2091 111.9300 0.961752 310.22 306.89 5.58
2092 111.9800 0.961469 307.02 306.42 5.60
2093 112.0300 0.961186 296.39 306.04 5.50
2094 112.0800 0.960903 308.35 305.71 5.65
2095 112.1300 0.960621 312.17 305.43 5.65
2096 112.1800 0.960339 314.35 305.19 5.72
2097 112.2300 0.960058 308.70 304.98 5.59
2098 112.2800 0.959777 301.20 304.80 5.52
2099 112.3300 0.959496 308.98 304.64 5.60
2100 112.3800 0.959216 306.88 304.49 5.59
2101 112.4300 0.958935 306.00 304.37 5.59
2102 112.4800 0.958656 307.03 304.25 5.56
2103 112.5300 0.958376 303.73 304.15 5.52
2104 112.5800 0.958097 297.75 304.05 5.49
2105 112.6300 0.957818 309.03 303.97 5.61
2106 112.6800 0.957540 304.64 303.89 5.57
2107 112.7300 0.957262 312.74 303.82 5.69
2108 112.7800 0.956984 313.97 303.76 5.63
2109 112.8300 0.956707 301.95 303.70 5.55
2110 112.8800 0.956430 306.53 303.64 5.57
2111 112.9300 0.956153 303.95 303.59 5.66
2112 112.9800 0.955877 308.04 303.54 5.64
2113 113.0300 0.955601 307.01 303.51 5.57
2114 113.0800 0.955325 297.84 303.52 5.49
2115 113.1300 0.955050 304.75 303.53 5.55
2116 113.1800 0.954775 307.20 303.55 5.58
2117 113.2300 0.954500 297.12 303.57 5.52
2118 113.2800 0.954226 296.63 303.59 5.55
2119 113.3300 0.953952 295.00 303.61 5.54
2120 113.3800 0.953678 308.03 303.63 5.59
2121 113.4300 0.953405 299.31 303.66 5.56
2122 113.4800 0.953132 297.86 303.68 5.54
2123 113.5300 0.952860 302.96 303.71 5.61
2124 113.5800 0.952587 298.80 303.83 5.52
2125 113.6300 0.952315 305.78 303.86 5.57
2126 113.6800 0.952044 305.56 303.90 5.64
2127 113.7300 0.951772 301.76 303.93 5.55
2128 113.7800 0.951502 305.10 303.97 5.63
2129 113.8300 0.951231 311.17 303.92 5.64
2130 113.8800 0.950961 310.66 303.96 5.63
2131 113.9300 0.950691 309.68 304.01 5.62
2132 113.9800 0.950421 308.04 304.05 5.56
2133 114.0300 0.950152 300.59 304.08 5.51
2134 114.0800 0.949883 316.49 304.13 5.66
2135 114.1300 0.949615 319.82 304.17 5.68
2136 114.1800 0.949346 311.26 304.21 5.70
2137 114.2300 0.949078 320.11 304.26 5.70
2138 114.2800 0.948811 314.16 304.30 5.65
2139 114.3300 0.948544 314.46 304.34 5.65
2140 114.3800 0.948277 311.13 304.39 5.63
2141 114.4300 0.948010 306.21 304.43 5.56
2142 114.4800 0.947744 312.69 304.48 5.63
2143 114.5300 0.947478 307.68 304.53 5.64
2144 114.5800 0.947212 308.66 304.57 5.59
2145 114.6300 0.946947 302.35 304.62 5.56
2146 114.6800 0.946682 300.92 304.67 5.55
2147 114.7300 0.946417 314.36 304.72 5.62
2148 114.7800 0.946153 310.99 304.76 5.59
2149 114.8300 0.945889 308.78 304.81 5.62
2150 114.8800 0.945626 309.58 304.86 5.61
2151 114.9300 0.945362 304.67 304.91 5.65
2152 114.9800 0.945099 301.48 304.96 5.61
2153 115.0300 0.944837 303.39 305.01 5.54
2154 115.0800 0.944574 301.53 305.07 5.56
2155 115.1300 0.944312 305.79 305.12 5.58
2156 115.1800 0.944051 306.58 305.17 5.58
2157 115.2300 0.943789 302.71 305.22 5.58
2158 115.2800 0.943528 308.55 305.27 5.64
2159 115.3300 0.943268 307.24 305.33 5.65
2160 115.3800 0.943007 310.02 305.38 5.68
2161 115.4300 0.942747 308.77 305.44 5.57
2162 115.4800 0.942487 308.36 305.49 5.65
2163 115.5300 0.942228 307.75 305.55 5.60
2164 115.5800 0.941969 313.18 305.60 5.64
2165 115.6300 0.941710 311.85 305.66 5.65
2166 115.6800 0.941452 306.49 305.71 5.59
2167 115.7300 0.941194 314.25 305.77 5.61
2168 115.7800 0.940936 310.51 305.83 5.58
2169 115.8300 0.940678 299.04 305.96 5.48
2170 115.8800 0.940421 305.03 306.02 5.57
2171 115.9300 0.940164 308.69 306.07 5.59
2172 115.9800 0.939908 310.94 306.12 5.65
2173 116.0300 0.939651 300.63 306.17 5.55
2174 116.0800 0.939396 299.42 306.22 5.58
2175 116.1300 0.939140 299.24 306.27 5.49
2176 116.1800 0.938885 301.22 306.23 5.52
2177 116.2300 0.938630 309.37 306.28 5.61
2178 116.2800 0.938375 297.96 306.34 5.49
2179 116.3300 0.938121 301.43 306.40 5.51
2180 116.3800 0.937867 304.82 306.47 5.53
2181 116.4300 0.937613 306.59 306.54 5.57
2182 116.4800 0.937360 312.44 306.62 5.62
2183 116.5300 0.937107 303.49 306.71 5.60
2184 116.5800 0.936854 302.88 306.81 5.59
2185 116.6300 0.936602 310.97 306.95 5.61
2186 116.6800 0.936350 305.51 307.13 5.55
2187 116.7300 0.936098 316.95 307.39 5.68
2188 116.7800 0.935846 322.30 307.72 5.76
2189 116.8300 0.935595 318.15 308.03 5.69
2190 116.8800 0.935344 317.16 308.12 5.69
2191 116.9300 0.935094 312.92 307.98 5.64
2192 116.9800 0.934844 312.50 307.79 5.60
2193 117.0300 0.934594 307.40 307.65 5.58
2194 117.0800 0.934344 306.71 307.59 5.59
2195 117.1300 0.934095 307.39 307.58 5.56
2196 117.1800 0.933846 299.79 307.61 5.61
2197 117.2300 0.933597 299.92 307.66 5.59
2198 117.2800 0.933349 308.43 307.72 5.69
2199 117.3300 0.933101 305.60 307.80 5.61
2200 117.3800 0.932853 319.71 307.88 5.66
2201 117.4300 0.932606 313.42 307.98 5.68
2202 117.4800 0.932359 313.77 308.08 5.64
2203 117.5300 0.932112 314.56 308.19 5.70
2204 117.5800 0.931865 311.57 308.31 5.61
2205 117.6300 0.931619 312.47 308.44 5.63
2206 117.6800 0.931373 309.41 308.58 5.64
2207 117.7300 0.931128 309.38 308.73 5.64
2208 117.7800 0.930882 306.98 308.90 5.58
2209 117.8300 0.930637 297.23 309.08 5.48
2210 117.8800 0.930393 311.57 309.28 5.62
2211 117.9300 0.930148 309.61 309.52 5.66
2212 117.9800 0.929904 313.28 309.88 5.65
2213 118.0300 0.929661 310.10 310.27 5.66
2214 118.0800 0.929417 301.92 310.69 5.62
2215 118.1300 0.929174 309.30 311.16 5.61
2216 118.1800 0.928931 306.17 311.68 5.63
2217 118.2300 0.928689 313.01 312.29 5.63
2218 118.2800 0.928446 321.27 312.96 5.73
2219 118.3300 0.928205 311.43 313.73 5.63
2220 118.3800 0.927963 307.11 314.63 5.58
2221 118.4300 0.927722 319.40 315.70 5.70
2222 118.4800 0.927481 318.79 317.00 5.70
2223 118.5300 0.927240 313.02 318.61 5.67
2224 118.5800 0.927000 319.13 320.66 5.72
2225 118.6300 0.926759 320.61 323.33 5.68
2226 118.6800 0.926520 322.36 326.95 5.70
2227 118.7300 0.926280 329.45 332.09 5.78
2228 118.7800 0.926041 326.20 339.77 5.75
2229 118.8300 0.925802 346.80 351.67 5.91
2230 118.8800 0.925563 373.23 370.16 6.13
2231 118.9300 0.925325 400.92 397.70 6.43
2232 118.9800 0.925087 429.70 433.49 6.58
2233 119.0300 0.924849 452.53 465.06 6.75
2234 119.0800 0.924612 459.58 469.81 6.79
2235 119.1300 0.924375 456.39 445.70 6.77
2236 119.1800 0.924138 420.20 411.66 6.49
2237 119.2300 0.923901 397.64 382.05 6.32
2238 119.2800 0.923665 375.93 361.26 6.17
2239 119.3300 0.923429 358.53 348.16 6.03
2240 119.3800 0.923194 341.79 340.45 5.89
2241 119.4300 0.922958 333.63 336.17 5.83
2242 119.4800 0.922723 333.92 333.54 5.82
2243 119.5300 0.922489 325.70 330.98 5.79
2244 119.5800 0.922254 315.70 328.07 5.68
2245 119.6300 0.922020 326.49 325.31 5.78
2246 119.6800 0.921786 315.42 323.07 5.65
2247 119.7300 0.921552 319.02 321.43 5.68
2248 119.7800 0.921319 316.17 320.26 5.79
2249 119.8300 0.921086 317.27 319.45 5.80
2250 119.8800 0.920854 310.58 318.87 5.66
2251 119.9300 0.920621 314.97 318.46 5.64
2252 119.9800 0.920389 312.83 318.17 5.66
2253 120.0300 0.920157 306.31 317.97 5.56
2254 120.0800 0.919926 313.24 317.84 5.68
2255 120.1300 0.919695 316.65 317.77 5.66
2256 120.1800 0.919464 323.60 317.74 5.73
2257 120.2300 0.919233 320.71 317.75 5.71
2258 120.2800 0.919003 319.43 317.79 5.75
2259 120.3300 0.918773 307.98 317.87 5.61
2260 120.3800 0.918543 321.67 317.97 5.83
2261 120.4300 0.918313 314.12 318.00 5.68
2262 120.4800 0.918084 321.47 318.05 5.78
2263 120.5300 0.917855 320.13 318.13 5.67
2264 120.5800 0.917627 319.87 318.23 5.68
2265 120.6300 0.917398 314.96 318.36 5.64
2266 120.6800 0.917170 325.03 318.52 5.71
2267 120.7300 0.916942 317.23 318.71 5.67
2268 120.7800 0.916715 320.60 318.93 5.69
2269 120.8300 0.916488 325.08 319.19 5.73
2270 120.8800 0.916261 317.97 319.49 5.65
2271 120.9300 0.916034 316.43 319.85 5.69
2272 120.9800 0.915808 318.00 320.27 5.68
2273 121.0300 0.915582 318.43 320.76 5.68
2274 121.0800 0.915356 323.29 321.36 5.75
2275 121.1300 0.915131 324.04 322.07 5.74
2276 121.1800 0.914906 321.86 322.94 5.70
2277 121.2300 0.914681 327.36 324.02 5.74
2278 121.2800 0.914456 334.86 325.37 5.80
2279 121.3300 0.914232 329.08 327.10 5.76
2280 121.3800 0.914008 331.23 329.39 5.79
2281 121.4300 0.913784 335.26 332.52 5.81
2282 121.4800 0.913561 333.87 337.03 5.80
2283 121.5300 0.913337 340.19 343.77 5.87
2284 121.5800 0.913114 350.48 354.05 5.93
2285 121.6300 0.912892 365.63 369.57 6.06
2286 121.6800 0.912669 388.24 391.77 6.26
2287 121.7300 0.912447 405.56 419.83 6.39
2288 121.7800 0.912226 426.49 445.88 6.54
2289 121.8300 0.912004 449.83 454.83 6.72
2290 121.8800 0.911783 425.14 441.26 6.53
2291 121.9300 0.911562 415.92 415.89 6.49
2292 121.9800 0.911341 393.24 390.23 6.37
2293 122.0300 0.911121 368.21 370.01 6.13
2294 122.0800 0.910901 362.09 356.10 6.05
2295 122.1300 0.910681 354.92 347.23 5.99
2296 122.1800 0.910462 336.17 341.87 5.91
2297 122.2300 0.910242 337.50 338.81 5.86
2298 122.2800 0.910023 340.55 337.22 5.87
2299 122.3300 0.909805 341.48 336.62 5.88
2300 122.3800 0.909586 334.77 336.68 5.88
2301 122.4300 0.909368 346.22 337.19 5.92
2302 122.4800 0.909150 338.20 337.95 5.87
2303 122.5300 0.908933 329.14 338.78 5.88
2304 122.5800 0.908715 332.89 339.51 5.83
2305 122.6300 0.908498 337.56 339.93 5.92
2306 122.6800 0.908282 342.23 339.91 5.92
2307 122.7300 0.908065 340.44 339.37 5.88
2308 122.7800 0.907849 341.67 338.34 5.87
2309 122.8300 0.907633 335.12 336.92 5.81
2310 122.8800 0.907417 345.24 335.24 5.89
2311 122.9300 0.907202 328.97 333.43 5.78
2312 122.9800 0.906987 333.94 331.62 5.80
2313 123.0300 0.906772 334.68 329.89 5.88
2314 123.0800 0.906557 322.69 328.29 5.73
2315 123.1300 0.906343 326.93 326.88 5.82
2316 123.1800 0.906129 326.52 325.66 5.72
2317 123.2300 0.905915 322.84 324.63 5.71
2318 123.2800 0.905702 320.28 323.79 5.80
2319 123.3300 0.905489 324.58 323.12 5.72
2320 123.3800 0.905276 322.37 322.60 5.70
2321 123.4300 0.905063 330.48 322.26 5.77
2322 123.4800 0.904851 314.25 321.98 5.67
2323 123.5300 0.904639 316.85 321.78 5.73
2324 123.5800 0.904427 323.23 321.66 5.77
2325 123.6300 0.904215 316.75 321.60 5.67
2326 123.6800 0.904004 319.12 321.60 5.67
2327 123.7300 0.903793 317.29 321.63 5.68
2328 123.7800 0.903582 310.56 321.71 5.59
2329 123.8300 0.903372 319.69 321.83 5.66
2330 123.8800 0.903162 316.55 322.00 5.75
2331 123.9300 0.902952 317.57 322.22 5.74
2332 123.9800 0.902742 322.75 322.49 5.73
2333 124.0300 0.902533 322.79 322.84 5.70
2334 124.0800 0.902324 327.96 323.29 5.74
2335 124.1300 0.902115 321.57 323.87 5.72
2336 124.1800 0.901906 320.76 324.64 5.75
2337 124.2300 0.901698 333.21 325.69 5.79
2338 124.2800 0.901490 326.94 327.18 5.76
2339 124.3300 0.901282 317.89 329.38 5.69
2340 124.3800 0.901075 314.25 332.67 5.64
2341 124.4300 0.900867 334.86 337.56 5.80
2342 124.4800 0.900660 347.60 344.54 5.91
2343 124.5300 0.900454 345.19 353.73 5.90
2344 124.5800 0.900247 355.37 363.86 6.01
2345 124.6300 0.900041 364.79 371.05 6.08
2346 124.6800 0.899835 361.50 371.28 6.06
2347 124.7300 0.899629 367.25 364.84 6.07
2348 124.7800 0.899424 355.25 355.51 5.99
2349 124.8300 0.899219 351.28 346.43 5.98
2350 124.8800 0.899014 346.35 339.14 5.92
2351 124.9300 0.898809 345.89 333.89 5.91
2352 124.9800 0.898605 326.00 330.31 5.74
2353 125.0300 0.898401 324.96 327.92 5.74
2354 125.0800 0.898197 329.53 326.30 5.76
2355 125.1300 0.897994 325.51 325.19 5.72
2356 125.1800 0.897790 329.80 324.39 5.77
2357 125.2300 0.897587 325.59 323.79 5.72
2358 125.2800 0.897385 329.09 323.34 5.75
2359 125.3300 0.897182 325.92 322.99 5.75
2360 125.3800 0.896980 332.93 322.71 5.80
2361 125.4300 0.896778 329.45 322.49 5.84
2362 125.4800 0.896576 324.79 322.32 5.74
2363 125.5300 0.896375 330.20 322.18 5.79
2364 125.5800 0.896174 323.24 322.07 5.71
2365 125.6300 0.895973 321.15 321.98 5.78
2366 125.6800 0.895772 328.58 321.91 5.82
2367 125.7300 0.895572 327.62 321.86 5.81
2368 125.7800 0.895372 324.45 321.82 5.72
2369 125.8300 0.895172 323.41 321.79 5.74
2370 125.8800 0.894972 323.39 321.77 5.72
2371 125.9300 0.894773 331.76 321.76 5.77
2372 125.9800 0.894574 337.45 321.76 5.88
2373 126.0300 0.894375 329.72 321.77 5.83
2374 126.0800 0.894176 334.57 321.77 5.83
2375 126.1300 0.893978 328.30 321.79 5.76
2376 126.1800 0.893780 330.40 321.81 5.78
2377 126.2300 0.893582 334.37 321.83 5.82
2378 126.2800 0.893384 324.58 321.89 5.73
2379 126.3300 0.893187 324.65 321.97 5.74
2380 126.3800 0.892990 324.21 322.01 5.72
2381 126.4300 0.892793 319.78 322.05 5.70
2382 126.4800 0.892597 321.27 322.10 5.70
2383 126.5300 0.892401 324.14 322.14 5.70
2384 126.5800 0.892204 325.06 322.20 5.77
2385 126.6300 0.892009 324.79 322.26 5.80
2386 126.6800 0.891813 316.86 322.32 5.65
2387 126.7300 0.891618 323.67 322.39 5.70
2388 126.7800 0.891423 323.32 322.47 5.71
2389 126.8300 0.891228 322.90 322.56 5.71
2390 126.8800 0.891034 319.18 322.67 5.70
2391 126.9300 0.890840 321.37 322.80 5.70
2392 126.9800 0.890646 319.10 322.95 5.69
2393 127.0300 0.890452 324.64 323.13 5.74
2394 127.0800 0.890258 316.29 323.34 5.69
2395 127.1300 0.890065 320.91 323.61 5.71
2396 127.1800 0.889872 313.50 323.97 5.68
2397 127.2300 0.889680 319.72 324.46 5.66
2398 127.2800 0.889487 323.91 325.16 5.70
2399 127.3300 0.889295 317.60 326.14 5.65
2400 127.3800 0.889103 327.61 327.49 5.77
2401 127.4300 0.888911 333.58 329.24 5.79
2402 127.4800 0.888720 331.30 331.23 5.79
2403 127.5300 0.888529 332.33 332.93 5.84
2404 127.5800 0.888338 326.87 333.56 5.73
2405 127.6300 0.888147 338.74 332.86 5.84
2406 127.6800 0.887957 329.56 331.33 5.77
2407 127.7300 0.887766 324.76 329.59 5.72
2408 127.7800 0.887576 332.97 328.03 5.80
2409 127.8300 0.887387 332.22 326.83 5.80
2410 127.8800 0.887197 330.68 325.90 5.79
2411 127.9300 0.887008 328.30 325.33 5.78
2412 127.9800 0.886819 334.24 324.96 5.84
2413 128.0300 0.886631 324.90 324.73 5.76
2414 128.0800 0.886442 321.71 324.58 5.74
2415 128.1300 0.886254 333.03 324.50 5.85
2416 128.1800 0.886066 321.95 324.45 5.70
2417 128.2300 0.885878 330.70 324.43 5.81
2418 128.2800 0.885691 321.46 324.43 5.79
2419 128.3300 0.885504 319.25 324.44 5.74
2420 128.3800 0.885317 323.79 324.46 5.78
2421 128.4300 0.885130 334.43 324.49 5.82
2422 128.4800 0.884944 332.34 324.53 5.84
2423 128.5300 0.884757 315.39 324.58 5.68
2424 128.5800 0.884571 322.20 324.64 5.69
2425 128.6300 0.884386 323.54 324.70 5.74
2426 128.6800 0.884200 327.40 324.76 5.78
2427 128.7300 0.884015 327.95 324.83 5.74
2428 128.7800 0.883830 325.14 324.91 5.72
2429 128.8300 0.883645 322.61 324.99 5.70
2430 128.8800 0.883461 321.49 325.07 5.71
2431 128.9300 0.883277 320.77 325.17 5.68
2432 128.9800 0.883093 318.65 325.30 5.66
2433 129.0300 0.882909 322.28 325.44 5.71
2434 129.0800 0.882725 321.23 325.59 5.72
2435 129.1300 0.882542 321.84 325.74 5.72
2436 129.1800 0.882359 328.20 325.89 5.76
2437 129.2300 0.882176 336.24 326.05 5.81
2438 129.2800 0.881994 335.38 326.22 5.80
2439 129.3300 0.881811 332.58 326.40 5.78
2440 129.3800 0.881629 339.84 326.59 5.86
2441 129.4300 0.881448 330.24 326.78 5.82
2442 129.4800 0.881266 320.03 326.99 5.69
2443 129.5300 0.881085 324.36 327.21 5.77
2444 129.5800 0.880904 332.15 327.45 5.82
2445 129.6300 0.880723 340.61 327.71 5.84
2446 129.6800 0.880542 337.58 327.99 5.89
2447 129.7300 0.880362 332.01 328.29 5.83
2448 129.7800 0.880182 334.70 328.63 5.81
2449 129.8300 0.880002 333.71 329.01 5.80
2450 129.8800 0.879822 331.65 329.43 5.81
2451 129.9300 0.879643 327.79 329.92 5.74
2452 129.9800 0.879464 341.45 330.48 5.90
2453 130.0300 0.879285 336.92 331.13 5.82
2454 130.0800 0.879106 339.29 331.91 5.83
2455 130.1300 0.878928 336.85 332.85 5.81
2456 130.1800 0.878750 336.02 334.02 5.84
2457 130.2300 0.878572 342.75 335.53 5.94
2458 130.2800 0.878394 345.22 337.55 5.92
2459 130.3300 0.878217 339.04 340.33 5.86
2460 130.3800 0.878039 349.99 344.26 6.01
2461 130.4300 0.877862 347.75 349.86 5.93
2462 130.4800 0.877686 362.05 357.66 6.05
2463 130.5300 0.877509 372.16 368.11 6.18
2464 130.5800 0.877333 396.78 381.07 6.32
2465 130.6300 0.877157 402.28 394.87 6.37
2466 130.6800 0.876981 408.53 405.39 6.43
2467 130.7300 0.876805 413.68 407.94 6.46
2468 130.7800 0.876630 411.76 401.87 6.43
2469 130.8300 0.876455 400.31 390.71 6.34
2470 130.8800 0.876280 385.39 378.16 6.22
2471 130.9300 0.876106 383.82 366.64 6.22
2472 130.9800 0.875931 364.72 357.38 6.09
2473 131.0300 0.875757 349.25 350.53 5.99
2474 131.0800 0.875583 357.03 345.75 6.00
2475 131.1300 0.875409 356.02 342.55 5.98
2476 131.1800 0.875236 347.49 340.48 5.93
2477 131.2300 0.875063 348.78 339.28 5.92
2478 131.2800 0.874890 336.37 338.70 5.82
2479 131.3300 0.874717 331.64 338.55 5.82
2480 131.3800 0.874545 325.15 338.57 5.77
2481 131.4300 0.874372 325.68 338.45 5.75
2482 131.4800 0.874200 328.87 337.96 5.75
2483 131.5300 0.874029 330.04 337.18 5.80
2484 131.5800 0.873857 325.75 336.29 5.73
2485 131.6300 0.873686 340.67 335.44 5.85
2486 131.6800 0.873515 335.09 334.73 5.81
2487 131.7300 0.873344 323.28 334.20 5.73
2488 131.7800 0.873173 325.15 333.82 5.71
2489 131.8300 0.873003 334.30 333.57 5.84
2490 131.8800 0.872833 329.48 333.43 5.76
2491 131.9300 0.872663 322.10 333.37 5.71
2492 131.9800 0.872493 324.05 333.37 5.76
2493 132.0300 0.872323 335.39 333.43 5.86
2494 132.0800 0.872154 336.67 333.55 5.81
2495 132.1300 0.871985 341.21 333.71 5.86
2496 132.1800 0.871817 335.52 333.95 5.82
2497 132.2300 0.871648 328.44 334.26 5.78
2498 132.2800 0.871480 328.18 334.69 5.76
2499 132.3300 0.871312 328.16 335.27 5.76
2500 132.3800 0.871144 319.56 336.07 5.69
2501 132.4300 0.870976 330.06 337.16 5.80
2502 132.4800 0.870809 342.17 338.60 5.86
2503 132.5300 0.870642 342.47 340.39 5.86
2504 132.5800 0.870475 338.29 342.41 5.86
2505 132.6300 0.870308 341.21 344.30 5.89
2506 132.6800 0.870142 345.06 345.61 5.89
2507 132.7300 0.869975 355.71 346.11 5.98
2508 132.7800 0.869809 360.94 345.75 6.08
2509 132.8300 0.869644 359.01 344.64 6.04
2510 132.8800 0.869478 346.27 343.15 5.92
2511 132.9300 0.869313 333.49 341.65 5.84
2512 132.9800 0.869148 336.08 340.38 5.83
2513 133.0300 0.868983 335.16 339.49 5.83
2514 133.0800 0.868818 331.99 338.88 5.80
2515 133.1300 0.868654 327.19 338.57 5.79
2516 133.1800 0.868489 324.98 338.51 5.73
2517 133.2300 0.868326 334.15 338.66 5.89
2518 133.2800 0.868162 345.11 338.98 5.92
2519 133.3300 0.867998 341.31 339.48 5.86
2520 133.3800 0.867835 344.48 340.17 5.91
2521 133.4300 0.867672 337.14 341.06 5.93
2522 133.4800 0.867509 339.98 342.23 5.85
2523 133.5300 0.867347 346.44 343.78 5.92
2524 133.5800 0.867184 342.50 345.87 5.92
2525 133.6300 0.867022 342.72 348.76 5.90
2526 133.6800 0.866860 351.36 352.82 5.97
2527 133.7300 0.866698 351.73 358.49 5.94
2528 133.7800 0.866537 367.67 366.29 6.11
2529 133.8300 0.866376 380.81 376.63 6.22
2530 133.8800 0.866215 388.67 389.43 6.25
2531 133.9300 0.866054 404.32 403.42 6.38
2532 133.9800 0.865893 410.87 415.13 6.42
2533 134.0300 0.865733 412.34 420.03 6.43
2534 134.0800 0.865573 424.92 416.31 6.53
2535 134.1300 0.865413 413.41 406.50 6.45
2536 134.1800 0.865253 391.58 394.20 6.28
2537 134.2300 0.865094 383.23 381.93 6.22
2538 134.2800 0.864935 377.33 371.26 6.18
2539 134.3300 0.864776 369.61 362.85 6.10
2540 134.3800 0.864617 358.66 356.62 6.01
2541 134.4300 0.864458 353.49 352.20 6.02
2542 134.4800 0.864300 351.33 349.16 5.94
2543 134.5300 0.864142 347.15 347.11 5.90
2544 134.5800 0.863984 342.25 345.81 5.86
2545 134.6300 0.863826 338.17 345.03 5.82
2546 134.6800 0.863669 345.57 344.60 5.89
2547 134.7300 0.863512 347.30 344.30 5.91
2548 134.7800 0.863355 344.42 343.91 5.90
2549 134.8300 0.863198 340.58 343.30 5.91
2550 134.8800 0.863041 350.41 342.56 5.93
2551 134.9300 0.862885 346.98 341.79 5.91
2552 134.9800 0.862729 348.64 341.07 6.01
2553 135.0300 0.862573 348.25 340.45 5.96
2554 135.0800 0.862417 339.89 339.95 5.85
2555 135.1300 0.862262 345.10 339.57 5.89
2556 135.1800 0.862107 339.42 339.28 5.85
2557 135.2300 0.861952 341.05 339.07 5.87
2558 135.2800 0.861797 340.03 338.92 5.87
2559 135.3300 0.861642 335.08 338.80 5.85
2560 135.3800 0.861488 338.43 338.72 5.87
2561 135.4300 0.861334 337.31 338.66 5.86
2562 135.4800 0.861180 340.60 338.62 5.91
2563 135.5300 0.861026 332.27 338.59 5.78
2564 135.5800 0.860873 339.26 338.58 5.83
2565 135.6300 0.860720 346.88 338.58 5.91
2566 135.6800 0.860566 348.95 338.59 5.96
2567 135.7300 0.860414 345.76 338.60 5.94
2568 135.7800 0.860261 330.42 338.62 5.84
2569 135.8300 0.860109 330.75 338.65 5.80
2570 135.8800 0.859957 333.69 338.68 5.79
2571 135.9300 0.859805 333.09 338.72 5.79
2572 135.9800 0.859653 332.72 338.76 5.84
2573 136.0300 0.859501 323.90 338.80 5.70
2574 136.0800 0.859350 335.46 338.85 5.83
2575 136.1300 0.859199 331.92 338.90 5.80
2576 136.1800 0.859048 342.26 338.95 5.86
2577 136.2300 0.858897 342.01 339.01 5.86
2578 136.2800 0.858747 342.39 339.06 5.90
2579 136.3300 0.858597 337.30 339.12 6.00
2580 136.3800 0.858447 341.74 339.18 5.91
2581 136.4300 0.858297 349.32 339.24 5.94
2582 136.4800 0.858147 347.23 339.30 5.91
2583 136.5300 0.857998 331.07 339.37 5.80
2584 136.5800 0.857849 334.84 339.50 5.82
2585 136.6300 0.857700 331.73 339.57 5.86
2586 136.6800 0.857551 331.25 339.64 5.80
2587 136.7300 0.857403 333.69 339.71 5.79
2588 136.7800 0.857255 341.62 339.78 5.86
2589 136.8300 0.857106 354.18 339.85 5.98
2590 136.8800 0.856959 340.37 339.92 5.88
2591 136.9300 0.856811 342.10 339.99 5.88
2592 136.9800 0.856664 333.50 340.07 5.84
2593 137.0300 0.856516 333.61 340.14 5.81
2594 137.0800 0.856369 339.68 340.21 5.87
2595 137.1300 0.856223 340.33 340.29 5.89
2596 137.1800 0.856076 340.92 340.36 5.88
2597 137.2300 0.855930 351.20 340.44 5.97
2598 137.2800 0.855784 342.22 340.52 5.90
2599 137.3300 0.855638 341.29 340.59 5.96
2600 137.3800 0.855492 339.42 340.67 5.89
2601 137.4300 0.855346 345.61 340.75 5.91
2602 137.4800 0.855201 342.35 340.83 5.88
2603 137.5300 0.855056 339.40 340.91 5.87
2604 137.5800 0.854911 342.64 340.99 5.90
2605 137.6300 0.854766 347.45 341.07 5.92
2606 137.6800 0.854622 355.21 341.15 5.99
2607 137.7300 0.854478 340.30 341.23 5.89
2608 137.7800 0.854334 336.33 341.31 5.89
2609 137.8300 0.854190 340.45 341.39 5.92
2610 137.8800 0.854046 349.72 341.48 5.94
2611 137.9300 0.853903 351.47 341.56 6.01
2612 137.9800 0.853760 340.96 341.64 5.89
2613 138.0300 0.853617 338.46 341.73 5.85
2614 138.0800 0.853474 342.42 341.81 5.89
2615 138.1300 0.853332 334.35 341.86 5.80
2616 138.1800 0.853189 340.65 341.94 5.91
2617 138.2300 0.853047 337.75 342.03 5.84
2618 138.2800 0.852905 341.16 342.17 5.85
2619 138.3300 0.852763 335.22 342.26 5.80
2620 138.3800 0.852622 343.37 342.35 5.90
2621 138.4300 0.852481 340.18 342.44 5.96
2622 138.4800 0.852340 337.21 342.53 5.88
2623 138.5300 0.852199 337.48 342.62 5.88
2624 138.5800 0.852058 328.37 342.72 5.78
2625 138.6300 0.851918 340.67 342.81 5.87
2626 138.6800 0.851777 338.91 342.91 5.91
2627 138.7300 0.851637 339.22 343.01 5.87
2628 138.7800 0.851497 346.21 343.11 5.93
2629 138.8300 0.851358 339.00 343.21 5.85
2630 138.8800 0.851218 342.11 343.31 5.97
2631 138.9300 0.851079 344.71 343.42 5.97
2632 138.9800 0.850940 341.93 343.53 5.90
2633 139.0300 0.850801 349.08 343.64 5.93
2634 139.0800 0.850663 350.13 343.79 5.96
2635 139.1300 0.850524 348.77 343.90 5.93
2636 139.1800 0.850386 349.73 344.02 5.96
2637 139.2300 0.850248 340.69 344.14 5.93
2638 139.2800 0.850111 345.97 344.26 5.90
2639 139.3300 0.849973 344.36 344.39 5.88
2640 139.3800 0.849836 339.26 344.52 5.85
2641 139.4300 0.849699 344.78 344.65 5.94
2642 139.4800 0.849562 341.48 344.80 5.85
2643 139.5300 0.849425 340.45 344.94 5.85
2644 139.5800 0.849288 346.81 345.05 5.93
2645 139.6300 0.849152 343.79 345.18 5.97
2646 139.6800 0.849016 349.10 345.32 5.93
2647 139.7300 0.848880 354.87 345.46 6.03
2648 139.7800 0.848744 351.28 345.62 5.99
2649 139.8300 0.848609 354.27 345.78 6.00
2650 139.8800 0.848473 345.20 345.96 5.90
2651 139.9300 0.848338 339.44 346.16 5.88
2652 139.9800 0.848204 347.52 346.38 5.96
2653 140.0300 0.848069 346.98 346.61 5.93
2654 140.0800 0.847934 348.83 346.87 5.94
2655 140.1300 0.847800 360.76 347.16 6.03
2656 140.1800 0.847666 346.20 347.49 5.89
2657 140.2300 0.847532 346.19 347.85 5.91
2658 140.2800 0.847399 343.20 348.26 5.91
2659 140.3300 0.847265 343.93 348.73 5.97
2660 140.3800 0.847132 354.86 349.27 6.01
2661 140.4300 0.846999 344.30 349.90 5.89
2662 140.4800 0.846866 350.42 350.63 5.94
2663 140.5300 0.846733 355.22 351.51 6.08
2664 140.5800 0.846601 346.02 352.55 6.09
2665 140.6300 0.846469 350.91 353.83 5.96
2666 140.6800 0.846337 355.29 355.41 6.08
2667 140.7300 0.846205 351.12 357.41 5.97
2668 140.7800 0.846073 356.89 359.98 6.01
2669 140.8300 0.845942 358.36 363.37 6.14
2670 140.8800 0.845810 367.78 367.88 6.12
2671 140.9300 0.845680 356.70 373.94 6.07
2672 140.9800 0.845549 378.13 382.02 6.18
2673 141.0300 0.845418 386.68 392.60 6.25
2674 141.0800 0.845288 392.36 405.79 6.28
2675 141.1300 0.845157 407.10 420.70 6.40
2676 141.1800 0.845027 427.11 434.52 6.57
2677 141.2300 0.844898 443.57 442.74 6.70
2678 141.2800 0.844768 434.88 442.25 6.62
2679 141.3300 0.844639 434.82 434.33 6.64
2680 141.3800 0.844509 441.46 422.78 6.68
2681 141.4300 0.844380 420.96 410.31 6.52
2682 141.4800 0.844252 412.55 398.29 6.45
2683 141.5300 0.844123 393.23 387.69 6.32
2684 141.5800 0.843994 386.36 379.11 6.28
2685 141.6300 0.843866 382.44 372.55 6.25
2686 141.6800 0.843738 375.78 367.73 6.16
2687 141.7300 0.843610 369.23 364.29 6.14
2688 141.7800 0.843483 354.05 361.89 5.98
2689 141.8300 0.843355 363.53 360.17 6.05
2690 141.8800 0.843228 356.01 358.91 5.99
2691 141.9300 0.843101 346.10 357.76 5.98
2692 141.9800 0.842974 341.39 356.58 5.89
2693 142.0300 0.842848 351.19 355.38 5.99
2694 142.0800 0.842721 352.33 354.26 6.03
2695 142.1300 0.842595 352.62 353.25 6.09
2696 142.1800 0.842469 348.36 352.36 5.98
2697 142.2300 0.842343 357.02 351.61 6.06
2698 142.2800 0.842218 335.06 350.99 5.84
2699 142.3300 0.842092 341.37 350.50 5.86
2700 142.3800 0.841967 359.67 350.11 6.02
2701 142.4300 0.841842 341.28 349.79 5.89
2702 142.4800 0.841717 343.19 349.54 5.93
2703 142.5300 0.841592 353.27 349.33 6.00
2704 142.5800 0.841468 349.76 349.17 5.96
2705 142.6300 0.841344 346.19 349.04 5.96
2706 142.6800 0.841220 336.19 348.94 5.93
2707 142.7300 0.841096 342.54 348.87 6.05
2708 142.7800 0.840972 337.76 348.81 5.90
2709 142.8300 0.840849 336.96 348.78 5.92
2710 142.8800 0.840725 348.07 348.76 5.94
2711 142.9300 0.840602 344.21 348.76 5.90
2712 142.9800 0.840479 343.54 348.83 5.88
2713 143.0300 0.840357 353.52 348.91 5.96
2714 143.0800 0.840234 346.10 349.01 5.90
2715 143.1300 0.840112 345.49 349.11 5.91
2716 143.1800 0.839990 345.34 349.23 5.92
2717 143.2300 0.839868 343.81 349.36 5.88
2718 143.2800 0.839746 340.69 349.51 5.92
2719 143.3300 0.839625 350.71 349.66 6.06
2720 143.3800 0.839503 351.02 349.83 5.96
2721 143.4300 0.839382 348.52 350.01 5.97
2722 143.4800 0.839261 342.09 350.21 5.90
2723 143.5300 0.839141 358.45 350.41 6.05
2724 143.5800 0.839020 360.39 350.64 6.02
2725 143.6300 0.838900 360.71 350.87 6.06
2726 143.6800 0.838780 344.42 351.13 5.93
2727 143.7300 0.838660 354.14 351.40 5.98
2728 143.7800 0.838540 340.63 351.70 5.89
2729 143.8300 0.838420 342.79 352.01 5.92
2730 143.8800 0.838301 353.72 352.35 5.99
2731 143.9300 0.838182 358.25 352.72 6.00
2732 143.9800 0.838063 356.83 353.12 5.99
2733 144.0300 0.837944 354.90 353.55 5.99
2734 144.0800 0.837826 351.54 354.02 5.95
2735 144.1300 0.837707 356.47 354.54 6.05
2736 144.1800 0.837589 360.42 355.10 6.10
2737 144.2300 0.837471 365.88 355.73 6.12
2738 144.2800 0.837353 358.32 356.43 6.00
2739 144.3300 0.837235 365.25 357.21 6.06
2740 144.3800 0.837118 354.57 358.08 6.00
2741 144.4300 0.837001 358.28 359.08 6.09
2742 144.4800 0.836884 353.02 360.22 5.99
2743 144.5300 0.836767 352.90 361.54 5.97
2744 144.5800 0.836650 355.46 363.08 6.02
2745 144.6300 0.836534 359.49 364.89 6.02
2746 144.6800 0.836417 358.85 367.07 6.01
2747 144.7300 0.836301 357.71 369.71 5.99
2748 144.7800 0.836185 353.91 372.95 5.97
2749 144.8300 0.836070 365.86 377.01 6.06
2750 144.8800 0.835954 367.24 382.15 6.15
2751 144.9300 0.835839 383.71 388.72 6.25
2752 144.9800 0.835724 393.94 397.16 6.34
2753 145.0300 0.835609 390.18 407.95 6.28
2754 145.0800 0.835494 415.35 421.45 6.48
2755 145.1300 0.835379 431.33 437.50 6.60
2756 145.1800 0.835265 450.21 454.66 6.72
2757 145.2300 0.835151 465.05 469.70 6.83
2758 145.2800 0.835037 480.72 478.70 6.95
2759 145.3300 0.834923 480.09 479.96 7.00
2760 145.3800 0.834809 481.99 475.62 6.98
2761 145.4300 0.834696 477.77 469.26 6.95
2762 145.4800 0.834583 477.14 462.95 6.99
2763 145.5300 0.834470 463.92 457.41 6.83
2764 145.5800 0.834357 446.38 453.17 6.70
2765 145.6300 0.834244 444.00 450.70 6.67
2766 145.6800 0.834132 444.66 450.01 6.72
2767 145.7300 0.834019 446.80 450.74 6.72
2768 145.7800 0.833907 445.46 452.37 6.78
2769 145.8300 0.833795 451.47 454.31 6.78
2770 145.8800 0.833684 448.11 456.03 6.72
2771 145.9300 0.833572 452.35 457.09 6.75
2772 145.9800 0.833461 458.73 457.16 6.79
2773 146.0300 0.833350 457.26 456.00 6.78
2774 146.0800 0.833239 462.79 453.50 6.82
2775 146.1300 0.833128 452.08 449.65 6.74
2776 146.1800 0.833017 447.96 444.59 6.70
2777 146.2300 0.832907 442.81 438.62 6.66
2778 146.2800 0.832797 439.51 432.09 6.64
2779 146.3300 0.832687 425.64 425.31 6.53
2780 146.3800 0.832577 410.79 418.50 6.43
2781 146.4300 0.832467 413.93 411.86 6.46
2782 146.4800 0.832358 406.86 405.55 6.40
2783 146.5300 0.832248 395.97 399.66 6.31
2784 146.5800 0.832139 389.20 394.25 6.29
2785 146.6300 0.832030 388.87 389.36 6.31
2786 146.6800 0.831922 386.19 384.98 6.23
2787 146.7300 0.831813 385.45 381.11 6.23
2788 146.7800 0.831705 384.17 377.71 6.22
2789 146.8300 0.831597 393.07 374.77 6.30
2790 146.8800 0.831489 377.03 372.23 6.20
2791 146.9300 0.831381 379.86 370.07 6.22
2792 146.9800 0.831273 360.85 368.23 6.07
2793 147.0300 0.831166 372.80 366.68 6.16
2794 147.0800 0.831059 368.07 365.37 6.12
2795 147.1300 0.830952 362.77 364.28 6.08
2796 147.1800 0.830845 353.84 363.36 6.05
2797 147.2300 0.830738 360.83 362.60 6.02
2798 147.2800 0.830632 361.84 361.96 6.03
2799 147.3300 0.830525 367.38 361.43 6.07
2800 147.3800 0.830419 369.05 360.98 6.10
2801 147.4300 0.830313 365.40 360.61 6.13
2802 147.4800 0.830207 369.81 360.30 6.13
2803 147.5300 0.830102 353.41 360.04 5.97
2804 147.5800 0.829997 356.16 359.83 5.98
2805 147.6300 0.829891 357.93 359.65 6.00
2806 147.6800 0.829786 363.28 359.51 6.09
2807 147.7300 0.829682 358.95 359.40 6.01
2808 147.7800 0.829577 365.92 359.31 6.06
2809 147.8300 0.829472 362.86 359.26 6.04
2810 147.8800 0.829368 366.16 359.22 6.06
2811 147.9300 0.829264 364.30 359.21 6.05
2812 147.9800 0.829160 367.18 359.22 6.07
2813 148.0300 0.829056 367.26 359.26 6.09
2814 148.0800 0.828953 355.38 359.31 6.09
2815 148.1300 0.828850 367.97 359.39 6.15
2816 148.1800 0.828746 350.72 359.52 6.05
2817 148.2300 0.828643 357.03 359.69 6.11
2818 148.2800 0.828541 363.59 359.89 6.16
2819 148.3300 0.828438 371.00 360.11 6.23
2820 148.3800 0.828336 369.03 360.36 6.23
2821 148.4300 0.828233 371.87 360.63 6.30
2822 148.4800 0.828131 358.47 360.94 6.24
2823 148.5300 0.828029 374.80 361.29 6.36
2824 148.5800 0.827928 359.53 361.67 6.30
2825 148.6300 0.827826 363.19 362.10 6.38
2826 148.6800 0.827725 354.80 362.58 6.33
2827 148.7300 0.827624 358.73 363.13 6.35
2828 148.7800 0.827523 364.08 363.74 6.38
2829 148.8300 0.827422 366.09 364.44 6.39
2830 148.8800 0.827321 364.69 365.24 6.42
2831 148.9300 0.827221 359.60 366.17 6.34
2832 148.9800 0.827121 365.17 367.26 6.39
2833 149.0300 0.827021 368.09 368.55 6.41
2834 149.0800 0.826921 369.18 370.11 6.41
2835 149.1300 0.826821 371.25 372.03 6.44
2836 149.1800 0.826721 379.07 374.39 6.50
2837 149.2300 0.826622 368.48 377.32 6.43
2838 149.2800 0.826523 371.96 380.98 6.47
2839 149.3300 0.826424 376.47 385.51 6.54
2840 149.3800 0.826325 388.54 391.08 6.69
2841 149.4300 0.826227 394.72 397.82 6.74
2842 149.4800 0.826128 406.25 405.78 6.84
2843 149.5300 0.826030 419.30 414.87 6.98
2844 149.5800 0.825932 418.20 424.61 7.01
2845 149.6300 0.825834 434.14 434.27 7.15
2846 149.6800 0.825736 445.00 442.48 7.28
2847 149.7300 0.825639 462.36 447.73 7.47
2848 149.7800 0.825541 463.13 449.01 7.49
2849 149.8300 0.825444 451.72 446.37 7.47
2850 149.8800 0.825347 447.96 440.77 7.50
2851 149.9300 0.825250 433.58 433.48 7.38
2852 149.9800 0.825154 440.50 425.44 7.43
2853 150.0300 0.825057 431.45 417.23 7.35
2854 150.0800 0.824961 425.42 409.30 7.30
2855 150.1300 0.824865 421.28 401.99 7.27
2856 150.1800 0.824769 412.67 395.58 7.20
2857 150.2300 0.824673 399.72 390.16 7.13
2858 150.2800 0.824578 391.96 385.70 7.03
2859 150.3300 0.824482 387.58 382.10 6.98
2860 150.3800 0.824387 388.07 379.23 6.97
2861 150.4300 0.824292 385.13 376.96 6.95
2862 150.4800 0.824197 384.21 375.18 6.98
2863 150.5300 0.824103 377.53 373.77 6.97
2864 150.5800 0.824008 373.88 372.67 6.92
2865 150.6300 0.823914 365.70 371.80 6.86
2866 150.6800 0.823820 364.24 371.11 6.93
2867 150.7300 0.823726 387.46 370.57 7.14
2868 150.7800 0.823632 372.57 370.14 7.00
2869 150.8300 0.823538 366.08 369.81 6.97
2870 150.8800 0.823445 371.31 369.55 7.10
2871 150.9300 0.823352 375.44 369.36 7.17
2872 150.9800 0.823259 368.44 369.23 7.08
2873 151.0300 0.823166 363.52 369.15 7.08
2874 151.0800 0.823073 372.57 369.11 7.23
2875 151.1300 0.822981 382.12 369.11 7.42
2876 151.1800 0.822888 382.60 369.15 7.41
2877 151.2300 0.822796 374.46 369.21 7.32
2878 151.2800 0.822704 368.69 369.47 7.27
2879 151.3300 0.822612 366.88 369.76 7.26
2880 151.3800 0.822521 364.05 370.07 7.27
2881 151.4300 0.822429 365.20 370.42 7.29
2882 151.4800 0.822338 372.83 370.80 7.31
2883 151.5300 0.822247 375.12 371.20 7.36
2884 151.5800 0.822156 376.76 371.65 7.36
2885 151.6300 0.822065 368.71 372.14 7.28
2886 151.6800 0.821975 384.89 372.67 7.46
2887 151.7300 0.821884 385.98 373.26 7.52
2888 151.7800 0.821794 387.52 373.92 7.58
2889 151.8300 0.821704 388.64 374.65 7.57
2890 151.8800 0.821614 376.83 375.49 7.47
2891 151.9300 0.821524 384.45 376.44 7.60
2892 151.9800 0.821435 384.32 377.52 7.61
2893 152.0300 0.821345 380.35 378.77 7.60
2894 152.0800 0.821256 375.53 380.20 7.59
2895 152.1300 0.821167 387.73 381.83 7.74
2896 152.1800 0.821079 387.19 383.67 7.78
2897 152.2300 0.820990 380.43 385.71 7.76
2898 152.2800 0.820901 380.69 387.93 7.83
2899 152.3300 0.820813 387.80 390.27 7.96
2900 152.3800 0.820725 386.49 392.63 8.03
2901 152.4300 0.820637 383.20 394.91 8.01
2902 152.4800 0.820549 385.39 397.01 8.03
2903 152.5300 0.820462 403.05 398.81 8.21
2904 152.5800 0.820374 406.03 400.24 8.27
2905 152.6300 0.820287 393.21 401.23 8.12
2906 152.6800 0.820200 404.06 401.70 8.23
2907 152.7300 0.820113 401.82 401.62 8.21
2908 152.7800 0.820026 409.37 401.04 8.27
2909 152.8300 0.819940 396.74 400.05 8.15
2910 152.8800 0.819853 407.66 398.80 8.29
2911 152.9300 0.819767 397.72 397.42 8.21
2912 152.9800 0.819681 398.37 396.02 8.25
2913 153.0300 0.819595 384.89 394.67 8.18
2914 153.0800 0.819510 398.67 393.43 8.32
2915 153.1300 0.819424 408.05 392.35 8.46
2916 153.1800 0.819339 384.72 391.46 8.25
2917 153.2300 0.819254 389.70 390.75 8.35
2918 153.2800 0.819169 392.14 390.24 8.40
2919 153.3300 0.819084 397.98 389.92 8.50
2920 153.3800 0.818999 387.73 389.76 8.43
2921 153.4300 0.818915 390.76 389.75 8.51
2922 153.4800 0.818831 385.78 389.88 8.52
2923 153.5300 0.818747 389.45 390.12 8.62
2924 153.5800 0.818663 386.70 390.47 8.70
2925 153.6300 0.818579 380.07 390.92 8.74
2926 153.6800 0.818495 397.62 391.45 8.93
2927 153.7300 0.818412 396.73 392.43 8.92
2928 153.7800 0.818329 407.38 393.59 9.04
2929 153.8300 0.818246 403.86 394.84 9.02
2930 153.8800 0.818163 384.35 396.21 8.78
2931 153.9300 0.818080 392.03 397.70 8.86
2932 153.9800 0.817997 394.23 399.35 8.89
2933 154.0300 0.817915 386.40 401.17 8.80
2934 154.0800 0.817833 397.55 403.21 8.97
2935 154.1300 0.817751 398.95 405.51 9.00
2936 154.1800 0.817669 391.40 408.05 8.97
2937 154.2300 0.817587 406.34 411.01 9.17
2938 154.2800 0.817506 405.64 414.38 9.22
2939 154.3300 0.817424 419.14 418.22 9.40
2940 154.3800 0.817343 409.88 422.56 9.36
2941 154.4300 0.817262 416.39 427.45 9.49
2942 154.4800 0.817181 437.78 432.90 9.77
2943 154.5300 0.817101 446.86 438.89 9.91
2944 154.5800 0.817020 456.03 445.37 10.09
2945 154.6300 0.816940 446.57 452.20 10.02
2946 154.6800 0.816860 440.07 459.17 10.04
2947 154.7300 0.816780 469.48 465.94 10.44
2948 154.7800 0.816700 469.76 472.10 10.53
2949 154.8300 0.816620 462.41 477.17 10.60
2950 154.8800 0.816541 460.83 480.73 10.75
2951 154.9300 0.816462 473.93 482.51 10.89
2952 154.9800 0.816382 474.80 482.51 10.90
2953 155.0300 0.816303 472.47 480.94 10.88
2954 155.0800 0.816225 481.16 478.14 10.97
2955 155.1300 0.816146 473.90 474.49 10.88
2956 155.1800 0.816068 480.74 470.33 10.97
2957 155.2300 0.815989 472.81 465.90 10.89
2958 155.2800 0.815911 462.46 461.43 10.79
2959 155.3300 0.815833 472.03 457.11 10.97
2960 155.3800 0.815755 458.64 453.07 10.87
2961 155.4300 0.815678 432.91 449.44 10.63
2962 155.4800 0.815601 438.84 446.28 10.77
2963 155.5300 0.815523 449.69 443.61 10.94
2964 155.5800 0.815446 446.17 441.44 11.02
2965 155.6300 0.815369 448.25 439.72 11.12
2966 155.6800 0.815293 444.25 438.41 11.13
2967 155.7300 0.815216 447.87 437.45 11.25
2968 155.7800 0.815140 423.46 436.80 10.99
2969 155.8300 0.815063 434.31 436.39 11.20
2970 155.8800 0.814987 425.73 436.19 11.20
2971 155.9300 0.814911 414.71 436.15 11.14
2972 155.9800 0.814836 427.19 436.24 11.41
2973 156.0300 0.814760 436.46 436.44 11.65
2974 156.0800 0.814685 423.04 436.74 11.61
2975 156.1300 0.814610 423.91 437.12 11.88
2976 156.1800 0.814535 429.42 437.56 11.97
2977 156.2300 0.814460 433.69 438.07 12.02
2978 156.2800 0.814385 418.31 438.63 11.80
2979 156.3300 0.814310 433.09 439.24 12.02
loop_
_pd_proc_info_excluded_regions
'from 0.10 to 7.50\%: steep noisy onset'
'from 156.50 to 160.06\%: cut-off reflection'
loop_
_jana_atom_site_adp_c_label
_jana_atom_site_adp_c_type_symbol
_jana_atom_site_adp_c_111
_jana_atom_site_adp_c_112
_jana_atom_site_adp_c_113
_jana_atom_site_adp_c_122
_jana_atom_site_adp_c_123
_jana_atom_site_adp_c_133
_jana_atom_site_adp_c_222
_jana_atom_site_adp_c_223
_jana_atom_site_adp_c_233
_jana_atom_site_adp_c_333
Na1 Na 1.3(2) 0.65(10) 0 -0.65(10) 0 0 -1.3(2) 0 0 0.0016(5)
