#------------------------------------------------------------------------------
#$Date: 2019-09-04 06:26:17 +0300 (Wed, 04 Sep 2019) $
#$Revision: 217956 $
#$URL: file:///home/coder/svn-repositories/cod/cif/7/23/36/7233626.cif $
#------------------------------------------------------------------------------
#
# This file is available in the Crystallography Open Database (COD),
# http://www.crystallography.net/
#
# All data on this site have been placed in the public domain by the
# contributors.
#
data_7233626
loop_
_publ_author_name
'Wiedemann, Dennis'
'Suard, Emmanuelle'
'Lerch, Martin'
_publ_section_title
;
 Structural complexities and sodium-ion diffusion in the intercalates
 NaxTiS2: move it, change it, re-diffract it
;
_journal_issue                   48
_journal_name_full               'RSC Advances'
_journal_page_first              27780
_journal_paper_doi               10.1039/C9RA05690D
_journal_volume                  9
_journal_year                    2019
_chemical_compound_source        synthetic
_chemical_formula_iupac          'Na0.5 Ti S2'
_chemical_formula_sum            'Na0.5 S2 Ti'
_chemical_formula_weight         123.5
_chemical_name_systematic
;
sodium titanium disulfide, sodium deficient
;
_space_group_IT_number           166
_space_group_name_Hall           '-R 3 2"'
_space_group_name_H-M_alt        'R -3 m :H'
_symmetry_cell_setting           trigonal
_symmetry_Int_Tables_number      166
_symmetry_space_group_name_Hall  '-R 3 2"'
_symmetry_space_group_name_H-M   'R -3 m :H'
_audit_update_record
;
2019-07-22 deposited with the CCDC.    2019-08-26 downloaded from the CCDC.
;
_cell_angle_alpha                90
_cell_angle_beta                 90
_cell_angle_gamma                120
_cell_formula_units_Z            3
_cell_length_a                   3.45878(5)
_cell_length_b                   3.45878(5)
_cell_length_c                   21.2010(5)
_cell_measurement_temperature    573.15
_cell_volume                     219.651(7)
_computing_cell_refinement       'JANA2006 (Pet\<r\'i\<cek et al., 2014)'
_computing_data_collection       'NOMAD 3.0.16 (Institut Laue-Langevin, 2016)'
_computing_data_reduction        'Lamp 8.5 (Richard et al., 1996)'
_computing_molecular_graphics    'Diamond 4.5 (Brandenbrug, 2019)'
_computing_publication_material  'JANA2006 (Pet\<r\'i\<cek et al., 2014)'
_computing_structure_refinement  'JANA2006 (Pet\<r\'i\<cek et al., 2014)'
_diffrn_ambient_environment      vacuum
_diffrn_ambient_temperature      573.15
_diffrn_detector                 '^3^He counter'
_diffrn_detector_details
;
array of 128 counting tubes (Suard & Hewat, 2001)
;
_diffrn_measurement_device       'two-axis diffractometer'
_diffrn_measurement_device_details 'Hewat (1986)'
_diffrn_measurement_device_type  D2B
_diffrn_measurement_method       'profile data from 2\q scans'
_diffrn_radiation_monochromator  'Ge 335'
_diffrn_radiation_probe          neutron
_diffrn_radiation_type           neutron
_diffrn_radiation_wavelength     1.594
_diffrn_source                   'nuclear reactor'
_diffrn_source_type              'ILL, beam tube H11'
_exptl_absorpt_coefficient_mu    0.014
_exptl_absorpt_correction_type   cylinder
_exptl_absorpt_process_details
;
correction for a cylindrical sample with \mR = 0.042 as implemented in
 JANA2006 (Pet\<r\'i\<cek et al., 2014)
;
_exptl_crystal_density_diffrn    2.8008
_exptl_crystal_density_method    'not measured'
_exptl_crystal_F_000             37.799
_pd_calc_method                  'Rietveld refinement'
_pd_char_atten_coef_mu_calc      0.008
_pd_char_colour                  grey-black
_pd_instr_2theta_monochr_pre     135
_pd_instr_beam_size_ax           50
_pd_instr_beam_size_eq           20
_pd_instr_dist_src/mono          3000
_pd_instr_geometry               Debye-Scherrer
_pd_instr_location
;
D2B, high-resolution two-axis diffractometer, Institut Laue-Langevin
 (Grenoble, France)
;
_pd_instr_monochr_pre_spec       'Ge 335'
_pd_instr_slit_ax_mono/spec      2985
_pd_instr_slit_eq_mono/spec      500
_pd_instr_soller_eq_spec/detc    0.083333
_pd_instr_soller_eq_src/mono     0.166667
_pd_meas_2theta_range_inc        0.05
_pd_meas_2theta_range_max        159.950
_pd_meas_2theta_range_min        0.050
_pd_meas_number_of_points        3199
_pd_meas_scan_method             step
_pd_proc_2theta_range_inc        0.05
_pd_proc_2theta_range_max        159.45
_pd_proc_2theta_range_min        7.55
_pd_proc_ls_background_function
;
manual background (visual estimation, unrefined) interpolated by 10 Legendre
 polynomials [1st: 0.1(2), 2nd: -0.9(4), 3rd: -1.0(5), 4th: -0.7(6),
 5th: -2.0(7), 6th: 2.3(7), 7th: 2.5(8), 8th: 2.8(8), 9th: 4.1(8),
 10th: 4.5(8)]
;
_pd_proc_ls_pref_orient_corr     none
_pd_proc_ls_profile_function
;
pseudo-Voigt profile according to Thompson, Cox & Hastings (1987):
 G~U~ = 46.3(16), G~V~ = -277.8544, G~W~ = 325(4), L~X~ = 12.5(2), L~Y~ = 0;
asymmetry correction according to Howard (1982): P = 16.3(3)
;
_pd_proc_ls_prof_R_factor        0.0195
_pd_proc_ls_prof_wR_expected     0.0176
_pd_proc_ls_prof_wR_factor       0.0257
_pd_proc_wavelength              1.594
_pd_spec_mounting                'compacted powder in vanadium can'
_pd_spec_mount_mode              transmission
_pd_spec_orientation             horizontal
_pd_spec_preparation             'grinding in an agate mortar'
_pd_spec_shape                   cylinder
_pd_spec_size_axial              49.8
_pd_spec_size_equat              13.9
_refine_diff_density_max         0.13
_refine_diff_density_min         -0.14
_refine_ls_extinction_method     none
_refine_ls_goodness_of_fit_all   1.46
_refine_ls_matrix_type           fullcycle
_refine_ls_number_constraints    0
_refine_ls_number_parameters     26
_refine_ls_number_restraints     0
_refine_ls_R_factor_all          0.0320
_refine_ls_R_factor_gt           0.0297
_refine_ls_R_I_factor            0.0462
_refine_ls_shift/su_max          0.0085
_refine_ls_shift/su_mean         0.0025
_refine_ls_structure_factor_coef Inet
_refine_ls_weighting_details     w=1/[\s^2^(I)+(0.01*I)^2^]
_refine_ls_weighting_scheme      sigma
_refine_ls_wR_factor_all         0.0351
_refine_ls_wR_factor_gt          0.0349
_reflns_number_gt                74
_reflns_number_total             79
_reflns_threshold_expression     I>3\s(I)
_cod_data_source_file            c9ra05690d2.cif
_cod_data_source_block           nd-300C
_cod_original_cell_volume        219.651(9)
_cod_original_sg_symbol_H-M      'R -3 m'
_cod_database_code               7233626
loop_
_space_group_symop_id
_space_group_symop_operation_xyz
1 x,y,z
2 -y,x-y,z
3 -x+y,-x,z
4 y,x,-z
5 x-y,-y,-z
6 -x,-x+y,-z
7 -x,-y,-z
8 y,-x+y,-z
9 x-y,x,-z
10 -y,-x,z
11 -x+y,y,z
12 x,x-y,z
13 x+2/3,y+1/3,z+1/3
14 -y+2/3,x-y+1/3,z+1/3
15 -x+y+2/3,-x+1/3,z+1/3
16 y+2/3,x+1/3,-z+1/3
17 x-y+2/3,-y+1/3,-z+1/3
18 -x+2/3,-x+y+1/3,-z+1/3
19 -x+2/3,-y+1/3,-z+1/3
20 y+2/3,-x+y+1/3,-z+1/3
21 x-y+2/3,x+1/3,-z+1/3
22 -y+2/3,-x+1/3,z+1/3
23 -x+y+2/3,y+1/3,z+1/3
24 x+2/3,x-y+1/3,z+1/3
25 x+1/3,y+2/3,z+2/3
26 -y+1/3,x-y+2/3,z+2/3
27 -x+y+1/3,-x+2/3,z+2/3
28 y+1/3,x+2/3,-z+2/3
29 x-y+1/3,-y+2/3,-z+2/3
30 -x+1/3,-x+y+2/3,-z+2/3
31 -x+1/3,-y+2/3,-z+2/3
32 y+1/3,-x+y+2/3,-z+2/3
33 x-y+1/3,x+2/3,-z+2/3
34 -y+1/3,-x+2/3,z+2/3
35 -x+y+1/3,y+2/3,z+2/3
36 x+1/3,x-y+2/3,z+2/3
loop_
_atom_site_label
_atom_site_type_symbol
_atom_site_fract_x
_atom_site_fract_y
_atom_site_fract_z
_atom_site_adp_type
_atom_site_U_iso_or_equiv
_atom_site_site_symmetry_multiplicity
_atom_site_occupancy
_atom_site_calc_flag
Ti1 Ti 0 0 0 Uani 0.0167(8) 3 1 d
Na1 Na 0 0 0.166667 Uani 0.077(2) 6 0.25 d
S1 S 0 0 0.40012(6) Uani 0.0147(6) 6 1 d
loop_
_atom_site_aniso_label
_atom_site_aniso_type_symbol
_atom_site_aniso_U_11
_atom_site_aniso_U_22
_atom_site_aniso_U_33
_atom_site_aniso_U_12
_atom_site_aniso_U_13
_atom_site_aniso_U_23
Ti1 Ti 0.0173(7) 0.0173(7) 0.015(2) 0.0087(3) 0 0
Na1 Na 0.101(3) 0.101(3) 0.028(3) 0.0506(16) 0 0
S1 S 0.0115(5) 0.0115(5) 0.0212(16) 0.0057(2) 0 0
loop_
_atom_type_symbol
_atom_type_scat_length_neutron
_atom_type_scat_source
Na 3.630 International_Tables_Vol_C
S 2.847 International_Tables_Vol_C
Ti -3.438 International_Tables_Vol_C
loop_
_geom_angle_atom_site_label_1
_geom_angle_atom_site_label_2
_geom_angle_atom_site_label_3
_geom_angle_site_symmetry_1
_geom_angle_site_symmetry_3
_geom_angle
S1 Ti1 S1 25_444 25_544 89.89(3)
S1 Ti1 S1 25_444 25_554 89.89(3)
S1 Ti1 S1 25_444 16_445 90.11(3)
S1 Ti1 S1 25_444 16_455 90.11(3)
S1 Ti1 S1 25_444 16_555 180
S1 Ti1 S1 25_544 25_554 89.89(3)
S1 Ti1 S1 25_544 16_445 90.11(3)
S1 Ti1 S1 25_544 16_455 180
S1 Ti1 S1 25_544 16_555 90.11(3)
S1 Ti1 S1 25_554 16_445 180
S1 Ti1 S1 25_554 16_455 90.11(3)
S1 Ti1 S1 25_554 16_555 90.11(3)
S1 Ti1 S1 16_445 16_455 89.89(3)
S1 Ti1 S1 16_445 16_555 89.89(3)
S1 Ti1 S1 16_455 16_555 89.89(3)
S1 Na1 S1 25_444 25_544 72.91(2)
S1 Na1 S1 25_444 25_554 72.91(2)
S1 Na1 S1 25_444 28_445 93.36(3)
S1 Na1 S1 25_444 28_545 139.875(10)
S1 Na1 S1 25_444 28_555 139.875(10)
S1 Na1 S1 25_544 25_554 72.91(2)
S1 Na1 S1 25_544 28_445 139.875(10)
S1 Na1 S1 25_544 28_545 93.36(3)
S1 Na1 S1 25_544 28_555 139.875(10)
S1 Na1 S1 25_554 28_445 139.875(10)
S1 Na1 S1 25_554 28_545 139.875(10)
S1 Na1 S1 25_554 28_555 93.36(3)
S1 Na1 S1 28_445 28_545 72.91(2)
S1 Na1 S1 28_445 28_555 72.91(2)
S1 Na1 S1 28_545 28_555 72.91(2)
loop_
_geom_bond_atom_site_label_1
_geom_bond_atom_site_label_2
_geom_bond_site_symmetry_2
_geom_bond_distance
Ti1 S1 25_444 2.4480(8)
Ti1 S1 25_544 2.4480(8)
Ti1 S1 25_554 2.4480(8)
Ti1 S1 16_445 2.4480(8)
Ti1 S1 16_455 2.4480(8)
Ti1 S1 16_555 2.4480(8)
Na1 S1 25_444 2.9106(10)
Na1 S1 25_544 2.9106(10)
Na1 S1 25_554 2.9106(10)
Na1 S1 28_445 2.9106(10)
Na1 S1 28_545 2.9106(10)
Na1 S1 28_555 2.9106(10)
loop_
_pd_proc_point_id
_pd_proc_2theta_corrected
_pd_proc_d_spacing
_pd_proc_intensity_net
_pd_calc_intensity_net
_pd_proc_ls_weight
1 7.4400 12.284096 520.51 508.80 7.46
2 7.4900 12.202209 507.05 507.35 7.35
3 7.5400 12.121408 514.19 505.90 7.37
4 7.5900 12.041672 513.72 504.44 7.38
5 7.6400 11.962981 504.43 502.98 7.32
6 7.6900 11.885313 502.37 501.52 7.28
7 7.7400 11.808650 514.22 500.07 7.35
8 7.7900 11.732972 511.46 498.61 7.34
9 7.8400 11.658259 498.13 497.14 7.27
10 7.8900 11.584496 486.40 495.68 7.14
11 7.9400 11.511662 492.50 494.22 7.15
12 7.9900 11.439739 488.58 492.76 7.12
13 8.0400 11.368713 486.79 491.29 7.11
14 8.0900 11.298564 496.65 489.83 7.19
15 8.1400 11.229278 494.71 488.36 7.17
16 8.1900 11.160840 495.23 486.89 7.16
17 8.2400 11.093231 484.39 485.42 7.11
18 8.2900 11.026440 486.61 483.96 7.08
19 8.3400 10.960449 470.20 482.26 6.97
20 8.3900 10.895247 471.49 480.23 6.97
21 8.4400 10.830818 476.42 478.20 7.02
22 8.4900 10.767148 479.16 476.16 7.07
23 8.5400 10.704224 467.01 474.13 6.92
24 8.5900 10.642033 463.61 472.09 6.91
25 8.6400 10.580563 456.34 470.05 6.86
26 8.6900 10.519801 462.22 468.02 6.91
27 8.7400 10.459735 458.23 465.98 6.88
28 8.7900 10.400352 464.25 463.94 6.88
29 8.8400 10.341642 458.59 461.90 6.86
30 8.8900 10.283594 453.35 459.86 6.86
31 8.9400 10.226195 452.74 457.83 6.81
32 8.9900 10.169436 453.23 455.79 6.83
33 9.0400 10.113305 460.02 453.74 6.85
34 9.0900 10.057791 451.31 451.70 6.84
35 9.1400 10.002887 450.87 449.66 6.80
36 9.1900 9.948580 452.10 448.46 6.83
37 9.2400 9.894861 445.04 447.25 6.76
38 9.2900 9.841722 443.71 446.04 6.72
39 9.3400 9.789151 451.99 444.83 6.82
40 9.3900 9.737142 447.94 443.63 6.80
41 9.4400 9.685683 440.96 442.42 6.75
42 9.4900 9.634768 439.79 441.21 6.69
43 9.5400 9.584387 439.23 440.00 6.69
44 9.5900 9.534533 435.04 438.80 6.73
45 9.6400 9.485195 441.66 437.59 6.75
46 9.6900 9.436368 446.58 436.38 6.73
47 9.7400 9.388042 443.79 435.17 6.74
48 9.7900 9.340212 442.78 433.97 6.70
49 9.8400 9.292867 435.94 432.76 6.65
50 9.8900 9.246001 433.10 431.56 6.62
51 9.9400 9.199609 432.40 430.35 6.62
52 9.9900 9.153680 427.14 429.15 6.58
53 10.0400 9.108210 422.34 427.94 6.54
54 10.0900 9.063190 421.65 426.74 6.54
55 10.1400 9.018616 426.82 425.54 6.58
56 10.1900 8.974480 423.20 424.34 6.55
57 10.2400 8.930775 420.66 423.14 6.53
58 10.2900 8.887495 417.29 421.94 6.52
59 10.3400 8.844635 411.70 420.74 6.49
60 10.3900 8.802187 418.21 419.55 6.51
61 10.4400 8.760147 423.02 418.36 6.56
62 10.4900 8.718509 419.34 417.70 6.52
63 10.5400 8.677265 417.66 417.05 6.50
64 10.5900 8.636412 411.52 416.41 6.45
65 10.6400 8.595943 410.70 415.77 6.45
66 10.6900 8.555854 417.57 415.13 6.49
67 10.7400 8.516137 423.58 414.49 6.54
68 10.7900 8.476790 425.35 413.86 6.56
69 10.8400 8.437807 417.76 413.24 6.53
70 10.8900 8.399181 413.95 412.62 6.49
71 10.9400 8.360910 415.87 412.01 6.48
72 10.9900 8.322988 423.45 411.41 6.54
73 11.0400 8.285409 414.58 410.82 6.47
74 11.0900 8.248169 404.11 410.24 6.40
75 11.1400 8.211264 413.65 409.67 6.48
76 11.1900 8.174690 412.51 409.11 6.47
77 11.2400 8.138442 406.62 408.57 6.41
78 11.2900 8.102515 403.40 408.02 6.42
79 11.3400 8.066905 406.42 407.49 6.44
80 11.3900 8.031609 411.04 406.98 6.45
81 11.4400 7.996622 412.36 406.51 6.47
82 11.4900 7.961940 406.11 406.07 6.42
83 11.5400 7.927559 409.80 405.69 6.44
84 11.5900 7.893475 416.66 405.38 6.49
85 11.6400 7.859684 409.98 405.19 6.44
86 11.6900 7.826183 402.57 405.18 6.39
87 11.7400 7.792967 408.21 405.44 6.43
88 11.7900 7.760034 418.79 406.11 6.51
89 11.8400 7.727379 422.91 407.38 6.57
90 11.8900 7.695000 424.01 409.52 6.54
91 11.9400 7.662893 426.74 412.82 6.59
92 11.9900 7.631053 422.05 417.61 6.55
93 12.0400 7.599479 416.48 424.25 6.50
94 12.0900 7.568166 425.09 432.99 6.58
95 12.1400 7.537112 427.17 443.98 6.57
96 12.1900 7.506313 434.66 457.13 6.64
97 12.2400 7.475766 445.93 472.14 6.72
98 12.2900 7.445467 456.73 488.62 6.79
99 12.3400 7.415415 461.61 506.08 6.83
100 12.3900 7.385606 467.89 523.91 6.88
101 12.4400 7.356038 481.56 541.26 6.96
102 12.4900 7.326706 499.54 557.56 7.14
103 12.5400 7.297608 525.72 572.89 7.28
104 12.5900 7.268743 539.30 587.70 7.36
105 12.6400 7.240106 550.17 602.01 7.44
106 12.6900 7.211695 564.42 614.97 7.52
107 12.7400 7.183508 585.60 624.96 7.65
108 12.7900 7.155541 601.32 629.82 7.75
109 12.8400 7.127793 599.17 627.51 7.74
110 12.8900 7.100260 595.43 616.67 7.72
111 12.9400 7.072941 589.58 597.11 7.71
112 12.9900 7.045833 573.43 570.28 7.58
113 13.0400 7.018932 557.98 539.14 7.48
114 13.0900 6.992239 532.68 507.17 7.33
115 13.1400 6.965747 508.49 477.28 7.19
116 13.1900 6.939459 492.12 451.35 7.09
117 13.2400 6.913368 471.72 430.24 6.89
118 13.2900 6.887475 464.96 413.98 6.86
119 13.3400 6.861775 444.05 402.04 6.75
120 13.3900 6.836268 429.49 393.57 6.59
121 13.4400 6.810952 418.49 387.69 6.50
122 13.4900 6.785824 404.05 383.59 6.39
123 13.5400 6.760881 403.35 380.65 6.41
124 13.5900 6.736123 406.32 378.43 6.45
125 13.6400 6.711546 394.70 376.64 6.32
126 13.6900 6.687150 392.64 375.11 6.34
127 13.7400 6.662931 383.88 373.75 6.30
128 13.7900 6.638889 388.76 372.49 6.25
129 13.8400 6.615021 379.64 371.31 6.19
130 13.8900 6.591324 363.05 370.19 6.04
131 13.9400 6.567800 361.62 369.11 6.10
132 13.9900 6.544442 369.04 368.07 6.11
133 14.0400 6.521252 375.94 367.06 6.23
134 14.0900 6.498226 371.18 366.08 6.12
135 14.1400 6.475364 371.53 365.12 6.13
136 14.1900 6.452664 365.61 364.19 6.11
137 14.2400 6.430123 368.09 363.27 6.14
138 14.2900 6.407741 360.73 362.36 6.09
139 14.3400 6.385514 355.49 361.47 6.00
140 14.3900 6.363443 350.70 360.59 5.96
141 14.4400 6.341526 355.11 359.72 5.99
142 14.4900 6.319759 352.59 358.86 6.03
143 14.5400 6.298143 365.76 358.01 6.09
144 14.5900 6.276675 370.29 357.16 6.16
145 14.6400 6.255354 350.71 356.32 5.98
146 14.6900 6.234179 349.12 355.49 5.95
147 14.7400 6.213149 352.51 354.94 5.98
148 14.7900 6.192261 349.61 354.39 5.94
149 14.8400 6.171513 360.18 353.85 6.04
150 14.8900 6.150906 356.40 353.31 6.01
151 14.9400 6.130437 352.67 352.78 5.99
152 14.9900 6.110105 361.22 352.25 6.03
153 15.0400 6.089908 348.25 351.72 5.94
154 15.0900 6.069845 342.66 351.19 5.94
155 15.1400 6.049915 344.15 350.67 5.92
156 15.1900 6.030118 347.31 350.15 5.91
157 15.2400 6.010450 349.00 349.63 5.98
158 15.2900 5.990912 354.01 349.11 6.03
159 15.3400 5.971501 353.18 348.60 5.98
160 15.3900 5.952216 347.95 348.08 5.96
161 15.4400 5.933057 343.75 347.57 5.89
162 15.4900 5.914022 342.49 347.06 5.88
163 15.5400 5.895110 340.51 346.55 5.84
164 15.5900 5.876319 343.95 346.04 5.95
165 15.6400 5.857649 343.89 345.53 5.93
166 15.6900 5.839099 348.39 345.02 5.92
167 15.7400 5.820667 345.31 344.52 5.89
168 15.7900 5.802351 343.76 344.01 5.90
169 15.8400 5.784152 339.90 343.51 5.88
170 15.8900 5.766068 334.90 343.00 5.83
171 15.9400 5.748097 338.17 342.56 5.86
172 15.9900 5.730239 340.62 342.23 5.92
173 16.0400 5.712493 335.02 341.89 5.84
174 16.0900 5.694858 332.50 341.56 5.85
175 16.1400 5.677332 339.80 341.22 5.85
176 16.1900 5.659914 337.39 340.89 5.83
177 16.2400 5.642605 335.12 340.55 5.89
178 16.2900 5.625402 341.50 340.22 5.88
179 16.3400 5.608305 345.22 339.89 5.93
180 16.3900 5.591312 341.09 339.56 5.86
181 16.4400 5.574424 342.19 339.23 5.88
182 16.4900 5.557638 343.48 338.89 5.88
183 16.5400 5.540953 337.46 338.56 5.93
184 16.5900 5.524370 342.94 338.23 5.90
185 16.6400 5.507886 342.94 337.90 5.93
186 16.6900 5.491502 339.53 337.62 5.87
187 16.7400 5.475216 338.12 337.29 5.84
188 16.7900 5.459027 346.53 336.96 5.93
189 16.8400 5.442935 341.58 336.63 5.86
190 16.8900 5.426939 337.39 336.30 5.84
191 16.9400 5.411037 338.91 335.97 5.84
192 16.9900 5.395229 340.22 335.64 5.85
193 17.0400 5.379514 339.13 335.31 5.84
194 17.0900 5.363892 334.71 334.99 5.81
195 17.1400 5.348361 336.48 334.66 5.91
196 17.1900 5.332921 338.04 334.33 5.84
197 17.2400 5.317571 335.60 334.00 5.80
198 17.2900 5.302309 335.46 333.67 5.80
199 17.3400 5.287136 335.26 333.35 5.81
200 17.3900 5.272051 332.37 333.02 5.78
201 17.4400 5.257053 341.63 332.69 5.87
202 17.4900 5.242140 332.26 332.37 5.81
203 17.5400 5.227313 338.31 332.04 5.85
204 17.5900 5.212571 331.38 331.71 5.90
205 17.6400 5.197913 337.29 331.39 5.96
206 17.6900 5.183337 335.11 331.06 5.88
207 17.7400 5.168844 326.96 330.73 5.75
208 17.7900 5.154433 332.01 330.41 5.78
209 17.8400 5.140103 332.60 330.08 5.78
210 17.8900 5.125854 330.86 329.76 5.77
211 17.9400 5.111684 327.39 329.43 5.79
212 17.9900 5.097594 333.50 329.10 5.83
213 18.0400 5.083581 330.68 328.78 5.77
214 18.0900 5.069647 324.08 328.45 5.76
215 18.1400 5.055790 327.71 328.13 5.75
216 18.1900 5.042009 329.97 327.80 5.76
217 18.2400 5.028305 328.07 327.48 5.74
218 18.2900 5.014675 321.99 327.15 5.70
219 18.3400 5.001120 327.64 326.83 5.85
220 18.3900 4.987639 335.13 326.51 5.85
221 18.4400 4.974231 325.75 326.19 5.81
222 18.4900 4.960896 324.94 325.87 5.73
223 18.5400 4.947634 319.11 325.56 5.71
224 18.5900 4.934444 316.31 325.24 5.77
225 18.6400 4.921324 330.63 324.93 5.81
226 18.6900 4.908275 330.73 324.61 5.77
227 18.7400 4.895296 320.89 324.30 5.72
228 18.7900 4.882386 320.60 323.98 5.69
229 18.8400 4.869545 326.26 323.67 5.78
230 18.8900 4.856772 320.44 323.35 5.74
231 18.9400 4.844067 316.72 323.04 5.72
232 18.9900 4.831429 327.98 322.72 5.74
233 19.0400 4.818858 322.12 322.41 5.79
234 19.0900 4.806354 325.54 322.09 5.74
235 19.1400 4.793914 321.99 321.78 5.70
236 19.1900 4.781540 313.24 321.46 5.67
237 19.2400 4.769230 317.99 321.15 5.66
238 19.2900 4.756985 321.38 320.83 5.77
239 19.3400 4.744803 311.74 320.52 5.64
240 19.3900 4.732685 315.05 320.20 5.66
241 19.4400 4.720628 310.11 319.89 5.62
242 19.4900 4.708635 329.93 319.58 5.76
243 19.5400 4.696702 326.86 319.26 5.74
244 19.5900 4.684832 319.04 318.95 5.74
245 19.6400 4.673021 325.38 318.64 5.73
246 19.6900 4.661272 324.85 318.32 5.72
247 19.7400 4.649581 322.89 318.01 5.72
248 19.7900 4.637950 317.20 317.70 5.74
249 19.8400 4.626379 317.45 317.38 5.68
250 19.8900 4.614866 320.60 317.07 5.69
251 19.9400 4.603410 328.07 316.78 5.75
252 19.9900 4.592013 319.00 316.57 5.72
253 20.0400 4.580672 313.28 316.35 5.64
254 20.0900 4.569388 318.05 316.13 5.69
255 20.1400 4.558161 308.37 315.92 5.62
256 20.1900 4.546989 311.23 315.70 5.65
257 20.2400 4.535873 315.76 315.49 5.66
258 20.2900 4.524812 317.19 315.27 5.73
259 20.3400 4.513806 324.70 315.05 5.76
260 20.3900 4.502854 316.90 314.84 5.70
261 20.4400 4.491956 310.93 314.62 5.63
262 20.4900 4.481111 310.22 314.41 5.63
263 20.5400 4.470320 307.33 314.20 5.57
264 20.5900 4.459580 313.64 313.98 5.65
265 20.6400 4.448895 304.96 313.77 5.59
266 20.6900 4.438259 317.77 313.55 5.67
267 20.7400 4.427676 316.96 313.34 5.65
268 20.7900 4.417144 309.44 313.12 5.60
269 20.8400 4.406663 309.44 312.91 5.59
270 20.8900 4.396233 317.09 312.69 5.66
271 20.9400 4.385852 309.18 312.48 5.61
272 20.9900 4.375521 301.97 312.27 5.54
273 21.0400 4.365240 304.89 312.05 5.62
274 21.0900 4.355008 306.61 311.84 5.58
275 21.1400 4.344824 319.21 311.63 5.67
276 21.1900 4.334689 305.13 311.41 5.58
277 21.2400 4.324601 310.74 311.20 5.61
278 21.2900 4.314561 311.95 310.99 5.61
279 21.3400 4.304569 314.93 310.84 5.63
280 21.3900 4.294624 313.26 310.77 5.64
281 21.4400 4.284725 319.25 310.71 5.68
282 21.4900 4.274873 314.34 310.65 5.66
283 21.5400 4.265066 306.47 310.59 5.56
284 21.5900 4.255306 309.12 310.53 5.63
285 21.6400 4.245591 311.46 310.47 5.60
286 21.6900 4.235920 313.27 310.40 5.65
287 21.7400 4.226295 309.58 310.34 5.62
288 21.7900 4.216713 309.85 310.28 5.61
289 21.8400 4.207177 318.43 310.22 5.68
290 21.8900 4.197684 315.49 310.16 5.64
291 21.9400 4.188234 306.81 310.10 5.57
292 21.9900 4.178828 314.71 310.05 5.67
293 22.0400 4.169465 316.34 310.13 5.67
294 22.0900 4.160144 312.13 310.07 5.61
295 22.1400 4.150866 312.19 310.02 5.65
296 22.1900 4.141629 304.61 309.96 5.60
297 22.2400 4.132435 307.03 309.90 5.58
298 22.2900 4.123282 317.37 309.85 5.66
299 22.3400 4.114171 315.20 309.79 5.66
300 22.3900 4.105100 310.46 309.74 5.63
301 22.4400 4.096070 313.24 309.63 5.66
302 22.4900 4.087080 306.30 309.58 5.66
303 22.5400 4.078131 307.08 309.52 5.58
304 22.5900 4.069221 309.11 309.47 5.61
305 22.6400 4.060351 305.00 309.42 5.59
306 22.6900 4.051520 305.11 309.37 5.57
307 22.7400 4.042729 308.61 309.32 5.58
308 22.7900 4.033977 306.48 309.27 5.56
309 22.8400 4.025262 308.40 309.22 5.58
310 22.8900 4.016587 310.78 309.17 5.59
311 22.9400 4.007949 310.56 309.12 5.60
312 22.9900 3.999349 306.47 309.09 5.60
313 23.0400 3.990787 303.72 309.05 5.56
314 23.0900 3.982262 308.11 309.00 5.59
315 23.1400 3.973774 312.59 308.90 5.64
316 23.1900 3.965323 306.05 308.80 5.57
317 23.2400 3.956909 317.80 308.69 5.66
318 23.2900 3.948531 304.89 308.59 5.59
319 23.3400 3.940189 302.74 308.49 5.64
320 23.3900 3.931883 306.90 308.40 5.59
321 23.4400 3.923613 305.72 308.30 5.57
322 23.4900 3.915378 302.31 308.21 5.52
323 23.5400 3.907179 305.79 308.12 5.59
324 23.5900 3.899014 301.98 308.02 5.57
325 23.6400 3.890885 300.71 307.94 5.56
326 23.6900 3.882790 301.39 307.85 5.53
327 23.7400 3.874729 300.86 307.77 5.55
328 23.7900 3.866702 302.93 307.68 5.56
329 23.8400 3.858709 305.44 307.61 5.54
330 23.8900 3.850751 306.30 307.53 5.56
331 23.9400 3.842825 302.40 307.46 5.56
332 23.9900 3.834933 304.44 307.39 5.56
333 24.0400 3.827074 320.68 307.33 5.67
334 24.0900 3.819247 313.88 307.27 5.66
335 24.1400 3.811454 306.89 307.21 5.63
336 24.1900 3.803692 308.32 307.16 5.56
337 24.2400 3.795964 309.16 307.12 5.66
338 24.2900 3.788267 304.95 307.08 5.54
339 24.3400 3.780602 305.81 307.06 5.58
340 24.3900 3.772969 303.42 307.04 5.56
341 24.4400 3.765367 307.09 307.03 5.67
342 24.4900 3.757796 309.35 307.03 5.64
343 24.5400 3.750257 307.78 307.05 5.68
344 24.5900 3.742748 305.62 307.08 5.57
345 24.6400 3.735271 305.96 307.12 5.56
346 24.6900 3.727823 305.15 307.19 5.56
347 24.7400 3.720406 307.85 307.28 5.57
348 24.7900 3.713020 317.00 307.40 5.64
349 24.8400 3.705663 317.61 307.55 5.74
350 24.8900 3.698336 308.57 307.73 5.66
351 24.9400 3.691038 315.44 307.97 5.66
352 24.9900 3.683770 313.65 308.27 5.66
353 25.0400 3.676532 315.85 308.65 5.69
354 25.0900 3.669322 320.89 309.15 5.72
355 25.1400 3.662142 310.17 309.86 5.68
356 25.1900 3.654989 313.26 310.87 5.63
357 25.2400 3.647866 327.54 312.37 5.74
358 25.2900 3.640771 327.34 314.65 5.74
359 25.3400 3.633704 324.19 318.08 5.74
360 25.3900 3.626666 330.39 323.16 5.77
361 25.4400 3.619655 341.08 330.48 5.86
362 25.4900 3.612672 344.21 340.70 5.97
363 25.5400 3.605717 352.14 354.48 5.95
364 25.5900 3.598789 370.48 372.35 6.11
365 25.6400 3.591888 399.88 394.58 6.34
366 25.6900 3.585014 421.02 420.85 6.50
367 25.7400 3.578168 441.62 450.21 6.66
368 25.7900 3.571348 482.90 481.15 6.96
369 25.8400 3.564554 513.11 511.67 7.18
370 25.8900 3.557788 530.12 538.61 7.29
371 25.9400 3.551047 557.67 557.41 7.49
372 25.9900 3.544333 570.18 563.15 7.59
373 26.0400 3.537644 562.35 553.16 7.52
374 26.0900 3.530982 534.73 528.97 7.34
375 26.1400 3.524345 514.19 495.34 7.20
376 26.1900 3.517734 494.51 457.96 7.04
377 26.2400 3.511148 457.24 421.70 6.78
378 26.2900 3.504588 415.81 389.87 6.46
379 26.3400 3.498052 392.40 364.13 6.30
380 26.3900 3.491542 368.05 344.74 6.17
381 26.4400 3.485056 348.80 331.01 5.99
382 26.4900 3.478596 338.35 321.77 5.89
383 26.5400 3.472159 340.03 315.78 5.87
384 26.5900 3.465748 326.11 311.96 5.73
385 26.6400 3.459360 310.89 309.66 5.61
386 26.6900 3.452997 312.87 307.99 5.67
387 26.7400 3.446657 306.50 306.80 5.59
388 26.7900 3.440342 311.92 305.89 5.62
389 26.8400 3.434050 306.17 305.15 5.62
390 26.8900 3.427782 309.20 304.52 5.58
391 26.9400 3.421538 303.82 303.98 5.60
392 26.9900 3.415317 297.07 303.50 5.62
393 27.0400 3.409118 302.43 303.07 5.54
394 27.0900 3.402944 300.76 302.68 5.54
395 27.1400 3.396792 299.14 302.33 5.54
396 27.1900 3.390663 301.24 302.01 5.51
397 27.2400 3.384557 305.66 301.71 5.55
398 27.2900 3.378473 304.13 301.44 5.55
399 27.3400 3.372411 303.11 301.19 5.57
400 27.3900 3.366373 303.48 300.95 5.54
401 27.4400 3.360356 303.23 300.73 5.52
402 27.4900 3.354361 309.46 300.52 5.58
403 27.5400 3.348388 303.23 300.33 5.54
404 27.5900 3.342438 295.19 300.14 5.48
405 27.6400 3.336509 296.44 299.96 5.52
406 27.6900 3.330601 299.76 299.80 5.51
407 27.7400 3.324716 295.25 299.64 5.45
408 27.7900 3.318851 301.07 299.49 5.57
409 27.8400 3.313008 299.36 299.35 5.52
410 27.8900 3.307186 290.85 299.21 5.47
411 27.9400 3.301385 300.29 299.08 5.53
412 27.9900 3.295605 301.53 298.95 5.53
413 28.0400 3.289846 297.20 298.83 5.50
414 28.0900 3.284107 297.24 298.71 5.48
415 28.1400 3.278390 298.04 298.61 5.48
416 28.1900 3.272692 295.69 298.50 5.46
417 28.2400 3.267015 295.67 298.40 5.45
418 28.2900 3.261359 295.80 298.31 5.56
419 28.3400 3.255722 295.13 298.22 5.45
420 28.3900 3.250106 291.66 298.13 5.44
421 28.4400 3.244509 300.53 298.07 5.50
422 28.4900 3.238933 295.80 298.08 5.46
423 28.5400 3.233376 296.68 298.10 5.50
424 28.5900 3.227839 300.39 298.13 5.52
425 28.6400 3.222321 298.15 298.16 5.53
426 28.6900 3.216823 294.89 298.20 5.47
427 28.7400 3.211344 297.62 298.24 5.47
428 28.7900 3.205884 294.35 298.29 5.46
429 28.8400 3.200444 293.29 298.34 5.43
430 28.8900 3.195022 296.38 298.41 5.47
431 28.9400 3.189620 293.37 298.48 5.43
432 28.9900 3.184236 296.13 298.57 5.47
433 29.0400 3.178871 292.77 298.66 5.44
434 29.0900 3.173525 302.88 298.76 5.52
435 29.1400 3.168197 290.14 298.90 5.43
436 29.1900 3.162888 289.51 299.02 5.42
437 29.2400 3.157597 288.83 299.17 5.39
438 29.2900 3.152324 285.88 299.33 5.36
439 29.3400 3.147070 293.19 299.51 5.45
440 29.3900 3.141834 295.17 299.70 5.47
441 29.4400 3.136615 293.66 299.92 5.44
442 29.4900 3.131415 300.99 300.16 5.55
443 29.5400 3.126232 291.77 300.43 5.55
444 29.5900 3.121067 290.44 300.73 5.44
445 29.6400 3.115920 292.80 301.07 5.44
446 29.6900 3.110790 284.44 301.44 5.34
447 29.7400 3.105678 294.21 301.87 5.47
448 29.7900 3.100583 294.04 302.34 5.49
449 29.8400 3.095505 291.32 302.88 5.45
450 29.8900 3.090445 296.32 303.48 5.51
451 29.9400 3.085401 290.94 304.17 5.43
452 29.9900 3.080375 291.71 304.96 5.44
453 30.0400 3.075365 290.80 305.86 5.42
454 30.0900 3.070373 300.91 306.91 5.52
455 30.1400 3.065397 299.04 308.14 5.52
456 30.1900 3.060438 304.25 309.60 5.58
457 30.2400 3.055496 312.74 311.40 5.64
458 30.2900 3.050569 314.50 313.69 5.64
459 30.3400 3.045660 329.73 316.78 5.76
460 30.3900 3.040766 327.11 321.15 5.76
461 30.4400 3.035890 334.93 327.61 5.82
462 30.4900 3.031029 355.22 337.36 6.01
463 30.5400 3.026184 363.86 352.14 6.08
464 30.5900 3.021356 385.11 374.19 6.22
465 30.6400 3.016543 417.16 406.19 6.47
466 30.6900 3.011746 467.80 450.99 6.86
467 30.7400 3.006965 523.01 511.08 7.25
468 30.7900 3.002200 581.32 587.39 7.64
469 30.8400 2.997451 647.42 678.49 8.06
470 30.8900 2.992717 753.65 779.34 8.70
471 30.9400 2.987998 856.20 881.82 9.27
472 30.9900 2.983295 954.78 975.51 9.79
473 31.0400 2.978607 1054.65 1047.30 10.28
474 31.0900 2.973935 1097.04 1081.93 10.49
475 31.1400 2.969278 1066.32 1067.84 10.34
476 31.1900 2.964635 1014.74 1005.54 10.09
477 31.2400 2.960008 927.75 908.34 9.65
478 31.2900 2.955396 832.22 795.02 9.14
479 31.3400 2.950799 712.69 682.43 8.46
480 31.3900 2.946217 598.89 582.44 7.77
481 31.4400 2.941649 529.19 501.35 7.30
482 31.4900 2.937096 462.25 440.86 6.81
483 31.5400 2.932558 401.76 399.38 6.36
484 31.5900 2.928034 384.51 373.58 6.21
485 31.6400 2.923525 364.16 359.78 6.06
486 31.6900 2.919030 353.56 354.66 5.96
487 31.7400 2.914550 363.17 355.60 6.04
488 31.7900 2.910084 362.96 360.52 6.06
489 31.8400 2.905632 368.60 367.65 6.09
490 31.8900 2.901194 366.58 375.40 6.06
491 31.9400 2.896770 376.80 382.22 6.15
492 31.9900 2.892361 380.47 386.46 6.19
493 32.0400 2.887965 372.26 386.52 6.16
494 32.0900 2.883583 368.77 381.62 6.10
495 32.1400 2.879215 367.56 372.43 6.07
496 32.1900 2.874861 353.10 360.63 5.95
497 32.2400 2.870520 333.28 348.13 5.82
498 32.2900 2.866193 325.07 336.40 5.75
499 32.3400 2.861880 319.05 326.38 5.68
500 32.3900 2.857580 315.54 318.45 5.67
501 32.4400 2.853294 304.91 312.56 5.59
502 32.4900 2.849021 303.31 308.42 5.56
503 32.5400 2.844761 306.58 305.61 5.58
504 32.5900 2.840515 293.92 303.73 5.48
505 32.6400 2.836282 294.32 302.47 5.50
506 32.6900 2.832062 294.09 301.58 5.47
507 32.7400 2.827854 288.79 300.93 5.41
508 32.7900 2.823660 288.23 300.42 5.40
509 32.8400 2.819479 282.87 300.00 5.33
510 32.8900 2.815311 293.19 299.65 5.44
511 32.9400 2.811156 288.29 299.35 5.40
512 32.9900 2.807013 287.75 299.09 5.40
513 33.0400 2.802883 297.36 298.87 5.54
514 33.0900 2.798766 290.73 298.68 5.44
515 33.1400 2.794662 301.18 298.51 5.51
516 33.1900 2.790570 292.72 298.38 5.46
517 33.2400 2.786490 298.48 298.27 5.54
518 33.2900 2.782423 288.68 298.18 5.43
519 33.3400 2.778369 289.11 298.11 5.42
520 33.3900 2.774327 289.28 298.06 5.41
521 33.4400 2.770296 293.76 298.04 5.43
522 33.4900 2.766278 284.89 298.03 5.38
523 33.5400 2.762273 290.47 298.05 5.42
524 33.5900 2.758279 291.20 298.08 5.45
525 33.6400 2.754298 296.95 298.11 5.49
526 33.6900 2.750329 277.04 298.17 5.30
527 33.7400 2.746371 283.83 298.24 5.34
528 33.7900 2.742425 287.86 298.35 5.38
529 33.8400 2.738491 294.81 298.48 5.50
530 33.8900 2.734569 293.58 298.63 5.49
531 33.9400 2.730659 292.05 298.82 5.44
532 33.9900 2.726760 296.99 299.05 5.48
533 34.0400 2.722873 283.23 299.31 5.37
534 34.0900 2.718998 288.89 299.62 5.46
535 34.1400 2.715134 291.78 299.97 5.42
536 34.1900 2.711282 296.65 300.38 5.48
537 34.2400 2.707441 290.84 300.85 5.41
538 34.2900 2.703611 285.25 301.40 5.39
539 34.3400 2.699793 289.05 302.03 5.40
540 34.3900 2.695986 292.11 302.76 5.44
541 34.4400 2.692190 291.75 303.60 5.43
542 34.4900 2.688406 300.44 304.58 5.52
543 34.5400 2.684632 291.18 305.73 5.43
544 34.5900 2.680870 301.04 307.09 5.51
545 34.6400 2.677119 306.86 308.71 5.57
546 34.6900 2.673378 311.29 310.71 5.67
547 34.7400 2.669649 308.95 313.24 5.62
548 34.7900 2.665931 319.55 316.63 5.66
549 34.8400 2.662223 329.18 321.41 5.75
550 34.8900 2.658526 342.90 328.52 5.89
551 34.9400 2.654840 356.86 339.43 6.06
552 34.9900 2.651165 376.16 356.31 6.18
553 35.0400 2.647500 400.49 382.15 6.34
554 35.0900 2.643846 444.59 420.59 6.68
555 35.1400 2.640203 487.74 475.46 7.00
556 35.1900 2.636570 544.39 550.04 7.41
557 35.2400 2.632947 637.76 645.39 8.00
558 35.2900 2.629335 736.40 758.74 8.60
559 35.3400 2.625734 875.86 882.21 9.37
560 35.3900 2.622143 995.32 1003.14 9.99
561 35.4400 2.618562 1083.42 1105.77 10.43
562 35.4900 2.614991 1167.08 1172.07 10.82
563 35.5400 2.611430 1178.31 1184.89 10.87
564 35.5900 2.607880 1128.32 1137.25 10.64
565 35.6400 2.604340 1040.84 1039.16 10.23
566 35.6900 2.600810 904.44 912.13 9.54
567 35.7400 2.597290 788.74 778.50 8.90
568 35.7900 2.593780 660.18 655.06 8.14
569 35.8400 2.590280 547.96 551.62 7.44
570 35.8900 2.586790 456.36 471.74 6.79
571 35.9400 2.583309 405.48 414.32 6.38
572 35.9900 2.579839 369.41 375.49 6.10
573 36.0400 2.576378 349.59 350.46 5.97
574 36.0900 2.572928 333.69 334.77 5.79
575 36.1400 2.569487 317.95 324.95 5.67
576 36.1900 2.566055 309.84 318.61 5.58
577 36.2400 2.562633 305.46 314.27 5.55
578 36.2900 2.559221 305.25 311.09 5.59
579 36.3400 2.555819 300.78 308.61 5.50
580 36.3900 2.552425 294.53 306.59 5.45
581 36.4400 2.549042 294.28 304.90 5.43
582 36.4900 2.545668 295.69 303.46 5.53
583 36.5400 2.542303 287.81 302.22 5.48
584 36.5900 2.538948 292.02 301.15 5.41
585 36.6400 2.535601 296.97 300.22 5.49
586 36.6900 2.532265 291.70 299.41 5.46
587 36.7400 2.528937 295.52 298.70 5.53
588 36.7900 2.525619 291.77 298.09 5.42
589 36.8400 2.522310 293.61 297.56 5.47
590 36.8900 2.519010 299.12 297.10 5.53
591 36.9400 2.515719 286.23 296.71 5.41
592 36.9900 2.512437 299.77 296.38 5.52
593 37.0400 2.509164 298.05 296.12 5.47
594 37.0900 2.505900 294.48 295.92 5.46
595 37.1400 2.502645 299.61 295.80 5.57
596 37.1900 2.499399 295.80 295.76 5.48
597 37.2400 2.496162 302.15 295.83 5.51
598 37.2900 2.492934 303.21 296.08 5.52
599 37.3400 2.489715 301.93 296.59 5.53
600 37.3900 2.486504 307.48 297.53 5.59
601 37.4400 2.483302 298.46 299.14 5.50
602 37.4900 2.480109 303.85 301.76 5.53
603 37.5400 2.476925 305.17 305.80 5.54
604 37.5900 2.473749 302.76 311.69 5.56
605 37.6400 2.470582 317.50 319.80 5.65
606 37.6900 2.467423 324.77 330.20 5.73
607 37.7400 2.464272 327.73 342.55 5.75
608 37.7900 2.461131 345.31 355.86 5.89
609 37.8400 2.457998 365.00 368.62 6.05
610 37.8900 2.454873 377.67 378.95 6.16
611 37.9400 2.451757 377.49 384.81 6.16
612 37.9900 2.448649 376.62 384.51 6.16
613 38.0400 2.445549 369.50 377.77 6.11
614 38.0900 2.442458 351.77 366.18 5.98
615 38.1400 2.439375 345.42 352.24 5.90
616 38.1900 2.436300 336.60 338.24 5.81
617 38.2400 2.433233 320.02 325.79 5.67
618 38.2900 2.430175 312.88 315.71 5.60
619 38.3400 2.427125 296.36 308.20 5.45
620 38.3900 2.424082 288.27 303.02 5.39
621 38.4400 2.421048 286.11 299.70 5.38
622 38.4900 2.418022 287.68 297.72 5.39
623 38.5400 2.415004 286.30 296.65 5.46
624 38.5900 2.411994 288.11 296.09 5.40
625 38.6400 2.408992 291.42 295.85 5.42
626 38.6900 2.405998 280.97 295.93 5.33
627 38.7400 2.403011 287.48 296.31 5.37
628 38.7900 2.400033 300.02 297.08 5.49
629 38.8400 2.397062 304.78 298.43 5.55
630 38.8900 2.394099 304.83 300.72 5.56
631 38.9400 2.391144 317.39 304.52 5.66
632 38.9900 2.388196 310.16 310.74 5.61
633 39.0400 2.385257 324.02 320.55 5.71
634 39.0900 2.382325 345.44 335.39 5.89
635 39.1400 2.379401 363.99 356.65 6.05
636 39.1900 2.376484 384.99 385.29 6.24
637 39.2400 2.373575 413.71 421.20 6.45
638 39.2900 2.370674 459.61 462.52 6.79
639 39.3400 2.367779 517.28 505.35 7.20
640 39.3900 2.364893 559.32 544.06 7.49
641 39.4400 2.362014 595.55 572.12 7.73
642 39.4900 2.359143 586.80 582.99 7.69
643 39.5400 2.356278 575.04 572.75 7.62
644 39.5900 2.353422 544.86 543.28 7.39
645 39.6400 2.350573 498.79 501.56 7.07
646 39.6900 2.347731 451.35 455.78 6.73
647 39.7400 2.344896 408.20 412.43 6.43
648 39.7900 2.342068 371.98 375.49 6.11
649 39.8400 2.339248 341.76 346.60 5.89
650 39.8900 2.336435 321.65 325.62 5.76
651 39.9400 2.333630 305.17 311.30 5.68
652 39.9900 2.330831 299.85 301.97 5.71
653 40.0400 2.328040 293.91 296.05 5.61
654 40.0900 2.325255 294.00 292.13 5.64
655 40.1400 2.322478 291.29 289.63 5.64
656 40.1900 2.319708 291.69 287.85 5.68
657 40.2400 2.316945 296.41 286.49 5.72
658 40.2900 2.314189 303.51 285.38 5.81
659 40.3400 2.311440 296.30 284.43 5.75
660 40.3900 2.308697 299.03 283.60 5.85
661 40.4400 2.305962 299.01 282.86 5.83
662 40.4900 2.303234 303.53 282.19 5.82
663 40.5400 2.300513 295.86 281.58 5.75
664 40.5900 2.297798 289.58 281.01 5.70
665 40.6400 2.295090 289.95 280.48 5.69
666 40.6900 2.292390 284.57 279.99 5.63
667 40.7400 2.289695 285.07 279.53 5.66
668 40.7900 2.287008 286.84 279.09 5.68
669 40.8400 2.284328 281.54 278.68 5.65
670 40.8900 2.281653 279.13 278.28 5.61
671 40.9400 2.278986 279.44 277.90 5.60
672 40.9900 2.276326 269.93 277.52 5.52
673 41.0400 2.273672 275.03 277.16 5.57
674 41.0900 2.271024 283.54 276.82 5.63
675 41.1400 2.268384 283.48 276.49 5.64
676 41.1900 2.265750 273.39 276.16 5.55
677 41.2400 2.263122 283.47 275.85 5.62
678 41.2900 2.260501 274.27 275.54 5.55
679 41.3400 2.257886 273.64 275.24 5.55
680 41.3900 2.255278 277.02 274.94 5.58
681 41.4400 2.252676 266.20 274.65 5.51
682 41.4900 2.250081 263.63 274.36 5.46
683 41.5400 2.247492 276.04 274.18 5.59
684 41.5900 2.244910 279.73 274.06 5.62
685 41.6400 2.242334 275.22 273.95 5.57
686 41.6900 2.239764 268.87 273.84 5.48
687 41.7400 2.237200 274.60 273.73 5.56
688 41.7900 2.234643 267.00 273.62 5.50
689 41.8400 2.232092 277.71 273.52 5.60
690 41.8900 2.229548 271.34 273.42 5.52
691 41.9400 2.227009 270.79 273.33 5.61
692 41.9900 2.224477 276.03 273.24 5.63
693 42.0400 2.221951 273.27 273.14 5.57
694 42.0900 2.219431 279.72 273.06 5.62
695 42.1400 2.216917 276.18 272.97 5.58
696 42.1900 2.214409 279.63 272.89 5.60
697 42.2400 2.211908 285.90 272.81 5.65
698 42.2900 2.209412 281.36 272.73 5.69
699 42.3400 2.206923 290.24 272.65 5.72
700 42.3900 2.204439 292.12 272.58 5.75
701 42.4400 2.201962 300.68 272.51 5.81
702 42.4900 2.199490 295.89 272.44 5.75
703 42.5400 2.197025 300.00 272.37 5.80
704 42.5900 2.194565 298.26 272.31 5.79
705 42.6400 2.192111 297.39 272.25 5.80
706 42.6900 2.189664 300.15 272.20 5.79
707 42.7400 2.187222 298.30 272.14 5.81
708 42.7900 2.184785 283.14 272.10 5.67
709 42.8400 2.182355 282.95 272.06 5.64
710 42.8900 2.179931 280.08 272.04 5.64
711 42.9400 2.177512 280.12 272.02 5.61
712 42.9900 2.175099 279.36 272.01 5.62
713 43.0400 2.172692 276.84 272.02 5.58
714 43.0900 2.170291 281.74 272.05 5.60
715 43.1400 2.167895 288.46 272.11 5.69
716 43.1900 2.165505 282.15 272.20 5.63
717 43.2400 2.163121 271.75 272.34 5.52
718 43.2900 2.160742 277.86 272.54 5.59
719 43.3400 2.158370 289.34 272.81 5.68
720 43.3900 2.156002 294.98 273.19 5.79
721 43.4400 2.153641 300.36 273.72 5.81
722 43.4900 2.151284 287.43 274.44 5.69
723 43.5400 2.148933 285.91 275.40 5.64
724 43.5900 2.146589 294.21 276.66 5.73
725 43.6400 2.144249 296.03 278.23 5.75
726 43.6900 2.141915 302.16 280.12 5.83
727 43.7400 2.139586 295.00 282.27 5.74
728 43.7900 2.137263 294.45 284.56 5.76
729 43.8400 2.134945 294.28 286.85 5.73
730 43.8900 2.132633 296.67 289.00 5.75
731 43.9400 2.130327 305.31 290.89 5.84
732 43.9900 2.128025 304.69 292.57 5.86
733 44.0400 2.125729 304.57 294.18 5.83
734 44.0900 2.123438 312.96 295.92 5.91
735 44.1400 2.121153 310.78 297.93 5.89
736 44.1900 2.118873 315.58 300.28 5.94
737 44.2400 2.116598 318.78 302.99 6.00
738 44.2900 2.114328 318.73 306.01 5.97
739 44.3400 2.112064 312.44 309.25 5.93
740 44.3900 2.109805 319.15 312.47 5.99
741 44.4400 2.107552 332.79 315.89 6.12
742 44.4900 2.105303 331.49 319.24 6.13
743 44.5400 2.103060 326.03 322.43 6.05
744 44.5900 2.100821 328.28 325.36 6.06
745 44.6400 2.098588 328.53 327.96 6.05
746 44.6900 2.096361 323.30 330.14 6.01
747 44.7400 2.094138 336.12 331.83 6.12
748 44.7900 2.091920 330.24 332.97 6.07
749 44.8400 2.089708 324.49 333.53 6.02
750 44.8900 2.087500 327.96 333.48 6.05
751 44.9400 2.085298 327.92 332.82 6.06
752 44.9900 2.083100 323.71 331.56 6.07
753 45.0400 2.080908 324.94 329.75 6.14
754 45.0900 2.078720 309.67 327.45 5.91
755 45.1400 2.076538 326.99 324.71 6.06
756 45.1900 2.074361 313.23 321.62 5.99
757 45.2400 2.072188 313.68 318.25 5.95
758 45.2900 2.070021 319.15 314.68 5.99
759 45.3400 2.067858 316.00 310.99 5.94
760 45.3900 2.065701 293.54 307.25 5.78
761 45.4400 2.063548 288.05 303.53 5.70
762 45.4900 2.061400 293.91 299.88 5.72
763 45.5400 2.059257 282.93 296.35 5.64
764 45.5900 2.057118 293.27 292.99 5.74
765 45.6400 2.054985 290.72 289.83 5.70
766 45.6900 2.052857 287.39 286.90 5.66
767 45.7400 2.050733 285.31 284.20 5.65
768 45.7900 2.048614 280.40 281.75 5.61
769 45.8400 2.046499 276.16 279.55 5.59
770 45.8900 2.044390 278.52 277.58 5.58
771 45.9400 2.042285 269.98 275.86 5.52
772 45.9900 2.040185 264.71 274.35 5.51
773 46.0400 2.038090 265.66 273.05 5.51
774 46.0900 2.035999 272.37 271.93 5.53
775 46.1400 2.033913 276.64 270.98 5.56
776 46.1900 2.031832 276.90 270.18 5.57
777 46.2400 2.029755 272.56 269.51 5.57
778 46.2900 2.027683 262.61 268.95 5.55
779 46.3400 2.025616 254.40 268.52 5.42
780 46.3900 2.023553 270.63 268.25 5.59
781 46.4400 2.021495 267.46 268.06 5.58
782 46.4900 2.019441 263.77 267.93 5.56
783 46.5400 2.017392 260.84 267.87 5.48
784 46.5900 2.015347 267.43 267.88 5.56
785 46.6400 2.013307 271.46 267.97 5.56
786 46.6900 2.011272 271.05 268.16 5.53
787 46.7400 2.009240 276.90 268.48 5.59
788 46.7900 2.007214 271.73 269.08 5.51
789 46.8400 2.005192 275.03 270.08 5.57
790 46.8900 2.003174 277.57 271.68 5.62
791 46.9400 2.001161 271.20 274.13 5.57
792 46.9900 1.999152 280.42 277.63 5.62
793 47.0400 1.997148 296.51 282.29 5.77
794 47.0900 1.995148 295.28 288.00 5.77
795 47.1400 1.993152 307.66 294.32 5.89
796 47.1900 1.991161 319.45 300.42 5.97
797 47.2400 1.989174 322.56 305.25 6.03
798 47.2900 1.987191 316.40 307.66 5.96
799 47.3400 1.985213 316.35 306.89 5.96
800 47.3900 1.983239 309.50 303.09 5.89
801 47.4400 1.981269 302.71 297.28 5.85
802 47.4900 1.979304 295.04 290.76 5.78
803 47.5400 1.977343 286.57 284.57 5.66
804 47.5900 1.975386 281.04 279.32 5.65
805 47.6400 1.973433 276.42 275.26 5.57
806 47.6900 1.971485 273.93 272.36 5.55
807 47.7400 1.969541 276.39 270.42 5.58
808 47.7900 1.967601 274.32 269.20 5.56
809 47.8400 1.965665 269.32 268.44 5.53
810 47.8900 1.963734 271.15 267.98 5.56
811 47.9400 1.961806 271.06 267.68 5.52
812 47.9900 1.959883 274.83 267.48 5.55
813 48.0400 1.957964 273.92 267.34 5.53
814 48.0900 1.956049 272.90 267.23 5.54
815 48.1400 1.954138 271.77 267.14 5.52
816 48.1900 1.952231 267.91 267.06 5.47
817 48.2400 1.950329 271.72 266.95 5.55
818 48.2900 1.948430 267.92 266.90 5.47
819 48.3400 1.946535 261.73 266.86 5.41
820 48.3900 1.944645 266.36 266.83 5.50
821 48.4400 1.942759 268.81 266.80 5.51
822 48.4900 1.940876 266.61 266.79 5.52
823 48.5400 1.938998 264.19 266.78 5.47
824 48.5900 1.937123 274.70 266.76 5.56
825 48.6400 1.935253 260.88 266.75 5.43
826 48.6900 1.933386 265.76 266.75 5.45
827 48.7400 1.931524 265.45 266.74 5.47
828 48.7900 1.929665 259.46 266.74 5.38
829 48.8400 1.927811 274.03 266.74 5.53
830 48.8900 1.925960 271.74 266.74 5.51
831 48.9400 1.924114 265.64 266.74 5.52
832 48.9900 1.922271 264.16 266.75 5.48
833 49.0400 1.920432 273.43 266.75 5.53
834 49.0900 1.918597 276.36 266.76 5.59
835 49.1400 1.916765 265.95 266.77 5.50
836 49.1900 1.914938 258.06 266.78 5.48
837 49.2400 1.913114 265.12 266.79 5.47
838 49.2900 1.911295 267.43 266.80 5.64
839 49.3400 1.909479 268.14 266.81 5.53
840 49.3900 1.907667 268.58 266.82 5.54
841 49.4400 1.905859 261.54 266.82 5.44
842 49.4900 1.904054 265.86 266.83 5.51
843 49.5400 1.902254 266.38 266.84 5.51
844 49.5900 1.900457 268.47 266.85 5.52
845 49.6400 1.898664 262.68 266.86 5.52
846 49.6900 1.896874 263.53 266.88 5.45
847 49.7400 1.895088 275.09 266.89 5.56
848 49.7900 1.893306 266.43 266.90 5.48
849 49.8400 1.891528 266.03 266.92 5.58
850 49.8900 1.889754 265.64 266.93 5.50
851 49.9400 1.887983 261.95 266.95 5.49
852 49.9900 1.886216 265.58 266.97 5.55
853 50.0400 1.884452 268.10 266.98 5.54
854 50.0900 1.882692 267.20 267.01 5.48
855 50.1400 1.880936 262.32 267.03 5.43
856 50.1900 1.879184 265.27 267.05 5.52
857 50.2400 1.877434 272.41 267.08 5.56
858 50.2900 1.875689 268.12 267.10 5.48
859 50.3400 1.873947 267.18 267.13 5.47
860 50.3900 1.872209 263.23 267.17 5.48
861 50.4400 1.870474 262.49 267.21 5.46
862 50.4900 1.868743 260.84 267.25 5.42
863 50.5400 1.867016 256.04 267.30 5.34
864 50.5900 1.865292 266.14 267.36 5.50
865 50.6400 1.863572 268.62 267.43 5.47
866 50.6900 1.861855 269.05 267.52 5.48
867 50.7400 1.860141 272.43 267.63 5.54
868 50.7900 1.858431 275.30 267.76 5.58
869 50.8400 1.856725 264.16 267.97 5.43
870 50.8900 1.855022 259.32 268.16 5.47
871 50.9400 1.853323 264.46 268.40 5.52
872 50.9900 1.851627 273.48 268.69 5.55
873 51.0400 1.849934 269.09 269.04 5.48
874 51.0900 1.848245 266.76 269.47 5.52
875 51.1400 1.846560 267.39 269.98 5.53
876 51.1900 1.844877 260.29 270.59 5.45
877 51.2400 1.843199 266.44 271.31 5.45
878 51.2900 1.841523 271.06 272.15 5.51
879 51.3400 1.839851 278.90 273.12 5.58
880 51.3900 1.838183 275.80 274.23 5.55
881 51.4400 1.836517 281.42 275.49 5.62
882 51.4900 1.834855 274.50 276.90 5.58
883 51.5400 1.833197 289.18 278.46 5.70
884 51.5900 1.831542 285.01 280.17 5.68
885 51.6400 1.829890 289.89 282.02 5.69
886 51.6900 1.828241 286.24 283.98 5.67
887 51.7400 1.826596 283.46 286.03 5.69
888 51.7900 1.824954 290.91 288.16 5.70
889 51.8400 1.823316 300.39 290.31 5.83
890 51.8900 1.821680 306.58 292.46 5.85
891 51.9400 1.820048 305.18 294.56 5.83
892 51.9900 1.818419 308.08 296.56 5.91
893 52.0400 1.816794 308.26 298.41 5.90
894 52.0900 1.815172 303.72 300.05 5.84
895 52.1400 1.813553 302.78 301.44 5.83
896 52.1900 1.811937 314.21 302.53 5.92
897 52.2400 1.810324 308.79 303.28 5.89
898 52.2900 1.808715 304.95 303.67 5.98
899 52.3400 1.807109 300.93 303.67 5.82
900 52.3900 1.805506 304.59 303.30 5.75
901 52.4400 1.803906 303.92 302.56 5.72
902 52.4900 1.802309 295.06 301.48 5.59
903 52.5400 1.800716 291.06 300.11 5.50
904 52.5900 1.799126 290.74 298.49 5.49
905 52.6400 1.797539 285.58 296.66 5.43
906 52.6900 1.795955 283.04 294.69 5.34
907 52.7400 1.794374 288.66 292.62 5.40
908 52.7900 1.792796 280.46 290.51 5.34
909 52.8400 1.791221 282.90 288.38 5.38
910 52.8900 1.789650 281.86 286.30 5.36
911 52.9400 1.788081 271.29 284.29 5.23
912 52.9900 1.786516 274.22 282.37 5.29
913 53.0400 1.784954 268.02 280.58 5.21
914 53.0900 1.783395 264.41 278.92 5.20
915 53.1400 1.781838 274.58 277.41 5.25
916 53.1900 1.780285 269.61 276.05 5.20
917 53.2400 1.778735 259.04 274.85 5.16
918 53.2900 1.777188 274.38 273.79 5.29
919 53.3400 1.775644 264.23 272.88 5.17
920 53.3900 1.774103 266.69 272.11 5.23
921 53.4400 1.772565 265.39 271.46 5.19
922 53.4900 1.771030 269.67 270.93 5.22
923 53.5400 1.769498 271.23 270.51 5.22
924 53.5900 1.767969 278.39 270.18 5.29
925 53.6400 1.766443 271.54 269.92 5.23
926 53.6900 1.764920 267.04 269.74 5.18
927 53.7400 1.763400 270.15 269.61 5.20
928 53.7900 1.761883 266.78 269.64 5.18
929 53.8400 1.760369 264.33 269.62 5.17
930 53.8900 1.758858 272.48 269.64 5.24
931 53.9400 1.757349 267.89 269.70 5.22
932 53.9900 1.755844 265.17 269.80 5.18
933 54.0400 1.754341 268.14 269.95 5.19
934 54.0900 1.752842 265.50 270.14 5.19
935 54.1400 1.751345 266.89 270.39 5.19
936 54.1900 1.749852 264.46 270.73 5.18
937 54.2400 1.748361 272.34 271.21 5.23
938 54.2900 1.746873 274.84 271.93 5.28
939 54.3400 1.745387 280.71 273.07 5.33
940 54.3900 1.743905 271.53 274.91 5.23
941 54.4400 1.742426 274.98 277.85 5.27
942 54.4900 1.740949 282.33 282.39 5.32
943 54.5400 1.739475 293.44 288.98 5.43
944 54.5900 1.738004 296.95 297.89 5.48
945 54.6400 1.736536 316.21 308.92 5.65
946 54.6900 1.735071 333.05 321.16 5.79
947 54.7400 1.733608 343.98 332.92 5.89
948 54.7900 1.732148 352.79 341.81 5.99
949 54.8400 1.730691 363.35 345.43 6.06
950 54.8900 1.729237 340.15 342.52 5.84
951 54.9400 1.727785 331.22 333.95 5.77
952 54.9900 1.726337 318.95 322.20 5.66
953 55.0400 1.724891 308.25 309.85 5.61
954 55.0900 1.723448 297.01 298.69 5.50
955 55.1400 1.722007 291.32 289.67 5.43
956 55.1900 1.720570 283.68 283.02 5.36
957 55.2400 1.719134 270.80 278.49 5.22
958 55.2900 1.717702 266.72 275.60 5.19
959 55.3400 1.716273 271.07 273.84 5.22
960 55.3900 1.714846 274.04 272.79 5.25
961 55.4400 1.713422 281.92 272.17 5.32
962 55.4900 1.712000 281.24 271.79 5.31
963 55.5400 1.710582 273.62 271.55 5.25
964 55.5900 1.709165 272.34 271.40 5.25
965 55.6400 1.707752 263.08 271.32 5.15
966 55.6900 1.706341 266.69 271.28 5.18
967 55.7400 1.704933 268.90 271.31 5.22
968 55.7900 1.703528 268.12 271.44 5.34
969 55.8400 1.702125 268.81 271.63 5.26
970 55.8900 1.700725 269.06 271.88 5.20
971 55.9400 1.699327 277.44 272.19 5.28
972 55.9900 1.697932 274.45 272.61 5.30
973 56.0400 1.696540 268.36 273.20 5.23
974 56.0900 1.695150 279.73 274.08 5.30
975 56.1400 1.693763 278.58 275.46 5.29
976 56.1900 1.692378 278.55 277.67 5.32
977 56.2400 1.690996 273.47 281.13 5.25
978 56.2900 1.689617 291.97 286.32 5.41
979 56.3400 1.688240 308.84 293.61 5.57
980 56.3900 1.686866 313.47 303.07 5.62
981 56.4400 1.685494 329.15 314.19 5.77
982 56.4900 1.684125 331.90 325.72 5.77
983 56.5400 1.682758 358.21 335.65 5.99
984 56.5900 1.681394 354.97 341.51 5.97
985 56.6400 1.680033 353.63 341.49 5.99
986 56.6900 1.678674 351.54 335.45 5.97
987 56.7400 1.677317 329.36 325.41 5.81
988 56.7900 1.675963 317.52 313.95 5.66
989 56.8400 1.674612 300.81 303.11 5.54
990 56.8900 1.673263 300.83 294.06 5.50
991 56.9400 1.671916 281.52 287.22 5.33
992 56.9900 1.670572 293.20 282.48 5.46
993 57.0400 1.669230 282.98 279.45 5.36
994 57.0900 1.667892 294.62 277.62 5.48
995 57.1400 1.666555 276.91 276.58 5.31
996 57.1900 1.665221 279.79 276.00 5.35
997 57.2400 1.663889 279.87 275.69 5.35
998 57.2900 1.662560 274.85 275.54 5.26
999 57.3400 1.661233 285.47 275.48 5.36
1000 57.3900 1.659909 279.54 275.48 5.30
1001 57.4400 1.658587 274.58 275.52 5.26
1002 57.4900 1.657267 274.27 275.61 5.27
1003 57.5400 1.655950 266.48 275.73 5.19
1004 57.5900 1.654635 276.48 275.89 5.30
1005 57.6400 1.653323 272.24 276.08 5.26
1006 57.6900 1.652013 276.06 276.31 5.31
1007 57.7400 1.650705 280.43 276.57 5.33
1008 57.7900 1.649400 273.27 276.87 5.27
1009 57.8400 1.648097 275.50 277.21 5.27
1010 57.8900 1.646797 274.75 277.59 5.25
1011 57.9400 1.645499 272.29 278.04 5.26
1012 57.9900 1.644203 270.43 278.49 5.22
1013 58.0400 1.642910 276.33 279.03 5.28
1014 58.0900 1.641619 275.93 279.66 5.27
1015 58.1400 1.640330 280.44 280.43 5.32
1016 58.1900 1.639044 276.43 281.37 5.27
1017 58.2400 1.637760 274.90 282.59 5.27
1018 58.2900 1.636478 283.81 284.28 5.34
1019 58.3400 1.635199 284.33 286.79 5.36
1020 58.3900 1.633922 290.92 290.74 5.42
1021 58.4400 1.632647 292.95 297.16 5.46
1022 58.4900 1.631374 309.27 307.50 5.60
1023 58.5400 1.630104 318.49 323.49 5.67
1024 58.5900 1.628837 347.02 346.71 5.91
1025 58.6400 1.627571 384.46 377.89 6.21
1026 58.6900 1.626307 429.17 415.98 6.57
1027 58.7400 1.625046 463.41 457.36 6.82
1028 58.7900 1.623788 502.15 495.39 7.10
1029 58.8400 1.622531 526.03 521.14 7.28
1030 58.8900 1.621277 523.18 526.49 7.26
1031 58.9400 1.620025 499.48 509.22 7.09
1032 58.9900 1.618775 473.79 475.21 6.90
1033 59.0400 1.617527 436.24 434.04 6.62
1034 59.0900 1.616282 394.85 393.79 6.30
1035 59.1400 1.615039 350.82 359.40 5.94
1036 59.1900 1.613798 324.60 332.90 5.71
1037 59.2400 1.612559 308.09 314.19 5.57
1038 59.2900 1.611323 288.48 301.91 5.41
1039 59.3400 1.610089 286.07 294.28 5.43
1040 59.3900 1.608857 275.32 289.74 5.29
1041 59.4400 1.607627 283.52 286.94 5.36
1042 59.4900 1.606399 281.53 285.16 5.38
1043 59.5400 1.605173 273.97 283.96 5.25
1044 59.5900 1.603950 285.33 283.09 5.37
1045 59.6400 1.602729 274.59 282.43 5.28
1046 59.6900 1.601510 279.01 281.92 5.32
1047 59.7400 1.600293 274.83 281.51 5.31
1048 59.7900 1.599078 274.86 281.20 5.28
1049 59.8400 1.597866 271.74 280.95 5.23
1050 59.8900 1.596655 277.66 280.77 5.31
1051 59.9400 1.595447 276.34 280.64 5.27
1052 59.9900 1.594241 274.87 280.56 5.26
1053 60.0400 1.593037 283.88 280.52 5.39
1054 60.0900 1.591835 271.10 280.52 5.28
1055 60.1400 1.590635 271.18 280.55 5.27
1056 60.1900 1.589438 279.03 280.62 5.35
1057 60.2400 1.588242 274.43 280.73 5.27
1058 60.2900 1.587049 261.38 280.90 5.19
1059 60.3400 1.585857 272.06 281.10 5.35
1060 60.3900 1.584668 281.25 281.34 5.38
1061 60.4400 1.583481 285.63 281.61 5.35
1062 60.4900 1.582295 279.62 281.93 5.30
1063 60.5400 1.581112 265.64 282.30 5.27
1064 60.5900 1.579931 279.36 282.71 5.32
1065 60.6400 1.578752 274.84 283.19 5.41
1066 60.6900 1.577576 281.72 283.74 5.35
1067 60.7400 1.576401 280.40 284.36 5.37
1068 60.7900 1.575228 273.24 285.09 5.27
1069 60.8400 1.574057 276.07 285.93 5.32
1070 60.8900 1.572889 278.51 286.92 5.31
1071 60.9400 1.571722 283.68 288.09 5.37
1072 60.9900 1.570557 282.26 289.50 5.40
1073 61.0400 1.569395 284.33 291.25 5.37
1074 61.0900 1.568234 286.10 293.52 5.37
1075 61.1400 1.567076 282.48 296.68 5.33
1076 61.1900 1.565919 297.25 301.43 5.48
1077 61.2400 1.564764 300.54 308.98 5.50
1078 61.2900 1.563612 317.58 321.32 5.66
1079 61.3400 1.562461 322.37 341.20 5.69
1080 61.3900 1.561313 371.59 371.81 6.10
1081 61.4400 1.560166 416.55 415.92 6.46
1082 61.4900 1.559022 473.67 474.36 6.89
1083 61.5400 1.557879 557.05 544.42 7.47
1084 61.5900 1.556738 642.90 618.28 8.03
1085 61.6400 1.555600 715.12 682.40 8.47
1086 61.6900 1.554463 745.90 719.70 8.65
1087 61.7400 1.553328 740.08 717.01 8.62
1088 61.7900 1.552195 678.97 674.96 8.26
1089 61.8400 1.551064 606.31 608.01 7.80
1090 61.8900 1.549935 529.48 533.70 7.30
1091 61.9400 1.548808 453.64 464.94 6.80
1092 61.9900 1.547683 392.88 408.67 6.34
1093 62.0400 1.546560 349.70 366.93 5.95
1094 62.0900 1.545439 324.33 338.59 5.72
1095 62.1400 1.544320 313.89 320.40 5.63
1096 62.1900 1.543202 294.28 309.29 5.50
1097 62.2400 1.542087 294.04 302.57 5.44
1098 62.2900 1.540973 296.81 298.40 5.46
1099 62.3400 1.539861 291.55 295.65 5.42
1100 62.3900 1.538751 285.97 293.70 5.36
1101 62.4400 1.537644 291.13 292.22 5.46
1102 62.4900 1.536538 286.71 291.06 5.39
1103 62.5400 1.535434 281.75 290.13 5.32
1104 62.5900 1.534331 284.83 289.37 5.38
1105 62.6400 1.533231 293.28 288.75 5.46
1106 62.6900 1.532133 284.00 288.24 5.39
1107 62.7400 1.531036 276.51 287.83 5.37
1108 62.7900 1.529941 283.48 287.50 5.35
1109 62.8400 1.528848 290.84 287.24 5.45
1110 62.8900 1.527757 292.65 287.04 5.45
1111 62.9400 1.526668 281.09 286.89 5.33
1112 62.9900 1.525580 289.24 286.79 5.39
1113 63.0400 1.524495 275.96 286.72 5.30
1114 63.0900 1.523411 277.04 286.70 5.30
1115 63.1400 1.522329 288.14 286.72 5.41
1116 63.1900 1.521249 289.22 286.78 5.43
1117 63.2400 1.520171 287.63 286.88 5.42
1118 63.2900 1.519094 289.93 286.91 5.47
1119 63.3400 1.518020 295.82 286.94 5.51
1120 63.3900 1.516947 298.53 287.02 5.52
1121 63.4400 1.515876 288.88 287.15 5.41
1122 63.4900 1.514807 285.42 287.33 5.39
1123 63.5400 1.513739 281.80 287.58 5.36
1124 63.5900 1.512674 297.00 287.90 5.48
1125 63.6400 1.511610 283.46 288.30 5.37
1126 63.6900 1.510548 279.77 288.82 5.33
1127 63.7400 1.509488 279.62 289.48 5.34
1128 63.7900 1.508429 290.48 290.32 5.45
1129 63.8400 1.507372 285.66 291.47 5.41
1130 63.8900 1.506317 286.51 293.11 5.38
1131 63.9400 1.505264 284.58 295.61 5.39
1132 63.9900 1.504213 292.62 299.68 5.42
1133 64.0400 1.503163 313.62 306.42 5.62
1134 64.0900 1.502115 330.08 317.39 5.76
1135 64.1400 1.501069 335.66 334.45 5.80
1136 64.1900 1.500024 358.53 359.17 6.02
1137 64.2400 1.498982 398.41 392.02 6.33
1138 64.2900 1.497941 446.21 431.40 6.72
1139 64.3400 1.496902 510.38 472.70 7.19
1140 64.3900 1.495864 539.97 507.90 7.36
1141 64.4400 1.494828 567.28 526.98 7.55
1142 64.4900 1.493794 547.62 522.79 7.41
1143 64.5400 1.492762 508.33 496.92 7.14
1144 64.5900 1.491731 474.12 458.58 6.90
1145 64.6400 1.490702 417.14 417.80 6.47
1146 64.6900 1.489675 380.40 381.53 6.22
1147 64.7400 1.488649 350.70 353.31 5.94
1148 64.7900 1.487625 325.80 333.76 5.76
1149 64.8400 1.486603 307.53 321.76 5.57
1150 64.8900 1.485583 300.00 315.18 5.52
1151 64.9400 1.484564 301.51 311.66 5.57
1152 64.9900 1.483547 305.84 309.12 5.66
1153 65.0400 1.482532 298.07 306.26 5.50
1154 65.0900 1.481518 303.23 302.80 5.55
1155 65.1400 1.480506 297.95 299.08 5.53
1156 65.1900 1.479495 294.49 295.56 5.49
1157 65.2400 1.478486 290.54 292.55 5.56
1158 65.2900 1.477479 280.43 290.18 5.38
1159 65.3400 1.476474 278.48 288.43 5.36
1160 65.3900 1.475470 283.66 287.19 5.37
1161 65.4400 1.474468 282.98 286.34 5.36
1162 65.4900 1.473467 278.24 285.75 5.30
1163 65.5400 1.472468 278.19 285.33 5.37
1164 65.5900 1.471471 279.52 285.03 5.34
1165 65.6400 1.470475 291.26 284.80 5.45
1166 65.6900 1.469481 281.27 284.63 5.37
1167 65.7400 1.468489 281.43 284.51 5.37
1168 65.7900 1.467498 281.26 284.44 5.34
1169 65.8400 1.466509 281.99 284.40 5.36
1170 65.8900 1.465521 281.56 284.40 5.40
1171 65.9400 1.464536 282.51 284.42 5.37
1172 65.9900 1.463551 281.56 284.49 5.36
1173 66.0400 1.462568 285.66 284.61 5.41
1174 66.0900 1.461587 280.92 284.78 5.39
1175 66.1400 1.460608 278.16 285.00 5.34
1176 66.1900 1.459630 273.55 285.29 5.25
1177 66.2400 1.458653 276.75 285.66 5.32
1178 66.2900 1.457679 287.44 286.12 5.39
1179 66.3400 1.456706 289.49 286.69 5.43
1180 66.3900 1.455734 297.01 287.40 5.49
1181 66.4400 1.454764 290.45 288.31 5.46
1182 66.4900 1.453795 292.33 289.50 5.45
1183 66.5400 1.452828 294.92 291.13 5.45
1184 66.5900 1.451863 299.98 293.52 5.49
1185 66.6400 1.450899 297.10 297.31 5.48
1186 66.6900 1.449937 295.92 303.55 5.50
1187 66.7400 1.448976 310.43 313.86 5.61
1188 66.7900 1.448017 325.41 330.33 5.79
1189 66.8400 1.447060 345.75 355.08 5.89
1190 66.8900 1.446103 393.54 389.37 6.30
1191 66.9400 1.445149 435.09 432.39 6.61
1192 66.9900 1.444196 479.98 480.31 6.94
1193 67.0400 1.443244 520.45 525.04 7.23
1194 67.0900 1.442294 566.99 554.89 7.56
1195 67.1400 1.441346 567.02 559.03 7.55
1196 67.1900 1.440399 536.85 535.60 7.34
1197 67.2400 1.439454 487.95 493.72 7.00
1198 67.2900 1.438510 442.84 445.81 6.74
1199 67.3400 1.437568 399.01 401.20 6.37
1200 67.3900 1.436627 364.89 364.88 6.07
1201 67.4400 1.435687 330.21 338.32 5.79
1202 67.4900 1.434749 322.25 320.57 5.74
1203 67.5400 1.433813 314.46 309.46 5.63
1204 67.5900 1.432878 301.89 302.62 5.61
1205 67.6400 1.431945 302.64 298.16 5.54
1206 67.6900 1.431013 292.08 294.91 5.45
1207 67.7400 1.430083 289.98 292.37 5.45
1208 67.7900 1.429154 291.33 290.32 5.49
1209 67.8400 1.428226 300.18 288.70 5.57
1210 67.8900 1.427300 288.97 287.45 5.50
1211 67.9400 1.426376 284.71 286.52 5.40
1212 67.9900 1.425453 289.91 285.87 5.45
1213 68.0400 1.424531 279.55 285.43 5.38
1214 68.0900 1.423611 287.43 285.18 5.42
1215 68.1400 1.422693 282.03 285.10 5.33
1216 68.1900 1.421775 288.57 285.22 5.47
1217 68.2400 1.420860 287.30 285.62 5.42
1218 68.2900 1.419945 277.40 286.43 5.46
1219 68.3400 1.419033 275.90 287.89 5.30
1220 68.3900 1.418121 290.44 290.25 5.42
1221 68.4400 1.417211 293.59 293.68 5.46
1222 68.4900 1.416303 292.73 298.25 5.43
1223 68.5400 1.415396 291.81 303.73 5.44
1224 68.5900 1.414490 296.43 309.44 5.45
1225 68.6400 1.413586 307.93 314.26 5.63
1226 68.6900 1.412683 314.99 316.79 5.66
1227 68.7400 1.411782 311.56 316.23 5.62
1228 68.7900 1.410882 304.84 313.09 5.58
1229 68.8400 1.409983 307.65 308.78 5.57
1230 68.8900 1.409086 300.05 304.60 5.49
1231 68.9400 1.408190 288.36 301.38 5.38
1232 68.9900 1.407296 296.08 299.50 5.49
1233 69.0400 1.406403 290.39 299.06 5.43
1234 69.0900 1.405511 294.29 300.05 5.47
1235 69.1400 1.404621 287.64 302.54 5.37
1236 69.1900 1.403733 294.43 306.95 5.43
1237 69.2400 1.402845 302.18 314.36 5.52
1238 69.2900 1.401959 321.89 326.83 5.71
1239 69.3400 1.401075 345.68 347.68 5.94
1240 69.3900 1.400192 372.17 381.34 6.11
1241 69.4400 1.399310 430.98 432.38 6.57
1242 69.4900 1.398430 504.29 503.71 7.11
1243 69.5400 1.397550 596.73 594.02 7.74
1244 69.5900 1.396673 698.15 695.04 8.37
1245 69.6400 1.395796 810.26 789.50 9.02
1246 69.6900 1.394921 858.59 851.60 9.29
1247 69.7400 1.394048 855.43 857.80 9.29
1248 69.7900 1.393176 812.41 805.02 9.03
1249 69.8400 1.392305 710.66 714.28 8.45
1250 69.8900 1.391435 634.17 612.52 8.00
1251 69.9400 1.390567 528.96 519.01 7.28
1252 69.9900 1.389700 452.03 443.57 6.73
1253 70.0400 1.388835 388.00 388.64 6.26
1254 70.0900 1.387971 349.71 351.89 6.02
1255 70.1400 1.387108 325.72 328.82 5.81
1256 70.1900 1.386246 306.00 314.86 5.58
1257 70.2400 1.385386 309.98 306.36 5.59
1258 70.2900 1.384527 303.71 300.95 5.53
1259 70.3400 1.383670 292.12 297.24 5.43
1260 70.3900 1.382814 296.74 294.50 5.46
1261 70.4400 1.381959 290.66 292.36 5.42
1262 70.4900 1.381106 280.16 290.64 5.36
1263 70.5400 1.380253 271.76 289.22 5.28
1264 70.5900 1.379403 283.31 288.04 5.34
1265 70.6400 1.378553 288.12 287.05 5.39
1266 70.6900 1.377705 287.69 286.23 5.39
1267 70.7400 1.376858 283.07 285.53 5.44
1268 70.7900 1.376012 284.26 284.95 5.37
1269 70.8400 1.375168 288.77 284.46 5.44
1270 70.8900 1.374325 283.15 284.06 5.36
1271 70.9400 1.373483 280.18 283.70 5.34
1272 70.9900 1.372642 281.82 283.31 5.42
1273 71.0400 1.371803 279.20 282.98 5.43
1274 71.0900 1.370965 289.05 282.71 5.46
1275 71.1400 1.370129 284.44 282.49 5.36
1276 71.1900 1.369293 282.59 282.34 5.33
1277 71.2400 1.368459 285.66 282.25 5.41
1278 71.2900 1.367627 280.87 282.23 5.35
1279 71.3400 1.366795 278.43 282.27 5.36
1280 71.3900 1.365965 280.77 282.40 5.33
1281 71.4400 1.365136 279.37 282.63 5.32
1282 71.4900 1.364308 281.09 282.97 5.38
1283 71.5400 1.363482 282.62 283.44 5.34
1284 71.5900 1.362657 286.09 284.10 5.40
1285 71.6400 1.361833 294.17 285.02 5.47
1286 71.6900 1.361010 302.80 286.35 5.53
1287 71.7400 1.360189 294.26 288.36 5.57
1288 71.7900 1.359368 288.85 291.64 5.49
1289 71.8400 1.358550 301.72 297.15 5.60
1290 71.8900 1.357732 308.92 306.43 5.60
1291 71.9400 1.356915 327.48 321.43 5.74
1292 71.9900 1.356100 357.48 344.12 6.01
1293 72.0400 1.355286 394.07 375.62 6.29
1294 72.0900 1.354474 425.24 414.99 6.53
1295 72.1400 1.353662 459.52 458.11 6.88
1296 72.1900 1.352852 503.02 496.61 7.14
1297 72.2400 1.352043 533.20 518.73 7.32
1298 72.2900 1.351235 521.18 515.10 7.23
1299 72.3400 1.350429 490.21 487.34 7.01
1300 72.3900 1.349623 464.66 446.27 6.85
1301 72.4400 1.348819 418.43 403.23 6.50
1302 72.4900 1.348016 370.99 365.50 6.14
1303 72.5400 1.347214 337.91 336.29 5.85
1304 72.5900 1.346414 311.76 315.91 5.73
1305 72.6400 1.345614 298.76 302.92 5.53
1306 72.6900 1.344816 292.17 295.20 5.50
1307 72.7400 1.344019 297.17 290.74 5.55
1308 72.7900 1.343224 289.58 287.96 5.43
1309 72.8400 1.342429 292.50 285.80 5.42
1310 72.8900 1.341636 289.96 283.78 5.39
1311 72.9400 1.340844 280.86 281.82 5.31
1312 72.9900 1.340053 281.64 280.02 5.32
1313 73.0400 1.339263 287.01 278.46 5.38
1314 73.0900 1.338475 282.19 277.17 5.35
1315 73.1400 1.337687 269.18 276.13 5.41
1316 73.1900 1.336901 265.51 275.29 5.23
1317 73.2400 1.336116 269.72 274.62 5.23
1318 73.2900 1.335332 262.96 274.06 5.20
1319 73.3400 1.334550 268.55 273.58 5.22
1320 73.3900 1.333768 275.24 273.16 5.27
1321 73.4400 1.332988 271.21 272.78 5.29
1322 73.4900 1.332209 268.03 272.43 5.39
1323 73.5400 1.331431 272.30 272.11 5.26
1324 73.5900 1.330654 279.09 271.81 5.29
1325 73.6400 1.329878 275.25 271.53 5.26
1326 73.6900 1.329104 276.84 271.26 5.31
1327 73.7400 1.328330 275.26 271.09 5.28
1328 73.7900 1.327558 274.36 270.99 5.32
1329 73.8400 1.326787 264.05 270.90 5.23
1330 73.8900 1.326017 273.04 270.82 5.34
1331 73.9400 1.325248 268.45 270.74 5.21
1332 73.9900 1.324481 276.09 270.68 5.27
1333 74.0400 1.323714 265.23 270.62 5.22
1334 74.0900 1.322949 265.29 270.57 5.20
1335 74.1400 1.322185 272.31 270.53 5.26
1336 74.1900 1.321421 263.13 270.49 5.18
1337 74.2400 1.320660 279.39 270.46 5.37
1338 74.2900 1.319899 266.59 270.44 5.27
1339 74.3400 1.319139 269.59 270.42 5.39
1340 74.3900 1.318380 263.32 270.41 5.27
1341 74.4400 1.317623 272.99 270.40 5.27
1342 74.4900 1.316867 275.37 270.40 5.28
1343 74.5400 1.316111 274.64 270.41 5.29
1344 74.5900 1.315357 272.84 270.43 5.25
1345 74.6400 1.314604 269.62 270.46 5.21
1346 74.6900 1.313853 272.17 270.50 5.25
1347 74.7400 1.313102 273.54 270.55 5.30
1348 74.7900 1.312352 273.26 270.64 5.27
1349 74.8400 1.311604 277.28 270.76 5.32
1350 74.8900 1.310856 277.62 270.90 5.34
1351 74.9400 1.310110 275.17 271.23 5.34
1352 74.9900 1.309365 278.73 271.78 5.30
1353 75.0400 1.308620 276.51 272.67 5.33
1354 75.0900 1.307877 285.36 274.00 5.37
1355 75.1400 1.307135 275.71 275.88 5.28
1356 75.1900 1.306395 281.39 278.11 5.33
1357 75.2400 1.305655 288.27 280.50 5.38
1358 75.2900 1.304916 291.93 282.52 5.45
1359 75.3400 1.304178 290.91 283.47 5.44
1360 75.3900 1.303442 288.16 282.93 5.49
1361 75.4400 1.302706 280.81 281.16 5.37
1362 75.4900 1.301972 279.10 278.86 5.37
1363 75.5400 1.301239 276.10 276.61 5.44
1364 75.5900 1.300507 270.86 274.74 5.36
1365 75.6400 1.299775 267.76 273.37 5.27
1366 75.6900 1.299045 274.01 272.46 5.29
1367 75.7400 1.298316 272.13 271.93 5.22
1368 75.7900 1.297588 273.45 271.65 5.25
1369 75.8400 1.296862 271.58 271.55 5.26
1370 75.8900 1.296136 271.50 271.56 5.29
1371 75.9400 1.295411 266.96 271.65 5.27
1372 75.9900 1.294687 274.17 271.83 5.29
1373 76.0400 1.293965 265.94 272.10 5.26
1374 76.0900 1.293243 274.69 272.46 5.27
1375 76.1400 1.292522 273.64 272.92 5.24
1376 76.1900 1.291803 269.57 273.53 5.24
1377 76.2400 1.291084 274.72 274.33 5.28
1378 76.2900 1.290367 271.64 275.37 5.23
1379 76.3400 1.289651 267.34 276.68 5.22
1380 76.3900 1.288935 271.49 278.29 5.24
1381 76.4400 1.288221 278.17 280.26 5.28
1382 76.4900 1.287508 269.58 282.62 5.20
1383 76.5400 1.286795 271.60 285.38 5.23
1384 76.5900 1.286084 279.70 288.55 5.34
1385 76.6400 1.285374 282.96 292.12 5.36
1386 76.6900 1.284665 280.01 296.05 5.33
1387 76.7400 1.283957 289.75 300.29 5.43
1388 76.7900 1.283250 299.01 304.74 5.53
1389 76.8400 1.282544 304.34 309.28 5.60
1390 76.8900 1.281839 316.57 313.78 5.64
1391 76.9400 1.281135 324.44 318.06 5.71
1392 76.9900 1.280432 328.80 321.94 5.76
1393 77.0400 1.279730 325.62 325.22 5.74
1394 77.0900 1.279029 334.98 327.72 5.80
1395 77.1400 1.278329 337.96 329.27 5.83
1396 77.1900 1.277630 334.99 329.75 5.83
1397 77.2400 1.276932 332.46 329.14 5.84
1398 77.2900 1.276235 335.78 327.46 5.82
1399 77.3400 1.275539 334.55 324.85 5.81
1400 77.3900 1.274844 324.49 321.31 5.78
1401 77.4400 1.274150 320.73 317.33 5.69
1402 77.4900 1.273457 311.72 312.95 5.66
1403 77.5400 1.272765 305.11 308.37 5.60
1404 77.5900 1.272074 301.35 303.74 5.51
1405 77.6400 1.271384 291.09 299.22 5.42
1406 77.6900 1.270695 280.17 294.92 5.34
1407 77.7400 1.270007 276.17 290.91 5.32
1408 77.7900 1.269320 283.64 287.32 5.37
1409 77.8400 1.268634 273.12 284.08 5.28
1410 77.8900 1.267949 270.99 281.25 5.25
1411 77.9400 1.267265 264.24 278.83 5.20
1412 77.9900 1.266582 280.38 276.78 5.32
1413 78.0400 1.265900 288.92 275.09 5.44
1414 78.0900 1.265219 277.44 273.70 5.34
1415 78.1400 1.264539 270.19 272.58 5.26
1416 78.1900 1.263860 265.42 271.68 5.19
1417 78.2400 1.263181 272.16 270.97 5.29
1418 78.2900 1.262504 266.77 270.40 5.25
1419 78.3400 1.261828 268.22 269.96 5.23
1420 78.3900 1.261153 270.93 269.61 5.25
1421 78.4400 1.260478 272.30 269.33 5.25
1422 78.4900 1.259805 270.36 269.10 5.30
1423 78.5400 1.259132 274.77 268.92 5.29
1424 78.5900 1.258461 268.81 268.76 5.21
1425 78.6400 1.257790 263.99 268.63 5.15
1426 78.6900 1.257121 263.99 268.51 5.15
1427 78.7400 1.256452 267.40 268.41 5.19
1428 78.7900 1.255784 272.41 268.33 5.28
1429 78.8400 1.255118 266.06 268.34 5.21
1430 78.8900 1.254452 261.85 268.36 5.24
1431 78.9400 1.253787 265.47 268.38 5.27
1432 78.9900 1.253123 269.68 268.41 5.27
1433 79.0400 1.252460 268.61 268.44 5.28
1434 79.0900 1.251798 272.31 268.47 5.31
1435 79.1400 1.251137 269.42 268.51 5.23
1436 79.1900 1.250477 267.35 268.55 5.19
1437 79.2400 1.249818 275.03 268.60 5.27
1438 79.2900 1.249160 274.08 268.64 5.26
1439 79.3400 1.248502 285.17 268.69 5.38
1440 79.3900 1.247846 282.22 268.75 5.39
1441 79.4400 1.247190 279.37 268.80 5.34
1442 79.4900 1.246536 274.41 268.86 5.33
1443 79.5400 1.245882 280.97 268.93 5.35
1444 79.5900 1.245230 280.92 268.99 5.32
1445 79.6400 1.244578 283.56 269.07 5.35
1446 79.6900 1.243927 272.68 269.14 5.28
1447 79.7400 1.243277 273.76 269.22 5.26
1448 79.7900 1.242628 277.58 269.25 5.28
1449 79.8400 1.241980 275.79 269.36 5.26
1450 79.8900 1.241333 291.05 269.48 5.51
1451 79.9400 1.240686 289.96 269.64 5.43
1452 79.9900 1.240041 284.98 269.87 5.38
1453 80.0400 1.239396 281.89 270.17 5.33
1454 80.0900 1.238753 286.68 270.57 5.36
1455 80.1400 1.238110 292.33 271.07 5.42
1456 80.1900 1.237468 290.75 271.63 5.41
1457 80.2400 1.236827 280.36 272.15 5.33
1458 80.2900 1.236187 274.21 272.50 5.31
1459 80.3400 1.235548 278.83 272.55 5.31
1460 80.3900 1.234910 271.49 272.34 5.24
1461 80.4400 1.234273 277.19 272.01 5.29
1462 80.4900 1.233637 275.16 271.69 5.36
1463 80.5400 1.233001 267.15 271.45 5.39
1464 80.5900 1.232366 266.07 271.31 5.18
1465 80.6400 1.231733 267.63 271.29 5.20
1466 80.6900 1.231100 270.86 271.35 5.23
1467 80.7400 1.230468 273.80 271.48 5.27
1468 80.7900 1.229837 274.58 271.67 5.25
1469 80.8400 1.229207 265.19 271.94 5.24
1470 80.8900 1.228577 266.28 272.30 5.22
1471 80.9400 1.227949 276.72 272.85 5.30
1472 80.9900 1.227321 266.51 273.66 5.19
1473 81.0400 1.226695 274.30 274.83 5.28
1474 81.0900 1.226069 269.83 276.44 5.21
1475 81.1400 1.225444 275.95 278.49 5.26
1476 81.1900 1.224820 284.18 280.82 5.34
1477 81.2400 1.224197 280.63 283.03 5.34
1478 81.2900 1.223574 279.90 284.51 5.30
1479 81.3400 1.222953 287.24 284.71 5.38
1480 81.3900 1.222332 281.77 283.76 5.33
1481 81.4400 1.221712 276.87 282.32 5.29
1482 81.4900 1.221094 278.57 280.96 5.30
1483 81.5400 1.220476 278.17 280.07 5.28
1484 81.5900 1.219858 288.16 279.73 5.41
1485 81.6400 1.219242 279.54 280.02 5.32
1486 81.6900 1.218627 275.05 280.93 5.27
1487 81.7400 1.218012 276.21 282.58 5.31
1488 81.7900 1.217398 282.17 285.33 5.34
1489 81.8400 1.216785 293.33 289.90 5.47
1490 81.8900 1.216173 301.86 297.60 5.51
1491 81.9400 1.215562 305.65 310.19 5.54
1492 81.9900 1.214952 320.46 329.58 5.67
1493 82.0400 1.214342 366.81 356.95 6.07
1494 82.0900 1.213734 400.43 391.55 6.34
1495 82.1400 1.213126 444.01 429.28 6.68
1496 82.1900 1.212519 471.91 461.36 6.88
1497 82.2400 1.211913 476.86 475.35 6.92
1498 82.2900 1.211307 466.30 464.00 6.85
1499 82.3400 1.210703 428.85 433.36 6.56
1500 82.3900 1.210099 405.52 395.85 6.39
1501 82.4400 1.209496 371.28 360.81 6.10
1502 82.4900 1.208894 336.96 332.75 5.84
1503 82.5400 1.208293 327.56 312.69 5.82
1504 82.5900 1.207693 305.80 299.60 5.57
1505 82.6400 1.207093 292.60 291.59 5.45
1506 82.6900 1.206494 286.41 286.82 5.45
1507 82.7400 1.205897 284.42 283.94 5.35
1508 82.7900 1.205299 286.62 282.08 5.39
1509 82.8400 1.204703 284.59 280.79 5.34
1510 82.8900 1.204108 284.18 279.84 5.34
1511 82.9400 1.203513 290.94 279.22 5.48
1512 82.9900 1.202920 282.07 278.65 5.40
1513 83.0400 1.202327 277.05 278.21 5.29
1514 83.0900 1.201734 275.29 277.86 5.28
1515 83.1400 1.201143 277.98 277.59 5.31
1516 83.1900 1.200553 270.75 277.38 5.26
1517 83.2400 1.199963 269.02 277.23 5.21
1518 83.2900 1.199374 273.04 277.12 5.28
1519 83.3400 1.198786 269.61 277.06 5.23
1520 83.3900 1.198199 278.29 277.03 5.30
1521 83.4400 1.197612 282.85 277.03 5.36
1522 83.4900 1.197026 267.00 277.05 5.24
1523 83.5400 1.196442 268.64 277.10 5.27
1524 83.5900 1.195858 280.01 277.18 5.31
1525 83.6400 1.195274 273.83 277.29 5.25
1526 83.6900 1.194692 275.22 277.43 5.33
1527 83.7400 1.194110 276.85 277.61 5.27
1528 83.7900 1.193529 273.60 277.83 5.31
1529 83.8400 1.192949 283.32 278.09 5.33
1530 83.8900 1.192370 284.72 278.40 5.40
1531 83.9400 1.191791 278.66 278.78 5.31
1532 83.9900 1.191213 275.58 279.24 5.26
1533 84.0400 1.190636 286.84 279.79 5.39
1534 84.0900 1.190060 278.68 280.47 5.35
1535 84.1400 1.189485 278.43 281.32 5.29
1536 84.1900 1.188910 280.71 282.43 5.32
1537 84.2400 1.188336 287.73 283.95 5.42
1538 84.2900 1.187763 283.17 286.24 5.34
1539 84.3400 1.187191 291.51 289.91 5.47
1540 84.3900 1.186619 297.63 296.02 5.49
1541 84.4400 1.186049 317.94 306.00 5.69
1542 84.4900 1.185479 326.01 321.42 5.72
1543 84.5400 1.184910 352.51 343.24 5.95
1544 84.5900 1.184341 392.07 370.82 6.29
1545 84.6400 1.183774 414.55 400.75 6.45
1546 84.6900 1.183207 441.78 425.52 6.66
1547 84.7400 1.182641 442.82 434.80 6.68
1548 84.7900 1.182075 428.53 423.47 6.56
1549 84.8400 1.181511 408.62 397.73 6.40
1550 84.8900 1.180947 366.93 367.88 6.09
1551 84.9400 1.180384 348.04 340.94 5.91
1552 84.9900 1.179822 324.32 319.96 5.71
1553 85.0400 1.179260 302.19 305.33 5.51
1554 85.0900 1.178699 295.46 295.97 5.46
1555 85.1400 1.178139 298.66 290.31 5.49
1556 85.1900 1.177580 297.96 286.93 5.47
1557 85.2400 1.177022 287.22 284.83 5.41
1558 85.2900 1.176464 291.16 283.42 5.43
1559 85.3400 1.175907 287.16 282.41 5.37
1560 85.3900 1.175351 294.72 281.64 5.51
1561 85.4400 1.174795 291.90 281.05 5.42
1562 85.4900 1.174240 314.71 280.69 5.62
1563 85.5400 1.173686 313.57 280.31 5.61
1564 85.5900 1.173133 311.11 280.00 5.59
1565 85.6400 1.172581 297.18 279.76 5.47
1566 85.6900 1.172029 306.76 279.56 5.55
1567 85.7400 1.171478 304.15 279.40 5.54
1568 85.7900 1.170928 297.08 279.27 5.50
1569 85.8400 1.170378 294.40 279.16 5.46
1570 85.8900 1.169829 293.13 279.08 5.44
1571 85.9400 1.169281 293.72 279.02 5.49
1572 85.9900 1.168734 289.14 278.97 5.42
1573 86.0400 1.168187 281.97 278.94 5.36
1574 86.0900 1.167641 291.58 278.92 5.46
1575 86.1400 1.167096 279.55 278.90 5.32
1576 86.1900 1.166552 279.65 278.90 5.30
1577 86.2400 1.166008 284.92 278.91 5.41
1578 86.2900 1.165465 285.00 278.92 5.38
1579 86.3400 1.164923 283.03 278.94 5.33
1580 86.3900 1.164382 287.17 278.97 5.38
1581 86.4400 1.163841 288.04 279.00 5.43
1582 86.4900 1.163301 288.30 279.04 5.47
1583 86.5400 1.162761 292.54 279.08 5.43
1584 86.5900 1.162223 291.35 279.13 5.45
1585 86.6400 1.161685 292.90 279.18 5.43
1586 86.6900 1.161148 288.99 279.23 5.39
1587 86.7400 1.160612 292.18 279.29 5.42
1588 86.7900 1.160076 283.84 279.35 5.34
1589 86.8400 1.159541 289.90 279.42 5.41
1590 86.8900 1.159006 287.98 279.49 5.40
1591 86.9400 1.158473 284.85 279.57 5.37
1592 86.9900 1.157940 278.51 279.65 5.30
1593 87.0400 1.157408 278.70 279.76 5.31
1594 87.0900 1.156876 281.95 279.86 5.33
1595 87.1400 1.156346 291.32 279.96 5.41
1596 87.1900 1.155816 271.46 280.10 5.31
1597 87.2400 1.155286 280.02 280.26 5.40
1598 87.2900 1.154758 276.64 280.48 5.33
1599 87.3400 1.154230 276.76 280.80 5.29
1600 87.3900 1.153702 281.09 281.23 5.33
1601 87.4400 1.153176 278.50 281.79 5.35
1602 87.4900 1.152650 281.35 282.45 5.35
1603 87.5400 1.152125 276.03 283.11 5.27
1604 87.5900 1.151601 274.67 283.59 5.27
1605 87.6400 1.151077 274.38 283.70 5.28
1606 87.6900 1.150554 277.39 283.44 5.30
1607 87.7400 1.150032 278.25 283.01 5.33
1608 87.7900 1.149510 275.86 282.58 5.32
1609 87.8400 1.148989 276.49 282.25 5.42
1610 87.8900 1.148469 285.32 282.06 5.38
1611 87.9400 1.147949 279.94 282.01 5.31
1612 87.9900 1.147430 274.37 282.11 5.26
1613 88.0400 1.146912 268.56 282.29 5.23
1614 88.0900 1.146395 275.49 282.50 5.33
1615 88.1400 1.145878 283.37 282.74 5.40
1616 88.1900 1.145362 277.27 283.00 5.30
1617 88.2400 1.144846 273.82 283.29 5.31
1618 88.2900 1.144331 287.45 283.60 5.38
1619 88.3400 1.143817 276.86 283.93 5.27
1620 88.3900 1.143304 279.06 284.28 5.33
1621 88.4400 1.142791 277.97 284.67 5.32
1622 88.4900 1.142279 284.62 285.08 5.38
1623 88.5400 1.141768 272.29 285.53 5.27
1624 88.5900 1.141257 281.17 286.03 5.38
1625 88.6400 1.140747 282.29 286.58 5.33
1626 88.6900 1.140238 292.47 287.19 5.46
1627 88.7400 1.139729 282.91 287.88 5.39
1628 88.7900 1.139221 287.39 288.66 5.39
1629 88.8400 1.138713 285.69 289.55 5.36
1630 88.8900 1.138207 289.59 290.58 5.44
1631 88.9400 1.137701 288.44 291.80 5.39
1632 88.9900 1.137195 290.68 293.24 5.41
1633 89.0400 1.136691 298.32 294.99 5.49
1634 89.0900 1.136187 295.23 297.17 5.45
1635 89.1400 1.135683 296.89 300.00 5.46
1636 89.1900 1.135181 286.11 303.95 5.36
1637 89.2400 1.134679 281.35 309.92 5.38
1638 89.2900 1.134177 306.30 319.57 5.58
1639 89.3400 1.133677 327.60 335.50 5.74
1640 89.3900 1.133176 348.52 361.23 5.93
1641 89.4400 1.132677 401.54 399.86 6.35
1642 89.4900 1.132178 462.52 452.29 6.82
1643 89.5400 1.131680 537.43 514.56 7.37
1644 89.5900 1.131183 601.38 574.28 7.79
1645 89.6400 1.130686 631.21 609.07 7.98
1646 89.6900 1.130190 598.56 599.47 7.76
1647 89.7400 1.129694 532.87 551.74 7.32
1648 89.7900 1.129199 460.26 489.65 6.80
1649 89.8400 1.128705 418.89 431.88 6.56
1650 89.8900 1.128212 370.64 386.90 6.11
1651 89.9400 1.127719 343.73 356.36 5.92
1652 89.9900 1.127227 319.42 338.12 5.67
1653 90.0400 1.126735 327.99 328.46 5.74
1654 90.0900 1.126244 321.56 323.55 5.70
1655 90.1400 1.125754 322.03 320.06 5.70
1656 90.1900 1.125264 310.06 316.05 5.59
1657 90.2400 1.124775 313.80 311.45 5.62
1658 90.2900 1.124287 294.33 307.03 5.47
1659 90.3400 1.123799 283.15 303.31 5.35
1660 90.3900 1.123312 288.86 300.48 5.39
1661 90.4400 1.122825 289.08 298.47 5.42
1662 90.4900 1.122339 290.42 297.11 5.43
1663 90.5400 1.121854 297.44 296.22 5.51
1664 90.5900 1.121369 286.71 295.69 5.39
1665 90.6400 1.120885 291.61 295.32 5.41
1666 90.6900 1.120402 292.68 295.08 5.44
1667 90.7400 1.119919 285.84 294.96 5.40
1668 90.7900 1.119437 285.78 294.92 5.39
1669 90.8400 1.118956 303.62 294.97 5.53
1670 90.8900 1.118475 299.50 295.09 5.50
1671 90.9400 1.117995 295.24 295.29 5.46
1672 90.9900 1.117515 301.64 295.55 5.61
1673 91.0400 1.117036 300.26 295.90 5.50
1674 91.0900 1.116558 294.15 296.32 5.45
1675 91.1400 1.116081 293.97 296.84 5.46
1676 91.1900 1.115603 298.05 297.46 5.48
1677 91.2400 1.115127 287.46 298.20 5.43
1678 91.2900 1.114651 304.95 299.07 5.55
1679 91.3400 1.114176 301.06 300.12 5.51
1680 91.3900 1.113701 294.49 301.39 5.48
1681 91.4400 1.113227 292.04 302.94 5.42
1682 91.4900 1.112754 291.35 304.87 5.43
1683 91.5400 1.112281 294.51 307.33 5.50
1684 91.5900 1.111809 303.77 310.61 5.53
1685 91.6400 1.111337 309.30 315.29 5.61
1686 91.6900 1.110866 309.48 322.53 5.60
1687 91.7400 1.110396 316.46 334.35 5.64
1688 91.7900 1.109926 352.70 354.04 5.95
1689 91.8400 1.109457 389.73 385.48 6.26
1690 91.8900 1.108989 453.70 431.86 6.75
1691 91.9400 1.108521 531.01 493.17 7.31
1692 91.9900 1.108054 617.20 562.71 7.87
1693 92.0400 1.107587 656.28 622.55 8.12
1694 92.0900 1.107121 673.67 644.90 8.23
1695 92.1400 1.106655 627.06 615.74 7.94
1696 92.1900 1.106191 550.84 553.26 7.44
1697 92.2400 1.105726 458.94 484.72 6.79
1698 92.2900 1.105263 403.60 426.16 6.37
1699 92.3400 1.104800 373.39 383.05 6.13
1700 92.3900 1.104337 366.82 354.69 6.08
1701 92.4400 1.103875 340.23 337.57 5.87
1702 92.4900 1.103414 326.13 327.55 5.73
1703 92.5400 1.102953 333.44 321.29 5.80
1704 92.5900 1.102493 320.34 316.76 5.67
1705 92.6400 1.102034 314.50 313.20 5.66
1706 92.6900 1.101575 314.18 310.41 5.68
1707 92.7400 1.101117 314.23 308.28 5.62
1708 92.7900 1.100659 311.92 306.72 5.62
1709 92.8400 1.100202 307.92 305.63 5.66
1710 92.8900 1.099745 312.64 304.93 5.62
1711 92.9400 1.099289 302.78 304.53 5.52
1712 92.9900 1.098834 300.18 304.41 5.51
1713 93.0400 1.098379 307.49 304.56 5.56
1714 93.0900 1.097925 312.70 305.06 5.68
1715 93.1400 1.097471 295.82 306.09 5.45
1716 93.1900 1.097018 314.70 307.86 5.64
1717 93.2400 1.096566 310.58 310.89 5.63
1718 93.2900 1.096114 320.35 315.74 5.67
1719 93.3400 1.095663 320.73 322.95 5.68
1720 93.3900 1.095212 339.24 332.64 5.84
1721 93.4400 1.094762 368.48 344.01 6.09
1722 93.4900 1.094312 367.40 354.85 6.09
1723 93.5400 1.093863 365.95 361.77 6.08
1724 93.5900 1.093415 367.13 362.89 6.10
1725 93.6400 1.092967 365.51 360.32 6.09
1726 93.6900 1.092520 363.03 357.78 6.04
1727 93.7400 1.092073 360.11 357.45 6.01
1728 93.7900 1.091627 358.89 359.82 6.00
1729 93.8400 1.091182 373.23 364.36 6.12
1730 93.8900 1.090737 371.67 369.96 6.11
1731 93.9400 1.090292 384.83 375.28 6.23
1732 93.9900 1.089849 375.65 378.99 6.15
1733 94.0400 1.089405 379.64 380.11 6.17
1734 94.0900 1.088963 373.84 378.18 6.13
1735 94.1400 1.088521 365.89 373.41 6.06
1736 94.1900 1.088079 366.30 366.50 6.08
1737 94.2400 1.087638 355.36 358.32 5.99
1738 94.2900 1.087198 351.93 349.69 5.95
1739 94.3400 1.086758 343.75 341.24 5.94
1740 94.3900 1.086319 328.60 333.42 5.77
1741 94.4400 1.085880 320.89 326.52 5.69
1742 94.4900 1.085442 302.64 320.68 5.55
1743 94.5400 1.085004 322.44 315.93 5.70
1744 94.5900 1.084567 315.79 312.18 5.64
1745 94.6400 1.084131 314.86 309.33 5.68
1746 94.6900 1.083695 311.80 307.21 5.67
1747 94.7400 1.083259 310.20 305.68 5.61
1748 94.7900 1.082824 307.53 304.58 5.57
1749 94.8400 1.082390 299.88 303.82 5.59
1750 94.8900 1.081957 304.32 303.28 5.55
1751 94.9400 1.081523 305.32 302.91 5.54
1752 94.9900 1.081091 298.18 302.64 5.48
1753 95.0400 1.080659 297.22 302.46 5.47
1754 95.0900 1.080227 305.94 302.34 5.54
1755 95.1400 1.079796 304.54 302.26 5.53
1756 95.1900 1.079366 300.18 302.21 5.57
1757 95.2400 1.078936 292.89 302.20 5.47
1758 95.2900 1.078507 288.02 302.20 5.47
1759 95.3400 1.078078 298.01 302.23 5.53
1760 95.3900 1.077650 300.75 302.28 5.51
1761 95.4400 1.077222 311.16 302.28 5.63
1762 95.4900 1.076795 302.04 302.20 5.56
1763 95.5400 1.076368 292.80 302.13 5.49
1764 95.5900 1.075942 297.32 302.08 5.51
1765 95.6400 1.075517 300.38 302.06 5.51
1766 95.6900 1.075092 305.16 302.05 5.54
1767 95.7400 1.074668 304.03 302.06 5.53
1768 95.7900 1.074244 298.73 302.10 5.52
1769 95.8400 1.073820 297.85 302.16 5.52
1770 95.8900 1.073398 300.93 302.25 5.51
1771 95.9400 1.072975 298.50 302.38 5.53
1772 95.9900 1.072554 299.08 302.54 5.53
1773 96.0400 1.072132 300.43 302.75 5.54
1774 96.0900 1.071712 301.26 303.02 5.59
1775 96.1400 1.071292 300.89 303.36 5.52
1776 96.1900 1.070872 303.75 303.78 5.55
1777 96.2400 1.070453 301.07 304.31 5.52
1778 96.2900 1.070034 299.46 304.99 5.55
1779 96.3400 1.069616 314.12 305.86 5.64
1780 96.3900 1.069199 305.43 306.89 5.58
1781 96.4400 1.068782 311.85 308.44 5.60
1782 96.4900 1.068366 303.17 310.68 5.52
1783 96.5400 1.067950 315.42 314.17 5.63
1784 96.5900 1.067534 315.87 319.94 5.63
1785 96.6400 1.067120 335.70 329.59 5.81
1786 96.6900 1.066705 351.02 345.05 5.93
1787 96.7400 1.066292 375.21 367.85 6.17
1788 96.7900 1.065878 406.94 397.73 6.44
1789 96.8400 1.065466 427.40 430.39 6.56
1790 96.8900 1.065053 435.54 454.77 6.65
1791 96.9400 1.064642 428.47 456.60 6.56
1792 96.9900 1.064231 406.08 434.60 6.38
1793 97.0400 1.063820 379.55 402.30 6.28
1794 97.0900 1.063410 355.89 371.77 6.06
1795 97.1400 1.063000 350.07 348.12 6.03
1796 97.1900 1.062591 327.13 332.12 5.80
1797 97.2400 1.062183 310.68 322.46 5.58
1798 97.2900 1.061774 308.72 317.26 5.57
1799 97.3400 1.061367 311.37 314.82 5.63
1800 97.3900 1.060960 300.39 313.77 5.52
1801 97.4400 1.060553 302.89 312.95 5.53
1802 97.4900 1.060147 298.30 311.46 5.50
1803 97.5400 1.059742 305.04 309.32 5.53
1804 97.5900 1.059337 304.09 307.08 5.53
1805 97.6400 1.058932 294.75 305.16 5.51
1806 97.6900 1.058529 293.52 303.68 5.55
1807 97.7400 1.058125 298.77 302.61 5.49
1808 97.7900 1.057722 298.58 301.85 5.48
1809 97.8400 1.057320 291.69 301.31 5.52
1810 97.8900 1.056918 293.04 300.92 5.48
1811 97.9400 1.056516 298.13 300.61 5.49
1812 97.9900 1.056116 306.28 300.38 5.57
1813 98.0400 1.055715 309.39 300.19 5.59
1814 98.0900 1.055315 297.83 300.05 5.53
1815 98.1400 1.054916 296.77 299.94 5.50
1816 98.1900 1.054517 294.42 299.87 5.47
1817 98.2400 1.054119 292.66 299.83 5.49
1818 98.2900 1.053721 299.77 299.83 5.57
1819 98.3400 1.053323 301.03 299.86 5.51
1820 98.3900 1.052926 293.35 299.94 5.46
1821 98.4400 1.052530 296.98 300.08 5.47
1822 98.4900 1.052134 299.38 300.24 5.49
1823 98.5400 1.051739 300.98 300.46 5.50
1824 98.5900 1.051344 314.96 300.76 5.62
1825 98.6400 1.050949 296.18 301.13 5.49
1826 98.6900 1.050555 305.87 301.62 5.56
1827 98.7400 1.050162 304.07 302.14 5.56
1828 98.7900 1.049769 302.64 302.96 5.51
1829 98.8400 1.049377 297.57 304.07 5.47
1830 98.8900 1.048985 304.61 305.61 5.56
1831 98.9400 1.048593 299.62 307.92 5.52
1832 98.9900 1.048203 315.36 311.63 5.67
1833 99.0400 1.047812 325.69 317.78 5.72
1834 99.0900 1.047422 331.66 327.78 5.77
1835 99.1400 1.047033 355.79 343.02 5.97
1836 99.1900 1.046644 375.85 363.95 6.14
1837 99.2400 1.046255 399.95 388.53 6.34
1838 99.2900 1.045867 400.83 409.79 6.35
1839 99.3400 1.045480 403.14 416.66 6.37
1840 99.3900 1.045093 391.77 405.67 6.34
1841 99.4400 1.044706 380.79 386.12 6.23
1842 99.4900 1.044320 363.95 367.66 6.07
1843 99.5400 1.043934 338.62 354.24 5.85
1844 99.5900 1.043549 346.84 345.94 5.91
1845 99.6400 1.043165 337.76 341.07 5.85
1846 99.6900 1.042781 339.75 337.74 5.86
1847 99.7400 1.042397 333.22 334.89 5.85
1848 99.7900 1.042014 339.87 332.40 5.87
1849 99.8400 1.041631 339.19 330.26 5.91
1850 99.8900 1.041249 337.12 327.77 5.86
1851 99.9400 1.040867 337.80 323.77 5.89
1852 99.9900 1.040486 325.43 318.32 5.83
1853 100.0400 1.040105 322.49 312.77 5.69
1854 100.0900 1.039725 321.25 308.11 5.70
1855 100.1400 1.039345 303.07 304.64 5.58
1856 100.1900 1.038966 301.86 302.23 5.54
1857 100.2400 1.038587 306.34 300.61 5.62
1858 100.2900 1.038208 298.24 299.50 5.56
1859 100.3400 1.037830 303.83 298.70 5.53
1860 100.3900 1.037453 293.42 298.11 5.43
1861 100.4400 1.037076 290.57 297.62 5.43
1862 100.4900 1.036699 300.09 297.23 5.53
1863 100.5400 1.036323 290.59 296.88 5.53
1864 100.5900 1.035948 299.58 296.59 5.50
1865 100.6400 1.035573 305.18 296.33 5.57
1866 100.6900 1.035198 301.88 296.09 5.55
1867 100.7400 1.034824 302.16 295.89 5.55
1868 100.7900 1.034450 290.52 295.70 5.46
1869 100.8400 1.034077 291.25 295.52 5.44
1870 100.8900 1.033704 290.94 295.36 5.47
1871 100.9400 1.033332 291.87 295.22 5.46
1872 100.9900 1.032960 287.86 295.08 5.44
1873 101.0400 1.032589 298.81 294.95 5.49
1874 101.0900 1.032218 290.18 294.83 5.42
1875 101.1400 1.031847 290.53 294.72 5.42
1876 101.1900 1.031477 284.41 294.61 5.35
1877 101.2400 1.031108 299.55 294.58 5.49
1878 101.2900 1.030739 303.14 294.48 5.52
1879 101.3400 1.030370 295.49 294.37 5.48
1880 101.3900 1.030002 295.18 294.26 5.44
1881 101.4400 1.029634 294.92 294.14 5.44
1882 101.4900 1.029267 291.55 294.04 5.43
1883 101.5400 1.028900 288.63 293.93 5.47
1884 101.5900 1.028534 295.42 293.83 5.47
1885 101.6400 1.028168 305.88 293.73 5.61
1886 101.6900 1.027803 302.25 293.63 5.54
1887 101.7400 1.027438 299.96 293.53 5.51
1888 101.7900 1.027073 292.42 293.44 5.47
1889 101.8400 1.026709 283.33 293.35 5.34
1890 101.8900 1.026346 299.88 293.26 5.49
1891 101.9400 1.025982 293.56 293.17 5.43
1892 101.9900 1.025620 296.51 293.09 5.46
1893 102.0400 1.025258 286.52 293.00 5.38
1894 102.0900 1.024896 295.64 292.92 5.50
1895 102.1400 1.024535 292.65 292.84 5.46
1896 102.1900 1.024174 290.15 292.76 5.41
1897 102.2400 1.023813 294.07 292.68 5.49
1898 102.2900 1.023453 300.05 292.60 5.50
1899 102.3400 1.023094 300.00 292.53 5.52
1900 102.3900 1.022735 298.34 292.45 5.50
1901 102.4400 1.022376 285.70 292.38 5.52
1902 102.4900 1.022018 284.68 292.31 5.46
1903 102.5400 1.021660 284.89 292.25 5.41
1904 102.5900 1.021303 287.11 292.18 5.41
1905 102.6400 1.020946 292.77 292.12 5.48
1906 102.6900 1.020589 282.72 292.05 5.36
1907 102.7400 1.020234 286.65 292.00 5.39
1908 102.7900 1.019878 290.16 291.94 5.43
1909 102.8400 1.019523 291.43 291.89 5.45
1910 102.8900 1.019168 297.87 291.90 5.56
1911 102.9400 1.018814 297.84 291.94 5.49
1912 102.9900 1.018460 282.64 291.98 5.36
1913 103.0400 1.018107 286.83 292.02 5.43
1914 103.0900 1.017754 290.30 292.08 5.47
1915 103.1400 1.017402 295.18 292.13 5.48
1916 103.1900 1.017050 291.67 292.20 5.42
1917 103.2400 1.016698 300.07 292.27 5.53
1918 103.2900 1.016347 296.90 292.30 5.47
1919 103.3400 1.015996 289.53 292.40 5.44
1920 103.3900 1.015646 294.72 292.52 5.52
1921 103.4400 1.015296 301.25 292.66 5.56
1922 103.4900 1.014947 296.87 292.82 5.53
1923 103.5400 1.014598 285.07 293.01 5.39
1924 103.5900 1.014249 291.39 293.25 5.45
1925 103.6400 1.013901 295.80 293.53 5.50
1926 103.6900 1.013553 297.20 293.89 5.47
1927 103.7400 1.013206 287.42 294.33 5.42
1928 103.7900 1.012859 296.45 294.90 5.46
1929 103.8400 1.012513 292.22 295.68 5.46
1930 103.8900 1.012167 295.83 296.78 5.46
1931 103.9400 1.011822 294.33 298.47 5.45
1932 103.9900 1.011477 298.08 301.22 5.51
1933 104.0400 1.011132 306.15 305.76 5.57
1934 104.0900 1.010788 321.73 313.09 5.70
1935 104.1400 1.010444 324.76 323.50 5.78
1936 104.1900 1.010100 352.91 336.48 5.95
1937 104.2400 1.009757 358.61 348.33 6.00
1938 104.2900 1.009415 358.13 351.97 6.06
1939 104.3400 1.009073 345.77 344.47 5.91
1940 104.3900 1.008731 329.78 331.59 5.87
1941 104.4400 1.008390 319.77 319.44 5.82
1942 104.4900 1.008049 313.56 310.33 5.62
1943 104.5400 1.007709 318.65 304.29 5.66
1944 104.5900 1.007369 302.42 300.59 5.55
1945 104.6400 1.007029 298.12 298.38 5.54
1946 104.6900 1.006690 298.02 297.03 5.47
1947 104.7400 1.006351 303.29 296.15 5.53
1948 104.7900 1.006013 295.40 295.56 5.45
1949 104.8400 1.005675 296.89 295.13 5.46
1950 104.8900 1.005337 292.60 294.83 5.44
1951 104.9400 1.005000 297.85 294.63 5.50
1952 104.9900 1.004664 288.15 294.49 5.44
1953 105.0400 1.004328 288.23 294.42 5.43
1954 105.0900 1.003992 294.20 294.41 5.47
1955 105.1400 1.003656 294.67 294.45 5.46
1956 105.1900 1.003321 287.03 294.54 5.37
1957 105.2400 1.002987 300.12 294.69 5.49
1958 105.2900 1.002653 298.53 294.91 5.50
1959 105.3400 1.002319 285.13 295.21 5.39
1960 105.3900 1.001986 280.04 295.61 5.40
1961 105.4400 1.001653 275.14 296.16 5.34
1962 105.4900 1.001320 287.46 296.92 5.38
1963 105.5400 1.000988 291.48 298.00 5.49
1964 105.5900 1.000656 309.36 299.72 5.61
1965 105.6400 1.000325 303.82 302.49 5.53
1966 105.6900 0.999994 311.00 306.89 5.67
1967 105.7400 0.999664 312.69 313.53 5.60
1968 105.7900 0.999334 329.22 322.50 5.78
1969 105.8400 0.999004 335.02 332.66 5.89
1970 105.8900 0.998675 346.27 340.53 5.91
1971 105.9400 0.998346 327.33 341.09 5.82
1972 105.9900 0.998018 330.62 333.83 5.76
1973 106.0400 0.997690 329.26 323.76 5.75
1974 106.0900 0.997362 318.45 315.04 5.66
1975 106.1400 0.997035 322.14 308.97 5.72
1976 106.1900 0.996708 312.70 305.32 5.61
1977 106.2400 0.996382 313.74 303.45 5.64
1978 106.2900 0.996056 303.70 302.77 5.57
1979 106.3400 0.995730 294.15 302.92 5.47
1980 106.3900 0.995405 294.36 303.74 5.51
1981 106.4400 0.995080 299.92 305.27 5.57
1982 106.4900 0.994756 308.30 307.79 5.58
1983 106.5400 0.994432 309.80 311.91 5.61
1984 106.5900 0.994108 324.79 318.81 5.74
1985 106.6400 0.993785 333.54 330.42 5.79
1986 106.6900 0.993462 357.61 349.02 6.00
1987 106.7400 0.993140 384.15 376.17 6.23
1988 106.7900 0.992818 390.45 409.73 6.26
1989 106.8400 0.992496 410.28 437.84 6.42
1990 106.8900 0.992175 406.48 440.75 6.46
1991 106.9400 0.991854 396.31 416.15 6.32
1992 106.9900 0.991534 379.69 382.75 6.20
1993 107.0400 0.991214 339.94 354.14 5.86
1994 107.0900 0.990895 334.15 334.10 5.80
1995 107.1400 0.990575 315.35 321.56 5.68
1996 107.1900 0.990256 306.24 314.37 5.61
1997 107.2400 0.989938 309.38 310.70 5.69
1998 107.2900 0.989620 309.22 309.40 5.66
1999 107.3400 0.989302 314.30 309.85 5.64
2000 107.3900 0.988985 300.12 311.37 5.49
2001 107.4400 0.988668 324.00 312.47 5.74
2002 107.4900 0.988352 315.61 311.30 5.64
2003 107.5400 0.988036 305.60 308.04 5.58
2004 107.5900 0.987720 297.30 304.44 5.49
2005 107.6400 0.987405 292.88 301.54 5.43
2006 107.6900 0.987090 298.32 299.50 5.48
2007 107.7400 0.986775 299.30 298.17 5.48
2008 107.7900 0.986461 294.89 297.30 5.46
2009 107.8400 0.986148 302.88 296.74 5.55
2010 107.8900 0.985834 290.31 296.36 5.49
2011 107.9400 0.985521 280.55 296.09 5.38
2012 107.9900 0.985209 289.41 295.90 5.44
2013 108.0400 0.984896 288.44 295.78 5.42
2014 108.0900 0.984585 291.06 295.72 5.41
2015 108.1400 0.984273 294.80 295.70 5.45
2016 108.1900 0.983962 289.11 295.73 5.39
2017 108.2400 0.983652 288.22 295.83 5.40
2018 108.2900 0.983341 294.93 295.96 5.50
2019 108.3400 0.983031 294.28 296.14 5.51
2020 108.3900 0.982722 298.24 296.37 5.49
2021 108.4400 0.982413 302.73 296.64 5.56
2022 108.4900 0.982104 299.74 296.98 5.53
2023 108.5400 0.981796 289.65 297.38 5.41
2024 108.5900 0.981488 290.86 297.86 5.44
2025 108.6400 0.981180 299.93 298.44 5.52
2026 108.6900 0.980873 298.87 299.14 5.50
2027 108.7400 0.980566 302.89 299.98 5.60
2028 108.7900 0.980260 293.49 301.01 5.47
2029 108.8400 0.979954 298.20 302.28 5.49
2030 108.8900 0.979648 299.34 303.87 5.50
2031 108.9400 0.979342 297.41 305.89 5.53
2032 108.9900 0.979038 297.75 308.51 5.52
2033 109.0400 0.978733 307.51 312.01 5.61
2034 109.0900 0.978429 305.85 316.86 5.61
2035 109.1400 0.978125 316.15 323.99 5.65
2036 109.1900 0.977821 333.92 335.18 5.81
2037 109.2400 0.977518 360.45 353.49 6.09
2038 109.2900 0.977216 399.12 383.26 6.35
2039 109.3400 0.976913 434.17 428.78 6.61
2040 109.3900 0.976611 483.88 489.64 6.97
2041 109.4400 0.976310 526.13 548.16 7.27
2042 109.4900 0.976009 518.77 564.14 7.22
2043 109.5400 0.975708 488.42 523.42 7.06
2044 109.5900 0.975407 454.38 460.82 6.77
2045 109.6400 0.975107 399.45 406.77 6.35
2046 109.6900 0.974807 376.48 369.22 6.17
2047 109.7400 0.974508 348.00 345.74 5.92
2048 109.7900 0.974209 335.97 331.84 5.81
2049 109.8400 0.973910 317.03 323.72 5.64
2050 109.8900 0.973612 320.29 318.70 5.68
2051 109.9400 0.973314 322.27 314.85 5.71
2052 109.9900 0.973017 318.70 311.27 5.69
2053 110.0400 0.972720 311.79 308.11 5.62
2054 110.0900 0.972423 303.68 305.60 5.65
2055 110.1400 0.972126 302.02 303.70 5.57
2056 110.1900 0.971830 295.35 302.26 5.49
2057 110.2400 0.971535 295.87 301.20 5.55
2058 110.2900 0.971239 292.82 300.38 5.52
2059 110.3400 0.970944 306.50 299.74 5.59
2060 110.3900 0.970650 301.89 299.23 5.58
2061 110.4400 0.970356 305.42 298.82 5.57
2062 110.4900 0.970062 295.40 298.51 5.46
2063 110.5400 0.969768 294.97 298.26 5.50
2064 110.5900 0.969475 299.47 298.07 5.49
2065 110.6400 0.969182 293.90 297.93 5.44
2066 110.6900 0.968890 303.80 297.85 5.58
2067 110.7400 0.968598 302.48 297.80 5.58
2068 110.7900 0.968306 295.04 297.80 5.52
2069 110.8400 0.968015 302.34 297.84 5.51
2070 110.8900 0.967724 300.38 297.92 5.50
2071 110.9400 0.967433 300.31 298.04 5.54
2072 110.9900 0.967143 298.67 298.20 5.50
2073 111.0400 0.966853 298.79 298.42 5.48
2074 111.0900 0.966563 293.12 298.69 5.44
2075 111.1400 0.966274 302.03 299.02 5.55
2076 111.1900 0.965985 302.81 299.42 5.54
2077 111.2400 0.965697 301.30 299.91 5.53
2078 111.2900 0.965409 300.48 300.50 5.51
2079 111.3400 0.965121 312.55 301.23 5.68
2080 111.3900 0.964834 302.96 302.11 5.54
2081 111.4400 0.964547 296.97 303.20 5.54
2082 111.4900 0.964260 295.95 304.56 5.50
2083 111.5400 0.963974 299.39 306.28 5.52
2084 111.5900 0.963688 315.69 308.48 5.63
2085 111.6400 0.963402 305.50 311.37 5.57
2086 111.6900 0.963117 307.85 315.24 5.61
2087 111.7400 0.962832 314.42 320.65 5.65
2088 111.7900 0.962547 321.07 328.59 5.73
2089 111.8400 0.962263 334.94 340.91 5.81
2090 111.8900 0.961979 374.61 360.89 6.13
2091 111.9400 0.961695 417.20 393.39 6.48
2092 111.9900 0.961412 454.83 443.49 6.77
2093 112.0400 0.961129 504.19 509.42 7.12
2094 112.0900 0.960847 538.26 563.58 7.36
2095 112.1400 0.960565 538.16 559.60 7.35
2096 112.1900 0.960283 490.52 503.37 7.01
2097 112.2400 0.960002 451.88 439.51 6.75
2098 112.2900 0.959721 407.29 391.30 6.41
2099 112.3400 0.959440 365.27 360.20 6.09
2100 112.3900 0.959159 359.71 341.32 6.02
2101 112.4400 0.958879 340.98 330.04 5.88
2102 112.4900 0.958600 331.08 323.17 5.82
2103 112.5400 0.958320 319.08 318.42 5.72
2104 112.5900 0.958041 306.59 314.42 5.60
2105 112.6400 0.957763 305.45 310.83 5.63
2106 112.6900 0.957484 304.54 307.89 5.59
2107 112.7400 0.957206 299.03 305.65 5.48
2108 112.7900 0.956929 296.55 303.95 5.49
2109 112.8400 0.956651 304.71 302.66 5.57
2110 112.8900 0.956374 303.56 301.65 5.62
2111 112.9400 0.956098 295.63 300.84 5.54
2112 112.9900 0.955822 296.06 300.18 5.56
2113 113.0400 0.955546 303.65 299.63 5.59
2114 113.0900 0.955270 295.03 299.16 5.51
2115 113.1400 0.954995 298.55 298.78 5.51
2116 113.1900 0.954720 294.03 298.45 5.46
2117 113.2400 0.954445 298.33 298.16 5.50
2118 113.2900 0.954171 297.36 297.92 5.50
2119 113.3400 0.953897 285.97 297.71 5.44
2120 113.3900 0.953624 295.43 297.53 5.48
2121 113.4400 0.953350 294.46 297.38 5.53
2122 113.4900 0.953078 301.18 297.24 5.55
2123 113.5400 0.952805 310.21 297.12 5.64
2124 113.5900 0.952533 301.66 297.02 5.57
2125 113.6400 0.952261 297.37 296.92 5.54
2126 113.6900 0.951989 294.70 296.80 5.53
2127 113.7400 0.951718 297.98 296.68 5.54
2128 113.7900 0.951447 288.07 296.57 5.47
2129 113.8400 0.951177 297.57 296.47 5.47
2130 113.8900 0.950907 300.61 296.37 5.55
2131 113.9400 0.950637 307.38 296.29 5.61
2132 113.9900 0.950367 308.69 296.20 5.57
2133 114.0400 0.950098 295.50 296.13 5.47
2134 114.0900 0.949829 304.02 296.05 5.57
2135 114.1400 0.949561 305.82 295.99 5.60
2136 114.1900 0.949293 299.61 295.92 5.52
2137 114.2400 0.949025 300.25 295.86 5.64
2138 114.2900 0.948757 300.68 295.81 5.53
2139 114.3400 0.948490 295.49 295.75 5.50
2140 114.3900 0.948223 302.33 295.70 5.61
2141 114.4400 0.947957 292.30 295.65 5.54
2142 114.4900 0.947691 299.27 295.75 5.56
2143 114.5400 0.947425 304.60 295.71 5.55
2144 114.5900 0.947159 303.16 295.67 5.55
2145 114.6400 0.946894 305.24 295.63 5.57
2146 114.6900 0.946629 312.12 295.60 5.63
2147 114.7400 0.946365 309.01 295.56 5.63
2148 114.7900 0.946100 306.95 295.53 5.63
2149 114.8400 0.945836 307.07 295.50 5.58
2150 114.8900 0.945573 304.61 295.47 5.61
2151 114.9400 0.945310 299.47 295.31 5.57
2152 114.9900 0.945047 286.40 295.28 5.48
2153 115.0400 0.944784 293.90 295.26 5.50
2154 115.0900 0.944522 300.89 295.23 5.53
2155 115.1400 0.944260 306.69 295.21 5.61
2156 115.1900 0.943998 296.82 295.19 5.51
2157 115.2400 0.943737 297.09 295.17 5.48
2158 115.2900 0.943476 292.85 295.15 5.52
2159 115.3400 0.943215 288.37 295.13 5.38
2160 115.3900 0.942955 297.31 295.11 5.50
2161 115.4400 0.942695 311.31 295.09 5.63
2162 115.4900 0.942435 312.41 295.08 5.66
2163 115.5400 0.942176 308.07 295.06 5.61
2164 115.5900 0.941917 302.70 295.05 5.58
2165 115.6400 0.941658 291.93 295.03 5.52
2166 115.6900 0.941400 289.79 295.02 5.53
2167 115.7400 0.941142 304.57 295.01 5.57
2168 115.7900 0.940884 297.45 294.99 5.53
2169 115.8400 0.940627 294.63 294.98 5.46
2170 115.8900 0.940370 303.91 294.97 5.54
2171 115.9400 0.940113 301.01 294.96 5.52
2172 115.9900 0.939856 289.75 294.95 5.44
2173 116.0400 0.939600 286.12 294.94 5.37
2174 116.0900 0.939344 293.36 294.93 5.45
2175 116.1400 0.939089 301.69 295.00 5.54
2176 116.1900 0.938834 296.11 295.09 5.53
2177 116.2400 0.938579 297.09 295.18 5.49
2178 116.2900 0.938324 292.48 295.27 5.47
2179 116.3400 0.938070 296.17 295.36 5.48
2180 116.3900 0.937816 294.12 295.45 5.45
2181 116.4400 0.937563 302.63 295.55 5.53
2182 116.4900 0.937309 300.77 295.64 5.51
2183 116.5400 0.937056 296.19 295.74 5.47
2184 116.5900 0.936804 299.10 295.83 5.51
2185 116.6400 0.936551 301.82 295.93 5.54
2186 116.6900 0.936299 293.50 296.15 5.44
2187 116.7400 0.936048 295.43 296.25 5.45
2188 116.7900 0.935796 296.67 296.36 5.48
2189 116.8400 0.935545 291.27 296.46 5.43
2190 116.8900 0.935294 285.70 296.57 5.41
2191 116.9400 0.935044 298.64 296.67 5.57
2192 116.9900 0.934794 299.21 296.79 5.53
2193 117.0400 0.934544 293.19 296.90 5.46
2194 117.0900 0.934294 304.35 297.02 5.55
2195 117.1400 0.934045 297.08 297.14 5.50
2196 117.1900 0.933796 298.51 297.26 5.51
2197 117.2400 0.933548 299.80 297.39 5.57
2198 117.2900 0.933299 305.83 297.53 5.64
2199 117.3400 0.933051 297.56 297.53 5.53
2200 117.3900 0.932804 302.09 297.69 5.52
2201 117.4400 0.932556 292.59 297.87 5.45
2202 117.4900 0.932309 296.73 298.06 5.52
2203 117.5400 0.932063 301.85 298.28 5.61
2204 117.5900 0.931816 299.15 298.55 5.58
2205 117.6400 0.931570 300.77 298.87 5.56
2206 117.6900 0.931324 291.68 299.30 5.51
2207 117.7400 0.931079 297.54 299.89 5.53
2208 117.7900 0.930833 312.73 300.77 5.62
2209 117.8400 0.930588 313.42 302.07 5.63
2210 117.8900 0.930344 305.67 303.85 5.69
2211 117.9400 0.930100 305.76 305.72 5.58
2212 117.9900 0.929856 306.76 306.49 5.61
2213 118.0400 0.929612 311.58 305.61 5.67
2214 118.0900 0.929368 305.32 304.04 5.55
2215 118.1400 0.929125 294.86 302.65 5.48
2216 118.1900 0.928883 307.41 301.72 5.56
2217 118.2400 0.928640 319.77 301.17 5.69
2218 118.2900 0.928398 307.94 300.89 5.68
2219 118.3400 0.928156 308.65 300.76 5.57
2220 118.3900 0.927915 301.26 300.73 5.57
2221 118.4400 0.927673 297.00 300.77 5.55
2222 118.4900 0.927432 307.06 300.85 5.58
2223 118.5400 0.927192 317.48 300.96 5.67
2224 118.5900 0.926951 305.77 301.10 5.64
2225 118.6400 0.926711 302.71 301.26 5.60
2226 118.6900 0.926472 294.62 301.45 5.55
2227 118.7400 0.926232 300.25 301.65 5.54
2228 118.7900 0.925993 300.98 301.87 5.56
2229 118.8400 0.925754 300.10 302.11 5.53
2230 118.8900 0.925516 292.57 302.39 5.47
2231 118.9400 0.925277 300.89 302.72 5.57
2232 118.9900 0.925039 314.86 303.08 5.68
2233 119.0400 0.924802 314.19 303.51 5.71
2234 119.0900 0.924564 295.43 303.93 5.62
2235 119.1400 0.924327 307.67 304.40 5.65
2236 119.1900 0.924091 309.57 304.92 5.60
2237 119.2400 0.923854 308.70 305.49 5.58
2238 119.2900 0.923618 300.66 306.13 5.63
2239 119.3400 0.923382 300.34 306.86 5.60
2240 119.3900 0.923147 312.64 307.70 5.68
2241 119.4400 0.922911 310.35 308.66 5.68
2242 119.4900 0.922676 306.95 309.79 5.60
2243 119.5400 0.922442 315.18 311.12 5.66
2244 119.5900 0.922207 314.76 312.71 5.65
2245 119.6400 0.921973 302.07 314.66 5.54
2246 119.6900 0.921739 323.24 317.08 5.71
2247 119.7400 0.921506 314.52 320.15 5.63
2248 119.7900 0.921273 320.25 324.14 5.68
2249 119.8400 0.921040 327.95 329.52 5.89
2250 119.8900 0.920807 332.69 337.11 5.80
2251 119.9400 0.920575 349.32 348.33 5.92
2252 119.9900 0.920343 362.44 365.51 6.03
2253 120.0400 0.920111 390.55 391.95 6.27
2254 120.0900 0.919879 437.51 431.30 6.62
2255 120.1400 0.919648 475.17 484.61 6.90
2256 120.1900 0.919417 520.11 541.37 7.22
2257 120.2400 0.919187 561.16 571.38 7.51
2258 120.2900 0.918957 546.91 552.64 7.41
2259 120.3400 0.918727 514.00 502.65 7.19
2260 120.3900 0.918497 461.71 449.27 6.81
2261 120.4400 0.918267 419.23 407.18 6.49
2262 120.4900 0.918038 390.97 378.67 6.32
2263 120.5400 0.917809 371.70 360.97 6.15
2264 120.5900 0.917581 345.91 350.51 5.93
2265 120.6400 0.917353 343.97 343.81 5.90
2266 120.6900 0.917125 335.91 338.09 5.84
2267 120.7400 0.916897 328.53 332.47 5.78
2268 120.7900 0.916670 320.32 327.41 5.67
2269 120.8400 0.916442 318.43 323.32 5.69
2270 120.8900 0.916216 306.35 320.24 5.61
2271 120.9400 0.915989 308.76 317.99 5.60
2272 120.9900 0.915763 317.50 316.33 5.74
2273 121.0400 0.915537 315.99 315.11 5.68
2274 121.0900 0.915311 321.43 314.18 5.74
2275 121.1400 0.915086 311.58 313.47 5.67
2276 121.1900 0.914861 325.21 312.92 5.76
2277 121.2400 0.914636 316.35 312.50 5.64
2278 121.2900 0.914411 306.43 312.18 5.56
2279 121.3400 0.914187 316.47 311.95 5.66
2280 121.3900 0.913963 311.09 311.79 5.65
2281 121.4400 0.913739 313.43 311.70 5.64
2282 121.4900 0.913516 307.01 311.65 5.59
2283 121.5400 0.913293 317.22 311.65 5.69
2284 121.5900 0.913070 320.59 311.69 5.76
2285 121.6400 0.912847 309.61 311.78 5.67
2286 121.6900 0.912625 316.68 311.88 5.69
2287 121.7400 0.912403 307.52 311.98 5.60
2288 121.7900 0.912181 303.51 312.13 5.56
2289 121.8400 0.911960 318.10 312.32 5.67
2290 121.8900 0.911739 318.24 312.55 5.71
2291 121.9400 0.911518 310.51 312.83 5.61
2292 121.9900 0.911297 308.69 313.16 5.63
2293 122.0400 0.911077 319.13 313.55 5.67
2294 122.0900 0.910857 319.79 314.02 5.69
2295 122.1400 0.910637 316.92 314.57 5.66
2296 122.1900 0.910418 318.45 315.21 5.68
2297 122.2400 0.910199 315.64 315.98 5.75
2298 122.2900 0.909980 319.58 316.90 5.71
2299 122.3400 0.909761 317.86 318.00 5.66
2300 122.3900 0.909543 316.67 319.34 5.64
2301 122.4400 0.909324 311.08 320.98 5.61
2302 122.4900 0.909107 316.20 323.03 5.73
2303 122.5400 0.908889 325.78 325.63 5.73
2304 122.5900 0.908672 321.35 329.03 5.75
2305 122.6400 0.908455 329.58 333.64 5.82
2306 122.6900 0.908238 337.35 340.16 5.86
2307 122.7400 0.908022 349.05 349.76 5.97
2308 122.7900 0.907806 365.43 364.22 6.08
2309 122.8400 0.907590 388.88 385.79 6.28
2310 122.8900 0.907374 413.42 416.76 6.50
2311 122.9400 0.907159 449.08 457.67 6.71
2312 122.9900 0.906944 490.12 502.96 7.03
2313 123.0400 0.906729 511.40 535.52 7.16
2314 123.0900 0.906515 518.43 536.09 7.21
2315 123.1400 0.906300 494.79 506.51 7.07
2316 123.1900 0.906086 462.56 464.61 6.81
2317 123.2400 0.905873 428.43 425.15 6.58
2318 123.2900 0.905659 409.46 394.54 6.41
2319 123.3400 0.905446 385.94 373.23 6.29
2320 123.3900 0.905233 372.94 359.27 6.24
2321 123.4400 0.905021 354.03 350.43 6.07
2322 123.4900 0.904808 335.25 344.90 5.84
2323 123.5400 0.904596 344.19 341.42 5.92
2324 123.5900 0.904385 335.58 339.21 5.81
2325 123.6400 0.904173 339.32 337.78 5.84
2326 123.6900 0.903962 329.45 336.82 5.85
2327 123.7400 0.903751 336.06 336.12 5.82
2328 123.7900 0.903540 330.50 335.51 5.78
2329 123.8400 0.903330 341.80 334.88 5.87
2330 123.8900 0.903120 332.90 334.16 5.79
2331 123.9400 0.902910 325.78 333.29 5.82
2332 123.9900 0.902700 333.18 332.26 5.86
2333 124.0400 0.902491 324.68 331.08 5.80
2334 124.0900 0.902282 339.99 329.89 5.93
2335 124.1400 0.902073 332.78 328.52 5.85
2336 124.1900 0.901864 329.31 327.12 5.82
2337 124.2400 0.901656 332.29 325.73 5.80
2338 124.2900 0.901448 324.13 324.37 5.75
2339 124.3400 0.901240 321.12 323.08 5.73
2340 124.3900 0.901033 322.04 321.88 5.70
2341 124.4400 0.900826 319.13 320.78 5.67
2342 124.4900 0.900619 322.07 319.80 5.71
2343 124.5400 0.900412 321.15 318.94 5.70
2344 124.5900 0.900206 327.48 318.20 5.75
2345 124.6400 0.900000 313.54 317.57 5.63
2346 124.6900 0.899794 310.71 317.06 5.64
2347 124.7400 0.899588 315.09 316.66 5.67
2348 124.7900 0.899383 324.55 316.36 5.74
2349 124.8400 0.899178 319.93 316.15 5.72
2350 124.8900 0.898973 317.46 316.02 5.66
2351 124.9400 0.898768 320.21 315.97 5.77
2352 124.9900 0.898564 309.12 315.99 5.72
2353 125.0400 0.898360 306.77 316.09 5.63
2354 125.0900 0.898156 311.99 316.25 5.71
2355 125.1400 0.897953 301.03 316.49 5.50
2356 125.1900 0.897750 316.27 316.81 5.64
2357 125.2400 0.897547 312.15 317.22 5.61
2358 125.2900 0.897344 314.35 317.74 5.65
2359 125.3400 0.897142 313.85 318.40 5.67
2360 125.3900 0.896939 311.26 319.25 5.63
2361 125.4400 0.896738 307.98 320.35 5.56
2362 125.4900 0.896536 321.38 321.82 5.69
2363 125.5400 0.896335 319.11 323.87 5.68
2364 125.5900 0.896133 327.94 326.82 5.77
2365 125.6400 0.895933 320.51 331.16 5.77
2366 125.6900 0.895732 331.50 337.53 5.86
2367 125.7400 0.895532 355.78 346.63 6.06
2368 125.7900 0.895332 359.47 358.91 6.03
2369 125.8400 0.895132 375.00 373.93 6.14
2370 125.8900 0.894932 380.48 388.93 6.18
2371 125.9400 0.894733 394.38 398.17 6.32
2372 125.9900 0.894534 393.27 396.81 6.29
2373 126.0400 0.894335 381.97 386.27 6.19
2374 126.0900 0.894136 373.63 371.60 6.16
2375 126.1400 0.893938 365.70 357.42 6.11
2376 126.1900 0.893740 352.89 345.78 5.96
2377 126.2400 0.893542 345.82 337.14 5.94
2378 126.2900 0.893345 340.34 331.10 5.88
2379 126.3400 0.893148 333.13 326.98 5.80
2380 126.3900 0.892951 329.77 324.18 5.78
2381 126.4400 0.892754 327.12 322.25 5.84
2382 126.4900 0.892558 326.28 320.86 5.79
2383 126.5400 0.892361 318.68 319.84 5.74
2384 126.5900 0.892165 332.86 319.06 5.80
2385 126.6400 0.891970 326.09 318.45 5.73
2386 126.6900 0.891774 320.77 318.00 5.70
2387 126.7400 0.891579 315.04 317.62 5.68
2388 126.7900 0.891384 322.94 317.31 5.75
2389 126.8400 0.891189 328.28 317.06 5.76
2390 126.8900 0.890995 323.05 316.86 5.70
2391 126.9400 0.890801 313.78 316.79 5.67
2392 126.9900 0.890607 323.23 316.66 5.78
2393 127.0400 0.890413 316.71 316.56 5.64
2394 127.0900 0.890220 321.14 316.48 5.68
2395 127.1400 0.890027 323.10 316.43 5.72
2396 127.1900 0.889834 313.36 316.39 5.64
2397 127.2400 0.889641 320.00 316.36 5.73
2398 127.2900 0.889449 317.87 316.34 5.74
2399 127.3400 0.889257 317.69 316.34 5.72
2400 127.3900 0.889065 313.31 316.35 5.66
2401 127.4400 0.888873 310.46 316.36 5.63
2402 127.4900 0.888682 314.67 316.39 5.66
2403 127.5400 0.888490 317.01 316.42 5.78
2404 127.5900 0.888300 316.00 316.46 5.68
2405 127.6400 0.888109 316.06 316.50 5.65
2406 127.6900 0.887919 318.32 316.55 5.65
2407 127.7400 0.887728 319.87 316.61 5.69
2408 127.7900 0.887539 320.14 316.68 5.72
2409 127.8400 0.887349 322.83 316.75 5.69
2410 127.8900 0.887160 314.64 316.83 5.62
2411 127.9400 0.886970 311.94 316.92 5.62
2412 127.9900 0.886781 318.15 317.04 5.68
2413 128.0400 0.886593 306.73 317.17 5.60
2414 128.0900 0.886405 312.16 317.32 5.61
2415 128.1400 0.886216 321.42 317.49 5.71
2416 128.1900 0.886028 329.96 317.67 5.76
2417 128.2400 0.885841 327.02 317.87 5.73
2418 128.2900 0.885653 322.62 318.10 5.70
2419 128.3400 0.885466 323.95 318.36 5.76
2420 128.3900 0.885279 312.16 318.68 5.70
2421 128.4400 0.885093 321.57 319.07 5.76
2422 128.4900 0.884906 317.82 319.57 5.66
2423 128.5400 0.884720 323.85 320.23 5.79
2424 128.5900 0.884534 321.31 321.15 5.73
2425 128.6400 0.884349 313.34 322.43 5.62
2426 128.6900 0.884163 326.41 324.19 5.73
2427 128.7400 0.883978 329.01 326.52 5.75
2428 128.7900 0.883793 333.89 329.41 5.82
2429 128.8400 0.883608 336.29 332.59 5.86
2430 128.8900 0.883424 337.22 335.31 5.84
2431 128.9400 0.883240 331.85 336.53 5.80
2432 128.9900 0.883056 327.04 335.78 5.76
2433 129.0400 0.882872 339.77 333.60 5.86
2434 129.0900 0.882689 329.49 330.86 5.78
2435 129.1400 0.882505 328.55 328.25 5.74
2436 129.1900 0.882322 318.61 326.13 5.66
2437 129.2400 0.882140 318.90 324.60 5.69
2438 129.2900 0.881957 323.13 323.61 5.72
2439 129.3400 0.881775 314.17 323.09 5.62
2440 129.3900 0.881593 326.19 322.93 5.76
2441 129.4400 0.881411 319.11 323.05 5.66
2442 129.4900 0.881230 326.13 323.32 5.75
2443 129.5400 0.881049 326.49 323.48 5.79
2444 129.5900 0.880867 315.54 323.58 5.65
2445 129.6400 0.880687 324.67 323.41 5.72
2446 129.6900 0.880506 327.49 323.05 5.75
2447 129.7400 0.880326 331.98 322.63 5.83
2448 129.7900 0.880146 332.91 322.24 5.82
2449 129.8400 0.879966 324.99 321.94 5.76
2450 129.8900 0.879786 336.80 321.74 5.83
2451 129.9400 0.879607 327.11 321.63 5.78
2452 129.9900 0.879428 319.94 321.58 5.72
2453 130.0400 0.879249 323.17 321.60 5.76
2454 130.0900 0.879071 329.86 321.64 5.77
2455 130.1400 0.878892 332.61 321.72 5.78
2456 130.1900 0.878714 327.61 321.83 5.74
2457 130.2400 0.878536 331.00 321.94 5.77
2458 130.2900 0.878358 327.04 322.08 5.77
2459 130.3400 0.878181 318.40 322.23 5.74
2460 130.3900 0.878004 325.14 322.39 5.72
2461 130.4400 0.877827 326.28 322.56 5.72
2462 130.4900 0.877650 321.88 322.75 5.74
2463 130.5400 0.877474 324.35 322.95 5.72
2464 130.5900 0.877298 327.65 323.16 5.77
2465 130.6400 0.877122 326.32 323.39 5.76
2466 130.6900 0.876946 326.99 323.64 5.75
2467 130.7400 0.876770 340.07 323.91 5.84
2468 130.7900 0.876595 324.45 324.20 5.72
2469 130.8400 0.876420 318.11 324.51 5.69
2470 130.8900 0.876245 330.16 324.85 5.78
2471 130.9400 0.876071 334.22 325.22 5.84
2472 130.9900 0.875896 335.48 325.62 5.85
2473 131.0400 0.875722 333.17 326.07 5.80
2474 131.0900 0.875548 327.28 326.57 5.76
2475 131.1400 0.875375 327.63 327.12 5.73
2476 131.1900 0.875201 327.02 327.74 5.73
2477 131.2400 0.875028 327.72 328.44 5.79
2478 131.2900 0.874855 330.18 329.23 5.81
2479 131.3400 0.874683 325.42 330.15 5.74
2480 131.3900 0.874510 332.55 331.21 5.84
2481 131.4400 0.874338 334.19 332.45 5.81
2482 131.4900 0.874166 326.96 333.92 5.73
2483 131.5400 0.873994 329.15 335.70 5.80
2484 131.5900 0.873823 329.93 337.88 5.77
2485 131.6400 0.873651 329.76 340.66 5.79
2486 131.6900 0.873480 335.32 344.29 5.82
2487 131.7400 0.873310 343.02 349.20 5.92
2488 131.7900 0.873139 346.90 356.01 6.00
2489 131.8400 0.872969 366.68 365.58 6.09
2490 131.8900 0.872799 387.65 378.90 6.24
2491 131.9400 0.872629 397.92 396.99 6.32
2492 131.9900 0.872459 425.54 420.56 6.54
2493 132.0400 0.872290 442.20 449.31 6.66
2494 132.0900 0.872120 485.08 480.73 6.98
2495 132.1400 0.871951 515.77 508.48 7.20
2496 132.1900 0.871783 521.08 523.42 7.27
2497 132.2400 0.871614 524.46 519.84 7.27
2498 132.2900 0.871446 504.75 500.48 7.12
2499 132.3400 0.871278 492.17 472.69 7.04
2500 132.3900 0.871110 457.61 443.23 6.82
2501 132.4400 0.870943 416.08 416.58 6.47
2502 132.4900 0.870775 408.94 394.80 6.42
2503 132.5400 0.870608 381.68 378.17 6.20
2504 132.5900 0.870441 370.36 366.02 6.12
2505 132.6400 0.870275 359.91 357.41 6.02
2506 132.6900 0.870108 351.75 351.42 5.98
2507 132.7400 0.869942 338.84 347.28 5.84
2508 132.7900 0.869776 332.24 344.44 5.78
2509 132.8400 0.869610 329.52 342.49 5.76
2510 132.8900 0.869445 329.78 341.13 5.76
2511 132.9400 0.869280 328.73 340.06 5.75
2512 132.9900 0.869115 331.93 339.00 5.79
2513 133.0400 0.868950 323.44 337.90 5.72
2514 133.0900 0.868785 332.34 336.73 5.85
2515 133.1400 0.868621 327.25 335.69 5.82
2516 133.1900 0.868457 325.94 334.67 5.78
2517 133.2400 0.868293 331.03 333.80 5.79
2518 133.2900 0.868129 341.09 333.10 5.96
2519 133.3400 0.867966 334.91 332.56 5.88
2520 133.3900 0.867802 330.80 332.15 5.82
2521 133.4400 0.867639 323.94 331.86 5.77
2522 133.4900 0.867477 320.65 331.67 5.81
2523 133.5400 0.867314 320.88 331.56 5.71
2524 133.5900 0.867152 333.07 331.51 5.79
2525 133.6400 0.866990 321.99 331.53 5.75
2526 133.6900 0.866828 333.97 331.61 5.84
2527 133.7400 0.866666 330.40 331.77 5.78
2528 133.7900 0.866505 324.63 332.01 5.74
2529 133.8400 0.866344 340.07 332.38 5.85
2530 133.8900 0.866183 330.36 332.89 5.76
2531 133.9400 0.866022 336.39 333.61 5.86
2532 133.9900 0.865861 330.87 334.57 5.76
2533 134.0400 0.865701 331.45 335.85 5.78
2534 134.0900 0.865541 324.39 337.48 5.73
2535 134.1400 0.865381 334.23 339.44 5.81
2536 134.1900 0.865221 346.35 341.63 5.91
2537 134.2400 0.865062 344.68 343.89 5.91
2538 134.2900 0.864903 356.24 346.00 6.00
2539 134.3400 0.864744 353.44 347.62 6.00
2540 134.3900 0.864585 351.20 348.33 5.94
2541 134.4400 0.864427 338.62 347.88 5.84
2542 134.4900 0.864268 342.88 346.54 5.87
2543 134.5400 0.864110 346.51 344.77 5.90
2544 134.5900 0.863953 340.45 342.99 5.85
2545 134.6400 0.863795 353.70 341.49 5.96
2546 134.6900 0.863638 347.85 340.42 5.91
2547 134.7400 0.863480 335.13 339.80 5.80
2548 134.7900 0.863323 334.60 339.63 5.80
2549 134.8400 0.863167 343.10 339.86 5.89
2550 134.8900 0.863010 336.91 340.47 5.82
2551 134.9400 0.862854 340.63 341.44 5.93
2552 134.9900 0.862698 346.23 342.80 5.91
2553 135.0400 0.862542 337.82 344.64 5.84
2554 135.0900 0.862386 336.08 347.09 5.87
2555 135.1400 0.862231 341.76 350.41 5.87
2556 135.1900 0.862076 351.26 354.94 5.95
2557 135.2400 0.861921 356.02 361.21 5.98
2558 135.2900 0.861766 364.68 369.85 6.05
2559 135.3400 0.861611 376.98 381.61 6.21
2560 135.3900 0.861457 395.31 397.16 6.32
2561 135.4400 0.861303 415.87 416.92 6.46
2562 135.4900 0.861149 434.37 440.57 6.61
2563 135.5400 0.860996 459.77 466.24 6.80
2564 135.5900 0.860842 480.51 489.60 6.94
2565 135.6400 0.860689 501.51 504.21 7.09
2566 135.6900 0.860536 503.85 505.19 7.11
2567 135.7400 0.860383 497.65 493.06 7.07
2568 135.7900 0.860231 478.73 472.51 6.93
2569 135.8400 0.860078 445.13 448.62 6.68
2570 135.8900 0.859926 426.36 425.24 6.55
2571 135.9400 0.859774 408.47 404.76 6.40
2572 135.9900 0.859622 398.09 388.15 6.36
2573 136.0400 0.859471 394.44 375.39 6.29
2574 136.0900 0.859320 385.97 365.97 6.31
2575 136.1400 0.859169 372.68 359.22 6.14
2576 136.1900 0.859018 355.93 354.51 6.01
2577 136.2400 0.858867 346.08 351.32 5.89
2578 136.2900 0.858717 353.47 349.22 5.97
2579 136.3400 0.858567 351.10 347.88 5.96
2580 136.3900 0.858417 342.35 346.97 5.89
2581 136.4400 0.858267 342.62 346.17 5.91
2582 136.4900 0.858118 347.69 345.18 5.95
2583 136.5400 0.857968 347.28 343.93 5.99
2584 136.5900 0.857819 348.90 342.50 5.93
2585 136.6400 0.857670 345.41 341.04 5.89
2586 136.6900 0.857522 338.47 339.65 5.88
2587 136.7400 0.857373 341.53 338.42 5.89
2588 136.7900 0.857225 342.70 337.48 5.91
2589 136.8400 0.857077 328.05 336.62 5.76
2590 136.8900 0.856929 335.41 335.93 5.85
2591 136.9400 0.856781 336.18 335.38 5.89
2592 136.9900 0.856634 330.60 334.94 5.76
2593 137.0400 0.856487 333.58 334.58 5.81
2594 137.0900 0.856340 333.81 334.29 5.88
2595 137.1400 0.856193 330.34 334.05 5.84
2596 137.1900 0.856047 338.46 333.84 5.83
2597 137.2400 0.855900 331.61 333.67 5.79
2598 137.2900 0.855754 329.02 333.52 5.76
2599 137.3400 0.855608 325.32 333.39 5.74
2600 137.3900 0.855463 335.32 333.28 5.82
2601 137.4400 0.855317 332.09 333.19 5.80
2602 137.4900 0.855172 320.91 333.11 5.69
2603 137.5400 0.855027 332.12 333.05 5.79
2604 137.5900 0.854882 331.29 332.99 5.78
2605 137.6400 0.854738 336.47 332.94 5.82
2606 137.6900 0.854593 335.13 332.90 5.84
2607 137.7400 0.854449 334.93 332.89 5.84
2608 137.7900 0.854305 335.11 332.89 5.89
2609 137.8400 0.854161 329.43 332.89 5.82
2610 137.8900 0.854018 336.80 332.90 5.85
2611 137.9400 0.853874 328.02 332.92 5.79
2612 137.9900 0.853731 325.56 332.94 5.83
2613 138.0400 0.853588 321.65 332.96 5.74
2614 138.0900 0.853445 326.20 332.99 5.84
2615 138.1400 0.853303 336.81 333.02 5.88
2616 138.1900 0.853161 322.58 333.05 5.73
2617 138.2400 0.853019 339.05 333.08 5.86
2618 138.2900 0.852877 349.74 333.12 5.96
2619 138.3400 0.852735 346.17 333.17 5.93
2620 138.3900 0.852594 346.78 333.21 5.91
2621 138.4400 0.852452 340.11 333.26 5.90
2622 138.4900 0.852311 338.48 333.30 5.92
2623 138.5400 0.852171 340.34 333.35 5.89
2624 138.5900 0.852030 342.93 333.41 5.96
2625 138.6400 0.851889 335.06 333.46 5.85
2626 138.6900 0.851749 334.64 333.51 5.84
2627 138.7400 0.851609 340.85 333.57 5.89
2628 138.7900 0.851470 335.00 333.63 5.81
2629 138.8400 0.851330 336.80 333.69 5.82
2630 138.8900 0.851191 335.67 333.75 5.85
2631 138.9400 0.851051 337.14 333.81 5.84
2632 138.9900 0.850912 336.53 333.88 5.87
2633 139.0400 0.850774 338.16 333.94 5.84
2634 139.0900 0.850635 333.77 334.01 5.80
2635 139.1400 0.850497 342.98 334.07 5.87
2636 139.1900 0.850359 326.98 334.14 5.74
2637 139.2400 0.850221 338.77 334.21 5.84
2638 139.2900 0.850083 328.67 334.28 5.76
2639 139.3400 0.849946 334.58 334.35 5.82
2640 139.3900 0.849808 343.40 334.42 5.97
2641 139.4400 0.849671 326.92 334.50 5.73
2642 139.4900 0.849534 333.65 334.57 5.84
2643 139.5400 0.849398 333.14 334.65 5.84
2644 139.5900 0.849261 336.54 334.72 5.90
2645 139.6400 0.849125 336.17 334.80 5.85
2646 139.6900 0.848989 323.70 334.88 5.76
2647 139.7400 0.848853 335.40 334.96 5.80
2648 139.7900 0.848717 339.74 335.04 5.84
2649 139.8400 0.848582 347.53 335.12 5.91
2650 139.8900 0.848446 332.73 335.21 5.80
2651 139.9400 0.848311 334.83 335.29 5.89
2652 139.9900 0.848177 341.07 335.38 5.94
2653 140.0400 0.848042 342.01 335.46 5.88
2654 140.0900 0.847908 343.94 335.55 5.90
2655 140.1400 0.847773 335.87 335.64 5.82
2656 140.1900 0.847639 333.26 335.73 5.80
2657 140.2400 0.847505 342.25 335.83 5.90
2658 140.2900 0.847372 335.04 335.92 5.84
2659 140.3400 0.847238 338.67 336.02 5.85
2660 140.3900 0.847105 325.33 336.11 5.74
2661 140.4400 0.846972 329.25 336.12 5.76
2662 140.4900 0.846839 347.30 336.23 5.91
2663 140.5400 0.846707 338.27 336.33 5.90
2664 140.5900 0.846574 333.45 336.44 5.88
2665 140.6400 0.846442 329.15 336.55 5.89
2666 140.6900 0.846310 340.36 336.66 5.85
2667 140.7400 0.846178 341.67 336.78 5.89
2668 140.7900 0.846047 345.60 336.90 5.91
2669 140.8400 0.845915 340.35 337.02 5.87
2670 140.8900 0.845784 341.29 337.15 5.87
2671 140.9400 0.845653 336.29 337.28 5.86
2672 140.9900 0.845523 337.47 337.41 5.84
2673 141.0400 0.845392 343.28 337.55 5.88
2674 141.0900 0.845262 341.49 337.80 5.88
2675 141.1400 0.845131 350.14 337.95 5.95
2676 141.1900 0.845001 343.04 338.11 5.91
2677 141.2400 0.844872 331.46 338.27 5.80
2678 141.2900 0.844742 340.19 338.45 5.85
2679 141.3400 0.844613 339.52 338.62 5.87
2680 141.3900 0.844484 341.56 338.81 5.93
2681 141.4400 0.844355 344.82 339.01 5.92
2682 141.4900 0.844226 334.79 339.21 5.81
2683 141.5400 0.844097 339.45 339.43 5.89
2684 141.5900 0.843969 331.41 339.67 5.87
2685 141.6400 0.843841 350.40 339.92 5.99
2686 141.6900 0.843713 344.30 340.19 5.94
2687 141.7400 0.843585 336.99 340.48 5.84
2688 141.7900 0.843457 331.87 340.79 5.82
2689 141.8400 0.843330 334.79 341.12 5.85
2690 141.8900 0.843203 340.15 341.48 5.97
2691 141.9400 0.843076 341.83 341.87 5.87
2692 141.9900 0.842949 335.66 342.30 5.84
2693 142.0400 0.842822 339.07 342.77 5.93
2694 142.0900 0.842696 342.91 343.29 5.90
2695 142.1400 0.842570 325.91 343.86 5.79
2696 142.1900 0.842444 338.16 344.51 5.82
2697 142.2400 0.842318 339.71 345.22 5.87
2698 142.2900 0.842193 345.77 346.04 5.91
2699 142.3400 0.842067 342.07 346.96 5.89
2700 142.3900 0.841942 334.36 348.02 5.84
2701 142.4400 0.841817 342.82 349.25 5.88
2702 142.4900 0.841692 343.44 350.70 5.92
2703 142.5400 0.841568 347.21 352.42 5.93
2704 142.5900 0.841443 346.78 354.53 5.96
2705 142.6400 0.841319 338.15 357.15 5.86
2706 142.6900 0.841195 351.93 360.47 5.95
2707 142.7400 0.841071 357.03 364.75 6.03
2708 142.7900 0.840947 360.57 370.32 6.08
2709 142.8400 0.840824 361.19 377.58 6.05
2710 142.8900 0.840701 379.44 386.96 6.18
2711 142.9400 0.840578 395.88 398.89 6.36
2712 142.9900 0.840455 405.60 413.76 6.40
2713 143.0400 0.840332 427.16 431.41 6.56
2714 143.0900 0.840210 462.00 451.36 6.81
2715 143.1400 0.840088 467.94 471.89 6.85
2716 143.1900 0.839966 479.39 489.92 6.98
2717 143.2400 0.839844 500.42 501.40 7.14
2718 143.2900 0.839722 503.14 503.49 7.12
2719 143.3400 0.839601 492.94 496.26 7.06
2720 143.3900 0.839479 490.94 482.36 7.02
2721 143.4400 0.839358 475.86 464.90 6.92
2722 143.4900 0.839237 446.62 446.36 6.72
2723 143.5400 0.839117 429.35 428.55 6.62
2724 143.5900 0.838996 425.52 412.71 6.54
2725 143.6400 0.838876 415.87 399.44 6.47
2726 143.6900 0.838756 397.98 388.82 6.32
2727 143.7400 0.838636 380.26 380.62 6.19
2728 143.7900 0.838516 379.57 374.42 6.22
2729 143.8400 0.838397 366.14 369.78 6.09
2730 143.8900 0.838277 355.71 366.26 6.02
2731 143.9400 0.838158 355.97 363.45 6.00
2732 143.9900 0.838039 350.62 361.06 5.96
2733 144.0400 0.837920 356.89 358.95 6.01
2734 144.0900 0.837802 343.88 357.05 5.90
2735 144.1400 0.837683 350.93 355.36 5.95
2736 144.1900 0.837565 351.80 353.86 5.98
2737 144.2400 0.837447 360.01 352.56 6.04
2738 144.2900 0.837330 346.30 351.44 5.90
2739 144.3400 0.837212 338.42 350.50 5.84
2740 144.3900 0.837095 348.26 349.72 5.93
2741 144.4400 0.836977 342.23 349.08 5.86
2742 144.4900 0.836860 336.84 348.55 5.82
2743 144.5400 0.836744 346.76 348.03 5.91
2744 144.5900 0.836627 346.86 347.68 5.95
2745 144.6400 0.836510 344.30 347.40 5.92
2746 144.6900 0.836394 340.06 347.17 5.91
2747 144.7400 0.836278 338.25 346.98 5.89
2748 144.7900 0.836162 335.61 346.84 5.88
2749 144.8400 0.836047 350.01 346.73 5.99
2750 144.8900 0.835931 351.59 346.65 5.99
2751 144.9400 0.835816 349.44 346.60 6.05
2752 144.9900 0.835701 340.25 346.60 5.92
2753 145.0400 0.835586 355.17 346.65 6.03
2754 145.0900 0.835471 347.00 346.71 6.01
2755 145.1400 0.835357 358.68 346.80 6.03
2756 145.1900 0.835242 350.61 346.90 5.98
2757 145.2400 0.835128 346.36 347.02 5.99
2758 145.2900 0.835014 356.89 347.16 6.03
2759 145.3400 0.834900 350.62 347.32 6.01
2760 145.3900 0.834787 336.66 347.50 5.94
2761 145.4400 0.834673 344.79 347.69 5.95
2762 145.4900 0.834560 343.59 347.90 5.98
2763 145.5400 0.834447 346.33 348.12 5.95
2764 145.5900 0.834334 353.35 348.37 6.03
2765 145.6400 0.834222 352.41 348.64 5.97
2766 145.6900 0.834109 352.80 348.92 5.95
2767 145.7400 0.833997 351.74 349.23 5.94
2768 145.7900 0.833885 347.79 349.56 5.93
2769 145.8400 0.833773 358.53 349.91 6.01
2770 145.8900 0.833661 355.18 350.29 6.01
2771 145.9400 0.833550 359.03 350.70 6.02
2772 145.9900 0.833439 355.45 351.14 6.09
2773 146.0400 0.833327 348.19 351.62 5.94
2774 146.0900 0.833216 344.11 352.13 5.89
2775 146.1400 0.833106 355.64 352.68 5.99
2776 146.1900 0.832995 350.58 353.29 5.95
2777 146.2400 0.832885 352.72 353.94 5.95
2778 146.2900 0.832775 357.27 354.65 6.00
2779 146.3400 0.832665 344.91 355.44 5.89
2780 146.3900 0.832555 349.03 356.30 5.93
2781 146.4400 0.832445 352.49 357.25 5.96
2782 146.4900 0.832336 357.36 358.31 5.99
2783 146.5400 0.832227 352.49 359.49 5.95
2784 146.5900 0.832117 360.48 360.82 6.02
2785 146.6400 0.832009 365.00 362.33 6.07
2786 146.6900 0.831900 366.82 364.05 6.10
2787 146.7400 0.831791 361.47 366.05 6.12
2788 146.7900 0.831683 368.34 368.37 6.15
2789 146.8400 0.831575 359.59 371.11 6.05
2790 146.8900 0.831467 372.56 374.39 6.12
2791 146.9400 0.831359 364.07 378.38 6.04
2792 146.9900 0.831252 377.96 383.27 6.16
2793 147.0400 0.831144 382.62 389.33 6.20
2794 147.0900 0.831037 384.39 396.90 6.21
2795 147.1400 0.830930 391.59 406.33 6.28
2796 147.1900 0.830823 408.95 418.03 6.41
2797 147.2400 0.830717 415.97 432.38 6.47
2798 147.2900 0.830610 449.31 449.67 6.74
2799 147.3400 0.830504 462.85 469.94 6.86
2800 147.3900 0.830398 493.01 492.64 7.06
2801 147.4400 0.830292 502.49 516.35 7.10
2802 147.4900 0.830186 510.90 538.42 7.16
2803 147.5400 0.830081 537.15 555.43 7.35
2804 147.5900 0.829975 568.12 564.67 7.55
2805 147.6400 0.829870 568.95 565.68 7.56
2806 147.6900 0.829765 571.52 560.39 7.58
2807 147.7400 0.829661 563.64 551.47 7.52
2808 147.7900 0.829556 558.27 541.01 7.49
2809 147.8400 0.829452 543.06 530.38 7.39
2810 147.8900 0.829347 535.82 520.53 7.38
2811 147.9400 0.829243 522.05 512.05 7.25
2812 147.9900 0.829139 507.26 505.08 7.15
2813 148.0400 0.829036 501.55 499.39 7.14
2814 148.0900 0.828932 491.30 494.55 7.06
2815 148.1400 0.828829 490.39 490.09 7.07
2816 148.1900 0.828726 475.50 485.59 6.98
2817 148.2400 0.828623 471.41 480.77 6.97
2818 148.2900 0.828520 465.07 475.48 6.94
2819 148.3400 0.828417 474.55 469.65 7.04
2820 148.3900 0.828315 454.99 463.30 6.92
2821 148.4400 0.828213 449.02 456.47 6.89
2822 148.4900 0.828111 452.41 449.22 6.95
2823 148.5400 0.828009 438.01 441.69 6.87
2824 148.5900 0.827907 433.32 434.05 6.89
2825 148.6400 0.827806 426.10 426.50 6.93
2826 148.6900 0.827705 423.50 419.21 6.88
2827 148.7400 0.827603 423.70 412.30 6.90
2828 148.7900 0.827502 411.46 405.85 6.81
2829 148.8400 0.827402 407.64 399.92 6.76
2830 148.8900 0.827301 403.22 394.55 6.72
2831 148.9400 0.827201 400.88 389.73 6.69
2832 148.9900 0.827101 382.35 385.46 6.53
2833 149.0400 0.827001 386.62 381.70 6.57
2834 149.0900 0.826901 387.74 378.43 6.62
2835 149.1400 0.826801 386.72 375.59 6.59
2836 149.1900 0.826702 380.79 373.15 6.53
2837 149.2400 0.826602 381.92 371.06 6.59
2838 149.2900 0.826503 371.98 369.28 6.51
2839 149.3400 0.826404 369.05 367.77 6.50
2840 149.3900 0.826305 376.63 366.49 6.55
2841 149.4400 0.826207 362.36 365.42 6.48
2842 149.4900 0.826108 358.89 364.51 6.47
2843 149.5400 0.826010 371.96 363.75 6.59
2844 149.5900 0.825912 366.86 363.11 6.55
2845 149.6400 0.825814 361.98 362.58 6.53
2846 149.6900 0.825717 371.11 362.13 6.65
2847 149.7400 0.825619 365.06 361.75 6.63
2848 149.7900 0.825522 365.35 361.44 6.65
2849 149.8400 0.825425 375.67 361.19 6.81
2850 149.8900 0.825328 370.87 360.98 6.83
2851 149.9400 0.825231 367.73 360.81 6.80
2852 149.9900 0.825134 361.55 360.68 6.75
2853 150.0400 0.825038 355.24 360.59 6.70
2854 150.0900 0.824942 363.62 360.52 6.77
2855 150.1400 0.824846 363.31 360.48 6.76
2856 150.1900 0.824750 363.19 360.47 6.75
2857 150.2400 0.824654 349.55 360.49 6.65
2858 150.2900 0.824559 359.75 360.53 6.73
2859 150.3400 0.824463 364.69 360.59 6.80
2860 150.3900 0.824368 365.76 360.67 6.86
2861 150.4400 0.824273 355.34 360.79 6.78
2862 150.4900 0.824178 374.58 360.92 6.93
2863 150.5400 0.824084 362.32 361.13 6.81
2864 150.5900 0.823989 371.55 361.45 6.92
2865 150.6400 0.823895 361.64 361.80 6.86
2866 150.6900 0.823801 361.10 362.18 6.87
2867 150.7400 0.823707 355.31 362.58 6.84
2868 150.7900 0.823613 361.69 363.01 6.91
2869 150.8400 0.823520 370.00 363.48 7.03
2870 150.8900 0.823426 372.84 363.98 7.07
2871 150.9400 0.823333 360.47 364.52 6.97
2872 150.9900 0.823240 365.71 365.10 7.05
2873 151.0400 0.823147 373.13 365.72 7.19
2874 151.0900 0.823055 374.78 366.40 7.26
2875 151.1400 0.822962 361.58 367.13 7.21
2876 151.1900 0.822870 367.78 367.93 7.31
2877 151.2400 0.822778 358.51 368.81 7.21
2878 151.2900 0.822686 367.88 369.77 7.31
2879 151.3400 0.822594 374.54 370.83 7.34
2880 151.3900 0.822502 377.58 372.01 7.36
2881 151.4400 0.822411 374.41 373.33 7.33
2882 151.4900 0.822320 372.89 374.80 7.32
2883 151.5400 0.822229 382.91 376.47 7.43
2884 151.5900 0.822138 385.93 378.38 7.44
2885 151.6400 0.822047 377.53 380.58 7.36
2886 151.6900 0.821957 376.45 383.14 7.38
2887 151.7400 0.821866 386.94 386.16 7.49
2888 151.7900 0.821776 391.99 389.75 7.57
2889 151.8400 0.821686 395.97 394.08 7.64
2890 151.8900 0.821596 412.60 399.33 7.84
2891 151.9400 0.821506 414.72 405.77 7.89
2892 151.9900 0.821417 408.63 413.67 7.89
2893 152.0400 0.821328 428.42 423.36 8.09
2894 152.0900 0.821238 449.34 435.19 8.30
2895 152.1400 0.821150 464.17 449.44 8.47
2896 152.1900 0.821061 478.37 466.16 8.64
2897 152.2400 0.820972 496.80 484.96 8.85
2898 152.2900 0.820884 515.74 504.54 9.09
2899 152.3400 0.820795 523.46 522.59 9.26
2900 152.3900 0.820707 530.04 535.92 9.43
2901 152.4400 0.820619 536.36 541.74 9.48
2902 152.4900 0.820532 526.96 539.16 9.39
2903 152.5400 0.820444 537.56 529.72 9.48
2904 152.5900 0.820357 527.28 516.20 9.39
2905 152.6400 0.820270 515.76 500.96 9.28
2906 152.6900 0.820183 490.83 485.30 9.06
2907 152.7400 0.820096 479.25 469.94 8.95
2908 152.7900 0.820009 461.19 455.48 8.80
2909 152.8400 0.819923 450.11 442.48 8.69
2910 152.8900 0.819836 441.91 431.28 8.63
2911 152.9400 0.819750 424.07 421.91 8.48
2912 152.9900 0.819664 417.25 414.23 8.45
2913 153.0400 0.819578 421.70 408.02 8.52
2914 153.0900 0.819493 415.44 403.02 8.50
2915 153.1400 0.819407 397.91 399.01 8.37
2916 153.1900 0.819322 400.61 395.77 8.43
2917 153.2400 0.819237 393.44 393.16 8.39
2918 153.2900 0.819152 380.51 391.04 8.28
2919 153.3400 0.819067 380.54 389.32 8.32
2920 153.3900 0.818982 395.40 387.92 8.52
2921 153.4400 0.818898 391.58 386.78 8.52
2922 153.4900 0.818814 380.78 385.85 8.47
2923 153.5400 0.818730 384.40 385.01 8.57
2924 153.5900 0.818646 384.07 384.40 8.67
2925 153.6400 0.818562 389.48 383.92 8.86
2926 153.6900 0.818479 380.02 383.54 8.75
2927 153.7400 0.818395 391.81 383.25 8.86
2928 153.7900 0.818312 389.84 383.04 8.85
2929 153.8400 0.818229 370.86 382.90 8.64
2930 153.8900 0.818146 376.48 382.83 8.69
2931 153.9400 0.818063 387.39 382.81 8.81
2932 153.9900 0.817981 404.23 382.84 9.01
2933 154.0400 0.817899 394.56 382.92 8.90
2934 154.0900 0.817816 396.70 383.04 8.95
2935 154.1400 0.817734 397.68 383.20 9.04
2936 154.1900 0.817653 397.20 383.40 9.07
2937 154.2400 0.817571 389.75 383.64 8.98
2938 154.2900 0.817489 395.49 384.00 9.10
2939 154.3400 0.817408 392.92 384.76 9.10
2940 154.3900 0.817327 385.11 385.57 9.08
2941 154.4400 0.817246 386.23 386.41 9.12
2942 154.4900 0.817165 383.38 387.29 9.15
2943 154.5400 0.817084 369.46 388.21 9.08
2944 154.5900 0.817004 399.97 389.18 9.46
2945 154.6400 0.816924 398.63 390.21 9.50
2946 154.6900 0.816844 381.30 391.30 9.36
2947 154.7400 0.816764 391.55 392.45 9.55
2948 154.7900 0.816684 377.52 393.69 9.46
2949 154.8400 0.816604 396.00 395.02 9.81
2950 154.8900 0.816525 401.34 396.46 10.03
2951 154.9400 0.816446 393.04 398.05 9.92
2952 154.9900 0.816367 413.39 399.79 10.17
2953 155.0400 0.816288 407.11 401.71 10.10
2954 155.0900 0.816209 400.36 403.85 10.01
2955 155.1400 0.816130 408.55 406.20 10.11
2956 155.1900 0.816052 404.37 408.78 10.06
2957 155.2400 0.815974 421.44 411.55 10.27
2958 155.2900 0.815896 416.54 414.48 10.24
2959 155.3400 0.815818 433.15 417.57 10.50
2960 155.3900 0.815740 435.05 420.83 10.60
2961 155.4400 0.815662 431.46 424.30 10.60
2962 155.4900 0.815585 426.76 427.95 10.60
2963 155.5400 0.815508 415.28 431.66 10.51
2964 155.5900 0.815431 422.65 435.20 10.68
2965 155.6400 0.815354 426.08 438.25 10.81
2966 155.6900 0.815277 422.81 440.53 10.84
2967 155.7400 0.815201 433.92 441.82 11.04
2968 155.7900 0.815124 450.78 442.04 11.34
2969 155.8400 0.815048 446.47 441.30 11.41
2970 155.8900 0.814972 435.69 439.86 11.30
2971 155.9400 0.814896 435.67 438.04 11.37
2972 155.9900 0.814821 437.77 436.10 11.54
2973 156.0400 0.814745 429.71 434.22 11.54
2974 156.0900 0.814670 435.58 432.48 11.82
2975 156.1400 0.814595 436.09 430.93 12.05
2976 156.1900 0.814519 419.67 429.63 11.82
2977 156.2400 0.814445 421.45 428.61 11.85
2978 156.2900 0.814370 424.60 427.90 11.90
2979 156.3400 0.814295 411.96 427.48 11.72
2980 156.3900 0.814221 421.60 427.32 11.85
2981 156.4400 0.814147 426.96 427.41 11.93
2982 156.4900 0.814073 428.53 427.70 12.01
2983 156.5400 0.813999 409.99 428.17 11.84
2984 156.5900 0.813925 429.88 428.80 12.22
2985 156.6400 0.813852 419.24 429.57 12.17
2986 156.6900 0.813779 417.33 430.47 12.23
2987 156.7400 0.813706 422.45 431.48 12.39
2988 156.7900 0.813632 414.82 432.59 12.48
2989 156.8400 0.813560 435.06 433.82 12.83
2990 156.8900 0.813487 440.69 435.15 12.97
2991 156.9400 0.813415 426.10 436.87 12.94
2992 156.9900 0.813342 425.35 438.77 12.98
2993 157.0400 0.813270 425.62 440.81 13.20
2994 157.0900 0.813198 430.54 442.99 13.34
2995 157.1400 0.813126 429.88 445.33 13.50
2996 157.1900 0.813055 429.73 447.86 13.60
2997 157.2400 0.812983 418.45 450.61 13.53
2998 157.2900 0.812912 469.38 453.62 14.62
2999 157.3400 0.812841 455.94 456.94 14.75
3000 157.3900 0.812770 462.52 460.64 15.19
3001 157.4400 0.812699 462.80 464.79 15.22
3002 157.4900 0.812628 475.28 469.47 15.40
3003 157.5400 0.812558 466.52 474.79 15.27
3004 157.5900 0.812487 474.45 480.86 15.38
3005 157.6400 0.812417 457.83 487.81 15.11
3006 157.6900 0.812347 482.92 495.76 15.71
3007 157.7400 0.812277 499.38 504.82 16.19
3008 157.7900 0.812208 512.47 515.10 16.63
3009 157.8400 0.812138 497.97 526.66 16.67
3010 157.8900 0.812069 550.56 539.45 17.70
3011 157.9400 0.812000 543.05 553.30 17.75
3012 157.9900 0.811931 574.88 567.79 18.56
3013 158.0400 0.811862 576.91 582.21 18.90
3014 158.0900 0.811794 595.24 595.58 19.81
3015 158.1400 0.811725 581.28 606.70 19.61
3016 158.1900 0.811657 584.88 614.42 20.01
3017 158.2400 0.811589 608.44 618.00 20.72
3018 158.2900 0.811521 601.98 617.37 20.90
3019 158.3400 0.811453 602.59 613.10 21.17
3020 158.3900 0.811385 611.04 606.19 21.58
3021 158.4400 0.811318 593.08 597.66 21.73
3022 158.4900 0.811250 574.71 588.28 21.61
3023 158.5400 0.811183 553.17 578.48 21.97
3024 158.5900 0.811116 559.67 568.78 22.64
3025 158.6400 0.811049 589.43 559.37 24.17
3026 158.6900 0.810983 582.83 550.54 24.08
3027 158.7400 0.810916 580.97 542.49 24.00
3028 158.7900 0.810850 527.48 535.41 22.89
3029 158.8400 0.810784 543.33 529.34 23.48
3030 158.8900 0.810718 524.65 524.28 23.38
3031 158.9400 0.810652 537.40 520.15 23.96
3032 158.9900 0.810586 527.99 516.86 24.14
3033 159.0400 0.810521 537.35 514.29 24.95
3034 159.0900 0.810455 485.62 512.32 23.91
3035 159.1400 0.810390 497.73 510.82 24.71
3036 159.1900 0.810325 503.11 509.69 25.29
3037 159.2400 0.810260 497.59 508.85 25.84
3038 159.2900 0.810196 476.75 508.22 25.69
3039 159.3400 0.810131 484.10 507.77 26.63
loop_
_pd_proc_info_excluded_regions
'from 0.05 to 7.50\%: steep noisy onset'
'from 159.50 to 160.11\%: cut-off reflection'
