#------------------------------------------------------------------------------
#$Date: 2019-10-10 11:52:25 +0300 (Thu, 10 Oct 2019) $
#$Revision: 219243 $
#$URL: file:///home/coder/svn-repositories/cod/cif/7/23/45/7234515.cif $
#------------------------------------------------------------------------------
#
# This file is available in the Crystallography Open Database (COD),
# http://www.crystallography.net/
#
# All data on this site have been placed in the public domain by the
# contributors.
#
data_7234515
loop_
_publ_author_name
'Lei Geng'
'Qiang Li'
'Chang-Yu Meng'
'Kai Dai'
'Hong-Yan Lu'
'Chen-Sheng Lin'
'Wen-Dan Cheng'
_publ_section_title
;
 BaBi(SeO3)2Cl: a new polar material showing high second-harmonic
 generation efficiency enhanced by constructive alignment of chloride ions
;
_journal_name_full               'Journal of Materials Chemistry C'
_journal_page_first              12290
_journal_page_last               12296
_journal_paper_doi               10.1039/C5TC02925B
_journal_volume                  3
_journal_year                    2015
_chemical_formula_sum            'Ba Bi Cl O6 Se2'
_chemical_formula_weight         635.69
_space_group_crystal_system      orthorhombic
_space_group_IT_number           36
_space_group_name_Hall           'C 2c -2'
_space_group_name_H-M_alt        'C m c 21'
_atom_sites_solution_hydrogens   .
_cell_angle_alpha                90
_cell_angle_beta                 90
_cell_angle_gamma                90
_cell_formula_units_Z            4
_cell_length_a                   5.2804(2)
_cell_length_b                   20.0535(9)
_cell_length_c                   6.9070(3)
_cell_measurement_reflns_used    369
_cell_measurement_temperature    25(2)
_cell_measurement_theta_max      27.52
_cell_measurement_theta_min      3.58
_cell_volume                     731.39(5)
_computing_structure_refinement  'SHELXL-2014/7 (Sheldrick, 2014)'
_diffrn_ambient_temperature      25(2)
_diffrn_measured_fraction_theta_full 0.998
_diffrn_measured_fraction_theta_max 0.998
_diffrn_measurement_device_type  'Bruker D8 QUEST'
_diffrn_measurement_method       'phi and omega scans'
_diffrn_radiation_type           MoK\a
_diffrn_radiation_wavelength     0.71073
_diffrn_reflns_av_R_equivalents  0.0319
_diffrn_reflns_av_unetI/netI     0.0366
_diffrn_reflns_Laue_measured_fraction_full 0.998
_diffrn_reflns_Laue_measured_fraction_max 0.998
_diffrn_reflns_limit_h_max       6
_diffrn_reflns_limit_h_min       -6
_diffrn_reflns_limit_k_max       26
_diffrn_reflns_limit_k_min       -24
_diffrn_reflns_limit_l_max       8
_diffrn_reflns_limit_l_min       -8
_diffrn_reflns_number            4097
_diffrn_reflns_point_group_measured_fraction_full 0.938
_diffrn_reflns_point_group_measured_fraction_max 0.926
_diffrn_reflns_theta_full        25.242
_diffrn_reflns_theta_max         27.519
_diffrn_reflns_theta_min         3.582
_exptl_absorpt_coefficient_mu    39.674
_exptl_absorpt_correction_type   multi-scan
_exptl_crystal_colour            colorless
_exptl_crystal_density_diffrn    5.773
_exptl_crystal_description       plate
_exptl_crystal_F_000             1088
_exptl_crystal_size_max          0.300
_exptl_crystal_size_mid          0.250
_exptl_crystal_size_min          0.200
_exptl_transmission_factor_max   0.0465
_exptl_transmission_factor_min   0.0296
_refine_diff_density_max         1.666
_refine_diff_density_min         -1.771
_refine_diff_density_rms         0.273
_refine_ls_abs_structure_details
;
 Flack x determined using 349 quotients [(I+)-(I-)]/[(I+)+(I-)]
 (Parsons, Flack and Wagner, Acta Cryst. B69 (2013) 249-259).
;
_refine_ls_abs_structure_Flack   0.076(10)
_refine_ls_extinction_coef       0.0026(3)
_refine_ls_extinction_expression Fc^*^=kFc[1+0.001xFc^2^\l^3^/sin(2\q)]^-1/4^
_refine_ls_extinction_method     'SHELXL-2014/7 (Sheldrick 2014'
_refine_ls_goodness_of_fit_ref   0.993
_refine_ls_hydrogen_treatment    undef
_refine_ls_matrix_type           full
_refine_ls_number_parameters     62
_refine_ls_number_reflns         869
_refine_ls_number_restraints     1
_refine_ls_restrained_S_all      0.992
_refine_ls_R_factor_all          0.0216
_refine_ls_R_factor_gt           0.0211
_refine_ls_shift/su_max          0.000
_refine_ls_shift/su_mean         0.000
_refine_ls_structure_factor_coef Fsqd
_refine_ls_weighting_details
'w=1/[\s^2^(Fo^2^)+(0.0529P)^2^+0.3290P] where P=(Fo^2^+2Fc^2^)/3'
_refine_ls_weighting_scheme      calc
_refine_ls_wR_factor_gt          0.0658
_refine_ls_wR_factor_ref         0.0662
_reflns_Friedel_coverage         0.714
_reflns_Friedel_fraction_full    0.867
_reflns_Friedel_fraction_max     0.842
_reflns_number_gt                858
_reflns_number_total             869
_reflns_threshold_expression     'I > 2\s(I)'
_cod_data_source_file            J-Mater-Chem-C-2015-3-12290.cif
_cod_data_source_block           a
_cod_database_code               7234515
_shelx_space_group_comment
;
The symmetry employed for this shelxl refinement is uniquely defined
by the following loop, which should always be used as a source of
symmetry information in preference to the above space-group names.
They are only intended as comments.
;
_shelx_estimated_absorpt_t_min   0.030
_shelx_estimated_absorpt_t_max   0.047
_shelx_res_file
;

    a.res created by SHELXL-2014/7


TITL a in Cmc2(1)
CELL 0.71073   5.2804  20.0535   6.9070  90.000  90.000  90.000
ZERR    4.00   0.0002   0.0009   0.0003   0.000   0.000   0.000
LATT -7
SYMM -X, -Y, 0.5+Z
SYMM X, -Y, 0.5+Z
SYMM -X, Y, Z
SFAC O CL SE BA BI
UNIT 24 4 8 4 4
TEMP -248.150
L.S. 4
acta
BOND
size 0.30 0.25 0.20
FMAP 2
PLAN 20
WGHT    0.052900    0.329000
EXTI    0.002552
FVAR       0.05731
BA1   4    0.000000    0.225279    0.048059    10.50000    0.01009    0.00880 =
         0.01024    0.00076    0.00000    0.00000
BI1   5    0.000000    0.424534    0.337831    10.50000    0.01699    0.00873 =
         0.01311    0.00300    0.00000    0.00000
SE1   3    0.000000    0.030758    0.189323    10.50000    0.01174    0.00473 =
         0.00914    0.00083    0.00000    0.00000
SE2   3    0.000000    0.150051    0.560597    10.50000    0.00778    0.00358 =
         0.00843   -0.00006    0.00000    0.00000
O1    1    0.247650    0.481636    0.123901    11.00000    0.00866    0.01275 =
         0.02147   -0.00154    0.00002   -0.00473
O2    1    0.250713    0.336849    0.217000    11.00000    0.01223    0.01142 =
         0.01081    0.00047    0.00432   -0.00059
O3    1    0.000000    0.083436    0.000000    10.50000    0.02561    0.00569 =
         0.01085    0.00563    0.00000    0.00000
O4    1    0.000000    0.223697    0.447391    10.50000    0.01502    0.00890 =
         0.00720    0.00733    0.00000    0.00000
CL1   2    0.000000    0.646900    0.241727    10.50000    0.02120    0.01707 =
         0.02040   -0.00357    0.00000    0.00000

HKLF 4

REM  a in Cmc2(1)
REM R1 =  0.0211 for     858 Fo > 4sig(Fo)  and  0.0216 for all     869 data
REM     62 parameters refined using      1 restraints

END

WGHT      0.0031     16.7902

REM Highest difference peak  1.666,  deepest hole -1.771,  1-sigma level  0.273
Q1    1   0.0000  0.2600  0.0959  10.50000  0.05    1.67
Q2    1   0.0000  0.4630  0.3788  10.50000  0.05    1.66
Q3    1   0.0000  0.2663  0.0518  10.50000  0.05    1.66
Q4    1   0.0000  0.4225  0.1781  10.50000  0.05    1.50
Q5    1   0.0000  0.0673  0.1576  10.50000  0.05    1.26
Q6    1   0.0000  0.1191  0.5618  10.50000  0.05    1.24
Q7    1   0.0000  0.3808  0.3429  10.50000  0.05    1.21
Q8    1   0.0942  0.4277  0.4414  11.00000  0.05    1.09
Q9    1   0.0000  0.2290 -0.0783  10.50000  0.05    1.02
Q10   1   0.5000  0.4413  0.0170  10.50000  0.05    0.99
Q11   1   0.0000  0.4285  0.4926  10.50000  0.05    0.98
Q12   1   0.1088  0.4265  0.2419  11.00000  0.05    0.96
Q13   1   0.0801  0.1490  0.4908  11.00000  0.05    0.94
Q14   1   0.0000  0.0403  0.3392  10.50000  0.05    0.91
Q15   1   0.0711  0.2212  0.0470  11.00000  0.05    0.89
Q16   1   0.0000  0.0407  0.2677  10.50000  0.05    0.85
Q17   1   0.0000  0.2373  0.5718  10.50000  0.05    0.84
Q18   1   0.0000  0.6490  0.4203  10.50000  0.05    0.83
Q19   1   0.0000  0.1870  0.5465  10.50000  0.05    0.79
Q20   1   0.0000  0.2846  0.2550  10.50000  0.05    0.79
;
_shelx_res_checksum              1358
_shelx_hkl_file
;
   2   0   0  925.73   65.95
   2   0   0  922.01   66.00
  -2   0   0  930.59   65.95
  -2   0   0 1000.00   66.00
   4   0   0  800.30   56.15
  -4   0   0  794.83   56.12
  -4   0   0  796.96   56.33
   4   0   0  830.24   56.12
   6   0   0  268.48   18.76
  -6   0   0  287.24   18.66
   6   0   0  279.48   18.60
  -6   0   0  224.65   19.00
   1  -1   0    6.24    0.53
   1  -1   0    7.30    0.52
   1   1   0    6.80    0.51
  -1  -1   0    5.87    0.53
  -1   1   0    7.01    0.52
  -1   1   0    8.03    0.55
   1   1   0    6.83    0.60
  -1  -1   0    6.63    0.62
   3   1   0    4.28    0.58
   3  -1   0    4.41    0.52
  -3  -1   0    5.04    0.83
  -3  -1   0    4.72    0.46
   3  -1   0    5.01    0.46
  -3   1   0    4.56    0.80
  -3   1   0    4.44    0.45
   3   1   0    4.86    0.44
   5   1   0    2.84    0.49
  -5  -1   0    2.42    0.93
   5   1   0    2.23    0.36
  -5   1   0    0.46    0.81
   5  -1   0    2.34    0.37
   5  -1   0    2.48    0.43
  -5  -1   0    2.50    0.49
  -5   1   0    2.52    0.36
   2  -2   0    1.99    0.26
  -2   2   0    1.63    0.30
   2  -2   0    1.41    0.22
   2   2   0    1.53    0.24
  -2  -2   0    2.25    0.42
   2   2   0    1.26    0.30
  -2   2   0    1.49    0.25
  -2  -2   0    1.22    0.25
   4   2   0    4.16    0.48
  -4   2   0    4.07    0.48
  -4   2   0    2.99    0.76
   4  -2   0    3.52    0.47
  -4  -2   0    3.08    0.42
   4  -2   0    2.82    0.52
   6   2   0    0.53    0.45
  -6  -2   0    0.71    0.38
   6  -2   0    1.08    0.39
  -6  -2   0    0.49    1.19
  -6   2   0   -1.28    1.01
   6   2   0   -0.20    0.35
   6  -2   0    0.30    0.39
   1  -3   0   36.65    2.53
   1   3   0   34.79    2.60
   1   3   0   34.14    2.51
   1  -3   0   34.64    2.48
  -1   3   0   34.72    2.49
  -1   3   0   36.15    2.53
  -1  -3   0   34.66    2.60
  -1  -3   0   34.77    2.52
  -3  -3   0   21.83    1.87
  -3  -3   0   22.58    1.61
   3   3   0   21.29    1.58
  -3   3   0   21.13    1.59
   3  -3   0   21.77    1.59
  -3   3   0   20.95    1.86
   3  -3   0   21.42    1.61
   3   3   0   21.19    1.71
   5   3   0   13.93    1.09
  -5  -3   0   11.93    1.87
   5  -3   0   13.49    1.11
   5   3   0   13.15    1.25
  -5   3   0   12.73    1.08
  -5  -3   0   13.15    1.13
   5  -3   0   12.77    1.12
   0   4   0    6.37    0.60
   0  -4   0    5.38    0.60
   2   4   0    0.52    0.16
   2   4   0    0.64    0.31
  -2   4   0    0.81    0.21
   2  -4   0    0.80    0.13
  -2   4   0    0.49    0.18
  -4  -4   0    2.12    0.38
  -4   4   0    2.76    0.69
  -4  -4   0    1.74    0.77
   4   4   0    1.96    0.51
  -4   4   0    3.13    0.48
   4  -4   0    2.57    0.48
   4  -4   0    2.77    0.44
   4   4   0    3.14    0.45
  -6   4   0    0.56    0.31
   6  -4   0    0.64    0.52
  -6  -4   0    1.03    0.42
   6  -4   0    0.97    0.37
   6   4   0    0.17    0.48
  -6   4   0   -0.53    0.94
   6   4   0    0.17    0.44
   1   5   0  383.58   27.67
  -1   5   0  396.75   27.64
   1  -5   0  382.40   27.63
  -1   5   0  369.86   27.58
   1   5   0  409.16   27.62
  -1  -5   0  396.32   27.67
  -1   5   0  432.86   27.61
  -3  -5   0  263.00   18.68
   3  -5   0  263.85   18.46
   3   5   0  263.10   18.48
  -3   5   0  266.34   18.50
   3  -5   0  255.74   18.50
  -3  -5   0  271.68   18.51
   3   5   0  270.89   18.60
  -3   5   0  262.59   18.53
   5  -5   0  136.41    9.01
  -5   5   0  113.78    9.23
  -5  -5   0  130.16    9.07
   5   5   0  123.75    9.23
   5   5   0  132.02    9.02
  -5   5   0  133.37    9.02
   5  -5   0  125.05    9.05
  -5  -5   0  128.22    9.49
   0   6   0   74.45    5.14
   0  -6   0   71.97    5.07
   0   6   0   66.97    5.08
  -2  -6   0  223.79   15.78
   2  -6   0  225.53   15.59
   2  -6   0  219.69   15.67
  -2   6   0  221.94   15.67
  -2   6   0  226.86   15.61
  -2  -6   0  222.35   15.67
   2   6   0  225.88   15.75
   2   6   0  224.19   15.65
   4  -6   0   34.29    2.60
  -4  -6   0   35.97    2.63
  -4  -6   0   35.92    3.04
   4  -6   0   35.21    2.51
  -4   6   0   32.34    2.75
   4   6   0   35.68    2.56
  -4   6   0   35.89    2.59
   4   6   0   34.83    2.77
   6  -6   0   41.10    2.93
   6   6   0   40.10    3.00
  -6   6   0   41.37    2.97
   6  -6   0   40.54    3.07
   6   6   0   37.63    3.15
  -6   6   0   39.74    3.60
  -1  -7   0   61.59    4.40
   1   7   0   64.20    4.36
   1  -7   0   62.22    4.37
  -1   7   0   58.36    4.27
   1   7   0   55.25    4.39
  -1   7   0   59.02    4.38
   3   7   0   49.40    3.56
  -3   7   0   51.55    3.61
  -3   7   0   51.60    3.59
   3  -7   0   48.70    3.61
   3  -7   0   49.15    3.50
  -3  -7   0   48.65    3.62
  -3  -7   0   47.23    3.85
   3   7   0   51.57    3.76
  -5   7   0   24.88    2.13
  -5   7   0   26.02    1.89
   5   7   0   20.93    2.11
   5  -7   0   22.55    2.21
   5  -7   0   25.69    1.79
   5   7   0   23.98    2.10
  -5  -7   0   25.17    2.60
   0  -8   0   25.71    1.96
   0   8   0   24.69    1.99
   0   8   0   26.09    2.07
  -2   8   0   29.41    2.12
  -2  -8   0   29.62    2.38
   2   8   0   30.70    2.22
   2  -8   0   28.69    2.25
  -2   8   0   30.69    2.28
   2   8   0   28.62    2.38
   4   8   0   10.58    0.97
   4  -8   0   10.15    0.83
  -4   8   0   11.22    1.04
  -4  -8   0   12.19    1.68
   4  -8   0   12.45    1.06
  -4   8   0    9.66    1.17
   4   8   0    9.68    1.33
  -6   8   0    5.20    0.77
   6  -8   0    5.96    0.61
   6  -8   0    5.12    0.82
   6   8   0    4.50    0.87
   6   8   0    5.95    0.96
   1   9   0  143.26   10.46
   1   9   0  151.84   10.46
   1   9   0  144.33   10.43
  -1  -9   0  147.28   10.46
  -1   9   0  149.66   10.49
  -1   9   0  148.10   10.36
   1  -9   0  147.25   10.47
   3  -9   0   92.44    6.61
   3   9   0   93.64    6.56
   3   9   0   92.94    6.75
  -3  -9   0   91.33    6.80
  -3   9   0   91.58    6.60
   5  -9   0   41.57    3.08
   5  -9   0   42.68    3.27
  -5   9   0   47.24    3.27
  -5  -9   0   43.77    3.82
   5   9   0   40.91    3.42
  -5   9   0   42.39    3.21
   5   9   0   44.95    3.20
   0 -10   0  106.57    8.18
   0  10   0  121.58    8.30
   0  10   0  117.97    8.23
  -2  10   0   61.56    4.33
  -2 -10   0   55.59    4.60
  -2  10   0   59.11    4.35
  -2  10   0   66.58    4.55
   2  10   0   63.80    4.46
   2 -10   0   61.01    4.49
   4  10   0   40.74    3.08
   4 -10   0   41.10    3.17
  -4  10   0   44.40    3.18
  -4 -10   0   41.98    3.53
   6  10   0   17.47    1.84
  -6  10   0   15.73    1.49
   6 -10   0   17.05    2.35
   6  10   0   18.22    1.88
  -1  11   0  311.40   23.69
  -1 -11   0  347.52   23.68
   1  11   0  319.72   23.64
   1  11   0  338.35   23.69
  -1  11   0  343.50   23.58
   1  11   0  345.37   23.68
   1 -11   0  353.56   23.70
  -3 -11   0  235.44   15.43
   3 -11   0  199.61   15.36
  -3  11   0  226.62   15.26
   3  11   0  209.60   15.29
   3  11   0  208.66   15.34
   5 -11   0  124.45    8.74
  -5  11   0  119.11    8.67
   5  11   0  121.61    8.89
   5  11   0  121.70    8.64
   0 -12   0   88.94    6.58
   0  12   0   94.66    6.72
   0  12   0   92.84    6.63
  -2  12   0   21.40    1.63
   2  12   0   20.88    1.83
  -2  12   0   19.47    1.56
  -2  12   0   21.75    1.94
  -2 -12   0   22.79    1.98
   2  12   0   20.39    1.98
  -4  12   0   30.60    2.48
   4  12   0   29.46    2.67
   4  12   0   30.86    2.37
   4 -12   0   30.58    2.48
  -4 -12   0   32.96    2.91
   6  12   0    4.29    1.07
  -6  12   0    5.33    0.87
  -1 -13   0   19.90    1.76
   1  13   0   19.34    1.79
   1  13   0   19.48    1.82
  -1  13   0   20.94    1.65
  -1  13   0   17.84    1.86
   3  13   0   11.71    1.21
  -3  13   0   11.16    1.39
  -3 -13   0   12.16    1.64
   3 -13   0   13.40    1.33
   3  13   0   10.38    1.56
   5 -13   0    5.53    0.92
   5  13   0    4.43    1.01
  -5  13   0    5.38    0.99
   5  13   0    6.36    0.98
   0 -14   0  312.85   21.39
   0  14   0  299.20   21.51
   0  14   0  302.62   21.43
   2 -14   0  253.06   17.08
   2  14   0  231.69   17.04
  -2  14   0  220.04   17.07
   2  14   0  244.30   17.09
   2  14   0  242.61   17.03
  -2  14   0  214.59   16.82
  -2  14   0  265.65   16.88
  -2 -14   0  254.20   17.10
   4  14   0  124.51    9.06
   4 -14   0  133.46    9.08
   4  14   0  115.83    9.16
  -4  14   0  123.66    9.05
   4  14   0  125.10    8.95
  -4 -14   0  130.57    9.33
  -1  15   0  339.90   23.54
   1  15   0  319.14   23.47
  -1  15   0  349.96   23.37
   1  15   0  348.62   23.47
   1  15   0  328.71   23.47
  -1 -15   0  312.34   23.41
   3  15   0  204.31   14.50
  -3  15   0  199.50   14.60
   3  15   0  191.61   14.55
  -3 -15   0  210.44   14.70
   3  15   0  220.27   14.73
   3 -15   0  203.36   14.57
  -5  15   0  102.97    7.60
   5  15   0  100.07    7.63
   5  15   0  105.57    7.52
   5 -15   0  112.45    7.68
   5  15   0  100.15    7.79
   0 -16   0  189.52   13.66
   0  16   0  194.62   13.82
   0  16   0  196.68   13.73
   2  16   0  105.17    7.30
  -2  16   0   92.63    7.31
  -2  16   0   86.74    6.98
   2  16   0  100.35    7.24
  -2 -16   0  100.17    7.26
  -2  16   0  114.81    7.06
   2  16   0   92.37    7.20
   4  16   0   86.48    6.36
  -4  16   0   87.61    6.50
   4  16   0   84.83    6.59
   4 -16   0   92.59    6.49
   4  16   0   84.58    6.46
  -1 -17   0    3.58    0.71
   1  17   0    3.75    0.84
  -1  17   0    3.46    0.82
  -1  17   0    3.50    0.67
   1  17   0    2.97    0.72
   1  17   0    3.56    0.78
  -3 -17   0    2.24    0.82
   3  17   0    1.65    0.75
   3  17   0    2.32    0.69
  -3  17   0    1.40    0.76
   3  17   0    1.98    0.65
   5  17   0    0.76    0.94
   5  17   0    1.95    0.80
  -5  17   0   -0.30    0.76
   0  18   0   32.88    3.44
   0 -18   0   34.89    2.65
   0  18   0   34.27    2.76
  -2  18   0   33.24    3.09
  -2  18   0   31.10    2.63
   2  18   0   36.07    2.98
  -2 -18   0   35.34    2.97
   2  18   0   39.45    3.04
   2  18   0   33.29    3.32
  -2  18   0   41.61    2.75
   4  18   0   14.61    1.61
   4  18   0   12.87    1.85
   4  18   0   14.49    1.64
  -4  18   0   10.99    1.75
   1  19   0   33.27    2.87
   1  19   0   34.03    2.84
   1  19   0   36.09    2.91
  -1 -19   0   34.25    2.77
  -1  19   0   32.48    2.94
  -1  19   0   34.55    2.71
   3  19   0   21.84    2.23
   3  19   0   21.24    2.12
  -3  19   0   18.63    2.23
   3  19   0   23.90    2.09
   0  20   0  212.71   14.87
   0  20   0  208.70   14.72
   0 -20   0  200.89   14.64
   2  20   0  144.09   10.13
   2  20   0  131.17   10.10
  -2  20   0  142.78   10.25
  -2 -20   0  141.66   10.10
   2  20   0  137.88   10.11
   4  20   0   93.87    6.97
  -4  20   0   86.59    7.06
   4  20   0   99.88    7.12
  -1  21   0   38.56    2.83
  -1 -21   0   30.47    2.81
   1  21   0   37.76    3.39
   1  21   0   31.89    2.95
  -1  21   0   36.65    3.09
   1  21   0   35.40    3.04
  -3  21   0   22.99    2.50
   3  21   0   22.55    2.26
   3  21   0   25.49    2.41
   0 -22   0    8.36    1.17
   0  22   0    7.69    1.24
   0  22   0    9.14    1.49
  -2  22   0    1.01    0.58
  -2  22   0    0.28    0.86
   2  22   0    1.56    0.72
   2  22   0    0.01    0.75
  -2  22   0    1.94    0.41
   1  23   0   -0.07    0.67
  -1  23   0    0.30    0.59
   1  23   0   -0.16    0.65
  -1 -23   0   -0.33    0.66
  -1  23   0    0.66    0.74
   3  23   0    1.27    0.77
  -3  23   0    0.60    0.98
   3  23   0    0.10    0.93
   0  24   0   22.28    2.32
   0  24   0   24.10    2.14
   0 -24   0   20.95    2.01
   2  24   0   20.93    2.19
   2  24   0   18.31    2.12
  -2  24   0   21.27    2.18
  -2  24   0   19.57    2.39
   1  25   0   64.84    5.16
  -1  25   0   63.01    5.19
  -1  25   0   68.44    4.90
   1  25   0   64.00    5.00
   0  26   0  174.62   12.13
   0  26   0  163.31   12.33
   0   0   1   -0.02    0.06
   0   0  -1    0.18    0.09
  -2   0   1    0.41    0.24
   2   0  -1    0.29    0.19
   2   0   1    0.45    0.25
  -2   0  -1    0.50    0.37
  -2   0  -1    0.34    0.15
   2   0   1    0.41    0.26
   4   0  -1    0.66    0.19
  -4   0  -1    0.00    0.25
   4   0   1    0.23    0.25
   4   0   1    0.45    0.35
   4   0  -1   -0.01    0.31
  -4   0   1    0.36    0.19
  -4   0  -1   -0.02    0.73
  -6   0  -1    2.16    1.00
   6   0   1    0.49    0.44
   6   0   1   -0.49    0.42
  -6   0  -1    0.35    0.35
   6   0  -1    0.71    0.42
  -1   1   1   37.87    3.11
   1  -1   1   43.51    3.11
   1   1  -1   51.28    3.13
  -1   1   1   39.54    3.07
   1   1   1   43.05    3.11
  -1  -1   1   38.57    3.12
  -1   1  -1   49.01    3.10
   1   1   1   45.46    3.17
  -3  -1  -1   22.18    2.10
  -3   1   1   24.30    1.89
  -3   1   1   23.98    1.72
   3  -1   1   24.84    1.80
   3  -1   1   26.28    1.79
  -3  -1   1   24.05    1.91
   3   1   1   24.35    1.78
   3   1   1   23.88    1.86
  -3  -1   1   24.55    1.73
  -3   1  -1   20.09    2.01
   5  -1   1   10.44    0.98
  -5   1   1   10.63    0.86
   5  -1   1   10.48    0.99
  -5   1   1    9.01    1.47
  -5  -1  -1   10.85    1.81
  -5   1  -1   14.34    1.76
  -5  -1   1    9.81    0.89
   5   1   1   10.82    1.06
   5   1   1   10.66    0.99
  -5  -1   1    9.89    1.50
   0   2  -1  121.19    8.52
   0   2   1  120.60    8.51
   0  -2   1  126.54    8.52
   0   2  -1  116.68    8.52
   0  -2   1  123.58    8.51
   0  -2  -1  121.80    8.51
   2   2  -1   39.32    2.76
  -2  -2  -1   37.57    2.91
   2   2  -1   37.55    2.67
  -2  -2  -1   37.62    2.71
  -2   2  -1   37.79    2.72
   2  -2  -1   40.43    2.72
  -2   2  -1   34.13    2.76
   2  -2  -1   39.28    2.71
   4   2  -1   48.11    3.26
   4  -2   1   48.40    3.34
   4  -2   1   45.26    3.32
  -4   2   1   46.83    3.52
  -4   2   1   45.48    3.26
  -4  -2  -1   45.01    3.33
   4   2  -1   45.85    3.41
  -4  -2   1   46.80    3.57
   4   2   1   44.98    3.41
   4   2   1   45.89    3.32
  -4  -2   1   43.90    3.29
  -4   2  -1   45.51    3.33
   4  -2  -1   45.10    3.28
   4  -2  -1   47.53    3.35
   6  -2   1   13.94    1.28
   6  -2   1   14.27    1.16
  -6  -2  -1   11.48    1.21
  -6   2   1    9.52    1.89
  -6   2  -1    9.93    1.80
  -6  -2   1   13.81    2.07
  -6   2  -1   10.56    1.16
   6   2   1   13.36    1.29
   6   2   1   15.24    1.28
   1   3  -1  291.60   21.88
   1  -3   1  362.65   21.96
  -1  -3  -1  349.87   21.87
  -1   3   1  333.00   21.91
   1   3  -1  276.45   21.88
  -1   3   1  299.71   21.89
  -1  -3   1  321.83   21.89
   1   3   1  288.33   21.93
  -1   3  -1  305.98   21.88
   1  -3  -1  305.94   21.89
   3  -3   1  229.01   14.86
  -3   3   1  216.60   14.80
  -3  -3  -1  196.21   14.84
   3  -3   1  223.29   14.82
   3   3  -1  196.01   14.79
   3   3  -1  200.57   14.90
  -3   3   1  232.84   14.91
  -3   3  -1  186.47   14.84
   3   3   1  226.39   14.85
   3  -3  -1  202.24   14.84
   3   3   1  225.84   14.94
  -3  -3   1  233.78   14.97
   3  -3  -1  190.31   14.83
  -5  -3  -1  100.21    8.00
   5  -3   1  122.23    7.98
   5  -3   1  119.27    8.03
   5   3  -1  100.24    8.06
  -5   3   1  124.09    8.27
  -5   3   1  117.13    7.93
   5   3   1  122.81    8.01
  -5   3  -1   98.53    7.99
  -5  -3   1  116.66    8.34
   5   3   1  118.98    8.09
   5  -3  -1  104.77    7.99
   0   4  -1  159.86   10.89
   0   4  -1  156.29   10.86
   0   4   1  142.70   10.86
   0  -4  -1  150.24   10.87
   0  -4   1  155.54   10.88
   0  -4   1  164.88   10.85
   0   4   1  155.69   10.87
  -2  -4  -1  174.69   11.51
  -2  -4  -1  148.97   11.65
   2  -4   1  169.35   11.51
  -2   4   1  163.85   11.49
   2   4  -1  172.45   11.56
   2   4  -1  159.26   11.48
  -2   4   1  163.64   11.50
   2   4   1  153.55   11.60
  -2   4  -1  171.63   11.52
   2  -4  -1  159.44   11.54
  -2  -4   1  162.96   11.56
   2  -4  -1  171.40   11.48
   2   4   1  161.98   11.50
   4   4  -1   63.50    4.43
   4  -4   1   63.80    4.34
  -4   4   1   65.69    4.48
  -4   4   1   59.33    4.26
   4   4  -1   59.11    4.26
   4  -4   1   62.62    4.28
  -4  -4  -1   59.42    4.34
  -4   4  -1   57.65    4.32
   4   4   1   59.98    4.31
  -4  -4   1   60.56    4.57
   4   4   1   59.61    4.44
  -4   4  -1   51.68    4.45
   4  -4  -1   61.19    4.31
   4  -4  -1   59.87    4.33
   6   4  -1   33.53    2.36
  -6  -4  -1   31.61    3.30
   6   4  -1   32.64    2.54
  -6  -4  -1   33.08    2.47
  -6   4   1   29.40    2.28
  -6   4   1   29.03    2.95
   6  -4   1   32.88    2.36
   6  -4   1   28.84    2.47
  -6   4  -1   32.47    2.65
   6   4   1   27.93    2.52
   6  -4  -1   34.79    2.54
  -6   4  -1   32.16    2.40
   6  -4  -1   33.80    2.39
   6   4   1   31.99    2.47
  -6  -4   1   24.39    3.00
  -1   5   1  450.86   31.19
  -1  -5  -1  422.23   31.22
   1   5  -1  461.15   31.21
   1   5  -1  492.77   31.19
   1  -5   1  409.17   31.19
  -1   5   1  420.15   31.19
  -1   5  -1  481.68   31.18
  -1  -5   1  434.51   31.22
   1   5   1  448.46   31.24
   3   5  -1  298.82   19.83
  -3  -5  -1  257.77   20.11
  -3  -5  -1  313.15   19.90
   3  -5   1  271.81   19.81
  -3   5   1  266.71   19.89
   3   5  -1  309.71   19.97
   3  -5   1  277.91   19.89
  -3   5   1  274.56   19.84
   3   5   1  270.43   19.86
   3  -5  -1  295.27   19.90
   3  -5  -1  305.26   19.85
  -3   5  -1  292.29   19.87
  -3   5  -1  293.40   19.89
   3   5   1  265.81   19.98
  -3  -5   1  270.93   19.98
  -5  -5  -1  159.41   10.44
  -5   5   1  132.37   10.32
   5   5  -1  165.71   10.53
   5  -5   1  143.06   10.33
   5   5  -1  154.81   10.33
  -5  -5  -1  134.62   10.89
   5  -5   1  136.94   10.41
  -5   5   1  136.81   10.60
  -5  -5   1  134.17   10.69
  -5   5  -1  156.27   10.41
   5   5   1  133.17   10.49
  -5   5  -1  160.47   10.50
   5  -5  -1  161.34   10.41
   5  -5  -1  163.23   10.38
   5   5   1  136.26   10.38
   0   6   1  178.69   12.54
   0  -6  -1  171.30   12.47
   0  -6   1  180.20   12.45
   0   6  -1  181.49   12.53
   0   6   1  171.87   12.47
   0  -6   1  187.69   12.56
   0   6  -1  174.52   12.47
  -2  -6  -1  199.57   13.68
   2   6  -1  190.02   13.73
  -2   6   1  204.97   13.69
   2   6  -1  200.47   13.74
   2   6  -1  194.48   13.66
  -2   6   1  203.61   13.65
   2  -6   1  202.77   13.68
  -2  -6  -1  195.08   13.85
  -2  -6   1  197.44   13.73
   2  -6  -1  190.47   13.73
  -2   6  -1  187.54   13.68
   2  -6  -1  187.51   13.62
   2   6   1  204.55   13.66
   2   6   1  171.79   13.76
  -4  -6  -1   87.09    6.21
   4   6  -1   87.30    6.12
   4  -6   1   84.94    6.27
   4   6  -1   87.54    6.31
  -4   6   1   95.44    6.30
  -4   6   1   90.91    6.14
  -4  -6  -1   71.95    6.59
  -4   6  -1   82.50    6.18
   4   6   1   88.06    6.25
   4  -6  -1   89.31    6.14
  -4   6  -1   85.11    6.20
  -4  -6   1   86.49    6.42
   4   6   1   91.78    6.35
   4  -6  -1   86.82    6.21
   6   6  -1   50.26    3.96
  -6   6   1   54.87    3.71
   6   6  -1   49.06    3.72
  -6   6   1   49.27    4.21
   6  -6   1   55.33    3.71
   6   6  -1   49.85    3.85
   6  -6   1   51.53    3.87
  -6  -6  -1   51.64    3.88
   6   6   1   53.33    3.98
   6  -6  -1   55.05    3.90
  -6   6  -1   49.91    3.82
   6   6   1   53.54    3.86
   6  -6  -1   51.92    3.76
  -6   6  -1   49.99    3.85
  -1   7   1    8.18    0.77
   1   7  -1   11.74    0.97
  -1  -7  -1    9.62    0.85
   1   7  -1   10.95    1.03
  -1   7   1    9.80    0.96
  -1  -7  -1   10.44    0.99
   1  -7   1    9.13    0.83
  -1  -7   1    7.80    0.85
  -1   7  -1   10.81    0.93
   1   7   1    8.49    0.97
   1   7   1    8.14    0.82
   3  -7   1    5.85    0.69
  -3  -7  -1    6.35    0.75
  -3   7   1    7.14    0.70
  -3  -7  -1    4.74    1.02
   3   7  -1    7.30    0.62
  -3   7   1    6.02    0.72
   3   7  -1    6.78    0.97
   3   7   1    6.18    1.05
   3  -7  -1    6.75    0.83
  -3  -7   1    5.37    0.94
   3   7   1    5.52    0.64
   3  -7  -1    5.66    0.56
  -3   7  -1    6.35    0.77
  -5   7   1    3.74    0.53
  -5  -7  -1    4.58    1.27
  -5   7   1    3.61    0.81
   5   7  -1    4.60    0.53
   5  -7   1    2.16    0.52
   5   7  -1    3.24    0.68
  -5  -7  -1    4.53    0.76
   5   7   1    2.58    0.49
  -5   7  -1    3.40    0.68
   5   7   1    2.49    0.67
   5  -7  -1    3.38    0.51
  -5  -7   1    1.96    0.88
   5  -7  -1    3.84    0.61
   0  -8   1  344.53   21.74
   0  -8  -1  273.51   21.66
   0   8   1  313.49   21.69
   0  -8   1  334.35   21.66
   0   8  -1  287.07   21.75
   0   8  -1  288.08   21.67
   0   8   1  328.01   21.72
   2  -8   1  259.22   18.53
  -2   8   1  252.46   18.48
  -2  -8  -1  263.80   18.54
  -2  -8  -1  284.55   18.71
   2   8  -1  285.61   18.63
   2   8  -1  270.20   18.61
   2   8  -1  270.85   18.53
  -2   8   1  256.85   18.56
  -2  -8   1  262.00   18.58
  -2   8  -1  258.19   18.55
   2   8   1  246.69   18.63
   2   8   1  263.24   18.51
   4  -8   1  149.94    9.98
  -4   8   1  158.15    9.93
  -4  -8  -1  123.14   10.32
   4   8  -1  131.35   10.08
  -4   8   1  155.76   10.01
   4   8  -1  127.73    9.88
  -4  -8  -1  133.12    9.98
   4  -8  -1  134.67   10.00
  -4   8  -1  126.80    9.95
  -4  -8   1  155.09   10.22
   4  -8  -1  127.30    9.87
   4   8   1  156.24    9.95
   4   8   1  151.88   10.14
  -6   8   1   81.56    6.09
   6   8  -1   67.95    5.29
   6  -8   1   67.62    5.16
  -6   8   1   73.32    5.01
   6   8  -1   69.78    5.18
   6   8   1   70.48    5.11
   6  -8  -1   67.60    5.00
   6   8   1   66.65    5.27
   1   9  -1   93.28    6.23
   1   9  -1   89.84    6.17
  -1   9   1   84.29    6.16
   1  -9   1   81.28    6.10
  -1   9   1   82.95    6.06
  -1   9   1   77.21    6.03
   1  -9   1   88.85    6.02
  -1   9  -1   90.21    6.18
   1   9   1   78.11    6.16
  -1   9  -1   90.65    6.03
  -1  -9   1   83.08    6.10
   1   9   1   84.65    6.10
   3   9  -1   54.83    4.15
  -3  -9  -1   59.81    4.42
  -3  -9  -1   58.81    4.09
   3   9  -1   58.08    4.01
  -3   9   1   53.65    4.06
   3   9  -1   55.18    4.21
  -3   9   1   53.68    4.00
  -3  -9   1   52.89    4.20
   3  -9  -1   60.28    4.16
  -3   9  -1   58.27    4.10
   3   9   1   46.33    4.20
   5   9  -1   28.26    2.01
  -5  -9  -1   30.20    2.93
   5   9  -1   26.53    2.32
  -5   9   1   23.56    2.23
   5  -9   1   24.05    2.14
  -5  -9  -1   27.05    2.18
  -5   9   1   26.63    2.03
   5   9  -1   25.97    2.23
  -5  -9   1   27.06    2.60
   5   9   1   25.36    2.09
   5  -9  -1   29.49    2.25
   5  -9  -1   26.43    1.96
  -5   9  -1   27.40    2.12
   5   9   1   23.72    2.33
   0 -10  -1  339.47   23.13
   0  10  -1  352.98   23.16
   0 -10   1  336.75   23.21
   0  10   1  309.34   23.17
   0 -10   1  322.00   23.11
   0  10   1  307.30   23.17
   0  10   1  320.68   23.15
   0  10  -1  355.78   23.27
  -2  10   1  250.80   18.79
   2  10  -1  312.16   19.01
   2 -10   1  248.34   18.86
   2  10  -1  312.06   18.91
  -2  10   1  238.99   18.77
  -2  10   1  239.86   18.91
   2  10   1  260.90   18.97
  -2  10  -1  307.33   18.95
   2  10   1  251.78   18.85
  -4 -10  -1  174.00   11.86
   4  10  -1  172.40   11.90
   4  10  -1  183.40   11.99
  -4  10   1  149.48   11.81
  -4 -10  -1  194.61   12.26
   4  10  -1  172.13   11.75
   4 -10   1  148.20   11.81
  -4  10   1  154.00   11.79
  -4 -10   1  149.71   11.99
   4 -10  -1  187.41   11.91
  -4  10  -1  176.82   11.85
   4  10   1  146.92   11.76
  -6  10   1   64.74    5.05
   6  10  -1   84.79    5.44
  -6  10  -1   79.50    5.24
   6  10   1   61.88    5.33
   6  10   1   62.77    5.13
   1 -11   1  147.57   10.09
   1  11  -1  128.87   10.16
  -1  11   1  144.18   10.01
  -1 -11  -1  130.18   10.10
  -1  11  -1  119.74   10.14
   1  11   1  153.31   10.10
  -1 -11   1  154.27   10.09
   1  11   1  158.28   10.15
  -3  11   1  102.00    6.63
  -3 -11  -1   86.90    6.96
   3  11  -1   80.57    6.66
   3  11  -1   81.08    6.78
  -3  11   1  108.42    6.79
   3  11  -1   80.61    6.84
   3 -11   1  103.90    6.73
  -3  11  -1   78.24    6.73
  -3 -11   1  101.27    6.87
   3  11   1  103.88    6.69
   3  11   1  100.87    6.90
   5 -11   1   53.32    3.86
   5  11  -1   43.08    3.88
   5  11  -1   41.60    3.97
  -5  11   1   55.46    3.76
   5  11   1   55.47    4.07
   5  11   1   55.21    3.79
   0  12   1   76.23    5.43
   0 -12   1   75.87    5.33
   0 -12   1   81.69    5.46
   0 -12  -1   65.02    5.30
   0  12   1   71.25    5.41
   0  12   1   73.60    5.37
   2  12  -1   51.72    4.35
   2  12  -1   65.61    4.36
  -2  12   1   51.78    4.29
  -2  12   1   56.70    4.10
  -2  12   1   55.19    4.08
  -2 -12  -1   65.18    4.39
   2  12  -1   54.59    4.24
   2 -12   1   53.95    4.20
   2  12   1   63.02    4.36
  -2 -12   1   53.67    4.25
   2  12   1   60.35    4.21
  -2  12  -1   54.13    4.30
  -4 -12  -1   33.30    3.05
  -4  12   1   36.73    2.59
   4  12  -1   29.26    2.65
   4 -12   1   33.49    2.57
   4  12  -1   27.36    2.74
  -4 -12   1   36.06    2.88
  -4  12  -1   26.74    2.58
   4  12   1   35.65    2.51
   4  12   1   33.07    2.80
   6 -12   1   18.28    2.20
   6  12  -1   15.83    1.92
   6  12  -1   15.47    2.04
   6  12   1   14.28    1.82
  -6  12  -1   13.40    1.65
   6  12   1   14.10    1.92
   1 -13   1    5.06    0.86
  -1 -13  -1    3.81    0.70
   1  13  -1    3.25    0.77
  -1  13   1    5.20    0.76
   1  13  -1    4.28    0.81
   1  13   1    6.32    1.00
  -1  13  -1    4.41    0.84
  -1  13  -1    4.11    0.85
   1  13   1    5.15    0.91
  -1 -13   1    5.39    0.84
   3 -13   1    4.49    0.82
   3  13  -1    2.90    0.70
  -3  13   1    3.85    0.73
   3  13  -1    2.58    0.54
  -3  13   1    3.62    0.49
   3  13  -1    2.27    0.85
  -3  13   1    3.76    0.50
  -3 -13  -1    2.73    0.78
  -3 -13   1    3.96    0.82
   3  13   1    3.20    0.57
   3  13   1    3.30    0.78
  -3  13  -1    2.62    0.68
   5  13  -1    1.19    0.66
   5  13  -1    1.27    0.80
  -5  13   1    1.07    0.52
   5  13  -1    1.71    0.52
  -5  13  -1    0.92    0.55
   5  13   1    2.02    0.58
   5  13   1    2.03    0.79
   0 -14  -1   31.41    2.26
   0  14  -1   28.14    2.54
   0  14   1   28.41    2.32
   0 -14   1   30.37    2.26
   0  14   1   29.82    2.42
   0  14  -1   23.15    2.37
   0  14   1   29.37    2.38
  -2 -14  -1   42.67    3.81
  -2  14   1   52.06    3.60
   2  14  -1   44.39    3.82
   2  14  -1   39.41    3.73
   2 -14   1   50.88    3.74
  -2  14   1   49.82    3.58
  -2  14   1   52.31    3.85
   2  14   1   56.90    3.88
  -2 -14   1   52.07    3.80
   2  14   1   51.16    3.73
   4  14  -1   12.63    1.34
  -4 -14  -1   17.25    1.95
   4  14  -1   12.58    1.54
  -4  14   1   14.09    1.50
  -4  14   1   15.39    1.12
   4 -14   1   14.41    1.47
   4  14  -1   11.07    1.72
  -4 -14   1   13.81    1.77
   4  14   1   15.13    1.39
   4  14   1   12.05    1.68
  -4  14  -1   11.31    1.54
   1 -15   1   48.70    3.27
   1 -15   1   44.41    3.50
   1  15  -1   46.24    3.57
  -1  15   1   47.55    3.54
  -1  15   1   42.69    3.37
  -1  15  -1   43.97    3.66
  -1  15  -1   49.33    3.41
   1  15   1   39.18    3.46
   1  15   1   39.42    3.45
   1  15   1   45.42    3.49
  -1 -15   1   45.51    3.45
  -3  15   1   29.20    2.31
   3  15  -1   33.27    2.53
   3  15  -1   37.40    2.67
   3 -15   1   28.27    2.51
  -3  15   1   28.73    2.64
   3  15  -1   29.05    2.74
  -3  15   1   30.57    2.31
   3  15   1   30.68    2.49
  -3  15  -1   30.80    2.75
  -3 -15   1   31.50    2.70
  -5  15   1   13.44    2.08
   5 -15   1   13.98    1.70
   5  15  -1   16.99    2.85
   5  15  -1   15.39    1.99
   5  15  -1   18.26    1.52
   5  15   1   16.08    1.62
   5  15   1   12.51    1.93
  -5  15  -1   16.19    1.72
   0 -16   1   85.16    6.23
   0  16   1   87.67    6.30
   0  16   1   84.74    6.35
   0  16   1   88.30    6.40
  -2  16   1   74.50    5.39
  -2  16   1   62.94    5.10
   2  16  -1   82.50    5.47
  -2  16   1   67.72    5.15
   2 -16   1   68.42    5.30
   2  16   1   64.94    5.28
  -2 -16   1   68.60    5.33
  -2  16  -1   79.81    5.52
   2  16   1   67.91    5.28
   2  16   1   77.15    5.37
   4  16  -1   51.48    3.61
   4 -16   1   36.03    3.28
   4  16   1   38.69    3.22
   4  16   1   41.06    3.48
   1  17  -1  118.58    9.04
  -1 -17  -1  113.99    8.88
  -1  17   1  136.04    9.02
   1 -17   1  135.60    8.76
  -1  17   1  125.19    8.85
   1  17  -1  103.29    8.94
   1 -17   1  136.18    9.01
   1  17   1  123.20    8.97
  -1 -17   1  127.01    8.92
   1  17   1  134.90    8.96
   1  17   1  117.14    8.98
  -1  17  -1  114.28    8.84
  -3  17   1   92.20    5.85
   3  17  -1   74.84    6.26
  -3  17   1   79.05    5.80
   3 -17   1   90.38    6.08
   3  17  -1   68.76    6.13
  -3 -17  -1   80.92    6.15
   3  17   1   85.41    6.01
  -3  17  -1   67.01    6.10
  -3 -17   1   91.52    6.21
   5  17  -1   39.88    3.26
   5  17  -1   31.54    3.42
  -5  17   1   43.64    3.22
   5  17  -1   38.36    3.05
  -5  17  -1   34.50    3.21
   0  18  -1  144.13    9.50
   0  18  -1  137.63    9.69
   0  18   1  134.34    9.55
   0 -18   1  124.19    9.36
   0  18   1  128.50    9.44
   0 -18  -1  128.38    9.38
   0  18   1  125.08    9.53
   2  18  -1  114.84    8.27
   2  18  -1  120.48    8.33
   2  18  -1  114.56    8.33
  -2  18   1   98.42    8.03
  -2 -18  -1  115.05    8.26
  -2  18   1  124.00    8.34
   2 -18   1  110.84    8.26
  -2  18   1  118.32    8.11
  -2  18  -1  100.66    8.38
   2  18   1  125.32    8.30
   2  18   1  108.80    8.26
  -2 -18   1  114.49    8.29
   2  18   1  107.32    8.23
  -4  18   1   56.15    4.60
   4  18  -1   57.99    4.74
   4  18  -1   65.13    4.62
   4  18  -1   54.79    4.47
  -4  18  -1   54.74    4.66
   4  18   1   67.11    4.73
   4  18   1   56.38    4.54
  -1  19   1   52.04    4.10
  -1  19   1   50.50    3.93
   1 -19   1   53.21    3.81
  -1  19   1   52.85    4.10
   1  19   1   50.21    4.09
   1  19   1   47.13    4.03
  -1  19  -1   62.82    4.35
  -1 -19   1   50.47    3.99
   3  19  -1   43.19    3.13
  -3  19   1   32.05    2.71
  -3  19   1   40.05    2.79
  -3  19   1   31.84    3.14
   3  19   1   35.30    3.12
   3  19   1   35.52    3.05
  -3  19  -1   39.09    3.33
   0  20   1   19.83    1.89
   0  20   1   20.31    1.97
   0  20   1   17.13    1.76
   0 -20   1   15.37    1.65
   0  20  -1   18.80    2.08
   0  20  -1   22.12    1.92
  -2  20   1    2.03    0.74
   2  20  -1    2.07    0.77
  -2 -20  -1    1.53    0.74
  -2  20   1    1.62    0.57
   2  20  -1    3.65    0.86
   2  20  -1    2.63    0.92
   2  20   1    2.17    0.69
   2  20   1    2.49    1.20
  -2  20  -1    1.78    0.96
  -2 -20   1    1.55    0.82
   2  20   1    2.15    0.73
  -4  20   1    7.81    1.27
   4  20  -1    9.12    1.56
   4  20  -1    8.57    1.50
  -4  20  -1    5.90    1.29
   4  20   1    6.80    1.18
   4  20   1    8.95    1.46
  -1  21   1  128.88   10.70
   1  21  -1  166.05   10.75
  -1  21   1  140.21   10.93
  -1  21   1  129.79   10.55
  -1 -21  -1  145.70   10.60
   1  21  -1  165.73   10.85
   1  21  -1  161.83   11.14
  -1  21  -1  165.89   10.94
   1  21   1  132.38   10.62
  -3  21   1   92.50    7.57
  -3  21   1  102.46    7.22
   3  21  -1  116.81    7.59
   3  21  -1  118.54    7.68
   3  21   1   95.87    7.51
  -3  21  -1   95.84    7.69
   3  21   1   87.04    7.46
   0  22   1  105.62    7.62
   0  22  -1   94.69    7.52
   0  22  -1   92.71    7.69
   0  22   1  110.90    7.52
   0 -22   1  110.30    7.44
  -2  22   1   89.59    6.03
  -2  22   1   90.02    5.72
   2  22  -1   69.31    5.92
  -2  22   1   76.05    5.64
   2  22  -1   72.27    5.95
  -2  22  -1   64.77    6.07
   2  22   1   76.98    5.91
   2  22   1   84.56    5.92
   1  23  -1  118.44    8.88
  -1  23   1  124.71    8.65
  -1  23   1  117.81    8.82
   1  23  -1  123.57    8.78
   1  23   1  114.92    8.79
   1  23   1  117.96    8.72
  -1  23  -1  129.08    8.65
  -1  23  -1  118.97    8.97
  -1 -23   1  112.81    8.66
   3  23  -1   82.38    6.34
   3  23  -1   82.05    6.30
  -3  23   1   86.90    6.41
   3  23   1   81.61    6.25
   3  23   1   88.67    6.30
  -3  23  -1   70.86    6.46
   0  24   1   18.81    1.89
   0 -24   1   20.72    1.82
   0  24   1   19.50    2.08
  -2  24   1   11.32    1.89
  -2  24   1   13.53    1.46
   2  24   1   13.22    1.76
   2  24   1   15.52    1.78
  -1  25   1   28.01    3.14
   1  25  -1   36.14    3.21
   1  25  -1   39.24    3.06
  -1  25   1   30.66    3.07
  -1  25  -1   39.12    3.39
   0   0  -2   34.96    2.53
   0   0  -2   35.75    2.55
  -2   0   2   30.46    2.22
   2   0   2   32.60    2.18
   2   0   2   25.83    2.25
  -4   0   2    4.91    0.78
   4   0   2    4.81    0.66
   4   0   2    5.80    0.78
  -6   0   2    2.55    0.99
   6   0  -2    1.59    0.48
  -6   0  -2    0.81    0.76
  -6   0  -2    1.34    0.45
   1  -1   2  418.12   26.19
   1   1  -2  353.60   26.15
  -1  -1  -2  378.26   26.23
   1   1  -2  374.20   26.15
  -1   1   2  358.81   26.16
  -1   1   2  335.81   26.15
  -1  -1   2  355.70   26.15
   1  -1  -2  392.15   26.17
   1  -1  -2  368.26   26.15
  -1  -1   2  379.61   26.16
   1   1   2  417.97   26.16
  -1   1  -2  366.12   26.24
   3   1  -2  244.30   16.95
  -3   1   2  249.05   16.98
  -3  -1  -2  231.00   16.92
   3  -1   2  239.78   16.94
  -3  -1  -2  246.66   17.02
   3  -1   2  237.53   16.93
  -3  -1   2  247.46   16.99
   3  -1  -2  245.33   16.94
  -3   1  -2  236.74   16.95
  -3   1  -2  235.76   16.93
   3   1   2  235.86   16.92
   3   1   2  253.30   17.00
   5  -1   2  115.07    8.12
   5  -1   2  117.92    8.15
   5   1  -2  118.97    8.19
  -5  -1  -2  112.81    8.37
  -5  -1  -2  116.08    8.14
  -5   1   2  114.26    8.33
   5   1   2  119.82    8.15
  -5   1  -2   95.46    8.60
   5  -1  -2  122.88    8.16
   5   1   2  111.95    8.16
  -5  -1   2  112.30    8.35
  -5   1  -2  114.41    8.13
   0  -2   2  279.29   19.84
   0   2   2  258.02   19.85
   0  -2   2  273.80   19.84
   0   2   2  273.86   19.87
   0   2  -2  308.33   19.85
   0  -2  -2  287.76   19.84
   0   2  -2  311.02   19.92
  -2   2   2  306.44   23.34
  -2  -2  -2  365.56   23.33
   2  -2   2  300.13   23.34
   2   2  -2  332.55   23.35
   2  -2   2  321.95   23.33
   2   2   2  362.56   23.43
  -2   2  -2  333.92   23.33
  -2  -2   2  340.02   23.36
   2  -2  -2  337.22   23.33
   2   2   2  342.00   23.33
   4  -2   2  143.92    9.83
   4  -2   2  127.60    9.79
   4   2  -2  146.59    9.87
  -4  -2  -2  148.25    9.82
  -4   2   2  131.02    9.91
   4   2   2  128.39    9.87
  -4  -2   2  130.68    9.93
   4  -2  -2  155.79    9.84
   4   2   2  131.01    9.80
  -4   2  -2  145.17    9.83
  -4   2  -2  142.26    9.86
   6  -2   2   88.59    6.14
   6  -2   2   82.94    6.20
   6   2  -2   90.79    6.24
  -6  -2  -2   86.75    6.19
  -6  -2  -2   83.22    6.53
  -6   2   2   80.71    6.50
  -6   2  -2   86.79    6.18
   6   2   2   83.81    6.20
   6   2   2   83.10    6.21
  -6  -2   2   80.72    6.74
   6  -2  -2   90.21    6.18
  -6   2  -2   89.64    6.28
   1   3  -2  170.62   12.07
   1  -3   2  177.17   12.06
  -1   3   2  176.80   12.07
   1   3  -2  173.61   12.12
  -1   3   2  172.43   12.10
  -1  -3  -2  172.81   12.09
   1  -3   2  175.30   12.10
   1   3   2  168.99   12.13
  -1  -3   2  168.56   12.08
   1  -3  -2  166.04   12.08
  -1   3  -2  166.03   12.10
   1   3   2  181.73   12.10
   1  -3  -2  168.71   12.09
  -1  -3   2  179.91   12.11
  -3  -3  -2  110.46    7.50
  -3  -3  -2   99.67    7.31
   3  -3   2  110.95    7.33
   3  -3   2  103.71    7.29
   3   3  -2  101.62    7.36
  -3   3   2  108.12    7.37
  -3   3  -2   96.20    7.32
   3   3   2  103.91    7.44
   3  -3  -2  102.43    7.31
  -3   3  -2   94.77    7.28
   3   3   2  108.09    7.32
  -5  -3  -2   48.58    3.73
   5  -3   2   53.60    3.66
  -5   3   2   54.40    3.95
   5  -3   2   53.81    3.75
   5   3  -2   47.44    3.77
  -5  -3   2   50.40    4.00
  -5   3  -2   47.12    3.73
   5   3   2   53.79    3.74
   5   3   2   51.39    3.81
  -5   3  -2   46.91    3.71
   5  -3  -2   51.00    3.70
   0   4   2  119.71    8.79
   0   4  -2  137.75    8.79
   0   4   2  115.06    8.77
   0  -4   2  121.79    8.78
   0  -4   2  119.61    8.76
   0  -4  -2  130.71    8.78
   0   4  -2  131.43    8.77
   2  -4   2   32.38    2.64
   2  -4   2   35.20    2.60
  -2   4   2   35.05    2.62
   2   4  -2   41.30    2.64
   2  -4   2   37.60    2.68
  -2  -4  -2   39.05    2.80
  -2   4   2   34.16    2.66
  -2   4   2   35.67    2.68
   2   4  -2   39.92    2.73
   2  -4  -2   41.96    2.67
  -2  -4   2   34.32    2.71
   2   4   2   32.53    2.80
   2   4   2   39.77    2.68
   4   4  -2   46.21    3.22
  -4  -4  -2   34.94    3.48
   4  -4   2   39.59    3.04
  -4   4   2   35.82    3.35
   4  -4   2   41.88    3.13
  -4  -4  -2   47.19    3.15
  -4  -4   2   39.94    3.30
   4  -4  -2   49.42    3.12
  -4   4  -2   44.06    3.08
  -4   4  -2   46.63    3.15
   4   4   2   41.05    3.12
   4   4   2   39.95    3.27
   6  -4   2   10.62    1.31
  -6   4   2    9.89    1.48
   6  -4   2   10.38    1.02
  -6  -4  -2    9.88    1.63
   6   4  -2   11.02    1.27
  -6  -4  -2   13.02    1.28
  -6   4  -2   13.15    1.20
  -6   4  -2   13.39    1.15
   6  -4  -2   13.28    1.14
   6   4   2   10.08    1.32
   1  -5   2   17.89    1.36
  -1   5   2   17.63    1.33
   1   5  -2   17.22    1.36
  -1   5   2   19.79    1.36
   1  -5   2   18.43    1.28
   1   5  -2   17.56    1.39
  -1  -5  -2   17.39    1.35
  -1  -5   2   16.90    1.36
   1   5   2   18.01    1.42
  -1   5  -2   17.41    1.29
   1  -5  -2   17.16    1.33
  -1  -5   2   17.87    1.37
  -1   5  -2   17.77    1.38
   3   5  -2    8.70    1.01
  -3   5   2    8.84    0.81
   3   5  -2    8.31    0.72
   3  -5   2    9.54    0.87
  -3   5   2   10.21    0.75
  -3  -5  -2    7.01    1.24
  -3   5   2    9.50    0.94
   3   5  -2    8.85    0.82
  -3  -5  -2    9.10    0.87
   3   5   2    8.96    1.18
  -3  -5   2    9.18    1.02
  -3   5  -2    9.22    0.90
   3  -5  -2   10.10    0.82
   3   5   2    9.72    0.87
   5  -5   2    4.66    0.48
  -5   5   2    3.52    0.82
  -5  -5  -2    4.08    0.59
   5   5  -2    3.08    0.64
   5  -5   2    3.86    0.77
  -5  -5  -2    2.04    0.98
  -5   5  -2    3.98    0.73
   5   5   2    4.01    0.77
  -5   5  -2    4.11    0.56
   5  -5  -2    4.33    0.61
   5   5   2    3.32    0.78
  -5  -5   2    3.41    0.86
   0  -6  -2  234.20   18.93
   0   6   2  275.51   18.94
   0   6  -2  233.39   18.94
   0  -6   2  296.31   18.95
   0  -6   2  313.88   18.92
   0   6  -2  240.55   18.91
   0   6   2  302.31   18.94
  -2   6   2  100.57    7.80
   2   6  -2   94.29    7.78
  -2  -6  -2  114.10    7.80
  -2   6   2  116.64    7.79
  -2   6   2  117.58    7.78
   2  -6   2  121.74    7.81
   2  -6  -2   99.32    7.75
   2   6   2  124.80    7.79
  -2   6  -2   99.13    7.80
  -2  -6   2  115.92    7.83
   2   6   2  108.88    7.92
  -4   6   2  118.64    7.18
  -4  -6  -2   90.87    6.97
   4   6  -2   86.77    6.92
   4   6  -2   87.75    6.84
   4   6  -2   92.03    7.05
  -4  -6   2  117.53    7.18
  -4   6  -2   87.66    6.96
   4   6   2  113.33    7.16
   4  -6  -2   90.50    6.91
  -6  -6  -2   25.81    2.28
   6   6  -2   24.22    2.34
   6  -6   2   31.39    2.36
  -6   6   2   30.29    2.69
   6  -6  -2   23.76    2.48
   6   6   2   31.17    2.32
   6   6   2   30.59    2.45
  -6   6  -2   27.39    2.26
   1  -7   2  186.24   13.81
  -1  -7  -2  204.82   13.89
  -1  -7  -2  205.01   13.94
   1   7  -2  215.45   13.93
  -1   7   2  197.05   13.88
   1  -7   2  199.45   13.89
   1   7  -2  203.94   13.93
  -1   7   2  193.74   13.88
  -1  -7   2  194.79   13.91
  -1   7  -2  198.84   13.91
  -1   7  -2  203.62   13.82
  -1  -7   2  193.53   13.88
   1   7   2  191.75   13.87
   1   7   2  179.79   13.93
   3  -7   2  131.56    8.95
  -3   7   2  121.21    8.89
  -3   7   2  121.05    8.93
  -3  -7  -2  127.81    9.18
   3   7  -2  132.75    9.03
  -3  -7  -2  134.67    8.95
   3   7  -2  124.47    8.96
   3   7  -2  127.97    8.91
   3   7   2  127.09    8.92
   3  -7  -2  132.47    8.88
  -3  -7   2  121.99    9.01
  -3   7  -2  128.91    8.96
   3   7   2  109.70    9.07
  -5  -7  -2   62.03    5.08
  -5  -7  -2   66.76    4.56
  -5   7   2   60.81    4.67
   5   7  -2   65.46    4.66
  -5   7   2   57.12    4.42
   5  -7   2   60.29    4.55
   5   7   2   60.79    4.52
   5   7   2   58.29    4.69
  -5  -7   2   56.44    4.77
  -5   7  -2   63.06    4.54
   5  -7  -2   69.48    4.47
   0  -8   2  241.29   16.23
   0   8  -2  237.83   16.19
   0  -8   2  216.91   16.19
   0   8   2  215.86   16.19
   0   8  -2  242.81   16.26
   0   8   2  232.59   16.21
   2  -8   2  147.94    9.99
  -2  -8  -2  146.94    9.99
  -2   8   2  135.22    9.99
  -2   8   2  136.39    9.95
   2   8  -2  149.68   10.06
  -2   8   2  135.61   10.01
   2   8  -2  138.57   10.03
  -2  -8  -2  137.44   10.11
   2   8   2  145.54   10.11
  -2  -8   2  141.76   10.01
   2   8   2  137.90    9.96
  -2   8  -2  143.85   10.01
   4   8  -2   93.05    7.30
  -4  -8  -2  106.78    7.70
   4   8  -2  101.17    7.18
  -4   8   2  105.14    7.21
   4  -8   2  106.14    7.31
  -4  -8  -2  106.29    7.31
  -4   8   2  107.98    7.34
   4   8   2  101.04    7.27
   4   8   2   91.32    7.43
  -4  -8   2  101.86    7.45
  -4   8  -2  100.92    7.31
   4  -8  -2  104.06    7.21
  -6   8   2   32.33    3.53
   6  -8   2   35.99    2.94
  -6  -8  -2   39.72    2.95
   6   8  -2   37.99    3.06
   6   8   2   36.05    3.09
   6  -8  -2   38.14    2.77
   6   8   2   35.97    2.91
  -6   8  -2   38.70    2.90
  -1   9   2   26.06    1.91
  -1   9   2   23.34    1.86
   1  -9   2   25.26    1.81
  -1   9   2   26.81    1.98
  -1   9   2   25.58    1.96
  -1   9  -2   21.55    1.98
  -1  -9   2   25.11    1.91
   1   9   2   24.64    2.01
  -1  -9   2   26.44    2.01
  -3  -9  -2    8.33    0.96
   3   9  -2    8.70    1.15
  -3  -9  -2   10.71    1.48
   3   9  -2    8.78    1.20
   3   9  -2    8.61    0.86
   3  -9  -2    8.04    0.78
  -3   9  -2    8.68    1.04
   5  -9   2    6.53    0.96
   5   9  -2    5.66    0.61
  -5  -9  -2    6.64    1.34
   5   9  -2    4.11    0.86
  -5   9   2    6.35    1.14
   5   9  -2    4.36    0.73
  -5  -9  -2    4.43    0.72
   5   9   2    7.84    1.25
   5  -9  -2    5.74    0.65
   0 -10   2   32.49    2.29
   0  10   2   29.97    2.25
   0  10  -2   25.56    2.36
   0  10  -2   26.79    2.24
   0 -10   2   31.29    2.20
   0  10   2   31.14    2.28
  -2  10   2   30.84    2.24
   2  10  -2   25.98    2.42
   2  10  -2   29.91    2.44
  -2 -10  -2   28.87    2.29
  -2  10   2   33.02    2.38
  -2  10   2   27.16    2.33
   2 -10   2   29.14    2.26
   2  10   2   29.47    2.26
  -2  10  -2   29.64    2.37
  -2 -10   2   29.45    2.32
   2  10   2   32.31    2.47
   4 -10   2   15.41    1.36
  -4 -10  -2   15.32    1.95
  -4  10   2   16.25    1.39
   4  10  -2   12.97    1.18
   4  10  -2   13.56    1.57
  -4  10   2   15.32    1.27
  -4 -10  -2   13.26    1.35
  -4  10  -2   13.32    1.38
   4 -10  -2   12.38    1.15
  -4 -10   2   15.95    1.63
   4  10   2   15.01    1.66
   4  10   2   16.99    1.35
  -6 -10  -2    9.48    1.25
   6  10  -2    9.46    1.47
   6  10   2    6.99    1.25
   6 -10  -2    8.36    0.92
  -6  10  -2   10.22    1.25
  -1  11   2   35.13    2.74
  -1  11   2   35.66    2.73
   1  11  -2   33.09    2.85
  -1  11   2   35.63    2.64
  -1  11   2   33.70    2.60
   1  11  -2   34.07    2.78
   1 -11   2   35.17    2.69
   1 -11   2   36.96    2.56
   1  11   2   36.88    2.73
  -1 -11   2   36.98    2.77
   1  11   2   35.41    2.78
  -1 -11   2   36.05    2.65
  -1  11  -2   33.62    2.56
  -1  11  -2   35.60    2.80
   3  11  -2   24.70    2.24
   3  11  -2   22.37    2.18
  -3 -11  -2   23.59    2.01
   3  11  -2   23.72    1.96
  -3 -11  -2   26.88    2.37
  -3  11   2   24.44    1.93
  -3  11   2   26.01    2.06
   3 -11   2   24.63    1.97
  -3  11  -2   22.54    2.08
   3  11   2   24.60    1.95
  -3 -11   2   23.46    2.10
   3  11   2   26.66    2.28
  -5 -11  -2   14.83    1.48
  -5  11   2   13.91    1.53
   5  11  -2   13.80    1.23
  -5  11   2   13.92    1.40
   5  11  -2   17.21    1.79
   5 -11   2   15.27    1.49
   5  11  -2   12.62    1.97
   5  11   2   15.71    1.47
   5  11   2   16.30    1.77
  -5  11  -2   12.80    1.44
   0  12   2  103.00    7.45
   0 -12   2  106.63    7.39
   0  12  -2  105.23    7.60
   0  12  -2  107.04    7.46
   0 -12   2  100.35    7.49
   0  12   2  103.08    7.54
  -2  12   2  117.91    8.06
  -2  12   2  106.06    7.96
  -2  12   2  117.68    7.92
   2  12  -2  101.20    8.03
  -2 -12  -2  111.84    8.05
  -2  12   2  111.81    7.83
   2 -12   2  113.67    7.92
   2  12   2  114.45    7.90
   2  12   2  113.41    8.03
  -2  12  -2   96.30    7.97
  -2 -12   2  112.59    7.94
   4 -12   2   53.88    3.91
  -4 -12  -2   53.55    3.94
   4  12  -2   50.37    4.09
  -4  12   2   52.82    3.87
  -4  12   2   53.94    3.86
   4  12  -2   48.81    4.01
   4  12  -2   51.27    3.92
  -4  12  -2   52.22    3.95
  -4 -12   2   52.69    4.10
   4  12   2   53.00    3.86
   4  12   2   46.22    4.06
   1  13  -2  516.86   32.64
  -1  13   2  414.08   32.47
  -1  13   2  453.47   32.50
  -1  13   2  411.42   32.55
   1 -13   2  471.08   32.46
   1 -13   2  438.83   32.54
   1  13  -2  480.87   32.69
  -1  13   2  457.71   32.58
   1  13   2  444.94   32.54
  -1  13  -2  530.84   32.70
  -1  13  -2  538.91   32.46
   1  13   2  419.56   32.57
   3 -13   2  315.00   23.23
   3  13  -2  336.14   23.63
  -3  13   2  315.18   23.16
   3  13  -2  379.54   23.26
  -3  13   2  307.47   23.27
  -3  13   2  318.65   23.18
   3  13   2  314.62   23.20
  -3  13  -2  363.17   23.34
   3  13   2  330.01   23.38
  -3 -13   2  328.52   23.32
  -5  13   2  172.04   13.17
   5  13  -2  194.77   12.90
  -5  13   2  178.43   12.94
   5 -13   2  171.21   13.08
   5  13  -2  209.65   13.28
   5  13  -2  210.68   13.12
   5  13   2  165.95   12.98
  -5  13  -2  185.25   13.06
   5  13   2  161.00   13.16
   0  14   2   85.24    6.21
   0 -14   2   91.92    6.23
   0  14   2   80.67    6.18
   0  14   2   83.01    6.16
   0 -14   2   83.43    6.07
  -2  14   2   68.94    4.90
  -2  14   2   61.87    4.69
   2 -14   2   64.10    4.80
  -2  14   2   63.81    4.73
   2  14   2   70.93    4.95
  -2 -14   2   62.37    4.82
   2  14   2   64.36    4.79
   4  14  -2   30.59    3.25
  -4  14   2   40.88    3.17
   4 -14   2   40.06    3.15
  -4  14   2   44.10    3.07
  -4  14   2   42.36    2.96
   4  14   2   40.93    3.10
   1 -15   2    3.04    0.61
  -1  15   2    5.62    1.07
  -1  15   2    4.65    0.79
  -1  15   2    3.55    0.63
  -1  15   2    3.40    0.70
   1  15   2    3.28    0.65
   1  15   2    3.54    0.74
  -1 -15   2    5.20    0.86
  -3  15   2    1.70    0.68
  -3  15   2    3.35    0.60
   3  15  -2    3.71    0.91
   3  15  -2    4.47    0.92
  -3  15   2    3.25    0.69
   3 -15   2    2.45    0.60
  -3  15   2    2.57    0.52
  -3 -15   2    2.25    0.74
  -3  15  -2    4.35    0.84
   3  15   2    2.06    0.76
   3  15   2    2.19    0.59
   5  15  -2    2.21    1.02
   5  15  -2    1.78    0.90
   5  15  -2    3.75    0.82
   5  15   2    1.08    0.89
  -5  15  -2    2.71    0.77
   0 -16   2  126.58    9.03
   0 -16   2  134.95    9.18
   0  16  -2  127.51    9.34
   0  16   2  122.25    9.14
   0  16  -2  129.14    9.15
   0  16   2  121.76    9.16
   0  16   2  126.05    9.12
  -2  16   2  107.69    7.21
   2  16  -2   97.69    7.28
  -2  16   2   93.31    7.01
   2 -16   2   89.68    7.10
  -2  16   2   99.76    7.19
   2  16   2   93.75    7.10
   2  16   2  105.30    7.22
  -2 -16   2   91.23    7.12
  -2  16  -2  104.19    7.33
   4  16  -2   70.01    5.56
  -4  16   2   71.37    5.13
   4  16  -2   69.09    5.27
  -4  16   2   74.40    5.35
  -4  16   2   69.36    5.18
   4  16  -2   79.89    5.50
  -4  16   2   65.35    5.34
   4  16   2   72.98    5.50
  -4  16  -2   69.21    5.53
   1  17  -2   20.89    2.35
   1 -17   2   29.98    2.02
  -1  17   2   26.46    2.18
  -1 -17  -2   30.51    2.27
   1 -17   2   27.09    2.27
  -1  17   2   27.95    2.28
  -1  17   2   23.34    2.09
   1  17  -2   27.19    2.55
  -1  17   2   27.00    2.32
  -1  17  -2   24.50    2.58
   1  17   2   25.97    2.26
  -1  17  -2   25.37    2.13
   1  17   2   24.58    2.24
  -1 -17   2   25.09    2.20
   1  17   2   25.12    2.26
   3 -17   2   18.20    1.81
   3  17  -2   14.83    2.93
  -3  17   2   21.67    1.89
   3  17  -2   15.63    2.13
  -3  17   2   21.58    1.64
   3  17  -2   18.98    1.95
  -3  17   2   18.36    2.13
  -3  17  -2   16.38    2.10
  -3 -17   2   17.36    1.96
   3  17   2   18.37    1.96
   3  17   2   21.15    1.84
   0  18   2   92.50    7.21
   0  18   2   96.09    7.30
   0  18   2   94.95    7.27
   0  18  -2  113.05    7.57
   0  18  -2  105.04    7.30
   0 -18   2   96.57    7.16
  -2  18   2   97.34    7.87
  -2  18   2  108.54    7.92
  -2  18   2  119.12    8.10
  -2  18   2  121.27    8.10
   2 -18   2  100.43    8.02
   2  18  -2  117.42    8.20
  -2  18  -2  117.99    8.28
  -2 -18   2  105.33    8.03
   2  18   2  101.03    8.01
   2  18   2  115.97    8.09
   4  18  -2   58.03    4.46
   4  18  -2   66.07    4.68
  -4  18   2   55.23    4.26
  -4  18   2   56.49    4.49
  -4  18  -2   58.01    4.70
   4  18   2   55.94    4.62
  -1  19   2   71.27    5.33
   1  19  -2   78.81    5.67
   1 -19   2   73.23    5.45
  -1 -19  -2   76.17    5.39
   1  19  -2   67.73    5.49
  -1  19   2   79.37    5.49
  -1  19   2   69.58    5.27
  -1  19   2   74.83    5.43
   1  19   2   65.02    5.42
  -1  19  -2   63.74    5.65
   1  19   2   77.27    5.42
   1  19   2   70.88    5.44
  -1 -19   2   74.44    5.39
  -1  19  -2   67.81    5.28
  -3  19   2   54.37    3.89
  -3  19   2   54.46    4.13
  -3  19   2   59.92    4.12
  -3  19   2   47.29    3.81
   3  19  -2   48.43    4.11
   3  19  -2   45.66    4.24
   3  19  -2   53.10    4.19
  -3  19  -2   42.87    4.24
   3  19   2   57.35    4.15
   0  20   2   33.85    3.01
   0  20  -2   31.00    2.89
   0  20  -2   32.49    3.22
   0  20   2   36.63    2.90
   0 -20   2   36.94    2.77
   0  20   2   36.34    2.96
  -2  20   2   36.94    2.96
  -2  20   2   45.75    3.23
   2  20  -2   32.67    3.32
   2  20  -2   31.88    3.25
  -2  20   2   42.70    3.06
   2  20  -2   34.20    3.30
  -2 -20   2   39.55    3.28
   2  20   2   43.41    3.22
   2  20   2   38.85    3.20
  -4  20   2   14.67    1.86
   4  20  -2   15.79    2.03
   4  20  -2   11.56    2.15
  -4  20  -2   10.82    1.74
  -1  21   2   49.01    3.54
  -1  21   2   47.62    3.66
   1  21  -2   42.28    3.72
  -1  21   2   46.21    3.46
   1  21  -2   43.90    3.87
   1 -21   2   50.30    3.37
   1  21   2   45.72    3.67
  -1 -21   2   45.03    3.61
  -1  21  -2   41.55    3.48
  -1  21  -2   37.07    3.91
   1  21   2   47.42    3.63
   3  21  -2   29.62    3.09
  -3  21   2   36.10    2.66
  -3  21   2   34.38    2.98
   3  21  -2   27.63    3.02
   3  21   2   33.05    2.91
   3  21   2   36.08    2.95
   0 -22   2   53.45    4.12
   0  22   2   54.08    4.28
   0  22   2   56.38    4.22
   2  22  -2   62.40    4.45
  -2  22   2   54.18    4.09
  -2  22   2   45.61    3.99
  -2  22   2   54.55    4.27
   2  22  -2   61.36    4.49
   2  22   2   49.76    4.26
  -2  22  -2   52.40    4.61
   2  22   2   51.72    4.22
   1 -23   2    5.20    0.96
   1  23  -2    6.35    1.22
   1  23  -2    4.48    1.02
  -1  23   2    4.68    0.95
  -1  23   2    5.19    0.96
  -1  23   2    5.04    0.91
  -1  23  -2    5.11    1.35
  -1  23  -2    6.19    1.12
  -1 -23   2    4.95    0.98
   1  23   2    7.14    1.29
   1  23   2    4.67    0.92
   0 -24   2   79.17    5.84
   0  24   2   75.73    5.94
   0  24  -2   83.13    6.31
   0  24  -2   87.59    6.37
   0  24   2   74.52    6.03
   2  24  -2   57.70    4.36
  -2  24   2   54.39    4.07
  -2  24   2   51.76    4.25
   2  24  -2   57.22    4.47
  -2  24  -2   49.40    4.66
   2  24   2   47.09    4.24
   2  24   2   50.19    4.19
  -1  25   2   14.33    1.65
  -1  25   2   13.69    1.91
  -1  25   2   19.05    2.18
   1  25   2   13.89    1.75
   1  25   2   13.16    1.85
   0   0  -3   -0.02    0.20
   0   0   3   -0.03    0.18
   0   0  -3   -0.17    0.15
   0   0   3    0.14    0.16
   2   0   3    0.12    0.20
  -2   0   3    0.06    0.25
  -2   0  -3    0.16    0.22
   2   0  -3    0.23    0.23
   2   0   3    0.52    0.32
   4   0   3    0.10    0.31
   4   0  -3    0.11    0.33
   4   0   3    0.89    0.48
  -4   0   3   -0.19    0.48
  -4   0  -3    0.33    0.36
  -4   0  -3    0.05    0.31
  -6   0  -3    0.11    0.62
   6   0   3    0.53    0.48
   6   0  -3    0.32    0.44
   6   0   3   -0.44    0.50
  -6   0  -3    0.06    0.42
   1  -1   3  126.13    7.99
   1  -1   3  120.23    8.00
  -1  -1  -3   96.74    7.98
   1   1  -3   99.91    7.95
  -1   1   3  122.16    8.02
  -1   1   3  116.05    7.96
  -1  -1   3  127.46    8.02
  -1   1  -3   98.30    7.99
   1   1   3  123.37    8.01
  -1  -1   3  120.71    7.97
   1  -1  -3   99.78    7.95
   1  -1  -3  104.41    8.00
   1   1   3  122.17    8.00
   3  -1   3   67.27    4.87
  -3  -1  -3   63.47    4.79
   3  -1   3   76.87    4.81
  -3   1   3   71.53    4.87
   3   1  -3   57.99    4.81
  -3   1  -3   59.61    4.79
   3   1   3   72.12    4.93
   3  -1  -3   60.38    4.79
  -3  -1   3   73.89    4.88
  -5  -1  -3   27.71    2.49
   5   1  -3   28.36    2.51
  -5  -1  -3   28.07    2.60
   5  -1   3   36.71    2.56
   5  -1   3   35.49    2.50
  -5   1   3   35.45    2.73
   5  -1  -3   29.96    2.49
  -5  -1   3   35.40    2.75
   5   1   3   37.94    2.56
  -5   1  -3   26.81    2.47
   5   1   3   36.64    2.57
   0   2   3  163.97   10.91
   0  -2  -3  140.09   10.90
   0   2   3  168.42   10.96
   0  -2  -3  147.99   10.93
   0   2  -3  142.73   10.91
   0  -2   3  163.63   10.92
   0  -2   3  167.49   10.92
   0   2  -3  152.64   10.93
   2  -2   3  222.94   14.81
  -2   2   3  219.05   14.83
   2   2  -3  182.72   14.81
   2  -2   3  221.85   14.82
   2  -2   3  221.08   14.77
  -2   2   3  207.00   14.73
  -2  -2  -3  213.63   14.80
   2   2  -3  189.88   14.72
   2   2   3  246.75   14.82
  -2  -2   3  215.92   14.76
  -2   2  -3  196.50   14.81
  -2  -2   3  221.38   14.84
   2  -2  -3  189.21   14.80
   4  -2   3   89.43    5.83
  -4   2   3   82.92    5.91
   4   2  -3   75.80    5.84
  -4  -2  -3   72.13    5.79
   4  -2   3   81.63    5.79
  -4  -2  -3   83.15    5.91
  -4   2  -3   74.19    5.80
   4   2   3   85.46    5.81
   4   2   3   88.95    5.92
  -4  -2   3   82.66    5.93
   4  -2  -3   75.91    5.80
   6   2  -3   44.89    3.77
   6  -2   3   57.03    3.69
  -6  -2  -3   47.84    3.96
  -6  -2  -3   46.61    3.76
   6  -2   3   51.85    3.81
   6   2   3   53.38    3.81
   6   2   3   54.94    3.84
  -6   2  -3   46.43    3.74
   6  -2  -3   47.16    3.73
   1  -3   3   92.09    6.28
  -1   3   3   86.93    6.18
  -1   3   3   86.99    6.24
   1  -3   3   87.41    6.22
  -1  -3   3   85.04    6.20
  -1  -3   3   87.90    6.23
   1   3   3   89.40    6.22
   3  -3   3   51.32    3.76
  -3   3   3   50.26    3.80
   3  -3   3   51.97    3.76
   3   3   3   50.72    3.92
   3   3   3   56.69    3.76
  -3  -3   3   48.85    3.82
  -5   3   3   20.03    1.99
   5  -3   3   21.73    1.69
   5  -3   3   21.97    1.81
   5   3   3   21.86    1.83
   5   3   3   22.77    1.93
  -5  -3   3   20.31    2.05
   0   4   3  308.24   20.61
   0   4   3  313.72   20.64
   0  -4   3  315.65   20.62
   0   4  -3  276.37   20.61
   0  -4   3  314.54   20.61
   0   4  -3  279.79   20.61
   0  -4  -3  257.07   20.59
  -2   4   3  205.78   14.78
   2   4  -3  206.85   14.78
  -2  -4  -3  230.44   14.85
   2  -4   3  207.23   14.82
  -2   4   3  210.21   14.86
   2  -4   3  208.90   14.85
   2   4  -3  211.13   14.88
   2  -4   3  204.32   14.78
   2   4   3  238.03   14.86
   2   4   3  214.10   14.94
  -2   4  -3  199.99   14.85
  -2  -4   3  204.73   14.83
  -2  -4   3  215.67   14.88
   2  -4  -3  207.55   14.84
   4  -4   3  147.32    9.84
   4  -4   3  137.19    9.75
  -4  -4  -3  138.15    9.98
  -4   4   3  149.01    9.92
  -4  -4  -3  130.01    9.82
   4   4  -3  130.40    9.87
   4   4   3  148.91    9.83
  -4   4  -3  129.58    9.83
  -4  -4   3  143.39    9.94
   4   4   3  139.04    9.95
   4  -4  -3  134.33    9.80
   6  -4   3   60.45    4.00
  -6  -4  -3   55.43    4.17
  -6  -4  -3   52.91    4.47
  -6   4   3   51.53    4.41
   6   4  -3   53.77    4.20
   6   4   3   54.12    4.22
   6  -4  -3   57.08    4.10
  -6   4  -3   57.07    4.15
   1  -5   3  170.93   11.51
   1   5  -3  159.82   11.48
  -1   5   3  170.54   11.47
  -1  -5  -3  150.36   11.49
   1  -5   3  172.32   11.46
   1   5  -3  161.43   11.59
  -1   5   3  171.85   11.52
  -1   5  -3  153.91   11.51
   1  -5  -3  157.91   11.50
   1  -5  -3  152.04   11.48
   1   5   3  171.82   11.50
   1   5   3  162.76   11.54
  -1  -5   3  167.62   11.49
  -1  -5   3  173.30   11.51
  -1   5  -3  160.81   11.47
  -3   5   3  107.72    8.03
   3   5  -3  103.46    8.03
   3  -5   3  117.40    7.89
  -3   5   3  114.21    7.88
  -3  -5  -3  110.75    8.11
   3  -5   3  113.40    7.93
  -3   5   3  115.88    7.90
   3  -5   3  116.65    8.00
  -3  -5  -3  116.57    7.99
   3  -5  -3  106.99    7.97
   3   5   3  123.63    8.00
  -3  -5   3  114.33    8.06
  -3   5  -3  105.19    8.00
   3   5   3  111.13    8.15
   5  -5   3   62.36    4.26
  -5  -5  -3   55.16    4.22
   5  -5   3   63.18    4.07
  -5  -5  -3   51.66    4.49
   5   5  -3   54.17    4.28
  -5   5   3   59.94    4.38
  -5   5  -3   53.48    4.22
   5   5   3   59.03    4.37
  -5  -5   3   53.89    4.41
   5   5   3   61.86    4.24
   5  -5  -3   53.26    4.24
   0  -6   3   45.24    3.49
   0  -6  -3   57.37    3.50
   0  -6   3   44.91    3.46
   0   6   3   42.59    3.50
   0   6   3   43.24    3.47
   0   6  -3   57.27    3.50
   2   6  -3   74.21    4.38
  -2   6   3   59.34    4.42
   2  -6   3   56.87    4.35
   2  -6   3   60.76    4.32
  -2   6   3   54.65    4.41
  -2   6   3   66.26    4.49
   2  -6   3   56.16    4.49
   2   6   3   59.64    4.48
   2   6   3   57.18    4.53
  -2  -6   3   55.44    4.53
  -2   6  -3   74.56    4.47
  -4   6   3   21.40    1.94
   4  -6   3   19.86    1.85
  -4  -6  -3   25.08    2.22
   4   6  -3   28.76    2.00
  -4  -6  -3   28.37    1.91
   4   6   3   18.67    2.07
   4   6   3   20.60    1.85
   6   6  -3   21.39    2.00
  -6  -6  -3   21.29    1.91
  -6   6  -3   20.80    1.90
   6  -6  -3   22.62    1.80
   1  -7   3  140.48    9.34
   1   7  -3  128.19    9.32
  -1   7   3  133.84    9.34
   1  -7   3  140.88    9.26
   1   7  -3  126.69    9.35
  -1  -7  -3  126.59    9.32
  -1   7   3  135.31    9.30
  -1  -7   3  138.43    9.33
  -1  -7   3  131.04    9.33
   1   7   3  124.44    9.36
  -1   7  -3  128.13    9.27
  -1   7  -3  130.27    9.35
   1   7   3  134.04    9.32
  -3  -7  -3   95.55    6.37
  -3   7   3   89.03    6.28
  -3   7   3   89.30    6.30
   3  -7   3   92.84    6.36
   3   7  -3   88.15    6.43
  -3   7   3   90.15    6.38
  -3  -7  -3   78.33    6.49
   3   7  -3   86.68    6.27
   3   7  -3   87.84    6.29
  -3  -7   3   87.87    6.42
   3   7   3   97.82    6.36
   3  -7  -3   87.51    6.31
  -3   7  -3   83.85    6.37
   3   7   3   87.49    6.53
  -5  -7  -3   42.75    3.34
   5   7  -3   45.14    3.43
  -5  -7  -3   37.31    3.70
   5  -7   3   48.42    3.39
  -5   7   3   43.28    3.47
   5   7   3   42.43    3.51
  -5   7  -3   43.27    3.35
   5   7   3   45.10    3.34
   5  -7  -3   46.24    3.25
   0  -8  -3  209.28   13.78
   0   8   3  167.84   13.75
   0  -8   3  189.31   13.72
   0  -8   3  186.97   13.76
   0   8   3  185.38   13.78
   0   8  -3  221.24   13.76
   0   8   3  187.48   13.75
   0   8  -3  220.13   13.81
   2   8  -3  217.75   14.09
  -2   8   3  186.60   14.01
  -2   8   3  183.84   13.96
   2  -8   3  193.30   14.02
   2   8  -3  227.00   14.02
  -2  -8  -3  222.87   14.14
  -2   8   3  178.60   14.02
  -2  -8  -3  220.37   14.03
  -2   8  -3  223.68   14.07
   2   8   3  174.31   14.11
  -2  -8   3  181.39   14.02
   2   8   3  187.29   14.00
  -2  -8   3  194.16   14.05
  -4  -8  -3   96.67    7.34
  -4   8   3   89.14    6.93
   4   8  -3  113.69    7.20
   4   8  -3  107.25    6.92
   4  -8   3   91.71    7.07
  -4   8   3   93.01    7.11
   4   8  -3  111.04    6.95
  -4   8   3   92.34    6.93
   4  -8  -3  110.29    7.01
   4   8   3   88.98    7.04
  -4  -8   3   89.93    7.17
   6   8  -3   66.31    5.05
  -6  -8  -3   66.37    4.97
  -6   8  -3   66.75    4.95
   6  -8  -3   66.08    4.82
   1  -9   3  259.29   18.63
   1   9  -3  268.47   18.64
   1  -9   3  271.32   18.53
  -1  -9  -3  262.35   18.61
   1   9  -3  273.17   18.65
  -1   9   3  268.96   18.62
  -1   9   3  266.48   18.60
   1   9   3  255.69   18.66
   1   9   3  245.10   18.62
  -1   9  -3  273.62   18.66
  -1   9  -3  262.07   18.54
  -1  -9   3  273.17   18.60
  -1  -9   3  270.55   18.63
  -3  -9  -3  157.97   12.90
   3   9  -3  185.35   12.71
   3  -9   3  194.94   12.77
  -3   9   3  175.69   12.69
  -3   9   3  171.70   12.73
   3   9  -3  183.93   12.85
  -3  -9  -3  182.56   12.75
  -3   9   3  187.19   12.77
   3   9  -3  188.76   12.73
  -3  -9   3  178.92   12.81
   3  -9  -3  178.52   12.68
  -3   9  -3  177.00   12.78
   3   9   3  182.63   12.74
   3   9   3  182.73   12.92
  -5  -9  -3   86.85    7.76
  -5   9   3   91.51    6.64
   5  -9   3   89.98    6.57
   5   9  -3   93.86    6.69
  -5  -9  -3   93.76    6.57
   5   9   3   84.41    6.71
   5  -9  -3   92.07    6.44
   5   9   3   87.98    6.53
  -5   9  -3   90.77    6.57
   0  10  -3  135.83    9.96
   0  10   3  145.57    9.92
   0 -10   3  146.11    9.94
   0 -10   3  149.85    9.86
   0  10  -3  141.49    9.90
   0  10   3  135.91    9.91
   0 -10  -3  125.58    9.90
  -2 -10  -3  122.86   10.00
   2  10  -3  126.78   10.03
   2  10  -3  120.35   10.06
   2 -10   3  161.58   10.04
  -2  10   3  160.32   10.07
  -2  10   3  135.13   10.24
  -2  10  -3  122.39   10.04
  -2 -10   3  153.17   10.04
   2  10   3  155.01   10.18
   2  10   3  155.38   10.01
   4 -10   3   78.20    5.27
  -4  10   3   74.45    5.14
  -4 -10  -3   70.09    5.25
   4  10  -3   67.17    5.36
  -4 -10  -3   68.63    5.55
   4  10  -3   65.39    5.09
  -4  10   3   76.40    5.28
  -4  10   3   76.25    5.15
   4  10  -3   70.84    5.17
  -4 -10   3   72.73    5.39
   4  10   3   77.99    5.24
   4  10   3   73.54    5.46
  -4  10  -3   65.75    5.26
   4 -10  -3   66.46    5.12
   1  11  -3  134.95    9.19
   1  11  -3  131.08    9.21
  -1 -11  -3  133.00    9.15
  -1  11   3  123.84    9.23
  -1  11   3  124.49    9.09
  -1  11   3  131.71    9.14
   1 -11   3  125.86    9.13
   1 -11   3  127.89    9.07
  -1  11  -3  133.32    9.04
  -1 -11   3  125.05    9.17
  -1 -11   3  123.37    9.17
  -1  11  -3  134.24    9.21
   1  11   3  119.81    9.17
   1  11   3  129.73    9.12
  -3 -11  -3   86.40    6.24
   3 -11   3   88.06    6.22
   3  11  -3   90.66    6.26
  -3  11   3   85.49    6.18
  -3  11   3   84.62    6.20
   3  11  -3   85.84    6.20
  -3 -11  -3   91.17    6.44
  -3  11   3   76.30    6.20
   3  11   3   88.78    6.20
  -3  11  -3   84.02    6.29
  -3 -11   3   84.49    6.28
  -5 -11  -3   43.59    3.32
   5  11  -3   44.05    3.50
   5  11  -3   43.48    3.12
  -5  11   3   40.15    3.36
  -5  11   3   42.00    3.07
   5  11  -3   42.99    3.06
  -5  11   3   43.52    3.12
   5  11   3   36.44    3.49
  -5  11  -3   44.44    3.35
   5 -11  -3   42.09    3.13
   0 -12   3    5.45    0.79
   0  12   3    4.64    0.81
   0 -12   3    4.98    0.65
   0  12   3    4.58    0.76
   2  12  -3    1.36    0.65
  -2  12   3    1.36    0.48
   2  12  -3    1.09    0.71
  -2  12   3    1.44    0.51
  -2 -12  -3    0.79    0.59
   2 -12   3    1.20    0.42
  -2 -12  -3    0.49    0.42
  -2  12  -3    0.44    0.58
   2  12   3    1.10    0.41
   2  12   3    1.30    0.65
  -2 -12   3    1.30    0.51
   4  12  -3    6.10    1.04
   4  12  -3    5.54    0.78
   4  12  -3    7.17    1.06
  -4 -12  -3    5.80    0.95
  -4  12  -3    4.12    0.79
  -1  13   3   34.24    2.62
  -1  13   3   31.60    2.51
   1 -13   3   33.82    2.43
   1 -13   3   35.90    2.59
   1  13  -3   32.98    2.82
   1  13  -3   29.81    2.69
  -1  13   3   33.55    2.57
  -1  13   3   31.69    2.61
  -1 -13   3   33.49    2.53
  -1  13  -3   30.41    2.74
   1  13   3   32.83    2.58
   1  13   3   33.26    2.69
  -1  13  -3   31.22    2.45
  -1 -13   3   35.22    2.67
   3  13  -3   21.91    2.01
   3  13  -3   22.18    2.14
  -3  13   3   22.46    1.91
  -3 -13  -3   24.71    2.29
  -3 -13  -3   20.86    1.97
   3  13  -3   24.42    2.26
  -3  13   3   23.69    2.02
   3 -13   3   22.76    1.94
  -3  13   3   22.40    1.95
  -3  13  -3   22.62    2.13
  -3 -13   3   24.17    2.06
   3  13   3   23.93    1.93
   3  13   3   25.88    2.21
   5  13  -3   12.67    1.43
   5  13  -3   13.98    1.83
  -5  13   3   11.92    1.52
  -5 -13  -3   10.99    1.42
  -5  13   3   13.15    1.22
  -5  13  -3    9.99    1.48
   5  13   3   12.90    1.77
   0 -14   3    1.99    0.45
   0 -14   3    2.92    0.55
   0  14   3    2.00    0.55
   0  14   3    2.54    0.56
   2  14  -3   15.97    1.72
  -2  14   3   14.65    1.26
   2  14  -3   16.32    1.74
  -2  14   3   13.72    1.44
   2 -14   3   14.74    1.40
  -2  14   3   14.29    1.35
  -2  14   3   13.25    1.43
  -2 -14   3   13.35    1.42
  -2  14  -3   16.60    1.87
   2  14   3   13.28    1.59
   2  14   3   13.36    1.37
   4  14  -3    4.61    0.71
   4  14  -3    3.87    0.88
  -4 -14  -3    3.83    0.73
   4  14  -3    3.80    1.04
  -4  14  -3    4.36    0.86
  -1  15   3   65.02    4.74
   1 -15   3   65.27    4.77
   1  15  -3   53.51    4.95
  -1  15   3   67.14    4.80
  -1  15   3   65.26    4.71
  -1  15   3   63.49    4.79
   1  15  -3   56.48    4.85
   1 -15   3   67.28    4.61
  -1 -15   3   73.20    4.86
   1  15   3   66.68    4.86
  -1  15  -3   57.85    4.62
  -1 -15   3   66.11    4.71
   1  15   3   66.29    4.77
  -3  15   3   46.20    3.51
   3  15  -3   41.96    3.62
  -3  15   3   45.29    3.58
   3  15  -3   42.44    3.83
  -3  15   3   52.77    3.46
  -3 -15  -3   44.22    3.77
   3 -15   3   45.99    3.57
  -3  15   3   47.76    3.62
  -3 -15   3   48.63    3.67
  -3  15  -3   39.28    3.70
   3  15   3   50.93    3.78
   3  15   3   48.84    3.56
   5  15  -3   22.83    2.40
  -5  15   3   21.62    2.37
   5  15  -3   18.50    2.07
  -5  15  -3   17.81    2.07
   0  16  -3  168.93   14.77
   0  16  -3  184.85   14.31
   0 -16   3  207.28   14.33
   0 -16   3  220.73   14.40
   0  16   3  214.48   14.39
   0  16   3  214.56   14.36
   2  16  -3  140.68   11.34
  -2  16   3  163.21   11.11
  -2  16   3  165.57   11.23
  -2 -16  -3  171.58   11.32
   2 -16   3  158.57   11.19
   2  16  -3  131.56   11.31
  -2  16   3  160.24   11.14
  -2  16   3  151.68   11.21
   2  16   3  164.37   11.29
  -2 -16   3  165.10   11.21
  -2  16  -3  142.07   11.33
   2  16   3  163.46   11.20
  -4  16   3  114.22    7.57
   4  16  -3   92.26    7.45
  -4  16   3  109.79    7.51
  -4  16   3  112.11    7.47
   4  16  -3   99.58    7.78
  -4  16  -3   89.59    7.61
  -1  17   3   39.49    3.23
  -1  17   3   39.25    3.14
   1 -17   3   44.30    3.23
  -1  17   3   38.99    3.34
   1 -17   3   41.64    3.03
  -1  17   3   39.18    3.13
   1  17   3   41.26    3.21
   1  17   3   39.93    3.26
  -1 -17   3   40.36    3.15
  -3  17   3   30.07    2.30
  -3  17   3   26.11    3.13
  -3  17   3   27.54    2.33
  -3  17   3   28.15    2.45
   3  17   3   31.49    2.64
   0 -18   3   20.27    1.91
   0  18   3   18.07    1.87
   0 -18   3   20.22    1.74
   0  18   3   19.98    1.87
   0  18   3   19.14    1.85
  -2  18   3   28.53    2.48
  -2  18   3   31.26    2.49
  -2  18   3   33.40    2.62
  -2  18   3   30.36    2.62
  -2 -18   3   30.56    2.65
   2  18   3   31.18    2.69
  -4  18   3   11.30    1.48
  -4  18   3    8.77    1.60
  -4  18   3   11.38    1.21
   4  18   3   12.37    1.73
  -1  19   3  136.42    9.17
  -1  19   3  113.00    9.48
   1 -19   3  136.76    8.95
   1  19  -3  128.88    9.44
   1  19  -3  121.86    9.28
  -1  19   3  119.44    9.16
  -1  19   3  121.45    9.05
  -1  19  -3  129.68    9.00
  -1 -19   3  122.44    9.08
  -1  19  -3  123.54    9.43
   1  19   3  132.13    9.18
  -3  19   3   94.09    7.12
  -3  19   3   99.25    7.01
   3  19  -3   89.10    7.35
   3  19  -3  103.64    7.21
   3  19  -3  101.96    7.37
  -3  19   3  107.59    7.19
  -3  19   3   85.56    6.97
  -3  19  -3   83.71    7.34
   3  19   3  104.35    7.24
   0  20   3   12.47    1.47
   0 -20   3   11.70    1.43
   0  20   3   11.11    1.41
   0  20  -3    8.38    1.48
  -2  20   3    3.01    0.61
   2  20  -3    1.07    0.95
   2  20  -3    0.50    0.94
  -2  20   3    3.92    0.78
  -2  20   3    2.10    0.71
   2  20   3    2.40    0.83
  -2 -20   3    2.25    0.91
  -2  20  -3    0.76    1.03
  -1  21   3   59.61    4.51
   1  21  -3   57.30    5.01
  -1  21   3   63.23    4.65
   1 -21   3   67.61    4.40
  -1  21   3   62.46    4.62
   1  21  -3   55.58    4.74
  -1  21  -3   53.31    4.45
   1  21   3   61.20    4.66
  -1 -21   3   60.01    4.64
   1  21   3   60.59    4.70
  -3  21   3   53.01    3.97
   3  21  -3   42.85    4.10
   3  21  -3   43.14    4.13
  -3  21   3   47.93    3.86
   3  21   3   48.39    3.90
   0 -22   3   44.94    3.52
   0  22   3   44.41    3.62
   0  22   3   44.79    3.58
  -2  22   3   35.92    3.07
  -2  22   3   33.56    2.86
  -2  22   3   37.39    2.99
   2  22   3   33.99    3.11
   2  22   3   35.16    3.10
  -2  22  -3   40.44    3.66
  -1  23   3   14.00    1.66
  -1  23   3   14.45    1.75
  -1 -23   3   12.95    1.84
   1  23   3   15.94    1.85
   1  23   3   15.10    1.76
   0  24   3  153.28   10.99
   0  24  -3  159.80   10.99
   0  24  -3  146.68   11.34
   0  24   3  147.13   11.03
   0   0  -4  225.78   14.63
   0   0   4  189.93   14.64
   0   0   4  186.76   14.62
   0   0  -4  233.12   14.67
  -2   0   4  209.42   16.32
   2   0  -4  261.40   16.44
  -2   0  -4  256.81   16.41
   2   0   4  215.36   16.39
   2   0   4  223.14   16.43
   2   0  -4  258.40   16.32
   2   0   4  240.25   16.38
  -2   0   4  206.80   16.41
   4   0   4  103.12    8.30
  -4   0  -4  132.05    8.29
  -4   0   4  100.90    8.31
   4   0  -4  133.89    8.31
   4   0   4  109.36    8.25
  -6   0  -4   82.79    6.00
   6   0  -4   80.94    5.99
   1   1  -4  128.31    9.17
   1  -1   4  134.88    9.15
   1   1  -4  128.00    9.10
  -1  -1  -4  120.13    9.13
  -1   1   4  124.81    9.10
  -1   1   4  127.02    9.16
   1  -1   4  136.78    9.14
  -1   1  -4  128.69    9.15
   1  -1  -4  127.68    9.16
  -1  -1   4  141.43    9.18
   1  -1  -4  122.86    9.10
   1   1   4  132.38    9.15
   1   1   4  130.52    9.15
  -1  -1   4  133.99    9.11
  -3  -1  -4   94.01    6.31
   3   1  -4   83.96    6.31
   3  -1   4   95.80    6.26
  -3   1   4   86.06    6.35
   3  -1   4   90.35    6.30
   3  -1   4   80.50    6.39
   3  -1  -4   83.51    6.30
   3   1   4   95.50    6.31
  -3   1  -4   86.93    6.30
  -3  -1   4   82.81    6.34
   3   1   4   88.58    6.45
   5  -1   4   39.39    3.13
  -5  -1  -4   40.69    3.09
   5  -1   4   42.24    3.08
   5   1  -4   41.41    3.10
  -5   1   4   37.66    3.23
   5   1   4   40.45    3.13
  -5   1  -4   39.81    3.08
  -5  -1   4   39.65    3.43
   5   1   4   41.29    3.15
   5  -1  -4   40.98    3.08
   0   2  -4  115.04    9.01
   0  -2   4  138.35    9.03
   0  -2   4  141.73    9.03
   0  -2  -4  108.76    9.00
   0   2   4  137.54    9.02
   0   2   4  137.83    9.06
   0   2  -4  118.77    9.04
   2  -2   4   84.54    5.97
  -2   2   4   83.21    5.88
   2  -2   4   82.11    5.98
  -2   2   4   85.43    6.01
   2  -2   4   84.98    5.92
   2   2   4   85.51    5.97
  -2  -2   4   82.14    5.90
  -2  -2   4   82.39    6.00
   4  -2   4   67.84    4.63
   4   2  -4   54.94    4.62
  -4   2   4   67.92    4.72
   4  -2   4   67.84    4.65
  -4  -2  -4   55.66    4.58
   4   2   4   72.13    4.64
  -4  -2   4   64.90    4.73
   4   2   4   66.01    4.76
  -4   2  -4   53.08    4.60
   6   2  -4   19.86    1.78
  -6  -2  -4   17.94    1.77
  -6   2  -4   19.41    1.77
   6  -2  -4   19.33    1.72
   1   3  -4  173.65   12.13
   1  -3   4  176.37   12.14
  -1   3   4  161.99   12.24
  -1   3   4  171.78   12.13
   1   3  -4  177.06   12.20
   1  -3   4  173.69   12.17
  -1  -3  -4  161.35   12.16
   1  -3  -4  170.85   12.13
  -1   3  -4  173.48   12.18
  -1  -3   4  176.93   12.18
  -1  -3   4  176.56   12.15
   1  -3  -4  176.87   12.19
   1   3   4  177.39   12.17
   1   3   4  177.48   12.19
   1   3   4  173.79   12.21
   3  -3   4  119.68    9.12
   3  -3   4  125.11    9.01
  -3  -3  -4  143.86    9.10
   3  -3   4  120.47    9.08
   3   3  -4  121.38    9.11
  -3   3   4  122.99    9.12
  -3  -3   4  124.36    9.14
   3   3   4  141.70    9.28
   3  -3  -4  122.57    9.08
  -3   3  -4  125.39    9.10
   3   3   4  143.17    9.10
  -5  -3  -4   67.79    4.88
  -5   3   4   63.04    5.00
   5   3  -4   67.16    4.91
   5  -3   4   69.11    4.77
   5  -3   4   62.91    4.88
   5  -3   4   65.86    4.78
  -5   3  -4   67.23    4.89
   5   3   4   65.42    4.90
   5  -3  -4   68.51    4.86
   0  -4   4   16.79    1.42
   0   4  -4   21.50    1.45
   0  -4   4   16.48    1.41
   0   4  -4   21.14    1.47
   0   4   4   16.59    1.41
   0   4   4   17.60    1.47
   2  -4   4   43.74    3.01
   2  -4   4   43.61    3.09
   2  -4   4   43.58    3.07
  -2   4   4   46.94    3.14
   2   4  -4   36.91    3.11
  -2   4   4   45.82    3.11
   2   4  -4   36.69    2.98
  -2  -4  -4   37.05    3.06
  -2   4  -4   36.54    3.09
   2   4   4   47.20    3.10
   2  -4  -4   38.69    3.07
   2   4   4   45.64    3.20
  -2  -4   4   43.48    3.12
   4  -4   4    8.39    0.81
  -4   4   4    8.44    1.14
   4  -4   4    8.84    0.95
   4  -4   4    8.47    1.01
   4   4  -4   10.01    1.09
   4   4   4    9.15    1.05
  -4  -4   4    8.97    1.18
   4  -4  -4   10.98    1.19
  -4   4  -4   10.51    1.06
   4   4   4    8.66    1.32
  -6  -4  -4    9.70    1.26
   6   4  -4    9.37    1.29
   6  -4  -4   10.33    1.17
   6   4   4   11.01    1.52
  -6   4  -4   10.38    1.25
  -1   5   4   80.67    5.77
   1  -5   4   80.42    6.00
   1   5  -4   83.16    5.84
   1  -5   4   79.10    5.75
  -1  -5  -4   83.56    5.80
   1   5  -4   85.54    5.78
  -1   5   4   77.21    5.84
   1  -5  -4   83.96    5.82
  -1   5  -4   84.39    5.80
  -1  -5   4   79.84    5.82
   1  -5  -4   87.21    5.78
   1   5   4   78.94    6.07
  -1  -5   4   77.48    5.78
   1   5   4   76.61    5.84
  -1   5  -4   84.10    5.83
   3  -5   4   53.45    4.01
   3  -5   4   52.30    4.00
  -3   5   4   50.27    3.89
  -3   5   4   53.44    4.05
   3  -5   4   51.66    3.88
   3   5  -4   57.51    4.08
  -3   5  -4   58.34    4.04
  -3  -5   4   52.11    4.07
   3   5   4   56.78    4.25
   3  -5  -4   62.24    4.00
  -5   5   4   27.11    2.53
   5  -5   4   26.42    2.19
  -5  -5  -4   32.88    2.45
   5  -5   4   28.70    2.18
   5   5  -4   31.50    2.49
  -5   5  -4   33.45    2.48
   5   5   4   24.92    2.58
   5  -5  -4   33.49    2.36
   0   6   4  159.43   12.30
   0   6   4  171.07   12.25
   0  -6  -4  180.07   12.26
   0   6  -4  185.79   12.28
   0   6  -4  188.24   12.28
   0  -6   4  165.08   12.26
   0  -6   4  171.76   12.24
  -2   6   4  112.05    7.89
   2   6  -4  114.12    8.02
   2  -6   4  110.60    7.88
  -2   6   4  112.28    8.00
   2  -6   4  110.68    7.97
  -2  -6  -4  110.08    7.96
   2  -6   4  111.47    7.92
   2   6  -4  115.59    7.90
  -2   6  -4  113.91    8.00
   2   6   4  108.30    8.07
   2  -6  -4  112.40    7.96
  -2  -6   4  118.52    8.01
  -2  -6   4  107.04    7.95
   2   6   4  114.86    7.98
  -4   6   4   80.91    6.18
   4  -6   4   81.01    6.11
   4   6  -4   88.31    6.20
  -4  -6  -4   94.89    6.13
   4   6   4   84.36    6.11
  -4  -6   4   77.57    6.19
   4  -6  -4   84.08    6.15
  -4   6  -4   85.18    6.14
   1  -7   4  186.79   11.88
   1   7  -4  151.65   11.83
  -1  -7  -4  147.56   11.84
  -1   7   4  184.19   11.83
  -1   7   4  186.91   11.90
   1   7  -4  149.11   11.87
   1  -7   4  183.09   11.80
   1   7   4  185.07   11.87
   1   7   4  169.79   11.91
  -1   7  -4  152.83   11.87
  -1  -7   4  185.63   11.86
   1   7   4  183.48   11.92
   1  -7  -4  144.41   11.83
  -1   7  -4  149.99   11.82
  -1  -7   4  165.83   11.93
  -3   7   4  123.66    7.92
  -3   7   4  110.12    7.79
   3  -7   4  128.03    7.88
   3   7  -4   94.45    8.01
   3   7  -4   97.98    7.72
  -3  -7  -4  108.00    7.84
   3  -7   4  124.12    7.78
   3  -7  -4   98.26    7.80
   3   7   4  122.53    8.09
  -3   7  -4   94.14    7.85
  -5  -7  -4   49.83    3.86
  -5   7   4   58.37    4.03
   5   7  -4   48.35    3.94
   5   7   4   56.94    4.12
  -5   7  -4   47.25    3.87
   5  -7  -4   47.53    3.76
   0   8  -4   35.33    2.80
   0   8   4   43.33    2.85
   0  -8  -4   34.95    2.80
   0   8  -4   37.57    2.85
   2  -8   4   68.94    4.72
   2   8  -4   54.84    4.75
  -2   8   4   69.20    4.63
  -2   8   4   67.05    4.74
   2   8  -4   56.08    4.64
   2   8   4   68.49    4.71
   2   8   4   64.97    4.84
  -2  -8   4   64.89    4.72
  -2  -8   4   69.05    4.75
   4   8  -4   16.84    1.87
   4  -8   4   22.22    1.80
  -4  -8  -4   18.84    1.75
  -4   8   4   24.42    1.89
   4   8   4   21.13    2.09
  -4   8  -4   16.67    1.78
  -4  -8   4   21.49    1.92
   4   8   4   23.38    1.80
  -1   9   4   46.57    3.79
   1   9  -4   59.49    3.84
   1   9  -4   57.84    3.79
   1  -9   4   50.08    3.67
   1  -9   4   47.43    3.76
  -1   9   4   47.20    3.72
  -1  -9  -4   57.15    3.78
  -1   9  -4   56.11    3.72
  -1  -9   4   47.42    3.76
   1   9   4   46.75    3.75
  -1   9  -4   58.10    3.85
  -1  -9   4   48.70    3.75
   1   9   4   44.88    3.80
  -3   9   4   34.25    2.81
  -3   9   4   35.18    2.99
   3  -9   4   36.65    2.96
   3   9  -4   43.54    3.13
  -3  -9  -4   44.62    2.98
   3   9  -4   42.52    2.85
  -3  -9   4   33.52    2.99
  -3   9  -4   42.94    3.04
   3  -9  -4   41.94    2.90
   3   9   4   34.72    2.94
  -5  -9  -4   25.03    2.13
   5   9  -4   24.33    2.28
   5  -9  -4   24.00    1.96
  -5   9  -4   25.00    2.17
   0 -10   4    8.09    0.81
   0 -10   4    7.25    0.86
   0  10   4    7.61    0.89
   0  10  -4    8.03    0.92
   0  10  -4    9.61    1.05
   0  10   4    6.24    0.95
   0 -10  -4    8.87    0.93
   0  10   4    7.50    0.88
   2  10  -4    8.20    0.91
  -2  10   4    7.18    0.95
   2 -10   4    7.57    0.63
  -2 -10  -4    7.04    0.88
   2  10  -4    7.50    1.13
   2 -10   4    7.70    0.89
  -2  10   4    6.62    0.79
  -2  10   4    5.26    0.91
  -2  10  -4    7.97    1.07
   2  10   4    5.55    0.93
  -2 -10   4    7.24    0.95
   2  10   4    6.71    0.90
  -2 -10   4    7.03    0.97
  -4  10   4    3.26    0.47
   4  10  -4    4.60    0.87
   4 -10   4    3.41    0.64
  -4 -10  -4    4.13    1.03
   4  10  -4    4.57    0.57
  -4  10   4    3.62    0.73
  -4 -10  -4    5.17    0.87
   4  10  -4    4.98    0.59
  -4  10   4    3.60    0.64
   4  10   4    2.75    0.63
   4  10   4    4.45    1.00
  -4  10  -4    5.26    1.01
   1  11  -4  109.23    7.49
  -1  11   4  102.43    7.43
  -1  11   4  103.43    7.42
   1  11  -4  114.15    7.53
   1 -11   4  105.46    7.33
  -1  11   4  105.82    7.48
  -1 -11  -4  106.72    7.46
   1 -11   4   96.16    7.43
   1  11   4   99.84    7.43
  -1  11  -4  109.55    7.54
  -1 -11   4  104.02    7.42
  -1 -11   4   95.41    7.44
  -1  11  -4  107.05    7.38
   1  11   4   97.08    7.50
  -3 -11  -4   83.33    5.54
   3  11  -4   81.01    5.67
  -3  11   4   73.04    5.53
   3  11  -4   78.30    5.44
  -3  11   4   71.51    5.40
   3 -11   4   73.71    5.51
  -3  11   4   70.86    5.49
  -3  11  -4   77.56    5.58
   3  11   4   75.28    5.71
  -3 -11   4   72.50    5.56
   3  11   4   74.09    5.50
  -5 -11  -4   43.61    3.42
  -5  11   4   40.55    3.48
   5  11  -4   47.72    3.62
   5  11   4   40.92    3.66
  -5  11  -4   44.08    3.47
   0  12  -4   92.02    6.33
   0 -12   4   89.71    6.25
   0  12   4   82.47    6.34
   0  12   4   83.22    6.37
   0  12   4   86.96    6.32
   0 -12   4   87.36    6.34
   0  12  -4   92.45    6.44
  -2 -12  -4  106.33    7.64
   2  12  -4  106.85    7.64
  -2  12   4  100.98    7.64
   2 -12   4  105.56    7.62
  -2  12   4  105.30    7.58
  -2  12   4  111.99    7.66
   2  12  -4  107.93    7.74
  -2 -12   4  112.27    7.69
   2  12   4  103.92    7.61
  -2 -12   4  101.08    7.62
  -2  12  -4  109.32    7.73
   2  12   4  102.98    7.77
   4  12  -4   44.42    3.45
   4  12  -4   46.14    3.40
  -4  12   4   45.44    3.36
  -4 -12  -4   45.66    3.56
  -4  12   4   44.53    3.55
   4  12  -4   48.28    3.75
  -4  12   4   44.40    3.46
  -4  12  -4   46.98    3.64
   4  12   4   49.84    3.83
  -1  13   4   88.46    6.13
   1 -13   4   84.80    6.10
  -1  13   4   81.42    6.06
  -1  13   4   82.79    6.08
   1 -13   4   83.50    5.95
  -1 -13   4   84.63    6.05
   1  13   4   83.15    6.53
  -1 -13   4   83.27    6.11
   1  13   4   83.83    6.09
  -3  13   4   64.63    4.55
  -3  13   4   60.77    4.54
  -3  13   4   59.45    4.43
   3 -13   4   58.27    4.51
   3  13   4   64.32    4.74
  -3 -13   4   57.74    4.58
   3  13   4   59.95    4.51
   5  13  -4   21.40    2.32
  -5 -13  -4   19.60    1.99
  -5  13  -4   20.70    2.09
   0 -14   4  225.69   16.95
   0  14   4  243.79   16.98
   0 -14   4  243.59   16.99
   0  14   4  229.07   16.99
   0  14  -4  267.46   17.12
   0  14   4  233.91   17.00
  -2  14   4  191.26   14.93
  -2  14   4  202.40   14.97
  -2  14   4  203.70   14.92
   2 -14   4  199.36   14.96
   2  14  -4  232.00   15.08
  -2 -14  -4  226.50   15.01
   2  14  -4  234.01   15.13
  -2  14   4  204.30   14.99
   2  14   4  200.06   15.09
  -2  14  -4  241.10   15.14
   2  14   4  199.38   14.96
  -2 -14   4  206.41   14.97
  -4  14   4  122.92   10.36
   4  14  -4  158.04   10.36
  -4  14   4  130.77   10.35
   4  14  -4  152.80   10.32
  -4 -14  -4  154.19   10.46
   4  14  -4  160.66   10.66
  -4  14   4  134.46   10.27
   4  14   4  148.15   10.61
  -4  14  -4  145.18   10.50
  -1  15   4   20.03    1.88
   1 -15   4   21.68    1.69
  -1  15   4   22.63    1.88
  -1  15   4   20.96    1.97
   1 -15   4   21.55    1.88
  -1 -15   4   21.78    1.84
   1  15   4   21.75    1.89
   1  15   4   21.38    2.00
  -1 -15   4   21.62    1.94
  -3  15   4   16.30    1.69
   3  15  -4   20.21    1.91
   3  15  -4   22.39    2.15
  -3 -15  -4   21.01    1.79
  -3  15   4   14.48    1.59
  -3  15   4   15.78    1.66
  -3  15   4   17.04    1.75
  -3  15  -4   19.75    2.03
   3  15   4   18.62    1.97
   0  16   4   26.09    2.18
   0  16  -4   25.46    2.20
   0 -16   4   26.00    2.04
   0  16  -4   21.73    2.58
   0 -16   4   26.13    2.18
   0  16   4   27.38    2.20
   0  16   4   24.39    2.18
   2  16  -4   20.18    2.22
  -2  16   4   22.47    1.93
  -2  16   4   22.87    1.94
  -2  16   4   25.25    2.02
  -2  16   4   22.13    1.90
   2  16  -4   17.09    2.41
  -2  16  -4   18.58    2.23
  -2 -16   4   21.82    1.99
   2  16   4   23.39    2.16
   4  16  -4   14.42    1.81
  -4  16   4   16.02    1.43
  -4  16   4   13.45    1.62
   4  16  -4   13.32    2.08
  -4  16   4   13.86    1.58
  -4  16  -4   12.07    1.87
   4  16   4   15.66    1.97
  -1  17   4   13.37    1.37
   1 -17   4   10.34    1.16
   1 -17   4   10.59    1.35
  -1  17   4   12.20    1.40
  -1  17   4   13.10    1.35
  -1  17   4   12.57    1.37
   1  17   4   12.30    1.54
  -1 -17   4   13.20    1.45
   1  17   4   12.90    1.40
  -1 -17   4   12.64    1.36
  -3  17   4    8.90    1.23
   3  17  -4   13.44    1.86
   3  17  -4   11.14    1.73
  -3  17   4   10.54    1.14
  -3  17   4    8.13    1.25
  -3  17   4   10.00    1.40
   3  17   4    9.08    1.55
  -3  17  -4   10.91    1.81
   0 -18   4   28.20    2.34
   0  18   4   27.25    2.31
   0  18   4   27.11    2.33
   0 -18   4   24.73    2.18
   0  18   4   25.23    2.28
  -2  18   4   18.04    1.68
  -2  18   4   18.48    1.73
  -2  18   4   17.53    1.78
  -2  18   4   19.58    1.80
   2  18   4   19.68    1.97
  -2 -18   4   15.20    1.85
  -1  19   4  106.31    8.29
  -1  19   4  115.86    8.25
   1 -19   4  116.77    8.05
   1  19  -4  109.56    8.50
  -1  19   4  117.29    8.21
   1  19  -4  111.87    8.32
  -1  19   4  104.72    8.16
  -1  19  -4  114.82    8.25
   1  19   4  114.35    8.31
  -1 -19   4  113.07    8.17
  -1  19  -4  115.82    8.55
  -3  19   4   79.22    6.39
  -3  19   4   79.21    6.36
   3  19  -4   81.32    6.72
   3  19  -4   77.74    6.64
  -3  19   4   94.16    6.48
  -3  19   4   92.08    6.36
   3  19  -4   97.90    6.59
   3  19   4   92.29    6.61
  -3  19  -4   86.05    6.81
   0  20   4   34.93    3.00
   0  20  -4   37.54    3.02
   0 -20   4   34.36    2.90
   0  20  -4   33.03    3.42
   0  20   4   38.84    3.08
   2  20  -4   26.75    2.91
  -2  20   4   23.59    2.30
  -2  20   4   27.19    2.40
  -2  20   4   27.82    2.35
   2  20  -4   27.48    2.76
  -2  20  -4   29.10    3.03
   2  20   4   27.50    2.55
  -1  21   4   80.86    5.95
   1  21  -4   77.85    6.03
   1  21  -4   70.22    6.29
  -1  21   4   87.22    5.99
  -1  21  -4   75.72    5.72
  -1 -21   4   78.16    5.90
   1  21   4   83.86    6.02
  -1  21  -4   76.79    6.34
   0  22   4   29.29    2.63
   0  22   4   28.97    2.61
   0 -22   4   26.67    2.49
  -2  22   4   19.57    2.07
  -2  22   4   21.16    2.07
   2  22   4   19.61    2.23
  -1  23   4    1.17    0.74
   1  23  -4   -1.65    1.24
  -1  23   4    1.14    0.80
   1  23  -4    1.27    1.00
   1  23   4    1.25    0.87
  -1  23  -4    1.11    1.31
   1  23   4    1.67    0.86
   0   0   5    0.29    0.30
   0   0  -5    0.50    0.27
   0   0  -5    0.18    0.35
   0   0   5    0.50    0.27
  -2   0  -5    0.21    0.34
   2   0  -5    0.54    0.40
   2   0   5    0.60    0.43
  -2   0   5    0.22    0.22
   2   0   5    0.13    0.34
   2   0  -5    0.11    0.19
  -2   0   5    0.46    0.41
   2   0   5    1.06    0.35
   4   0  -5    0.32    0.39
  -4   0  -5    0.17    0.38
   4   0   5   -0.11    0.63
  -4   0   5    0.74    0.57
   4   0   5   -0.44    0.39
   4   0   5   -0.25    0.43
   1  -1   5    4.79    0.75
  -1   1   5    5.75    0.76
  -1   1   5    6.25    0.61
   1  -1   5    5.15    0.67
   1  -1  -5    3.54    0.70
  -1  -1   5    5.43    0.61
   1   1   5    5.14    0.69
   1   1   5    5.15    0.68
  -1  -1   5    6.11    0.76
  -3   1   5    3.98    0.67
   3  -1   5    4.59    0.74
   3  -1   5    4.13    0.63
   3  -1   5    2.74    0.50
   3   1   5    4.88    0.72
   3   1   5    3.65    0.57
  -3  -1   5    3.86    0.65
   3   1   5    3.56    0.75
  -5  -1  -5    0.86    0.49
   5  -1   5    1.45    0.68
   5   1  -5    1.27    0.50
   5  -1  -5    1.88    0.53
  -5   1  -5    0.54    0.47
   0   2  -5   92.81    6.23
   0  -2  -5   87.18    6.21
   0  -2   5   86.94    6.23
   0  -2   5   82.15    6.26
   0   2  -5   91.00    6.27
   0   2   5   83.55    6.27
   0   2   5   89.15    6.26
   2  -2   5   98.03    7.07
  -2   2   5   95.92    7.09
   2   2  -5  100.47    7.09
   2  -2   5   96.40    7.00
   2  -2   5   97.26    7.06
  -2  -2  -5   97.88    7.04
   2   2  -5  101.99    6.95
  -2   2   5   98.24    6.96
  -2  -2   5   95.37    7.08
  -2   2  -5  102.10    7.07
   2   2   5   99.06    7.12
  -2  -2   5  101.78    6.98
   2  -2  -5  103.00    7.08
   2  -2  -5  100.94    6.97
   2   2   5   93.82    7.05
   2   2   5   99.53    7.05
   4  -2   5   41.29    3.25
   4  -2   5   41.81    3.14
   4   2  -5   44.04    3.29
  -4   2   5   41.06    3.33
   4  -2   5   41.64    3.33
   4   2   5   41.40    3.46
   4   2   5   46.42    3.28
   4  -2  -5   44.15    3.24
  -4   2  -5   45.11    3.27
  -4  -2   5   39.43    3.33
   1  -3   5  349.37   23.41
  -1   3   5  350.79   23.47
  -1   3   5  360.30   23.47
   1  -3   5  353.84   23.45
  -1  -3  -5  296.33   23.41
   1   3  -5  317.04   23.46
   1   3  -5  315.14   23.39
  -1  -3   5  361.10   23.46
   1  -3  -5  303.63   23.39
  -1   3  -5  320.23   23.44
   1   3   5  350.96   23.46
   1  -3  -5  304.52   23.45
  -1  -3   5  354.73   23.46
   1   3   5  351.82   23.45
   3  -3   5  257.64   18.18
  -3   3   5  250.32   18.22
   3   3  -5  235.10   18.20
   3  -3   5  263.21   18.10
  -3  -3  -5  256.58   18.22
   3  -3   5  247.91   18.21
   3   3   5  296.84   18.21
   3   3   5  282.15   18.20
  -3   3  -5  244.32   18.27
  -3  -3   5  259.32   18.23
   3   3   5  291.90   18.36
   3  -3  -5  218.67   18.17
   5  -3   5  143.87    9.56
  -5  -3  -5  142.74    9.71
   5  -3   5  137.08    9.61
   5   3  -5  122.99    9.70
  -5   3  -5  126.00    9.69
   5  -3  -5  123.16    9.65
   5   3   5  152.04    9.85
   0   4  -5   96.32    5.99
   0   4   5   78.89    5.96
   0  -4   5   81.93    5.93
   0  -4  -5   94.50    5.93
   0  -4   5   71.70    5.92
   0   4   5   75.89    5.92
   2  -4   5   29.12    2.31
  -2   4   5   29.88    2.39
   2  -4   5   29.23    2.32
   2  -4   5   30.05    2.23
  -2   4   5   28.74    2.20
   2   4   5   27.97    2.41
   2   4   5   29.78    2.33
  -2  -4   5   28.57    2.23
   2  -4  -5   37.41    2.26
  -2  -4   5   30.82    2.38
   2   4   5   28.74    2.34
   4  -4   5   35.03    2.69
  -4   4   5   35.02    2.94
   4   4  -5   44.90    2.94
   4  -4   5   38.55    2.87
   4  -4   5   33.21    2.85
   4   4   5   33.38    3.12
   4   4   5   37.70    2.89
   1  -5   5    8.77    0.95
   1  -5   5    8.37    0.87
  -1   5   5    8.50    0.88
  -1  -5  -5   10.51    0.96
   1   5  -5   11.69    0.92
   1   5  -5   11.27    1.07
  -1   5  -5   10.97    1.02
  -1   5  -5   11.33    1.03
  -1  -5   5    9.25    0.92
   1   5   5    8.45    0.98
   1  -5  -5   10.61    0.91
   1   5   5    9.44    1.03
  -1  -5   5    8.94    0.97
   1   5   5    9.10    1.03
   3  -5   5    6.46    0.67
  -3  -5  -5    8.46    0.90
  -3   5   5    7.21    0.99
  -3   5   5    6.14    0.59
   3  -5   5    6.63    0.86
   3  -5   5    6.72    0.96
   3   5  -5    8.27    0.98
   3   5   5    5.94    1.00
   3  -5  -5    8.56    0.87
   3   5   5    6.27    0.91
  -3   5  -5    8.98    0.98
  -3  -5   5    5.19    0.99
   5   5  -5    6.98    1.16
  -5  -5  -5    7.32    1.10
  -5   5  -5    6.36    1.15
   5  -5  -5    9.34    1.01
   0   6   5  112.61    7.79
   0   6   5  109.34    7.85
   0   6  -5  108.58    7.82
   0  -6   5  110.06    7.80
   0  -6  -5  106.35    7.78
   0  -6   5  110.06    7.77
   0   6  -5  111.44    7.80
  -2   6   5   68.73    4.80
  -2   6   5   69.61    4.95
   2   6  -5   64.80    4.94
  -2  -6  -5   61.56    4.88
   2   6  -5   64.20    4.79
   2  -6   5   69.56    4.90
   2  -6   5   70.48    4.80
  -2  -6   5   68.28    4.86
  -2   6  -5   62.78    4.91
   2   6   5   68.17    4.96
   2  -6  -5   65.83    4.89
   2   6   5   68.24    5.01
  -2  -6   5   71.28    4.94
   2   6   5   71.37    4.91
   4  -6   5   55.75    3.99
   4  -6   5   55.51    4.08
  -4   6   5   56.12    4.28
   4   6  -5   55.53    4.26
   4   6   5   60.10    4.46
   4  -6  -5   54.60    4.14
  -4   6  -5   56.14    4.23
   1   7  -5   47.64    3.02
  -1   7   5   35.41    3.04
  -1   7   5   38.84    3.09
   1  -7   5   36.07    3.02
   1   7  -5   47.19    3.12
   1  -7   5   38.30    2.95
  -1  -7  -5   45.69    3.04
  -1  -7   5   36.09    3.02
   1   7   5   37.29    3.03
   1   7   5   35.19    3.07
  -1   7  -5   47.84    3.06
   1  -7  -5   47.01    3.03
   1   7   5   35.49    3.07
   3  -7   5   26.92    2.13
   3  -7   5   27.30    2.31
  -3  -7  -5   34.01    2.34
   3  -7   5   30.69    2.29
  -3   7   5   27.40    2.40
  -3   7   5   26.58    2.23
  -3   7   5   26.30    2.12
   3   7  -5   32.01    2.43
   3   7  -5   32.89    2.13
   3   7   5   27.35    2.32
  -3  -7   5   26.12    2.38
  -3   7  -5   33.33    2.40
   3  -7  -5   32.85    2.30
   3   7   5   26.85    2.60
   5   7  -5   21.18    1.98
  -5  -7  -5   21.78    1.89
  -5   7  -5   20.65    1.95
   5   7   5   17.52    2.25
   5  -7  -5   20.12    1.76
   0  -8   5  269.50   17.91
   0   8  -5  237.81   17.89
   0   8   5  266.62   17.89
   0   8   5  258.92   17.95
   0  -8   5  265.68   17.86
   0   8  -5  248.56   17.90
   0  -8  -5  235.43   17.88
   0   8   5  256.12   17.94
   2  -8   5  232.34   15.56
   2  -8   5  225.43   15.43
  -2  -8  -5  197.11   15.53
   2   8  -5  201.81   15.46
  -2   8   5  233.06   15.47
  -2   8   5  236.84   15.60
  -2  -8   5  231.15   15.57
  -2   8  -5  200.12   15.57
  -2  -8   5  225.32   15.53
   2   8   5  200.54   16.06
   2   8   5  241.57   15.56
   4   8  -5  132.90    9.97
  -4   8   5  137.29    9.95
  -4  -8  -5  150.44    9.91
   4  -8  -5  132.95    9.82
   4   8   5  150.53   10.15
  -4   8  -5  126.69    9.91
   1   9  -5   70.78    4.43
  -1   9   5   55.38    4.46
   1  -9   5   54.88    4.32
  -1  -9  -5   68.77    4.44
   1  -9   5   56.63    4.42
  -1   9   5   56.72    4.37
   1   9  -5   70.77    4.51
  -1   9  -5   67.28    4.49
   1   9   5   53.93    4.47
  -1  -9   5   56.79    4.40
   1   9   5   57.72    4.42
   1  -9  -5   69.05    4.44
  -1  -9   5   54.20    4.39
   1   9   5   54.01    4.47
   3   9  -5   49.95    3.08
  -3   9   5   41.63    3.06
   3  -9   5   37.13    3.21
  -3   9   5   43.06    3.30
   3   9  -5   50.37    3.40
  -3   9   5   37.55    3.17
  -3  -9   5   38.51    3.27
   3   9   5   40.96    3.23
   3   9   5   41.75    3.50
  -5  -9  -5   32.97    2.52
   5   9  -5   29.49    2.65
   5  -9  -5   29.54    2.36
  -5   9  -5   29.44    2.57
   5   9   5   23.75    2.83
   0  10   5   12.19    1.17
   0 -10   5   12.64    1.11
   0  10   5   10.29    1.20
   0 -10   5   12.45    1.17
   0  10   5   13.15    1.30
   2 -10   5   13.89    1.36
   2  10  -5   15.15    1.51
   2  10  -5   16.70    1.31
   2 -10   5   14.62    1.15
  -2  10   5   13.72    1.42
  -2  10   5   14.60    1.24
  -2 -10  -5   13.92    1.34
  -2  10  -5   15.23    1.47
  -2 -10   5   14.04    1.35
   2  10   5   14.58    1.38
  -2 -10   5   14.80    1.41
   2  10   5   13.30    1.54
   4  10  -5    0.93    0.71
   4  10  -5    1.35    0.48
  -4 -10  -5    1.33    0.53
  -4  10  -5    2.14    0.66
   4 -10  -5    0.85    0.42
  -1  11   5  145.56   10.31
  -1  11   5  153.40   10.42
   1 -11   5  147.81   10.36
   1  11  -5  144.38   10.36
  -1 -11  -5  139.22   10.38
   1  11  -5  145.68   10.40
   1 -11   5  151.64   10.25
  -1  11  -5  146.19   10.38
  -1 -11   5  145.79   10.35
   1  11   5  141.66   10.48
   1  11   5  151.68   10.36
  -1 -11   5  149.37   10.33
   1  11   5  145.74   10.43
  -1  11  -5  130.25   10.42
   3  11  -5  101.40    7.39
  -3  11   5  107.42    7.57
   3  11  -5  106.34    7.65
  -3  11   5  103.20    7.38
  -3  11   5  108.85    7.49
  -3 -11  -5   97.88    7.49
  -3 -11   5  105.77    7.74
   3  11   5  103.58    7.73
  -3  11  -5  101.87    7.58
   0  12  -5   70.64    5.63
   0 -12  -5   71.83    5.58
   0  12   5   77.77    5.61
   0 -12   5   80.79    5.51
   0 -12   5   79.44    5.59
   0  12   5   78.93    5.66
   0  12   5   79.08    5.57
   0  12  -5   74.65    5.58
   2  12  -5   87.77    6.31
   2 -12   5   88.53    6.15
  -2  12   5   90.24    6.26
   2  12  -5   89.42    6.46
   2 -12   5   82.24    6.32
  -2 -12  -5   81.80    6.32
  -2  12   5   89.86    6.39
   2  12   5   89.18    6.34
  -2  12  -5   84.83    6.41
  -2 -12   5   89.41    6.38
  -2 -12   5   86.61    6.34
   2  12   5   86.01    6.48
  -4 -12  -5   38.25    3.09
  -4  12   5   39.40    2.96
  -4  12   5   39.79    3.71
   4  12  -5   40.63    3.34
   4  12  -5   35.95    2.84
  -4  12  -5   35.96    3.18
   4  12   5   43.26    3.42
   1 -13   5    2.63    0.55
   1  13  -5    3.14    0.69
  -1  13   5    3.22    0.68
  -1 -13  -5    2.99    0.59
   1  13  -5    2.81    0.70
   1 -13   5    3.12    0.46
  -1  13   5    3.60    0.56
  -1 -13   5    1.99    0.55
  -1  13  -5    2.85    0.72
  -1 -13   5    2.20    0.54
   1  13   5    2.32    0.64
   1  13   5    2.66    0.68
  -1  13  -5    3.44    0.57
  -3  13   5    2.13    0.59
   3  13  -5    2.15    0.56
  -3  13   5    2.29    0.65
   3  13  -5    2.03    0.85
  -3 -13  -5    2.68    0.63
  -3  13   5    2.17    0.45
   3  13   5    2.41    0.87
  -3  13  -5    2.02    0.71
   0 -14   5   49.73    3.79
   0  14  -5   51.98    3.82
   0 -14   5   49.46    3.69
   0  14   5   48.51    3.86
   0  14  -5   45.57    3.90
   0  14   5   52.06    3.84
   0  14   5   52.86    3.79
   2  14  -5   40.14    3.31
  -2  14   5   42.34    3.20
  -2  14   5   43.66    3.31
  -2 -14  -5   40.16    3.28
   2  14  -5   45.70    3.49
   2 -14   5   40.89    3.03
  -2  14   5   44.91    3.25
  -2  14   5   38.70    3.27
  -2 -14   5   45.82    3.33
  -2 -14   5   39.57    3.33
   2  14   5   43.51    3.50
  -2  14  -5   39.61    3.42
   4  14  -5   25.42    2.66
   4  14  -5   23.22    2.07
  -4  14   5   26.04    2.23
  -4 -14  -5   26.47    2.30
   4  14   5   29.58    2.69
  -4  14  -5   23.56    2.48
  -1  15   5   36.09    2.85
   1  15  -5   30.05    3.04
   1  15  -5   28.74    2.89
   1 -15   5   34.97    2.78
  -1  15   5   37.44    2.76
   1 -15   5   36.76    2.61
  -1  15   5   36.51    2.78
   1  15   5   35.83    2.91
  -1  15  -5   31.33    3.00
  -1 -15   5   38.01    2.75
  -1  15  -5   31.20    2.67
   1  15   5   32.73    2.75
   1  15   5   36.62    3.09
  -1 -15   5   38.06    2.81
  -3  15   5   29.79    2.16
  -3  15   5   27.58    2.21
  -3  15   5   27.21    2.04
  -3 -15  -5   21.23    2.17
   3  15  -5   22.76    2.53
  -3  15   5   25.69    2.21
   3  15  -5   22.26    2.20
   3  15   5   24.23    2.44
  -3  15  -5   20.21    2.36
   0 -16   5   29.54    2.42
   0  16   5   31.30    2.51
   0  16   5   28.07    2.41
   0  16   5   25.29    2.47
   0 -16   5   30.62    2.32
  -2  16   5   10.05    1.27
  -2  16   5   11.30    1.19
  -2  16   5    9.48    1.17
  -2  16   5   10.28    1.31
  -2 -16   5    9.97    1.61
   2  16   5    9.52    1.56
   1  17  -5  116.71    9.14
  -1  17   5  122.51    8.98
  -1  17   5  124.00    9.02
   1  17  -5  126.74    9.11
  -1  17   5  130.95    9.01
  -1 -17   5  131.45    9.05
  -1 -17   5  125.33    8.94
  -1  17  -5  118.72    8.87
   1  17   5  129.73    9.12
  -1  17  -5  117.97    9.19
  -3  17   5   99.13    7.02
  -3  17   5  100.61    7.05
   3  17  -5   92.70    7.40
   3  17  -5   88.96    7.14
  -3  17   5  109.09    7.15
   3  17   5  100.07    7.32
  -3  17  -5   84.14    7.28
   0 -18   5   90.24    6.62
   0  18  -5   91.81    6.73
   0  18  -5   88.98    7.00
   0  18   5   94.86    6.80
   2  18  -5   56.31    5.08
  -2  18   5   69.04    4.94
  -2  18   5   63.41    4.88
  -2  18   5   72.05    4.93
   2  18  -5   65.43    5.20
   2  18   5   70.63    5.14
  -2  18  -5   57.18    5.22
   1 -19   5   29.95    2.87
  -1  19   5   38.31    3.04
   1  19  -5   37.27    3.41
   1  19  -5   41.25    3.22
  -1  19   5   34.21    3.01
  -1 -19   5   32.40    2.95
  -1  19  -5   40.13    2.83
   1  19   5   36.72    3.18
  -1  19  -5   36.70    3.48
   0  20  -5    7.54    1.53
   0  20   5    8.89    1.27
   0  20  -5    7.67    1.88
   0 -20   5    7.00    1.29
  -2  20   5    5.83    0.95
   2  20  -5    4.10    1.25
   2  20  -5    7.06    1.35
  -2  20   5    5.26    0.96
  -2  20  -5    3.36    1.38
   2  20   5    4.87    1.16
  -1  21   5   11.15    1.58
   1  21  -5   12.24    2.35
   1  21  -5   12.75    2.03
  -1  21   5   11.57    1.67
  -1  21  -5   11.38    1.88
   1  21   5    9.07    1.74
   0   0   6  247.20   17.53
   0   0   6  252.49   17.55
   2   0   6  227.51   15.48
  -2   0   6  213.05   15.38
   2   0   6  214.80   15.51
   2   0   6  221.76   15.44
  -2   0   6  220.89   15.50
  -4   0  -6   96.93    7.68
   4   0  -6   97.13    7.69
   4   0   6  129.38    8.16
  -1   1   6   45.06    3.61
   1   1  -6   55.91    3.67
   1  -1   6   45.30    3.58
  -1   1   6   41.51    3.59
   1  -1   6   44.79    3.56
  -1  -1  -6   56.74    3.59
   1   1   6   44.84    3.58
  -1  -1   6   45.75    3.61
   1  -1  -6   54.84    3.86
  -1   1  -6   57.51    3.61
   1   1   6   44.39    3.58
   3  -1   6   31.46    2.44
   3  -1   6   30.75    2.51
   3  -1   6   31.14    2.65
   3   1   6   33.84    2.71
   3   1   6   29.42    2.51
  -3  -1   6   31.43    2.58
   3   1   6   34.30    2.49
   5   1  -6   25.61    2.34
  -5  -1  -6   29.22    2.40
  -5   1  -6   26.53    2.36
   5  -1  -6   28.02    2.35
   0   2   6  121.51    9.31
   0   2  -6  145.72    9.33
   0  -2  -6  140.13    9.32
   0  -2   6  122.01    9.32
   0  -2   6  124.90    9.33
   0   2  -6  146.56    9.41
   0   2   6  122.04    9.35
   2  -2   6   93.54    6.86
  -2   2   6   93.09    6.73
   2   2  -6   99.98    6.90
   2  -2   6   91.28    6.77
  -2  -2  -6   96.83    6.82
  -2   2   6   94.83    6.88
   2   2  -6   97.54    6.72
   2  -2   6   95.43    6.84
  -2  -2   6   94.20    6.75
   2  -2  -6   97.87    6.74
   2   2   6   91.99    6.81
  -2  -2   6   93.61    6.85
   2   2   6   90.73    6.89
   2   2   6   95.27    6.83
   2  -2  -6   97.10    6.86
  -2   2  -6   98.73    6.85
   4  -2   6   62.29    5.29
   4  -2   6   65.88    5.08
   4   2  -6   77.06    5.25
   4   2   6   61.19    5.39
  -4   2  -6   79.00    5.24
   4  -2  -6   77.89    5.22
   4   2   6   68.28    5.16
  -1  -3  -6   17.15    1.44
   1  -3   6   16.13    1.46
  -1   3   6   18.02    1.52
   1   3  -6   18.38    1.54
   1   3  -6   16.11    1.37
  -1   3   6   17.81    1.39
   1  -3   6   17.87    1.42
   1  -3  -6   16.45    1.61
   1   3   6   16.14    1.47
   1  -3  -6   17.17    1.38
  -1  -3   6   17.43    1.48
  -1   3  -6   16.08    1.46
   1   3   6   18.15    1.50
  -1  -3   6   16.88    1.40
   3   3  -6   13.51    1.35
   3  -3   6   13.62    1.18
   3  -3   6   13.19    1.46
   3  -3   6   12.90    1.37
  -3   3   6   12.96    1.37
  -3  -3  -6   12.60    1.29
   3   3  -6   13.24    1.00
   3   3   6   13.63    1.59
  -3  -3   6   10.52    1.07
  -3  -3   6   12.04    1.40
   3  -3  -6   13.80    1.30
   3   3   6   13.22    1.35
  -3   3  -6   13.17    1.34
   3   3   6   14.23    1.33
  -5  -3  -6   11.37    1.35
   5   3  -6    7.80    1.31
   5  -3   6    7.15    1.35
  -5   3  -6    9.14    1.33
   5  -3  -6   11.36    1.23
   5   3   6    7.83    1.38
   0   4   6    3.41    0.57
   0  -4   6    3.74    0.68
   0   4   6    3.28    0.65
   0  -4   6    4.24    0.65
   2  -4   6   16.93    1.61
   2  -4   6   17.58    1.63
  -2   4   6   17.22    1.47
  -2  -4  -6   20.10    1.63
  -2   4   6   20.17    1.74
   2  -4   6   17.61    1.51
   2   4  -6   21.35    1.48
   2   4  -6   21.95    1.72
  -2  -4   6   17.92    1.67
  -2   4  -6   22.23    1.68
   2   4   6   16.83    1.64
   2  -4  -6   20.91    1.65
   2   4   6   15.84    2.21
  -2  -4   6   18.45    1.52
   2   4   6   15.68    1.63
   2  -4  -6   22.44    1.54
   4  -4   6    2.67    0.80
   4   4  -6    3.91    0.73
   4  -4   6    2.84    0.53
  -4  -4  -6    4.21    0.67
   4   4   6    1.44    0.90
  -4   4  -6    4.71    0.74
   4   4   6    2.96    0.77
   4  -4  -6    4.68    0.83
   1  -5   6   91.69    6.47
  -1   5   6   93.65    6.47
   1  -5   6   88.36    6.52
  -1   5   6   88.67    6.56
  -1  -5   6   90.73    6.52
   1   5   6   91.92    6.53
   1   5   6   87.79    6.55
  -1  -5   6   93.90    6.50
   3  -5   6   66.91    4.56
  -3   5   6   62.33    4.58
  -3   5   6   68.05    4.32
   3  -5   6   63.78    4.36
  -3  -5  -6   50.39    4.45
   3  -5  -6   48.84    4.45
   3   5   6   66.82    4.56
   3   5   6   69.54    4.75
  -3  -5   6   61.04    4.39
  -3   5  -6   50.66    4.49
   0  -6  -6   97.17    7.09
   0   6   6  102.12    7.17
   0   6  -6   98.05    7.15
   0   6  -6   95.35    7.09
   0   6   6  101.40    7.10
   0  -6   6   99.66    7.08
   0  -6   6  101.93    7.11
   2  -6   6   76.77    5.39
  -2   6   6   80.92    5.39
  -2  -6  -6   71.54    5.47
   2   6  -6   72.44    5.38
   2  -6   6   74.66    5.49
  -2   6   6   81.01    5.58
   2   6  -6   71.43    5.55
   2   6   6   77.76    5.51
  -2  -6   6   79.16    5.44
  -2  -6   6   77.00    5.51
   2  -6  -6   69.52    5.42
   2   6   6   77.57    5.54
  -2   6  -6   71.54    5.51
   2   6   6   78.62    5.62
   2  -6  -6   73.84    5.49
   4   6  -6   51.08    4.15
  -4  -6  -6   58.91    4.09
   4  -6   6   53.77    4.04
   4  -6   6   53.82    3.87
  -4   6  -6   52.21    4.12
   4  -6  -6   50.25    4.03
   4   6   6   57.58    4.42
   1  -7   6   69.97    5.35
  -1   7   6   74.38    5.49
  -1   7   6   73.39    5.37
   1  -7   6   70.69    5.42
  -1  -7  -6   79.04    5.43
   1   7  -6   80.68    5.39
  -1  -7   6   72.13    5.42
   1   7   6   75.00    5.43
   1  -7  -6   82.10    5.42
   1   7   6   70.89    5.47
  -1   7  -6   79.98    5.46
  -1  -7   6   71.99    5.40
   1   7   6   67.38    5.47
  -1   7  -6   80.44    5.46
   3  -7   6   56.51    4.11
  -3   7   6   50.82    3.91
  -3   7   6   47.84    4.00
   3   7  -6   60.89    4.24
   3   7  -6   58.82    3.92
  -3  -7  -6   59.79    4.11
   3  -7   6   51.68    3.94
   3  -7  -6   59.41    4.10
  -3  -7   6   50.37    4.02
   3   7   6   50.05    4.19
  -3   7  -6   60.68    4.18
   3   7   6   52.43    4.34
   0  -8   6   73.15    5.16
   0  -8   6   73.21    5.13
   0   8   6   70.97    5.14
   0   8   6   68.77    5.22
   0  -8  -6   69.59    5.13
   0   8   6   67.26    5.20
   0   8  -6   73.06    5.20
   0   8  -6   70.94    5.15
   2   8  -6   73.52    4.67
  -2   8   6   62.39    4.82
  -2   8   6   63.28    4.65
   2  -8   6   59.19    4.74
   2  -8   6   59.27    4.68
  -2  -8  -6   70.98    4.78
   2   8  -6   75.95    4.89
  -2   8  -6   72.86    4.83
   2   8   6   60.61    4.88
   2   8   6   59.43    4.82
   2   8   6   61.71    4.76
  -2  -8   6   62.23    4.72
  -2  -8   6   60.35    4.78
  -4  -8  -6   44.18    3.22
   4   8  -6   38.75    3.29
  -4   8  -6   42.18    3.28
   4   8   6   38.89    3.56
   4  -8  -6   38.44    3.13
   1  -9   6   28.21    2.16
  -1   9   6   27.88    2.35
  -1   9   6   29.54    2.20
   1  -9   6   29.32    2.28
   1   9  -6   22.62    2.31
  -1  -9   6   27.95    2.25
   1   9   6   28.60    2.35
   1   9   6   28.66    2.27
  -1  -9   6   29.63    2.23
   1   9   6   29.28    2.37
  -3   9   6   20.23    1.96
  -3   9   6   20.34    1.61
   3  -9   6   21.60    1.60
   3   9   6   21.99    2.23
   0  10  -6   33.97    2.85
   0  10   6   36.70    2.94
   0 -10   6   38.23    2.79
   0  10   6   37.11    2.81
   0 -10   6   36.66    2.82
   0  10  -6   38.62    2.89
   0 -10  -6   34.78    2.83
   0  10   6   37.58    2.90
  -2  10   6   18.41    1.48
  -2 -10  -6   16.51    1.60
   2  10  -6   19.40    1.82
  -2  10   6   17.90    1.71
   2  10  -6   16.81    1.51
   2 -10   6   18.76    1.45
  -2 -10   6   17.43    1.68
   2  10   6   18.59    1.85
  -2 -10   6   17.81    1.59
  -2  10  -6   17.66    1.72
   4  10  -6   20.92    2.19
  -4 -10  -6   22.23    1.98
  -4  10  -6   20.63    2.09
   4  10   6   22.69    2.43
  -1  11   6   75.87    5.22
   1  11  -6   61.37    5.31
   1 -11   6   74.35    5.27
  -1  11   6   73.34    5.35
   1 -11   6   75.71    5.16
  -1  11  -6   58.91    5.21
  -1 -11   6   76.96    5.25
   1  11   6   74.53    5.37
   1  11   6   74.58    5.28
   1  11   6   69.85    5.36
  -1 -11   6   73.64    5.26
  -3  11   6   58.04    3.59
   3  11  -6   43.20    3.40
   3  11  -6   47.39    3.77
  -3 -11  -6   41.73    3.55
  -3  11  -6   42.87    3.66
   0  12   6   27.03    2.19
   0  12   6   29.08    2.49
   0  12   6   26.25    2.27
   0 -12   6   25.56    2.18
   0  12  -6   26.36    2.28
   0  12  -6   30.65    2.31
   0 -12   6   25.28    2.15
   0 -12  -6   26.79    2.23
   2 -12   6   27.52    2.28
  -2  12   6   27.99    2.35
   2  12  -6   32.60    2.43
   2  12  -6   33.43    2.67
  -2 -12  -6   34.35    2.52
   2  12   6   27.37    2.66
  -2 -12   6   28.52    2.47
  -2  12  -6   33.31    2.64
   4  12  -6   14.87    1.99
   4  12   6   14.84    2.18
   1  13  -6  144.57    9.47
  -1 -13  -6  138.11    9.38
   1  13  -6  143.29    9.39
   1 -13   6  122.36    9.22
  -1  13   6  119.81    9.37
  -1  13   6  121.81    9.30
  -1 -13   6  119.44    9.30
  -1  13  -6  141.86    9.46
  -1 -13   6  117.33    9.33
  -1  13  -6  143.97    9.34
   1  13   6  123.19    9.44
   3  13  -6  108.85    7.50
  -3  13   6   94.90    7.21
  -3 -13  -6  100.59    7.28
   3  13  -6  103.78    7.13
  -3  13   6   91.64    7.16
   3  13   6   92.72    7.50
  -3  13  -6  104.86    7.39
   0 -14   6   25.93    2.12
   0  14   6   24.57    2.16
   0 -14   6   26.00    2.19
   0  14   6   28.17    2.31
  -2  14   6   25.62    2.18
  -2  14   6   25.53    2.04
   2 -14   6   24.22    1.91
  -2  14   6   24.46    2.16
   2  14   6   23.21    2.42
  -2 -14   6   25.93    2.22
   1  15  -6   65.55    5.27
  -1  15   6   74.83    5.12
   1  15  -6   56.77    5.17
  -1  15   6   76.70    5.22
   1 -15   6   74.95    5.01
  -1 -15   6   71.24    5.16
   1  15   6   80.41    5.34
  -1  15  -6   59.64    5.26
  -1  15  -6   63.07    5.08
  -1 -15   6   68.50    5.11
   3  15  -6   47.93    3.82
  -3 -15  -6   41.87    3.47
   3  15  -6   41.07    3.52
  -3  15  -6   42.81    3.69
   0 -16   6   57.91    4.42
   0  16  -6   59.20    4.70
   0  16   6   62.07    4.63
   0  16  -6   60.43    4.73
   2  16  -6   45.64    3.65
  -2  16   6   44.73    3.58
  -2 -16  -6   44.32    3.59
  -2  16   6   41.65    3.46
  -2  16   6   45.83    3.58
   2  16  -6   45.56    3.82
  -2  16  -6   41.87    3.79
   2  16   6   47.01    3.87
  -2 -16   6   51.59    3.65
   1  17  -6    7.50    1.26
   1  17  -6    9.40    1.56
  -1  17  -6    9.27    1.15
  -1  17  -6    6.11    1.28
   0  18  -6   48.23    4.00
   0 -18   6   37.45    3.37
   0  18  -6   48.58    3.88
   0  18   6   43.81    3.63
  -1  19   6   12.01    1.74
   1  19   6   13.39    1.99
   0   0  -7    0.45    0.37
   0   0   7    0.32    0.43
   0   0   7    0.28    0.36
   2   0  -7    0.31    0.47
   2   0   7    0.07    0.50
   2   0  -7    0.70    0.31
   2   0   7    1.11    0.48
  -2   0  -7    0.36    0.39
   4   0   7    0.92    0.58
  -4   0  -7    0.07    0.50
   4   0   7    0.96    1.02
   4   0  -7    0.27    0.55
  -1   1   7   61.92    4.65
   1  -1   7   60.45    4.61
   1   1  -7   63.29    4.67
   1  -1   7   60.95    4.59
  -1  -1  -7   63.39    4.59
   1   1  -7   64.72    4.53
  -1   1   7   62.26    4.56
  -1   1  -7   64.40    4.61
  -1  -1   7   61.03    4.64
   1   1   7   62.12    4.61
  -1  -1   7   60.62    4.55
   1   1   7   62.30    4.61
   1  -1  -7   64.87    4.68
   1  -1  -7   66.38    4.54
   3   1  -7   45.99    3.58
   3  -1   7   46.75    3.73
   3  -1   7   44.64    3.48
  -3  -1  -7   47.48    3.56
   3   1  -7   47.70    3.34
  -3   1   7   46.20    3.34
  -3  -1   7   46.05    3.36
   3  -1  -7   47.53    3.58
  -3   1  -7   46.53    3.56
   3   1   7   45.28    3.51
   3   1   7   45.72    3.73
   0   2  -7   57.00    4.72
   0  -2   7   68.79    4.71
   0   2   7   64.13    4.66
   0   2   7   64.38    4.71
   0  -2   7   64.98    4.66
  -2   2   7   44.53    3.26
   2   2  -7   44.29    3.21
   2   2  -7   43.50    3.42
   2  -2   7   43.26    3.30
  -2  -2  -7   44.96    3.36
   2  -2   7   44.48    3.43
   2  -2  -7   43.63    3.24
   2   2   7   43.29    3.45
   2   2   7   44.80    3.36
  -2   2  -7   43.88    3.37
  -2  -2   7   44.83    3.28
   2  -2  -7   43.58    3.40
   4   2  -7   29.25    2.68
   4  -2   7   37.41    2.88
   4  -2   7   34.71    3.45
  -4  -2  -7   32.90    2.68
   4  -2  -7   30.39    2.65
  -4   2  -7   30.79    2.67
   4   2   7   31.64    3.09
  -1  -3  -7   14.86    1.38
   1   3  -7   14.10    1.50
  -1   3   7   14.93    1.33
   1  -3   7   15.04    1.41
   1  -3   7   15.95    1.39
   1   3  -7   15.02    1.30
  -1   3   7   14.83    1.50
   1   3   7   15.30    1.50
   1  -3  -7   15.52    1.32
   1   3   7   15.45    1.43
  -1  -3   7   16.40    1.34
  -1   3  -7   15.65    1.41
   1   3   7   15.51    1.48
  -1  -3   7   15.06    1.46
   3   3  -7   10.99    1.33
   3  -3   7   11.44    1.18
   3   3  -7   11.01    0.94
  -3   3   7   12.52    0.98
  -3  -3  -7   11.41    1.28
   3   3   7   10.89    1.56
   3   3   7    8.85    1.30
  -3   3  -7   11.83    1.32
  -3  -3   7   10.25    1.03
   3  -3  -7   12.54    1.30
   0   4  -7   34.08    2.70
   0   4  -7   35.48    2.86
   0   4   7   33.39    2.72
   0   4   7   35.29    2.65
   0  -4   7   34.83    2.68
   0  -4   7   34.96    2.66
   0  -4  -7   34.67    2.70
   2  -4   7   45.48    3.32
   2  -4   7   47.50    3.47
  -2  -4  -7   39.67    3.37
  -2   4   7   49.75    3.29
   2   4  -7   41.41    3.46
   2   4  -7   41.09    3.24
  -2   4  -7   41.95    3.41
  -2  -4   7   49.39    3.32
   2  -4  -7   43.39    3.42
   2  -4  -7   42.65    3.30
   2   4   7   44.94    3.54
   2   4   7   47.79    3.44
   4   4  -7   19.31    2.03
   4  -4   7   21.84    2.32
  -4  -4  -7   23.47    1.99
   4   4   7   19.25    2.49
  -4   4  -7   20.40    2.02
   4  -4  -7   21.60    1.95
   1  -5   7  187.41   13.36
  -1  -5  -7  180.05   13.34
  -1   5   7  192.17   13.31
   1   5  -7  188.50   13.30
   1  -5   7  200.10   13.33
   1   5  -7  191.98   13.44
   1   5   7  183.80   13.39
   1   5   7  195.91   13.38
  -1   5  -7  182.52   13.36
  -1  -5   7  185.17   13.36
  -1  -5   7  202.76   13.35
   1  -5  -7  181.18   13.31
   1   5   7  183.58   13.43
  -3  -5  -7  140.35   10.21
   3  -5   7  144.90   10.09
   3   5  -7  138.32   10.28
   3  -5   7  144.70   10.27
   3   5  -7  136.97   10.01
   3   5   7  154.15   10.45
   3  -5  -7  142.33   10.23
  -3   5  -7  141.21   10.25
   0  -6   7   61.23    4.55
   0  -6   7   63.08    4.55
   0  -6  -7   59.38    4.54
   0   6  -7   60.59    4.55
   0   6  -7   64.07    4.64
   0   6   7   64.05    4.55
  -2  -6  -7   39.50    3.18
   2   6  -7   44.76    3.34
   2  -6   7   41.89    3.12
  -2   6   7   41.98    3.08
   2   6  -7   41.62    3.07
   2   6   7   40.46    3.35
  -2   6  -7   41.72    3.25
  -2  -6   7   41.81    3.13
   2  -6  -7   41.66    3.15
   4   6   7   35.77    3.41
  -1  -7  -7    2.06    0.48
   1   7  -7    2.86    0.65
  -1   7   7    2.25    0.45
   1   7  -7    1.81    0.45
   1  -7   7    2.28    0.50
  -1   7  -7    2.27    0.56
  -1  -7   7    2.56    0.48
   1   7   7    2.11    0.65
   1   7   7    1.61    0.49
   1  -7  -7    2.71    0.52
  -1  -7   7    1.98    0.57
   3   7  -7    2.83    0.79
   3   7  -7    2.82    0.53
   3  -7   7    1.40    0.75
  -3  -7  -7    1.81    0.58
   3  -7   7    2.03    0.49
   3   7   7    1.89    0.91
  -3   7  -7    2.30    0.66
   0   8  -7    1.18    0.45
   0   8   7    0.29    0.40
   0  -8   7    0.80    0.49
   0   8  -7    1.86    0.62
   2  -8   7    2.61    0.51
  -2   8   7    2.13    0.43
   2   8  -7    0.65    0.64
   2   8   7    2.31    0.76
  -2  -8   7    2.39    0.53
   1   9  -7   22.08    1.87
   1   9  -7   21.45    2.07
  -1  -9  -7   20.48    1.90
   1  -9  -7   21.59    1.92
  -1  -9   7   29.51    1.94
  -1   9  -7   21.00    1.97
  -3  -9  -7   15.83    1.60
   3   9  -7   15.05    1.84
   3   9  -7   15.94    1.31
  -3   9  -7   15.13    1.71
   0 -10   7  248.17   17.07
   0  10   7  247.81   17.20
   0  10   7  239.22   17.10
   0  10  -7  233.79   17.11
   0 -10   7  237.63   17.11
   0 -10  -7  234.94   17.11
   0  10  -7  255.82   17.20
   2 -10   7  175.21   12.26
  -2  10   7  175.07   12.30
   2  10  -7  184.83   12.54
   2  10  -7  171.38   12.29
  -2 -10  -7  167.68   12.39
  -2 -10   7  174.81   12.38
  -2  10  -7  168.99   12.45
   2  10   7  175.41   12.57
   1  11  -7    1.91    0.56
   1 -11   7    1.22    0.54
   1  11  -7    3.16    0.78
  -1 -11  -7    2.61    0.56
  -1  11   7    1.22    0.60
  -1  11  -7    2.37    0.69
   1 -11  -7    2.61    0.61
  -1  11  -7    2.06    0.63
  -3 -11  -7    1.80    0.59
   3  11  -7    1.67    0.48
   3  11  -7    1.71    0.92
  -3  11  -7    2.27    0.79
   3  11   7   -0.11    1.03
   0  12  -7   22.46    2.27
   0 -12  -7   23.53    2.23
   0  12  -7   28.09    2.33
   0  12   7   28.31    2.32
   0 -12   7   28.92    2.19
   2  12  -7   12.59    1.70
   2  12  -7   11.30    1.52
  -2 -12  -7   12.53    1.42
  -2  12   7   11.76    1.23
  -2 -12   7   13.68    1.42
  -2  12  -7   10.96    1.56
   2  12   7   13.37    1.75
  -1 -13  -7    0.84    0.50
   1 -13   7    0.75    0.51
   1  13  -7    0.77    0.58
  -1  13   7    0.53    0.46
  -1  13   7    0.16    0.58
   1  13  -7    1.65    0.78
   1  13   7    0.89    0.70
  -1 -13   7    0.50    0.55
  -1  13  -7    1.01    0.65
  -1  13  -7    1.08    0.69
   0 -14   7    5.31    0.81
   0  14   7    4.59    0.88
   2  14  -7    0.32    0.59
  -2  14   7    1.66    0.73
   2  14  -7    0.03    0.87
  -2 -14  -7    0.21    0.56
  -2  14  -7    0.74    0.78
  -2 -14   7    1.97    1.11
   2  14   7    1.46    0.93
   1  15  -7   48.84    3.95
   1  15  -7   55.07    4.15
  -1 -15  -7   50.52    3.95
  -1  15   7   48.86    3.99
  -1  15  -7   51.32    4.11
   1  15   7   47.94    4.10
  -1  15  -7   50.56    4.11
   0  16  -7  103.32    6.97
   0  16   7   94.56    7.03
   0  16  -7   90.64    7.00
   0 -16   7   86.45    6.78
   0   0  -8  128.63    8.48
   0   0   8  108.44    8.47
  -2   0   8  104.79    8.93
   2   0  -8  134.25    8.94
   2   0  -8  132.82    9.13
  -2   0  -8  132.50    9.06
   1   1  -8   44.55    3.48
  -1  -1  -8   42.17    3.34
   1   1  -8   44.11    3.28
   1  -1  -8   44.10    3.29
  -1   1  -8   44.77    3.36
   3   1  -8   31.08    2.68
  -3  -1  -8   29.75    2.61
  -3   1  -8   32.52    2.63
   3  -1  -8   30.17    2.68
   0   2  -8   36.51    3.22
   0  -2   8   49.75    3.30
   0  -2  -8   37.64    3.23
   0   2   8   49.26    3.32
  -2   2   8   48.38    3.35
   2   2  -8   41.89    3.26
   2  -2   8   49.10    3.54
   2   2  -8   40.72    3.50
  -2  -2  -8   39.27    3.40
  -2  -2   8   51.65    3.42
   2   2   8   51.58    3.61
   2  -2  -8   39.33    3.27
  -2   2  -8   40.02    3.40
   2  -2  -8   41.71    3.46
   1   3  -8   10.05    1.06
  -1   3   8    8.77    1.08
   1   3  -8   10.26    1.35
  -1  -3  -8    9.79    1.14
   1   3   8    9.30    1.29
  -1  -3   8    9.35    1.08
  -1   3  -8   11.89    1.20
   1  -3  -8   12.35    1.11
   3  -3   8    9.47    1.35
   3  -3   8    7.79    1.33
   3   3  -8    9.46    1.42
   3   3   8    7.43    1.35
   0  -4  -8   23.68    2.13
   0   4   8   29.02    2.19
   0   4  -8   23.57    2.13
   0  -4   8   30.19    2.18
   2   4  -8   21.19    1.98
  -2  -4  -8   17.10    1.77
   2   4  -8   19.17    1.61
  -2   4  -8   19.84    1.84
   2  -4  -8   20.73    1.72
  -1  -5  -8   47.11    3.46
   1   5  -8   51.18    3.65
   1   5  -8   48.52    3.40
   1   5   8   37.17    3.52
  -1  -5   8   36.37    3.39
  -1   5  -8   48.54    3.50
   1  -5  -8   48.79    3.43
   0   6  -8   17.38    1.81
   0   6  -8   18.52    1.64
   0  -6  -8   18.32    1.63
   2  -6   8   22.31    2.06
   2  -6   8   22.72    1.85
   2   6  -8   22.43    2.13
   2   6  -8   21.61    1.76
  -2  -6  -8   20.74    1.93
  -2   6  -8   20.46    1.99
   2  -6  -8   19.99    1.90
   2   6   8   21.67    2.20
  -1   7   8   70.29    5.06
   1   7  -8   67.76    5.05
   1   7  -8   68.87    5.25
  -1  -7  -8   64.94    5.11
   1  -7   8   68.55    5.06
   1   7   8   72.84    5.26
  -1   7  -8   67.31    5.14
   1  -7  -8   68.18    5.09
  -1  -7   8   73.63    5.10
   0   8  -8   34.98    2.83
   0   8   8   38.49    2.83
   0  -8  -8   30.01    2.63
   0   8  -8   30.18    2.63
   2   8  -8   23.15    1.93
  -2  -8  -8   21.96    2.08
   2   8  -8   24.84    2.31
  -2   8  -8   23.26    2.17
  -1  -9  -8    4.50    0.75
   1   9  -8    5.37    0.97
   1   9  -8    4.78    0.72
   1  -9  -8    6.18    1.04
   1   9   8    3.10    0.91
  -1   9  -8    4.44    0.79
   0  10   8    7.16    1.23
   0  10  -8    5.23    1.07
   0 -10  -8    5.72    1.07
   0  10  -8    7.29    1.32
   1 -11   8   55.45    4.99
   1  11  -8   69.61    4.91
   1  11  -8   78.22    5.19
  -1 -11  -8   74.19    5.01
  -1  11   8   56.11    5.02
   1 -11  -8   68.28    4.96
   1  11   8   54.97    5.07
  -1  11  -8   69.76    5.02
   0   0   0    0.00    0.00
;
_shelx_hkl_checksum              97225
loop_
_space_group_symop_operation_xyz
'x, y, z'
'-x, -y, z+1/2'
'x, -y, z+1/2'
'-x, y, z'
'x+1/2, y+1/2, z'
'-x+1/2, -y+1/2, z+1/2'
'x+1/2, -y+1/2, z+1/2'
'-x+1/2, y+1/2, z'
loop_
_atom_site_label
_atom_site_type_symbol
_atom_site_fract_x
_atom_site_fract_y
_atom_site_fract_z
_atom_site_U_iso_or_equiv
_atom_site_adp_type
_atom_site_occupancy
_atom_site_site_symmetry_order
_atom_site_calc_flag
_atom_site_refinement_flags_posn
_atom_site_refinement_flags_adp
_atom_site_refinement_flags_occupancy
_atom_site_disorder_assembly
_atom_site_disorder_group
Ba1 Ba 0.0000 0.22528(5) 0.04806(14) 0.0097(3) Uani 1 2 d S T P . .
Bi1 Bi 0.0000 0.42453(3) 0.33783(11) 0.0129(2) Uani 1 2 d S T P . .
Se1 Se 0.0000 0.03076(7) 0.1893(2) 0.0085(4) Uani 1 2 d S T P . .
Se2 Se 0.0000 0.15005(7) 0.5606(3) 0.0066(3) Uani 1 2 d S T P . .
O1 O 0.2477(13) 0.4816(4) 0.1239(15) 0.0143(16) Uani 1 1 d . . . . .
O2 O 0.2507(14) 0.3368(5) 0.2170(13) 0.0115(16) Uani 1 1 d . . . . .
O3 O 0.0000 0.0834(6) 0.000(2) 0.014(3) Uani 1 2 d S T P . .
O4 O 0.0000 0.2237(6) 0.4474(19) 0.010(2) Uani 1 2 d S T P . .
Cl1 Cl 0.0000 0.6469(2) 0.2417(7) 0.0196(9) Uani 1 2 d S T P . .
loop_
_atom_site_aniso_label
_atom_site_aniso_U_11
_atom_site_aniso_U_22
_atom_site_aniso_U_33
_atom_site_aniso_U_23
_atom_site_aniso_U_13
_atom_site_aniso_U_12
Ba1 0.0101(4) 0.0088(5) 0.0102(4) 0.0008(4) 0.000 0.000
Bi1 0.0170(3) 0.0087(3) 0.0131(3) 0.0030(2) 0.000 0.000
Se1 0.0117(7) 0.0047(7) 0.0091(7) 0.0008(6) 0.000 0.000
Se2 0.0078(6) 0.0036(7) 0.0084(6) -0.0001(5) 0.000 0.000
O1 0.009(3) 0.013(4) 0.021(4) -0.002(4) 0.000(3) -0.005(3)
O2 0.012(4) 0.011(4) 0.011(4) 0.000(3) 0.004(3) -0.001(3)
O3 0.026(6) 0.006(6) 0.011(6) 0.006(4) 0.000 0.000
O4 0.015(5) 0.009(6) 0.007(6) 0.007(4) 0.000 0.000
Cl1 0.0212(19) 0.017(2) 0.020(2) -0.0036(17) 0.000 0.000
loop_
_atom_type_symbol
_atom_type_description
_atom_type_scat_dispersion_real
_atom_type_scat_dispersion_imag
_atom_type_scat_source
O O 0.0106 0.0060 'International Tables Vol C Tables 4.2.6.8 and 6.1.1.4'
Cl Cl 0.1484 0.1585 'International Tables Vol C Tables 4.2.6.8 and 6.1.1.4'
Se Se -0.0929 2.2259 'International Tables Vol C Tables 4.2.6.8 and 6.1.1.4'
Ba Ba -0.3244 2.2819 'International Tables Vol C Tables 4.2.6.8 and 6.1.1.4'
Bi Bi -4.1077 10.2566 'International Tables Vol C Tables 4.2.6.8 and 6.1.1.4'
loop_
_geom_angle_atom_site_label_1
_geom_angle_atom_site_label_2
_geom_angle_atom_site_label_3
_geom_angle
_geom_angle_site_symmetry_1
_geom_angle_site_symmetry_3
O4 Ba1 O2 66.4(3) . .
O4 Ba1 O2 66.4(3) . 4
O2 Ba1 O2 55.4(3) . 4
O4 Ba1 O3 96.0(4) . .
O2 Ba1 O3 145.8(2) . .
O2 Ba1 O3 145.8(2) 4 .
O4 Ba1 O4 104.0(3) . 6_554
O2 Ba1 O4 53.2(3) . 6_554
O2 Ba1 O4 104.1(3) 4 6_554
O3 Ba1 O4 108.7(2) . 6_554
O4 Ba1 O4 104.0(3) . 6_454
O2 Ba1 O4 104.1(3) . 6_454
O2 Ba1 O4 53.2(3) 4 6_454
O3 Ba1 O4 108.7(2) . 6_454
O4 Ba1 O4 129.8(5) 6_554 6_454
O4 Ba1 O2 141.1(2) . 7_454
O2 Ba1 O2 150.0(3) . 7_454
O2 Ba1 O2 116.53(18) 4 7_454
O3 Ba1 O2 59.0(3) . 7_454
O4 Ba1 O2 111.8(3) 6_554 7_454
O4 Ba1 O2 63.5(3) 6_454 7_454
O4 Ba1 O2 141.1(2) . 6_554
O2 Ba1 O2 116.52(18) . 6_554
O2 Ba1 O2 150.0(3) 4 6_554
O3 Ba1 O2 59.0(3) . 6_554
O4 Ba1 O2 63.5(3) 6_554 6_554
O4 Ba1 O2 111.8(3) 6_454 6_554
O2 Ba1 O2 53.6(3) 7_454 6_554
O4 Ba1 Cl1 130.2(3) . 2_564
O2 Ba1 Cl1 69.8(2) . 2_564
O2 Ba1 Cl1 69.8(2) 4 2_564
O3 Ba1 Cl1 133.8(3) . 2_564
O4 Ba1 Cl1 65.0(2) 6_554 2_564
O4 Ba1 Cl1 65.0(2) 6_454 2_564
O2 Ba1 Cl1 80.2(2) 7_454 2_564
O2 Ba1 Cl1 80.2(2) 6_554 2_564
O4 Ba1 Cl1 66.14(15) . 5_445
O2 Ba1 Cl1 124.81(18) . 5_445
O2 Ba1 Cl1 80.72(19) 4 5_445
O3 Ba1 Cl1 65.19(15) . 5_445
O4 Ba1 Cl1 166.7(3) 6_554 5_445
O4 Ba1 Cl1 63.0(2) 6_454 5_445
O2 Ba1 Cl1 75.94(19) 7_454 5_445
O2 Ba1 Cl1 117.90(19) 6_554 5_445
Cl1 Ba1 Cl1 128.01(7) 2_564 5_445
O4 Ba1 Cl1 66.14(15) . 5_545
O2 Ba1 Cl1 80.72(19) . 5_545
O2 Ba1 Cl1 124.81(18) 4 5_545
O3 Ba1 Cl1 65.19(15) . 5_545
O4 Ba1 Cl1 63.0(2) 6_554 5_545
O4 Ba1 Cl1 166.7(3) 6_454 5_545
O2 Ba1 Cl1 117.90(19) 7_454 5_545
O2 Ba1 Cl1 75.94(19) 6_554 5_545
Cl1 Ba1 Cl1 128.01(7) 2_564 5_545
Cl1 Ba1 Cl1 103.97(14) 5_445 5_545
O4 Ba1 Se2 89.09(17) . 6_554
O2 Ba1 Se2 27.54(16) . 6_554
O2 Ba1 Se2 77.75(17) 4 6_554
O3 Ba1 Se2 133.28(3) . 6_554
O4 Ba1 Se2 26.8(2) 6_554 6_554
O4 Ba1 Se2 114.9(2) 6_454 6_554
O2 Ba1 Se2 129.77(18) 7_454 6_554
O2 Ba1 Se2 89.12(17) 6_554 6_554
Cl1 Ba1 Se2 59.00(6) 2_564 6_554
Cl1 Ba1 Se2 152.23(9) 5_445 6_554
Cl1 Ba1 Se2 74.99(7) 5_545 6_554
O1 Bi1 O1 69.9(4) . 4
O1 Bi1 O2 117.9(3) . 4
O1 Bi1 O2 79.8(3) 4 4
O1 Bi1 O2 79.8(3) . .
O1 Bi1 O2 117.9(3) 4 .
O2 Bi1 O2 68.4(4) 4 .
O1 Bi1 Ba1 158.6(2) . 6_455
O1 Bi1 Ba1 102.7(2) 4 6_455
O2 Bi1 Ba1 40.9(2) 4 6_455
O2 Bi1 Ba1 86.7(2) . 6_455
O1 Bi1 Ba1 102.7(2) . 6
O1 Bi1 Ba1 158.6(2) 4 6
O2 Bi1 Ba1 86.7(2) 4 6
O2 Bi1 Ba1 40.9(2) . 6
Ba1 Bi1 Ba1 76.705(19) 6_455 6
O3 Se1 O1 99.0(4) . 5_445
O3 Se1 O1 99.0(4) . 8_545
O1 Se1 O1 101.8(6) 5_445 8_545
O4 Se2 O2 99.1(4) . 6
O4 Se2 O2 99.1(4) . 7_455
O2 Se2 O2 99.6(6) 6 7_455
O4 Se2 Ba1 51.78(18) . 6
O2 Se2 Ba1 49.9(3) 6 6
O2 Se2 Ba1 117.7(3) 7_455 6
O4 Se2 Ba1 51.78(18) . 6_455
O2 Se2 Ba1 117.7(3) 6 6_455
O2 Se2 Ba1 49.9(3) 7_455 6_455
Ba1 Se2 Ba1 93.09(4) 6 6_455
O4 Se2 Ba1 93.8(5) . 1_556
O2 Se2 Ba1 50.6(3) 6 1_556
O2 Se2 Ba1 50.6(3) 7_455 1_556
Ba1 Se2 Ba1 74.97(3) 6 1_556
Ba1 Se2 Ba1 74.97(3) 6_455 1_556
Se1 O1 Bi1 124.2(5) 5 .
Se2 O2 Bi1 122.5(5) 6_554 .
Se2 O2 Ba1 102.6(4) 6_554 .
Bi1 O2 Ba1 118.1(3) . .
Se2 O2 Ba1 102.2(3) 6_554 6
Bi1 O2 Ba1 107.1(3) . 6
Ba1 O2 Ba1 101.3(3) . 6
Se1 O3 Ba1 122.3(7) . .
Se2 O4 Ba1 118.6(6) . .
Se2 O4 Ba1 101.5(3) . 6
Ba1 O4 Ba1 103.6(3) . 6
Se2 O4 Ba1 101.5(3) . 6_455
Ba1 O4 Ba1 103.6(3) . 6_455
Ba1 O4 Ba1 129.8(5) 6 6_455
Ba1 Cl1 Ba1 83.82(9) 2_565 5
Ba1 Cl1 Ba1 83.82(9) 2_565 5_455
Ba1 Cl1 Ba1 103.97(14) 5 5_455
loop_
_geom_bond_atom_site_label_1
_geom_bond_atom_site_label_2
_geom_bond_distance
_geom_bond_site_symmetry_2
Ba1 O4 2.758(13) .
Ba1 O2 2.850(9) .
Ba1 O2 2.850(9) 4
Ba1 O3 2.864(13) .
Ba1 O4 2.916(6) 6_554
Ba1 O4 2.916(6) 6_454
Ba1 O2 2.918(9) 7_454
Ba1 O2 2.918(9) 6_554
Ba1 Cl1 3.324(5) 2_564
Ba1 Cl1 3.351(3) 5_445
Ba1 Cl1 3.351(3) 5_545
Ba1 Se2 3.6371(11) 6_554
Bi1 O1 2.281(9) .
Bi1 O1 2.281(9) 4
Bi1 O2 2.354(9) 4
Bi1 O2 2.354(9) .
Bi1 Ba1 4.2550(9) 6_455
Bi1 Ba1 4.2550(9) 6
Se1 O3 1.681(13) .
Se1 O1 1.718(7) 5_445
Se1 O1 1.718(7) 8_545
Se2 O4 1.671(11) .
Se2 O2 1.723(8) 6
Se2 O2 1.723(8) 7_455
Se2 Ba1 3.6371(11) 6
Se2 Ba1 3.6371(11) 6_455
Se2 Ba1 3.689(2) 1_556
O1 Se1 1.718(7) 5
O2 Se2 1.723(8) 6_554
O2 Ba1 2.918(9) 6
O4 Ba1 2.916(5) 6
O4 Ba1 2.916(5) 6_455
Cl1 Ba1 3.324(5) 2_565
Cl1 Ba1 3.351(3) 5
Cl1 Ba1 3.351(3) 5_455
