#------------------------------------------------------------------------------
#$Date: 2019-10-09 09:35:19 +0300 (Wed, 09 Oct 2019) $
#$Revision: 219189 $
#$URL: file:///home/coder/svn-repositories/cod/cif/7/23/44/7234479.cif $
#------------------------------------------------------------------------------
#
# This file is available in the Crystallography Open Database (COD),
# http://www.crystallography.net/
#
# All data on this site have been placed in the public domain by the
# contributors.
#
data_7234479
loop_
_publ_author_name
'Yongkwan Dong'
'Lukasz Wojtas'
'Joshua Martin'
'George S. Nolas'
_publ_section_title
;
 Synthesis, Crystal Structure, and Transport Properties of Quaternary
 Tetrahedral Chalcogenides
;
_journal_issue                   40
_journal_name_full               'Journal of Materials Chemistry C'
_journal_page_first              10436
_journal_page_last               10441
_journal_paper_doi               10.1039/C5TC01606A
_journal_volume                  3
_journal_year                    2015
_chemical_formula_moiety         'Cu2.1 Fe0.9 Sn Se4'
_chemical_formula_sum            'Cu2.1 Fe0.9 Se4 Sn'
_chemical_formula_weight         618.256
_space_group_IT_number           121
_space_group_name_Hall           'I -4 2'
_space_group_name_H-M_alt        'I -4 2 m'
_symmetry_cell_setting           tetragonal
_symmetry_Int_Tables_number      121
_symmetry_space_group_name_H-M   'I -4 2 m'
_audit_creation_method           'manual editing'
_cell_angle_alpha                90
_cell_angle_beta                 90
_cell_angle_gamma                90
_cell_formula_units_Z            2
_cell_length_a                   5.689800(33)
_cell_length_b                   5.689800(33)
_cell_length_c                   11.319720(97)
_cell_measurement_temperature    298
_cell_volume                     366.463(4)
_computing_structure_refinement  'TOPAS 4.2'
_diffrn_ambient_temperature      298
_diffrn_detector                 'Bruker Lynxeye PSD'
_diffrn_detector_type            Lynxeye
_diffrn_measurement_method       'reflection, flat sample, Bragg-Brentano'
_diffrn_radiation_monochromator  none
_diffrn_radiation_polarisn_ratio 1
_diffrn_radiation_probe          x-ray
_diffrn_radiation_source         'fine-focus sealed tube'
_diffrn_radiation_type           'Cu K\a'
_diffrn_source_type              'Bruker D8 Advance with DaVinci'
_exptl_absorpt_process_details
;   
 ?
;
_exptl_crystal_colour            black
_exptl_crystal_density_diffrn    5.60297
_exptl_crystal_description
;
microcrystalline powder
;
_pd_calc_method                  'Rietveld Refinement'
_pd_meas_2theta_range_inc        0.01
_pd_meas_2theta_range_max        100
_pd_meas_2theta_range_min        15
_pd_meas_scan_method             step
_pd_proc_ls_background_function
;   
'Chebyshev polynomial, 1/X background function '
;
_pd_proc_ls_profile_function
;
 Fundamental parameters
;
_pd_proc_ls_prof_R_factor        0.03180
_pd_proc_ls_prof_wR_expected     0.02213
_pd_proc_ls_prof_wR_factor       0.04434
_pd_spec_mount_mode              reflection
_pd_spec_shape                   flat_sheet
_refine_ls_goodness_of_fit_all   2.004
_refine_ls_number_parameters     16
_refine_ls_R_Fsqd_factor         0.02003
_cod_data_source_file            J-Mater-Chem-C-2015-3-10436.cif
_cod_data_source_block           1
_cod_original_cell_volume        366.4627(53)
_cod_original_sg_symbol_H-M      I-42m
_cod_original_formula_sum        'Cu2.1 Fe0.9 Sn Se4'
_cod_database_code               7234479
loop_
_symmetry_equiv_pos_as_xyz
'-x, -y, z'
'-x, y, -z'
'-x+1/2, -y+1/2, z+1/2'
'-x+1/2, y+1/2, -z+1/2'
'-y, -x, z'
'-y, x, -z'
'-y+1/2, -x+1/2, z+1/2'
'-y+1/2, x+1/2, -z+1/2'
'y, -x, -z'
'y, x, z'
'y+1/2, -x+1/2, -z+1/2'
'y+1/2, x+1/2, z+1/2'
'x, -y, -z'
'x, y, z'
'x+1/2, -y+1/2, -z+1/2'
'x+1/2, y+1/2, z+1/2'
loop_
_atom_site_label
_atom_site_type_symbol
_atom_site_symmetry_multiplicity
_atom_site_fract_x
_atom_site_fract_y
_atom_site_fract_z
_atom_site_occupancy
_atom_site_B_iso_or_equiv
Cu1 Cu 4 0 0.5 0.25 1 2.14(27)
Cu2 Cu 2 0 0 0 0.1 0.90(26)
Fe Fe 2 0 0 0 0.9 0.90(26)
Sn Sn 2 0 0 0.5 1 2.11(17)
Se Se 8 0.23974(23) 0.23974(23) 0.12976(25) 1 1.67(18)
loop_
_diffrn_radiation_wavelength
1.534753
1.540596
1.541058
1.544410
1.544721
loop_
_pd_meas_2theta_scan
_pd_proc_intensity_total
_pd_calc_intensity_total
15.00010 2342.16653 2307.00000
15.01034 2340.98243 2286.00000
15.02058 2339.80141 2377.00000
15.03082 2338.62357 2390.00000
15.04107 2337.44898 2483.00000
15.05131 2336.27776 2368.00000
15.06155 2335.11001 2380.00000
15.07179 2333.94591 2372.00000
15.08203 2332.78563 2348.00000
15.09227 2331.62942 2418.00000
15.10251 2330.47760 2310.00000
15.11276 2329.33059 2284.00000
15.12300 2328.18894 2361.00000
15.13324 2327.05349 2363.00000
15.14348 2325.92548 2358.00000
15.15372 2324.80701 2406.00000
15.16396 2323.70146 2493.00000
15.17421 2322.61316 2357.00000
15.18445 2321.54437 2336.00000
15.19469 2320.48894 2376.00000
15.20493 2319.43334 2316.00000
15.21517 2318.37634 2378.00000
15.22541 2317.32760 2382.00000
15.23565 2316.28691 2319.00000
15.24590 2315.24853 2390.00000
15.25614 2314.21841 2480.00000
15.26638 2313.20203 2345.00000
15.27662 2312.20237 2330.00000
15.28686 2311.22187 2437.00000
15.29710 2310.26345 2371.00000
15.30734 2309.33071 2378.00000
15.31759 2308.42816 2313.00000
15.32783 2307.56156 2376.00000
15.33807 2306.73829 2308.00000
15.34831 2305.96806 2351.00000
15.35855 2305.26395 2145.00000
15.36879 2304.64422 2383.00000
15.37903 2304.13566 2368.00000
15.38928 2303.77872 2343.00000
15.39952 2303.63425 2358.00000
15.40976 2303.79065 2422.00000
15.42000 2304.37166 2334.00000
15.43024 2305.54781 2353.00000
15.44048 2307.55219 2381.00000
15.45072 2310.70163 2334.00000
15.46097 2315.42628 2322.00000
15.47121 2322.30692 2354.00000
15.48145 2332.11957 2295.00000
15.49169 2345.89806 2311.00000
15.50193 2365.06700 2373.00000
15.51217 2391.77561 2463.00000
15.52242 2429.60110 2427.00000
15.53266 2484.44576 2504.00000
15.54290 2563.97779 2598.00000
15.55314 2671.54640 2688.00000
15.56338 2791.55205 2693.00000
15.57362 2873.97954 2746.00000
15.58386 2853.52462 2844.00000
15.59411 2743.27433 2737.00000
15.60435 2653.85514 2594.00000
15.61459 2599.43932 2553.00000
15.62483 2528.06146 2540.00000
15.63507 2433.03944 2466.00000
15.64531 2361.14175 2361.00000
15.65555 2322.39070 2345.00000
15.66580 2303.10474 2459.00000
15.67604 2292.31302 2350.00000
15.68628 2285.33033 2415.00000
15.69652 2280.32068 2383.00000
15.70676 2276.46165 2319.00000
15.71700 2273.33072 2348.00000
15.72724 2270.68827 2306.00000
15.73749 2268.38828 2310.00000
15.74773 2266.33677 2317.00000
15.75797 2264.47054 2319.00000
15.76821 2262.74542 2236.00000
15.77845 2261.12933 2292.00000
15.78869 2259.59804 2262.00000
15.79893 2258.13324 2351.00000
15.80918 2256.72301 2320.00000
15.81942 2255.36418 2327.00000
15.82966 2254.05626 2283.00000
15.83990 2252.78734 2306.00000
15.85014 2251.54808 2215.00000
15.86038 2250.33331 2375.00000
15.87063 2249.13966 2244.00000
15.88087 2247.96438 2294.00000
15.89111 2246.80519 2277.00000
15.90135 2245.66012 2254.00000
15.91159 2244.52748 2342.00000
15.92183 2243.40576 2255.00000
15.93207 2242.29352 2312.00000
15.94232 2241.18929 2146.00000
15.95256 2240.09130 2174.00000
15.96280 2238.99732 2401.00000
15.97304 2237.90531 2272.00000
15.98328 2236.81570 2252.00000
15.99352 2235.73506 2301.00000
16.00376 2234.67060 2177.00000
16.01401 2233.61570 2163.00000
16.02425 2232.56466 2277.00000
16.03449 2231.51460 2298.00000
16.04473 2230.46390 2263.00000
16.05497 2229.41338 2301.00000
16.06521 2228.36994 2298.00000
16.07545 2227.34121 2279.00000
16.08570 2226.32146 2342.00000
16.09594 2225.30625 2269.00000
16.10618 2224.29448 2344.00000
16.11642 2223.28619 2297.00000
16.12666 2222.28161 2278.00000
16.13690 2221.28115 2324.00000
16.14714 2220.28550 2405.00000
16.15739 2219.29584 2407.00000
16.16763 2218.31417 2365.00000
16.17787 2217.34436 2425.00000
16.18811 2216.39417 2403.00000
16.19835 2215.47564 2419.00000
16.20859 2214.59589 2369.00000
16.21884 2213.72844 2433.00000
16.22908 2212.80926 2403.00000
16.23932 2211.85044 2403.00000
16.24956 2210.88168 2338.00000
16.25980 2209.91307 2304.00000
16.27004 2208.94547 2268.00000
16.28028 2207.97795 2266.00000
16.29053 2207.00898 2274.00000
16.30077 2206.03709 2311.00000
16.31101 2205.06332 2230.00000
16.32125 2204.09500 2270.00000
16.33149 2203.14030 2203.00000
16.34173 2202.19356 2218.00000
16.35197 2201.25026 2232.00000
16.36222 2200.30923 2209.00000
16.37246 2199.37040 2205.00000
16.38270 2198.43378 2148.00000
16.39294 2197.49939 2227.00000
16.40318 2196.56721 2176.00000
16.41342 2195.63727 2164.00000
16.42366 2194.70958 2201.00000
16.43391 2193.78415 2152.00000
16.44415 2192.86099 2112.00000
16.45439 2191.94011 2247.00000
16.46463 2191.02154 2215.00000
16.47487 2190.10528 2196.00000
16.48511 2189.19135 2206.00000
16.49535 2188.27977 2163.00000
16.50560 2187.37057 2149.00000
16.51584 2186.46382 2261.00000
16.52608 2185.55956 2170.00000
16.53632 2184.65790 2151.00000
16.54656 2183.75896 2107.00000
16.55680 2182.86292 2204.00000
16.56705 2181.97003 2188.00000
16.57729 2181.08058 2245.00000
16.58753 2180.19489 2281.00000
16.59777 2179.31352 2167.00000
16.60801 2178.43899 2148.00000
16.61825 2177.58028 2168.00000
16.62849 2176.75721 2214.00000
16.63874 2175.98545 2259.00000
16.64898 2175.23290 2245.00000
16.65922 2174.43325 2237.00000
16.66946 2173.59686 2153.00000
16.67970 2172.75280 2101.00000
16.68994 2171.91136 2133.00000
16.70018 2171.07408 2258.00000
16.71043 2170.24117 2262.00000
16.72067 2169.41282 2207.00000
16.73091 2168.58922 2267.00000
16.74115 2167.77058 2234.00000
16.75139 2166.95713 2292.00000
16.76163 2166.14913 2258.00000
16.77187 2165.34686 2256.00000
16.78212 2164.55064 2136.00000
16.79236 2163.76084 2191.00000
16.80260 2162.97792 2209.00000
16.81284 2162.20241 2269.00000
16.82308 2161.43500 2239.00000
16.83332 2160.67652 2160.00000
16.84356 2159.92810 2200.00000
16.85381 2159.19122 2139.00000
16.86405 2158.46793 2219.00000
16.87429 2157.76120 2162.00000
16.88453 2157.07549 2142.00000
16.89477 2156.41826 2134.00000
16.90501 2155.80309 2158.00000
16.91526 2155.25247 2218.00000
16.92550 2154.78960 2157.00000
16.93574 2154.40157 2162.00000
16.94598 2154.00694 2207.00000
16.95622 2153.56341 2084.00000
16.96646 2153.12485 2149.00000
16.97670 2152.74124 2157.00000
16.98695 2152.40407 2182.00000
16.99719 2152.05808 2263.00000
17.00743 2151.71716 2250.00000
17.01767 2151.41368 2164.00000
17.02791 2151.16345 2133.00000
17.03815 2150.97502 2255.00000
17.04839 2150.85708 2118.00000
17.05864 2150.81985 2260.00000
17.06888 2150.87563 2151.00000
17.07912 2151.03929 2163.00000
17.08936 2151.32899 2204.00000
17.09960 2151.76716 2169.00000
17.10984 2152.38182 2203.00000
17.12008 2153.20844 2175.00000
17.13033 2154.29243 2166.00000
17.14057 2155.69273 2169.00000
17.15081 2157.48680 2184.00000
17.16105 2159.77848 2155.00000
17.17129 2162.71123 2194.00000
17.18153 2166.49142 2127.00000
17.19177 2171.42769 2172.00000
17.20202 2177.98776 2225.00000
17.21226 2186.86441 2273.00000
17.22250 2199.04682 2277.00000
17.23274 2215.90863 2251.00000
17.24298 2239.32928 2312.00000
17.25322 2271.84563 2342.00000
17.26347 2316.81631 2396.00000
17.27371 2378.65302 2473.00000
17.28395 2463.43514 2583.00000
17.29419 2580.63760 2790.00000
17.30443 2746.60325 2866.00000
17.31467 2989.00910 3099.00000
17.32491 3348.87580 3440.00000
17.33516 3866.99828 3735.00000
17.34540 4521.76766 4322.00000
17.35564 5111.35927 4630.00000
17.36588 5239.31230 5032.00000
17.37612 4757.76849 4930.00000
17.38636 4219.88365 4541.00000
17.39660 3961.20719 4136.00000
17.40685 3776.85204 3760.00000
17.41709 3395.27079 3482.00000
17.42733 2924.57598 3133.00000
17.43757 2582.50898 2770.00000
17.44781 2397.05879 2457.00000
17.45805 2302.27977 2333.00000
17.46829 2249.19668 2291.00000
17.47854 2215.87964 2206.00000
17.48878 2193.12675 2242.00000
17.49902 2176.64054 2170.00000
17.50926 2164.16181 2175.00000
17.51950 2154.39077 2203.00000
17.52974 2146.52759 2167.00000
17.53998 2140.05381 2121.00000
17.55023 2134.61914 2137.00000
17.56047 2129.97854 2106.00000
17.57071 2125.95521 2189.00000
17.58095 2122.41730 2117.00000
17.59119 2119.26192 2148.00000
17.60143 2116.40567 2100.00000
17.61168 2113.78687 2148.00000
17.62192 2111.38659 2221.00000
17.63216 2109.22699 2107.00000
17.64240 2107.26492 2211.00000
17.65264 2105.44700 2131.00000
17.66288 2103.74389 2126.00000
17.67312 2102.13864 2140.00000
17.68337 2100.61825 2090.00000
17.69361 2099.17181 2075.00000
17.70385 2097.79011 2069.00000
17.71409 2096.46526 2116.00000
17.72433 2095.19039 2074.00000
17.73457 2093.95946 2136.00000
17.74481 2092.76693 2097.00000
17.75506 2091.60753 2170.00000
17.76530 2090.47580 2171.00000
17.77554 2089.36508 2142.00000
17.78578 2088.26564 2080.00000
17.79602 2087.16440 2111.00000
17.80626 2086.05368 2125.00000
17.81650 2084.95766 2177.00000
17.82675 2083.93431 2032.00000
17.83699 2082.96699 2104.00000
17.84723 2082.02180 2042.00000
17.85747 2081.08353 2105.00000
17.86771 2080.14310 2125.00000
17.87795 2079.18934 2092.00000
17.88819 2078.21626 2032.00000
17.89844 2077.24873 2093.00000
17.90868 2076.34462 2150.00000
17.91892 2075.48990 2065.00000
17.92916 2074.65424 2006.00000
17.93940 2073.82678 2057.00000
17.94964 2073.00575 2099.00000
17.95989 2072.19073 2105.00000
17.97013 2071.38138 2095.00000
17.98037 2070.57740 2197.00000
17.99061 2069.77853 2046.00000
18.00085 2068.98450 2105.00000
18.01109 2068.19509 2089.00000
18.02133 2067.41006 2137.00000
18.03158 2066.62921 2081.00000
18.04182 2065.85232 2030.00000
18.05206 2065.07918 2013.00000
18.06230 2064.30953 2054.00000
18.07254 2063.54311 2091.00000
18.08278 2062.77960 2128.00000
18.09302 2062.01859 2046.00000
18.10327 2061.25952 2080.00000
18.11351 2060.50161 2094.00000
18.12375 2059.74366 2041.00000
18.13399 2058.98373 2084.00000
18.14423 2058.21826 2023.00000
18.15447 2057.44014 2046.00000
18.16471 2056.63850 2099.00000
18.17496 2055.80752 2073.00000
18.18520 2054.97322 2021.00000
18.19544 2054.19618 2074.00000
18.20568 2053.46349 2077.00000
18.21592 2052.74483 2017.00000
18.22616 2052.02952 2036.00000
18.23640 2051.31609 2036.00000
18.24665 2050.60444 2073.00000
18.25689 2049.89454 2050.00000
18.26713 2049.18637 2066.00000
18.27737 2048.47990 2114.00000
18.28761 2047.77509 2070.00000
18.29785 2047.07193 2014.00000
18.30810 2046.37040 2084.00000
18.31834 2045.67046 2027.00000
18.32858 2044.97211 2087.00000
18.33882 2044.27531 2007.00000
18.34906 2043.58005 2028.00000
18.35930 2042.88631 2051.00000
18.36954 2042.19404 1929.00000
18.37979 2041.50321 2040.00000
18.39003 2040.81373 2013.00000
18.40027 2040.12551 2058.00000
18.41051 2039.43842 1982.00000
18.42075 2038.75223 2073.00000
18.43099 2038.06663 2030.00000
18.44123 2037.38116 2062.00000
18.45148 2036.69510 2039.00000
18.46172 2036.00729 2022.00000
18.47196 2035.31580 2013.00000
18.48220 2034.61696 2014.00000
18.49244 2033.90347 1991.00000
18.50268 2033.16413 1967.00000
18.51292 2032.39322 1909.00000
18.52317 2031.61790 2043.00000
18.53341 2030.90095 2035.00000
18.54365 2030.22320 1984.00000
18.55389 2029.55884 2041.00000
18.56413 2028.89894 2025.00000
18.57437 2028.24082 2038.00000
18.58461 2027.58385 2059.00000
18.59486 2026.92798 2080.00000
18.60510 2026.27319 2028.00000
18.61534 2025.61948 1952.00000
18.62558 2024.96687 1920.00000
18.63582 2024.31533 2069.00000
18.64606 2023.66487 2037.00000
18.65631 2023.01549 1942.00000
18.66655 2022.36719 2040.00000
18.67679 2021.71996 1969.00000
18.68703 2021.07380 1995.00000
18.69727 2020.42871 1982.00000
18.70751 2019.78469 1994.00000
18.71775 2019.14174 2027.00000
18.72800 2018.49985 2014.00000
18.73824 2017.85902 2026.00000
18.74848 2017.21925 1936.00000
18.75872 2016.58054 1972.00000
18.76896 2015.94289 2014.00000
18.77920 2015.30629 2004.00000
18.78944 2014.67075 1904.00000
18.79969 2014.03625 2040.00000
18.80993 2013.40281 1965.00000
18.82017 2012.77041 1955.00000
18.83041 2012.13905 2013.00000
18.84065 2011.50874 2056.00000
18.85089 2010.87947 1979.00000
18.86113 2010.25124 2029.00000
18.87138 2009.62405 2022.00000
18.88162 2008.99789 1988.00000
18.89186 2008.37277 2036.00000
18.90210 2007.74868 1946.00000
18.91234 2007.12561 1992.00000
18.92258 2006.50358 1958.00000
18.93283 2005.88257 2020.00000
18.94307 2005.26259 1989.00000
18.95331 2004.64363 1886.00000
18.96355 2004.02569 1996.00000
18.97379 2003.40877 2009.00000
18.98403 2002.79287 2042.00000
18.99427 2002.17798 2093.00000
19.00452 2001.56410 1957.00000
19.01476 2000.95124 1955.00000
19.02500 2000.33939 1962.00000
19.03524 1999.72854 1976.00000
19.04548 1999.11870 2042.00000
19.05572 1998.50987 2017.00000
19.06596 1997.90204 2031.00000
19.07621 1997.29521 2007.00000
19.08645 1996.68937 2020.00000
19.09669 1996.08454 1947.00000
19.10693 1995.48070 1995.00000
19.11717 1994.87785 1978.00000
19.12741 1994.27600 1966.00000
19.13765 1993.67514 1973.00000
19.14790 1993.07526 1946.00000
19.15814 1992.47637 1988.00000
19.16838 1991.87847 2022.00000
19.17862 1991.28155 1874.00000
19.18886 1990.68561 2057.00000
19.19910 1990.09065 1960.00000
19.20934 1989.49666 1973.00000
19.21959 1988.90366 2015.00000
19.22983 1988.31162 2064.00000
19.24007 1987.72056 1941.00000
19.25031 1987.13048 1951.00000
19.26055 1986.54136 2014.00000
19.27079 1985.95320 1960.00000
19.28104 1985.36602 2018.00000
19.29128 1984.77979 1928.00000
19.30152 1984.19453 1895.00000
19.31176 1983.61023 1980.00000
19.32200 1983.02689 1888.00000
19.33224 1982.44451 1970.00000
19.34248 1981.86308 2022.00000
19.35273 1981.28260 1928.00000
19.36297 1980.70308 1995.00000
19.37321 1980.12451 1990.00000
19.38345 1979.54689 1944.00000
19.39369 1978.97021 2012.00000
19.40393 1978.39448 1940.00000
19.41417 1977.81969 1964.00000
19.42442 1977.24584 2013.00000
19.43466 1976.67294 1957.00000
19.44490 1976.10097 1930.00000
19.45514 1975.52994 1963.00000
19.46538 1974.95985 1985.00000
19.47562 1974.39068 1982.00000
19.48586 1973.82246 2003.00000
19.49611 1973.25516 1967.00000
19.50635 1972.68879 1972.00000
19.51659 1972.12334 1923.00000
19.52683 1971.55883 1882.00000
19.53707 1970.99523 1888.00000
19.54731 1970.43256 1999.00000
19.55755 1969.87081 1969.00000
19.56780 1969.30998 1927.00000
19.57804 1968.75007 1810.00000
19.58828 1968.19107 1894.00000
19.59852 1967.63298 1881.00000
19.60876 1967.07581 1962.00000
19.61900 1966.51955 1944.00000
19.62925 1965.96420 1914.00000
19.63949 1965.40975 1979.00000
19.64973 1964.85622 1903.00000
19.65997 1964.30358 2001.00000
19.67021 1963.75185 1901.00000
19.68045 1963.20102 1913.00000
19.69069 1962.65109 1948.00000
19.70094 1962.10206 1946.00000
19.71118 1961.55393 1972.00000
19.72142 1961.00669 1963.00000
19.73166 1960.46034 1946.00000
19.74190 1959.91489 1995.00000
19.75214 1959.37032 1978.00000
19.76238 1958.82665 1819.00000
19.77263 1958.28386 1941.00000
19.78287 1957.74196 1955.00000
19.79311 1957.20094 1974.00000
19.80335 1956.66081 1957.00000
19.81359 1956.12155 1931.00000
19.82383 1955.58318 1961.00000
19.83407 1955.04568 1969.00000
19.84432 1954.50906 1939.00000
19.85456 1953.97332 1939.00000
19.86480 1953.43845 1923.00000
19.87504 1952.90445 1933.00000
19.88528 1952.37132 1896.00000
19.89552 1951.83906 1957.00000
19.90576 1951.30766 1865.00000
19.91601 1950.77714 1895.00000
19.92625 1950.24747 1973.00000
19.93649 1949.71868 1910.00000
19.94673 1949.19074 1907.00000
19.95697 1948.66366 1989.00000
19.96721 1948.13744 1931.00000
19.97746 1947.61207 1949.00000
19.98770 1947.08757 1946.00000
19.99794 1946.56391 1962.00000
20.00818 1946.04111 1946.00000
20.01842 1945.51916 1884.00000
20.02866 1944.99806 1909.00000
20.03890 1944.47780 1924.00000
20.04915 1943.95840 1987.00000
20.05939 1943.43984 2011.00000
20.06963 1942.92212 1952.00000
20.07987 1942.40524 1887.00000
20.09011 1941.88921 1947.00000
20.10035 1941.37401 1909.00000
20.11059 1940.85965 1863.00000
20.12084 1940.34613 1971.00000
20.13108 1939.83344 1823.00000
20.14132 1939.32159 1880.00000
20.15156 1938.81057 1922.00000
20.16180 1938.30038 1953.00000
20.17204 1937.79102 1947.00000
20.18228 1937.28248 1836.00000
20.19253 1936.77477 1984.00000
20.20277 1936.26789 1794.00000
20.21301 1935.76183 1879.00000
20.22325 1935.25659 1849.00000
20.23349 1934.75218 1916.00000
20.24373 1934.24858 1907.00000
20.25397 1933.74580 1934.00000
20.26422 1933.24384 1916.00000
20.27446 1932.74269 1886.00000
20.28470 1932.24235 1837.00000
20.29494 1931.74283 1947.00000
20.30518 1931.24412 1934.00000
20.31542 1930.74622 1883.00000
20.32567 1930.24912 1844.00000
20.33591 1929.75283 1917.00000
20.34615 1929.25735 1938.00000
20.35639 1928.76267 1906.00000
20.36663 1928.26880 1935.00000
20.37687 1927.77572 1928.00000
20.38711 1927.28345 1983.00000
20.39736 1926.79197 1856.00000
20.40760 1926.30129 1922.00000
20.41784 1925.81141 1913.00000
20.42808 1925.32232 1866.00000
20.43832 1924.83404 1905.00000
20.44856 1924.34660 1892.00000
20.45880 1923.86002 1928.00000
20.46905 1923.37440 1921.00000
20.47929 1922.88986 1884.00000
20.48953 1922.40664 1938.00000
20.49977 1921.92514 1889.00000
20.51001 1921.44609 1861.00000
20.52025 1920.97098 1902.00000
20.53049 1920.50306 1886.00000
20.54074 1920.04817 1928.00000
20.55098 1919.60893 1874.00000
20.56122 1919.16936 1958.00000
20.57146 1918.70512 1802.00000
20.58170 1918.23103 1881.00000
20.59194 1917.75669 1879.00000
20.60218 1917.28315 1872.00000
20.61243 1916.81042 1867.00000
20.62267 1916.33851 1854.00000
20.63291 1915.86743 1917.00000
20.64315 1915.39716 1822.00000
20.65339 1914.92772 1921.00000
20.66363 1914.45910 1844.00000
20.67388 1913.99130 1855.00000
20.68412 1913.52432 1806.00000
20.69436 1913.05817 1824.00000
20.70460 1912.59284 1831.00000
20.71484 1912.12834 1863.00000
20.72508 1911.66466 1962.00000
20.73532 1911.20181 1799.00000
20.74557 1910.73978 1961.00000
20.75581 1910.27859 1870.00000
20.76605 1909.81822 1857.00000
20.77629 1909.35869 1871.00000
20.78653 1908.89999 1830.00000
20.79677 1908.44213 1898.00000
20.80701 1907.98510 1901.00000
20.81726 1907.52891 1795.00000
20.82750 1907.07356 1825.00000
20.83774 1906.61906 1812.00000
20.84798 1906.16540 1857.00000
20.85822 1905.71258 1878.00000
20.86846 1905.26062 1907.00000
20.87870 1904.80951 1807.00000
20.88895 1904.35926 1904.00000
20.89919 1903.90986 1910.00000
20.90943 1903.46133 1862.00000
20.91967 1903.01367 1866.00000
20.92991 1902.56688 1843.00000
20.94015 1902.12096 1916.00000
20.95039 1901.67592 1899.00000
20.96064 1901.23176 1881.00000
20.97088 1900.78850 1942.00000
20.98112 1900.34615 1847.00000
20.99136 1899.90474 1863.00000
21.00160 1899.46431 1839.00000
21.01184 1899.02496 1832.00000
21.02209 1898.58682 1843.00000
21.03233 1898.15014 1899.00000
21.04257 1897.71531 1874.00000
21.05281 1897.28309 1795.00000
21.06305 1896.85495 1805.00000
21.07329 1896.43414 1785.00000
21.08353 1896.02646 1835.00000
21.09378 1895.63455 1847.00000
21.10402 1895.24283 1840.00000
21.11426 1894.82741 1818.00000
21.12450 1894.40271 1846.00000
21.13474 1893.97812 1866.00000
21.14498 1893.55465 1840.00000
21.15522 1893.13237 1845.00000
21.16547 1892.71128 1911.00000
21.17571 1892.29143 1791.00000
21.18595 1891.87282 1816.00000
21.19619 1891.45550 1859.00000
21.20643 1891.03948 1874.00000
21.21667 1890.62479 1823.00000
21.22691 1890.21148 1844.00000
21.23716 1889.79956 1901.00000
21.24740 1889.38909 1751.00000
21.25764 1888.98010 1872.00000
21.26788 1888.57263 1969.00000
21.27812 1888.16672 1888.00000
21.28836 1887.76244 1801.00000
21.29860 1887.35982 1882.00000
21.30885 1886.95893 1860.00000
21.31909 1886.55982 1883.00000
21.32933 1886.16257 1787.00000
21.33957 1885.76726 1903.00000
21.34981 1885.37399 1849.00000
21.36005 1884.98289 1831.00000
21.37030 1884.59416 1805.00000
21.38054 1884.20807 1885.00000
21.39078 1883.82504 1737.00000
21.40102 1883.44572 1854.00000
21.41126 1883.07122 1843.00000
21.42150 1882.70356 1826.00000
21.43174 1882.34691 1864.00000
21.44199 1882.00876 1780.00000
21.45223 1881.69552 1838.00000
21.46247 1881.39854 1832.00000
21.47271 1881.09800 1832.00000
21.48295 1880.79314 1889.00000
21.49319 1880.47076 1899.00000
21.50343 1880.14959 1802.00000
21.51368 1879.84518 1795.00000
21.52392 1879.56192 1748.00000
21.53416 1879.28556 1825.00000
21.54440 1878.99339 1844.00000
21.55464 1878.69944 1833.00000
21.56488 1878.41325 1796.00000
21.57512 1878.13658 1810.00000
21.58537 1877.87033 1863.00000
21.59561 1877.61552 1903.00000
21.60585 1877.37327 1829.00000
21.61609 1877.14488 1775.00000
21.62633 1876.93183 1882.00000
21.63657 1876.73581 1728.00000
21.64681 1876.55876 1830.00000
21.65706 1876.40294 1847.00000
21.66730 1876.27097 1821.00000
21.67754 1876.16590 1759.00000
21.68778 1876.09132 1784.00000
21.69802 1876.05146 1853.00000
21.70826 1876.05138 1782.00000
21.71851 1876.09711 1869.00000
21.72875 1876.19595 1869.00000
21.73899 1876.35679 1824.00000
21.74923 1876.59057 1839.00000
21.75947 1876.91089 1823.00000
21.76971 1877.33484 1797.00000
21.77995 1877.88418 1883.00000
21.79020 1878.58685 1919.00000
21.80044 1879.47909 1892.00000
21.81068 1880.60827 1862.00000
21.82092 1882.03672 1852.00000
21.83116 1883.84695 1839.00000
21.84140 1886.14914 1813.00000
21.85164 1889.09180 1813.00000
21.86189 1892.87765 1829.00000
21.87213 1897.78655 1874.00000
21.88237 1904.20369 1850.00000
21.89261 1912.64617 1882.00000
21.90285 1923.79912 1907.00000
21.91309 1938.64469 1875.00000
21.92333 1958.84082 1942.00000
21.93358 1987.42256 1945.00000
21.94382 2029.63688 1973.00000
21.95406 2093.72191 2056.00000
21.96430 2191.79517 2157.00000
21.97454 2339.95479 2205.00000
21.98478 2550.71475 2385.00000
21.99502 2801.79739 2506.00000
22.00527 2987.97430 2593.00000
22.01551 2959.37919 2774.00000
22.02575 2730.28716 2652.00000
22.03599 2531.69319 2520.00000
22.04623 2470.67178 2446.00000
22.05647 2484.52686 2257.00000
22.06672 2459.91521 2291.00000
22.07696 2333.48562 2320.00000
22.08720 2166.90924 2180.00000
22.09744 2046.14194 2013.00000
22.10768 1978.60909 1933.00000
22.11792 1941.43932 1843.00000
22.12816 1919.19749 1861.00000
22.13841 1904.68315 1898.00000
22.14865 1894.55136 1912.00000
22.15889 1887.10916 1861.00000
22.16913 1881.42238 1903.00000
22.17937 1876.93773 1782.00000
22.18961 1873.30833 1776.00000
22.19985 1870.30652 1845.00000
22.21010 1867.77720 1793.00000
22.22034 1865.61132 1820.00000
22.23058 1863.73015 1749.00000
22.24082 1862.07557 1865.00000
22.25106 1860.60376 1840.00000
22.26130 1859.28115 1890.00000
22.27154 1858.08150 1815.00000
22.28179 1856.98400 1803.00000
22.29203 1855.97170 1814.00000
22.30227 1855.03019 1717.00000
22.31251 1854.14601 1782.00000
22.32275 1853.30553 1794.00000
22.33299 1852.49982 1858.00000
22.34323 1851.73782 1804.00000
22.35348 1851.03575 1791.00000
22.36372 1850.37465 1675.00000
22.37396 1849.74175 1828.00000
22.38420 1849.13300 1830.00000
22.39444 1848.54571 1856.00000
22.40468 1847.97760 1726.00000
22.41493 1847.42669 1738.00000
22.42517 1846.89125 1788.00000
22.43541 1846.36978 1880.00000
22.44565 1845.86097 1821.00000
22.45589 1845.36366 1808.00000
22.46613 1844.87680 1796.00000
22.47637 1844.39947 1835.00000
22.48662 1843.93084 1859.00000
22.49686 1843.47010 1838.00000
22.50710 1843.01651 1772.00000
22.51734 1842.56928 1783.00000
22.52758 1842.12755 1736.00000
22.53782 1841.69020 1793.00000
22.54806 1841.25550 1753.00000
22.55831 1840.82012 1865.00000
22.56855 1840.37853 1849.00000
22.57879 1839.92855 1841.00000
22.58903 1839.48545 1792.00000
22.59927 1839.07137 1796.00000
22.60951 1838.67075 1876.00000
22.61975 1838.27357 1787.00000
22.63000 1837.87796 1766.00000
22.64024 1837.48239 1796.00000
22.65048 1837.08375 1836.00000
22.66072 1836.67666 1765.00000
22.67096 1836.25910 1714.00000
22.68120 1835.84673 1773.00000
22.69145 1835.46218 1738.00000
22.70169 1835.09015 1808.00000
22.71193 1834.72100 1783.00000
22.72217 1834.35365 1775.00000
22.73241 1833.98798 1804.00000
22.74265 1833.62393 1758.00000
22.75289 1833.26145 1757.00000
22.76314 1832.90047 1760.00000
22.77338 1832.54095 1763.00000
22.78362 1832.18282 1724.00000
22.79386 1831.82606 1803.00000
22.80410 1831.47060 1797.00000
22.81434 1831.11642 1782.00000
22.82458 1830.76348 1744.00000
22.83483 1830.41173 1701.00000
22.84507 1830.06114 1776.00000
22.85531 1829.71169 1791.00000
22.86555 1829.36335 1728.00000
22.87579 1829.01608 1780.00000
22.88603 1828.66985 1790.00000
22.89627 1828.32466 1699.00000
22.90652 1827.98046 1779.00000
22.91676 1827.63723 1743.00000
22.92700 1827.29496 1754.00000
22.93724 1826.95358 1778.00000
22.94748 1826.61304 1769.00000
22.95772 1826.27325 1831.00000
22.96796 1825.93407 1811.00000
22.97821 1825.59527 1733.00000
22.98845 1825.25646 1795.00000
22.99869 1824.91694 1722.00000
23.00893 1824.57534 1759.00000
23.01917 1824.22860 1766.00000
23.02941 1823.87131 1821.00000
23.03966 1823.50146 1763.00000
23.04990 1823.13487 1774.00000
23.06014 1822.79463 1712.00000
23.07038 1822.46566 1794.00000
23.08062 1822.13839 1780.00000
23.09086 1821.81182 1789.00000
23.10110 1821.48590 1818.00000
23.11135 1821.16063 1759.00000
23.12159 1820.83600 1723.00000
23.13183 1820.51200 1746.00000
23.14207 1820.18864 1810.00000
23.15231 1819.86590 1800.00000
23.16255 1819.54379 1898.00000
23.17279 1819.22229 1778.00000
23.18304 1818.90140 1827.00000
23.19328 1818.58112 1806.00000
23.20352 1818.26144 1802.00000
23.21376 1817.94237 1799.00000
23.22400 1817.62389 1699.00000
23.23424 1817.30600 1780.00000
23.24448 1816.98870 1743.00000
23.25473 1816.67198 1849.00000
23.26497 1816.35585 1782.00000
23.27521 1816.04030 1730.00000
23.28545 1815.72532 1765.00000
23.29569 1815.41091 1840.00000
23.30593 1815.09707 1702.00000
23.31617 1814.78380 1817.00000
23.32642 1814.47109 1731.00000
23.33666 1814.15894 1807.00000
23.34690 1813.84734 1777.00000
23.35714 1813.53628 1758.00000
23.36738 1813.22574 1757.00000
23.37762 1812.91567 1813.00000
23.38787 1812.60599 1739.00000
23.39811 1812.29657 1750.00000
23.40835 1811.98718 1774.00000
23.41859 1811.67744 1778.00000
23.42883 1811.36664 1750.00000
23.43907 1811.05336 1775.00000
23.44931 1810.73445 1745.00000
23.45956 1810.40435 1737.00000
23.46980 1810.06117 1785.00000
23.48004 1809.72153 1710.00000
23.49028 1809.40850 1804.00000
23.50052 1809.10418 1795.00000
23.51076 1808.80233 1763.00000
23.52100 1808.50163 1753.00000
23.53125 1808.20145 1853.00000
23.54149 1807.90175 1712.00000
23.55173 1807.60254 1736.00000
23.56197 1807.30380 1697.00000
23.57221 1807.00555 1826.00000
23.58245 1806.70777 1783.00000
23.59269 1806.41048 1797.00000
23.60294 1806.11366 1742.00000
23.61318 1805.81732 1842.00000
23.62342 1805.52146 1732.00000
23.63366 1805.22607 1783.00000
23.64390 1804.93116 1732.00000
23.65414 1804.63672 1829.00000
23.66438 1804.34275 1810.00000
23.67463 1804.04926 1816.00000
23.68487 1803.75624 1777.00000
23.69511 1803.46370 1760.00000
23.70535 1803.17162 1745.00000
23.71559 1802.88001 1780.00000
23.72583 1802.58887 1801.00000
23.73608 1802.29821 1726.00000
23.74632 1802.00800 1766.00000
23.75656 1801.71827 1744.00000
23.76680 1801.42900 1737.00000
23.77704 1801.14020 1744.00000
23.78728 1800.85186 1699.00000
23.79752 1800.56399 1753.00000
23.80777 1800.27658 1691.00000
23.81801 1799.98963 1748.00000
23.82825 1799.70315 1754.00000
23.83849 1799.41712 1721.00000
23.84873 1799.13156 1827.00000
23.85897 1798.84646 1739.00000
23.86921 1798.56181 1773.00000
23.87946 1798.27763 1757.00000
23.88970 1797.99390 1724.00000
23.89994 1797.71063 1755.00000
23.91018 1797.42781 1746.00000
23.92042 1797.14545 1803.00000
23.93066 1796.86355 1688.00000
23.94090 1796.58210 1724.00000
23.95115 1796.30110 1713.00000
23.96139 1796.02055 1730.00000
23.97163 1795.74046 1781.00000
23.98187 1795.46082 1742.00000
23.99211 1795.18163 1720.00000
24.00235 1794.90289 1756.00000
24.01259 1794.62460 1794.00000
24.02284 1794.34675 1848.00000
24.03308 1794.06936 1814.00000
24.04332 1793.79241 1789.00000
24.05356 1793.51591 1801.00000
24.06380 1793.23985 1711.00000
24.07404 1792.96424 1725.00000
24.08429 1792.68907 1797.00000
24.09453 1792.41435 1702.00000
24.10477 1792.14006 1792.00000
24.11501 1791.86623 1704.00000
24.12525 1791.59283 1730.00000
24.13549 1791.31987 1768.00000
24.14573 1791.04736 1698.00000
24.15598 1790.77528 1700.00000
24.16622 1790.50364 1763.00000
24.17646 1790.23244 1687.00000
24.18670 1789.96168 1741.00000
24.19694 1789.69135 1772.00000
24.20718 1789.42146 1707.00000
24.21742 1789.15201 1751.00000
24.22767 1788.88299 1749.00000
24.23791 1788.61440 1652.00000
24.24815 1788.34625 1737.00000
24.25839 1788.07853 1795.00000
24.26863 1787.81124 1759.00000
24.27887 1787.54438 1782.00000
24.28911 1787.27796 1779.00000
24.29936 1787.01196 1721.00000
24.30960 1786.74640 1705.00000
24.31984 1786.48126 1755.00000
24.33008 1786.21655 1787.00000
24.34032 1785.95227 1751.00000
24.35056 1785.68841 1778.00000
24.36080 1785.42498 1695.00000
24.37105 1785.16198 1716.00000
24.38129 1784.89940 1850.00000
24.39153 1784.63724 1742.00000
24.40177 1784.37551 1804.00000
24.41201 1784.11420 1907.00000
24.42225 1783.85331 1950.00000
24.43250 1783.59284 1941.00000
24.44274 1783.33280 1954.00000
24.45298 1783.07317 1905.00000
24.46322 1782.81397 1939.00000
24.47346 1782.55518 1857.00000
24.48370 1782.29681 1835.00000
24.49394 1782.03886 1833.00000
24.50419 1781.78133 1806.00000
24.51443 1781.52421 1769.00000
24.52467 1781.26750 1787.00000
24.53491 1781.01122 1811.00000
24.54515 1780.75534 1751.00000
24.55539 1780.49988 1708.00000
24.56563 1780.24484 1727.00000
24.57588 1779.99020 1705.00000
24.58612 1779.73598 1749.00000
24.59636 1779.48217 1685.00000
24.60660 1779.22877 1685.00000
24.61684 1778.97577 1707.00000
24.62708 1778.72319 1724.00000
24.63732 1778.47102 1736.00000
24.64757 1778.21925 1704.00000
24.65781 1777.96790 1672.00000
24.66805 1777.71694 1725.00000
24.67829 1777.46640 1704.00000
24.68853 1777.21626 1743.00000
24.69877 1776.96652 1640.00000
24.70901 1776.71719 1711.00000
24.71926 1776.46826 1739.00000
24.72950 1776.21974 1715.00000
24.73974 1775.97162 1773.00000
24.74998 1775.72390 1783.00000
24.76022 1775.47658 1667.00000
24.77046 1775.22966 1717.00000
24.78071 1774.98314 1723.00000
24.79095 1774.73702 1751.00000
24.80119 1774.49130 1714.00000
24.81143 1774.24598 1781.00000
24.82167 1774.00105 1773.00000
24.83191 1773.75652 1692.00000
24.84215 1773.51239 1777.00000
24.85240 1773.26865 1757.00000
24.86264 1773.02531 1737.00000
24.87288 1772.78236 1744.00000
24.88312 1772.53981 1661.00000
24.89336 1772.29765 1672.00000
24.90360 1772.05588 1726.00000
24.91384 1771.81450 1779.00000
24.92409 1771.57352 1702.00000
24.93433 1771.33292 1756.00000
24.94457 1771.09272 1770.00000
24.95481 1770.85290 1776.00000
24.96505 1770.61348 1752.00000
24.97529 1770.37444 1713.00000
24.98553 1770.13579 1749.00000
24.99578 1769.89753 1677.00000
25.00602 1769.65965 1659.00000
25.01626 1769.42216 1682.00000
25.02650 1769.18506 1692.00000
25.03674 1768.94834 1756.00000
25.04698 1768.71200 1729.00000
25.05722 1768.47605 1700.00000
25.06747 1768.24048 1734.00000
25.07771 1768.00529 1673.00000
25.08795 1767.77049 1768.00000
25.09819 1767.53607 1732.00000
25.10843 1767.30202 1737.00000
25.11867 1767.06836 1712.00000
25.12892 1766.83508 1675.00000
25.13916 1766.60217 1715.00000
25.14940 1766.36965 1692.00000
25.15964 1766.13750 1751.00000
25.16988 1765.90573 1785.00000
25.18012 1765.67434 1780.00000
25.19036 1765.44339 1762.00000
25.20061 1765.21324 1765.00000
25.21085 1764.98518 1706.00000
25.22109 1764.76253 1706.00000
25.23133 1764.55230 1765.00000
25.24157 1764.36832 1717.00000
25.25181 1764.23754 1721.00000
25.26205 1764.21440 1735.00000
25.27230 1764.42190 1700.00000
25.28254 1765.16963 1692.00000
25.29278 1766.98573 1712.00000
25.30302 1769.67452 1726.00000
25.31326 1771.42041 1691.00000
25.32350 1771.73221 1740.00000
25.33374 1771.64215 1724.00000
25.34399 1771.52684 1752.00000
25.35423 1771.41355 1714.00000
25.36447 1771.30262 1660.00000
25.37471 1771.19408 1654.00000
25.38495 1771.08798 1727.00000
25.39519 1770.98438 1684.00000
25.40543 1770.88333 1691.00000
25.41568 1770.78488 1754.00000
25.42592 1770.68907 1766.00000
25.43616 1770.59598 1760.00000
25.44640 1770.50566 1740.00000
25.45664 1770.41816 1705.00000
25.46688 1770.33354 1789.00000
25.47713 1770.25188 1738.00000
25.48737 1770.17324 1752.00000
25.49761 1770.09768 1705.00000
25.50785 1770.02527 1690.00000
25.51809 1769.95609 1675.00000
25.52833 1769.89021 1759.00000
25.53857 1769.82771 1773.00000
25.54882 1769.76866 1753.00000
25.55906 1769.71315 1713.00000
25.56930 1769.66127 1751.00000
25.57954 1769.61310 1675.00000
25.58978 1769.56873 1773.00000
25.60002 1769.52825 1680.00000
25.61026 1769.49177 1790.00000
25.62051 1769.45939 1699.00000
25.63075 1769.43120 1663.00000
25.64099 1769.40732 1740.00000
25.65123 1769.38785 1701.00000
25.66147 1769.37292 1719.00000
25.67171 1769.36264 1732.00000
25.68195 1769.35714 1737.00000
25.69220 1769.35654 1653.00000
25.70244 1769.36098 1704.00000
25.71268 1769.37061 1697.00000
25.72292 1769.38555 1706.00000
25.73316 1769.40596 1627.00000
25.74340 1769.43200 1653.00000
25.75364 1769.46382 1672.00000
25.76389 1769.50160 1746.00000
25.77413 1769.54550 1706.00000
25.78437 1769.59571 1738.00000
25.79461 1769.65242 1694.00000
25.80485 1769.71581 1696.00000
25.81509 1769.78609 1792.00000
25.82534 1769.86347 1767.00000
25.83558 1769.94818 1651.00000
25.84582 1770.04043 1752.00000
25.85606 1770.14047 1705.00000
25.86630 1770.24862 1687.00000
25.87654 1770.36546 1692.00000
25.88678 1770.49256 1673.00000
25.89703 1770.63346 1690.00000
25.90727 1770.79540 1687.00000
25.91751 1770.99236 1652.00000
25.92775 1771.25136 1698.00000
25.93799 1771.62665 1694.00000
25.94823 1772.24023 1780.00000
25.95847 1773.39826 1670.00000
25.96872 1775.62545 1646.00000
25.97896 1778.74458 1688.00000
25.98920 1780.97722 1711.00000
25.99944 1781.80830 1779.00000
26.00968 1782.25484 1744.00000
26.01992 1782.69178 1678.00000
26.03016 1783.14691 1702.00000
26.04041 1783.62119 1698.00000
26.05065 1784.11537 1717.00000
26.06089 1784.63019 1786.00000
26.07113 1785.16647 1756.00000
26.08137 1785.72503 1672.00000
26.09161 1786.30676 1685.00000
26.10185 1786.91259 1749.00000
26.11210 1787.54349 1666.00000
26.12234 1788.20048 1840.00000
26.13258 1788.88465 1885.00000
26.14282 1789.59712 1827.00000
26.15306 1790.33909 1827.00000
26.16330 1791.11183 1905.00000
26.17355 1791.91666 1903.00000
26.18379 1792.75499 1891.00000
26.19403 1793.62829 1985.00000
26.20427 1794.53814 1914.00000
26.21451 1795.48618 1890.00000
26.22475 1796.47417 1938.00000
26.23499 1797.50396 1927.00000
26.24524 1798.57751 2023.00000
26.25548 1799.69691 1877.00000
26.26572 1800.86435 1920.00000
26.27596 1802.08219 1906.00000
26.28620 1803.35290 1917.00000
26.29644 1804.67914 1996.00000
26.30668 1806.06373 2004.00000
26.31693 1807.50975 1941.00000
26.32717 1809.02087 1897.00000
26.33741 1810.60228 1924.00000
26.34765 1812.26250 1952.00000
26.35789 1814.01629 1938.00000
26.36813 1815.88991 1944.00000
26.37837 1817.93161 1991.00000
26.38862 1820.23571 1951.00000
26.39886 1822.99840 1979.00000
26.40910 1826.64567 1915.00000
26.41934 1831.96446 1987.00000
26.42958 1839.32599 2002.00000
26.43982 1846.85809 1941.00000
26.45007 1852.31498 2035.00000
26.46031 1856.20014 1951.00000
26.47055 1859.93884 1917.00000
26.48079 1864.05833 2088.00000
26.49103 1868.90256 2042.00000
26.50127 1875.01291 1988.00000
26.51151 1882.26453 2125.00000
26.52176 1888.95996 2012.00000
26.53200 1894.57409 2007.00000
26.54224 1900.09601 2044.00000
26.55248 1905.90948 2093.00000
26.56272 1912.06510 1990.00000
26.57296 1918.58990 2009.00000
26.58320 1925.51331 2106.00000
26.59345 1932.86777 2109.00000
26.60369 1940.68915 2084.00000
26.61393 1949.01716 2109.00000
26.62417 1957.89587 2058.00000
26.63441 1967.37433 2075.00000
26.64465 1977.50720 2054.00000
26.65489 1988.35565 2090.00000
26.66514 1999.98824 2052.00000
26.67538 2012.48207 2146.00000
26.68562 2025.92413 2057.00000
26.69586 2040.41283 2039.00000
26.70610 2056.05993 2089.00000
26.71634 2072.99283 2198.00000
26.72658 2091.35724 2148.00000
26.73683 2111.32062 2223.00000
26.74707 2133.07617 2216.00000
26.75731 2156.84795 2260.00000
26.76755 2182.89707 2288.00000
26.77779 2211.52953 2302.00000
26.78803 2243.10605 2395.00000
26.79828 2278.05468 2479.00000
26.80852 2316.88681 2412.00000
26.81876 2360.21813 2464.00000
26.82900 2408.79589 2546.00000
26.83924 2463.53500 2578.00000
26.84948 2525.56599 2822.00000
26.85972 2596.29888 2882.00000
26.86997 2677.50819 2915.00000
26.88021 2771.44422 2971.00000
26.89045 2880.97494 3048.00000
26.90069 3009.75826 3195.00000
26.91093 3162.43552 3458.00000
26.92117 3344.81832 3494.00000
26.93141 3564.00600 3668.00000
26.94166 3828.31354 3913.00000
26.95190 4146.84069 4382.00000
26.96214 4528.62242 4712.00000
26.97238 4981.98544 5130.00000
26.98262 5516.52273 5554.00000
26.99286 6152.33427 6119.00000
27.00310 6940.18121 6974.00000
27.01335 7988.88417 7917.00000
27.02359 9490.80087 9535.00000
27.03383 11746.12485 11915.00000
27.04407 15203.30231 15433.00000
27.05431 20529.63998 20824.00000
27.06455 28679.73706 28115.00000
27.07479 40748.11595 39252.00000
27.08504 56877.22893 56652.00000
27.09528 73400.51200 74891.00000
27.10552 81288.89135 84473.00000
27.11576 73898.80197 78022.00000
27.12600 57698.52541 59038.00000
27.13624 44848.32065 42188.00000
27.14649 40148.07074 36831.00000
27.15673 41721.93352 38852.00000
27.16697 44928.77149 44013.00000
27.17721 44028.52273 44771.00000
27.18745 36550.87822 37963.00000
27.19769 26247.45900 25627.00000
27.20793 17903.73877 16322.00000
27.21818 12648.51301 11016.00000
27.22842 9532.15182 8175.00000
27.23866 7609.41211 6610.00000
27.24890 6346.29634 5675.00000
27.25914 5468.63403 5218.00000
27.26938 4830.75679 4639.00000
27.27962 4350.36165 4487.00000
27.28987 3978.11686 4045.00000
27.30011 3682.91045 3756.00000
27.31035 3444.26380 3739.00000
27.32059 3248.20410 3443.00000
27.33083 3084.90305 3162.00000
27.34107 2947.26569 3153.00000
27.35131 2830.05427 2924.00000
27.36156 2729.32620 2769.00000
27.37180 2642.06267 2713.00000
27.38204 2565.91719 2665.00000
27.39228 2499.04115 2628.00000
27.40252 2439.96040 2482.00000
27.41276 2387.48599 2397.00000
27.42300 2340.64830 2358.00000
27.43325 2298.64744 2290.00000
27.44349 2260.81437 2376.00000
27.45373 2226.57791 2257.00000
27.46397 2195.43114 2218.00000
27.47421 2166.87931 2213.00000
27.48445 2140.32417 2188.00000
27.49470 2115.02777 2195.00000
27.50494 2090.94417 2031.00000
27.51518 2069.52635 2149.00000
27.52542 2051.06969 2074.00000
27.53566 2034.39137 2032.00000
27.54590 2018.97920 2054.00000
27.55614 2004.69045 2004.00000
27.56639 1991.43101 2031.00000
27.57663 1979.13106 1980.00000
27.58687 1967.71607 2066.00000
27.59711 1957.05473 1919.00000
27.60735 1947.02625 1944.00000
27.61759 1937.59321 1941.00000
27.62783 1928.73781 2018.00000
27.63808 1920.42497 2037.00000
27.64832 1912.62152 2001.00000
27.65856 1905.30424 1947.00000
27.66880 1898.43271 1985.00000
27.67904 1891.92648 1984.00000
27.68928 1885.75225 2032.00000
27.69952 1879.90871 1988.00000
27.70977 1874.38022 1925.00000
27.72001 1869.14517 1904.00000
27.73025 1864.18147 1949.00000
27.74049 1859.46541 1872.00000
27.75073 1854.96871 1912.00000
27.76097 1850.65279 1965.00000
27.77121 1846.45567 1875.00000
27.78146 1842.25496 1921.00000
27.79170 1837.76074 1842.00000
27.80194 1832.48632 1971.00000
27.81218 1826.61318 1919.00000
27.82242 1821.84631 1932.00000
27.83266 1818.69446 1877.00000
27.84291 1816.09810 1879.00000
27.85315 1813.65698 1861.00000
27.86339 1811.32598 1885.00000
27.87363 1809.07668 1922.00000
27.88387 1806.85671 1867.00000
27.89411 1804.55197 1839.00000
27.90435 1801.87831 1909.00000
27.91460 1798.35139 1837.00000
27.92484 1794.16144 1832.00000
27.93508 1791.04310 1857.00000
27.94532 1789.52903 1830.00000
27.95556 1788.56106 1820.00000
27.96580 1787.75117 1779.00000
27.97604 1787.07839 1856.00000
27.98629 1786.55214 1839.00000
27.99653 1786.18467 1835.00000
28.00677 1785.99141 1829.00000
28.01701 1785.99169 1842.00000
28.02725 1786.20983 1827.00000
28.03749 1786.67647 1880.00000
28.04773 1787.43040 1850.00000
28.05798 1788.52092 1881.00000
28.06822 1790.01095 1786.00000
28.07846 1791.98069 1872.00000
28.08870 1794.53190 1956.00000
28.09894 1797.79206 1893.00000
28.10918 1801.91710 1860.00000
28.11942 1807.09019 1837.00000
28.12967 1813.51249 1890.00000
28.13991 1821.38232 1872.00000
28.15015 1830.86788 1929.00000
28.16039 1842.10737 1920.00000
28.17063 1855.31983 2007.00000
28.18087 1871.13295 1967.00000
28.19112 1891.13838 1996.00000
28.20136 1918.50972 1903.00000
28.21160 1958.54319 2045.00000
28.22184 2019.32227 2119.00000
28.23208 2112.95024 2253.00000
28.24232 2257.51258 2378.00000
28.25256 2478.62186 2659.00000
28.26281 2804.27015 2916.00000
28.27305 3232.81049 3288.00000
28.28329 3655.48039 3659.00000
28.29353 3829.01064 3762.00000
28.30377 3603.91395 3565.00000
28.31401 3176.46766 3246.00000
28.32425 2844.87095 2909.00000
28.33450 2717.40283 2795.00000
28.34474 2753.14159 2765.00000
28.35498 2849.95768 2872.00000
28.36522 2864.64918 2781.00000
28.37546 2705.56786 2630.00000
28.38570 2443.20522 2532.00000
28.39594 2208.51670 2311.00000
28.40619 2051.72278 2108.00000
28.41643 1956.62925 2050.00000
28.42667 1897.88853 1938.00000
28.43691 1859.48924 1895.00000
28.44715 1832.93045 1961.00000
28.45739 1813.67830 1861.00000
28.46763 1799.18550 1899.00000
28.47788 1787.93730 1825.00000
28.48812 1778.98604 1763.00000
28.49836 1771.71255 1795.00000
28.50860 1765.69712 1774.00000
28.51884 1760.64625 1830.00000
28.52908 1756.34913 1822.00000
28.53933 1752.65084 1796.00000
28.54957 1749.43517 1747.00000
28.55981 1746.61348 1860.00000
28.57005 1744.11703 1780.00000
28.58029 1741.89183 1809.00000
28.59053 1739.89489 1724.00000
28.60077 1738.09166 1842.00000
28.61102 1736.45401 1800.00000
28.62126 1734.95884 1830.00000
28.63150 1733.58694 1829.00000
28.64174 1732.32212 1812.00000
28.65198 1731.15043 1778.00000
28.66222 1730.05934 1720.00000
28.67246 1729.03630 1825.00000
28.68271 1728.06537 1736.00000
28.69295 1727.12616 1892.00000
28.70319 1726.22055 1785.00000
28.71343 1725.39319 1881.00000
28.72367 1724.64323 1758.00000
28.73391 1723.94015 1815.00000
28.74415 1723.27206 1822.00000
28.75440 1722.63530 1716.00000
28.76464 1722.02714 1759.00000
28.77488 1721.44516 1695.00000
28.78512 1720.88720 1714.00000
28.79536 1720.35134 1744.00000
28.80560 1719.83581 1748.00000
28.81584 1719.33872 1796.00000
28.82609 1718.85746 1729.00000
28.83633 1718.38761 1733.00000
28.84657 1717.92137 1729.00000
28.85681 1717.44459 1785.00000
28.86705 1716.93084 1820.00000
28.87729 1716.32778 1746.00000
28.88754 1715.51862 1733.00000
28.89778 1714.21045 1772.00000
28.90802 1711.90153 1768.00000
28.91826 1708.78748 1781.00000
28.92850 1706.65206 1784.00000
28.93874 1705.92404 1753.00000
28.94898 1705.54712 1712.00000
28.95923 1705.28157 1748.00000
28.96947 1705.04630 1748.00000
28.97971 1704.81572 1678.00000
28.98995 1704.58762 1704.00000
29.00019 1704.35868 1705.00000
29.01043 1704.12076 1757.00000
29.02067 1703.85997 1753.00000
29.03092 1703.58378 1746.00000
29.04116 1703.34214 1705.00000
29.05140 1703.13926 1720.00000
29.06164 1702.94850 1714.00000
29.07188 1702.76118 1697.00000
29.08212 1702.57643 1799.00000
29.09236 1702.39379 1633.00000
29.10261 1702.21250 1808.00000
29.11285 1702.03114 1808.00000
29.12309 1701.84658 1664.00000
29.13333 1701.65080 1729.00000
29.14357 1701.43009 1651.00000
29.15381 1701.19193 1806.00000
29.16405 1700.98633 1751.00000
29.17430 1700.81778 1762.00000
29.18454 1700.65981 1760.00000
29.19478 1700.50393 1752.00000
29.20502 1700.34952 1792.00000
29.21526 1700.19653 1752.00000
29.22550 1700.04496 1709.00000
29.23575 1699.89489 1763.00000
29.24599 1699.74653 1777.00000
29.25623 1699.59970 1801.00000
29.26647 1699.45345 1765.00000
29.27671 1699.30784 1661.00000
29.28695 1699.16321 1722.00000
29.29719 1699.01960 1709.00000
29.30744 1698.87700 1721.00000
29.31768 1698.73536 1785.00000
29.32792 1698.59466 1672.00000
29.33816 1698.45487 1720.00000
29.34840 1698.31596 1820.00000
29.35864 1698.17791 1680.00000
29.36888 1698.04069 1682.00000
29.37913 1697.90429 1725.00000
29.38937 1697.76872 1700.00000
29.39961 1697.63402 1752.00000
29.40985 1697.50030 1663.00000
29.42009 1697.36745 1720.00000
29.43033 1697.23499 1705.00000
29.44057 1697.10300 1808.00000
29.45082 1696.97162 1686.00000
29.46106 1696.84089 1649.00000
29.47130 1696.71079 1782.00000
29.48154 1696.58131 1743.00000
29.49178 1696.45242 1784.00000
29.50202 1696.32413 1783.00000
29.51226 1696.19640 1742.00000
29.52251 1696.06923 1766.00000
29.53275 1695.94258 1757.00000
29.54299 1695.81636 1731.00000
29.55323 1695.69042 1718.00000
29.56347 1695.56440 1737.00000
29.57371 1695.43766 1724.00000
29.58396 1695.30884 1669.00000
29.59420 1695.17483 1705.00000
29.60444 1695.02752 1735.00000
29.61468 1694.85284 1718.00000
29.62492 1694.65815 1742.00000
29.63516 1694.49434 1744.00000
29.64540 1694.36677 1691.00000
29.65565 1694.24875 1730.00000
29.66589 1694.13167 1827.00000
29.67613 1694.01493 1774.00000
29.68637 1693.89853 1681.00000
29.69661 1693.78246 1740.00000
29.70685 1693.66672 1707.00000
29.71709 1693.55130 1756.00000
29.72734 1693.43621 1763.00000
29.73758 1693.32143 1792.00000
29.74782 1693.20696 1698.00000
29.75806 1693.09281 1650.00000
29.76830 1692.97896 1680.00000
29.77854 1692.86541 1723.00000
29.78878 1692.75216 1777.00000
29.79903 1692.63921 1775.00000
29.80927 1692.52655 1721.00000
29.81951 1692.41419 1728.00000
29.82975 1692.30211 1732.00000
29.83999 1692.19031 1710.00000
29.85023 1692.07880 1695.00000
29.86048 1691.96757 1685.00000
29.87072 1691.85662 1705.00000
29.88096 1691.74594 1731.00000
29.89120 1691.63553 1686.00000
29.90144 1691.52540 1680.00000
29.91168 1691.41553 1646.00000
29.92192 1691.30593 1725.00000
29.93217 1691.19660 1781.00000
29.94241 1691.08753 1711.00000
29.95265 1690.97871 1653.00000
29.96289 1690.87016 1631.00000
29.97313 1690.76186 1727.00000
29.98337 1690.65383 1706.00000
29.99361 1690.54607 1669.00000
30.00386 1690.43859 1673.00000
30.01410 1690.33144 1681.00000
30.02434 1690.22476 1647.00000
30.03458 1690.11879 1638.00000
30.04482 1690.01341 1674.00000
30.05506 1689.90772 1717.00000
30.06530 1689.80181 1659.00000
30.07555 1689.69605 1720.00000
30.08579 1689.59051 1628.00000
30.09603 1689.48519 1791.00000
30.10627 1689.38000 1694.00000
30.11651 1689.27479 1745.00000
30.12675 1689.16922 1693.00000
30.13699 1689.06264 1649.00000
30.14724 1688.95367 1705.00000
30.15748 1688.83917 1697.00000
30.16772 1688.71089 1670.00000
30.17796 1688.55460 1675.00000
30.18820 1688.37847 1652.00000
30.19844 1688.23475 1769.00000
30.20869 1688.12398 1666.00000
30.21893 1688.02117 1703.00000
30.22917 1687.92080 1682.00000
30.23941 1687.82106 1677.00000
30.24965 1687.72153 1668.00000
30.25989 1687.62218 1689.00000
30.27013 1687.52303 1779.00000
30.28038 1687.42406 1741.00000
30.29062 1687.32529 1707.00000
30.30086 1687.22671 1701.00000
30.31110 1687.12831 1686.00000
30.32134 1687.03012 1622.00000
30.33158 1686.93211 1635.00000
30.34182 1686.83429 1686.00000
30.35207 1686.73667 1638.00000
30.36231 1686.63924 1697.00000
30.37255 1686.54200 1640.00000
30.38279 1686.44495 1662.00000
30.39303 1686.34810 1713.00000
30.40327 1686.25144 1676.00000
30.41351 1686.15498 1721.00000
30.42376 1686.05871 1746.00000
30.43400 1685.96264 1578.00000
30.44424 1685.86677 1712.00000
30.45448 1685.77109 1710.00000
30.46472 1685.67561 1681.00000
30.47496 1685.58033 1685.00000
30.48520 1685.48525 1688.00000
30.49545 1685.39037 1652.00000
30.50569 1685.29570 1636.00000
30.51593 1685.20125 1677.00000
30.52617 1685.10704 1655.00000
30.53641 1685.01314 1706.00000
30.54665 1684.91969 1628.00000
30.55690 1684.82700 1755.00000
30.56714 1684.73509 1670.00000
30.57738 1684.64333 1712.00000
30.58762 1684.55168 1652.00000
30.59786 1684.45961 1694.00000
30.60810 1684.36731 1658.00000
30.61834 1684.27515 1645.00000
30.62859 1684.18324 1685.00000
30.63883 1684.09166 1733.00000
30.64907 1684.00052 1636.00000
30.65931 1683.91010 1725.00000
30.66955 1683.82028 1613.00000
30.67979 1683.73020 1572.00000
30.69003 1683.63993 1681.00000
30.70028 1683.54986 1666.00000
30.71052 1683.46014 1740.00000
30.72076 1683.37091 1696.00000
30.73100 1683.28225 1698.00000
30.74124 1683.19402 1589.00000
30.75148 1683.10597 1657.00000
30.76172 1683.01807 1681.00000
30.77197 1682.93015 1645.00000
30.78221 1682.84245 1721.00000
30.79245 1682.75510 1699.00000
30.80269 1682.66812 1731.00000
30.81293 1682.58157 1707.00000
30.82317 1682.49558 1712.00000
30.83341 1682.41022 1730.00000
30.84366 1682.32524 1715.00000
30.85390 1682.24034 1620.00000
30.86414 1682.15580 1702.00000
30.87438 1682.07172 1701.00000
30.88462 1681.98815 1695.00000
30.89486 1681.90511 1675.00000
30.90511 1681.82264 1629.00000
30.91535 1681.74077 1685.00000
30.92559 1681.65955 1778.00000
30.93583 1681.57902 1692.00000
30.94607 1681.49923 1671.00000
30.95631 1681.42026 1753.00000
30.96655 1681.34216 1695.00000
30.97680 1681.26501 1742.00000
30.98704 1681.18891 1636.00000
30.99728 1681.11397 1677.00000
31.00752 1681.04029 1735.00000
31.01776 1680.96803 1750.00000
31.02800 1680.89735 1663.00000
31.03824 1680.82844 1718.00000
31.04849 1680.76155 1740.00000
31.05873 1680.69694 1733.00000
31.06897 1680.63495 1700.00000
31.07921 1680.57599 1724.00000
31.08945 1680.52055 1705.00000
31.09969 1680.46926 1658.00000
31.10993 1680.42285 1697.00000
31.12018 1680.38228 1796.00000
31.13042 1680.34872 1652.00000
31.14066 1680.32358 1665.00000
31.15090 1680.30860 1670.00000
31.16114 1680.30579 1655.00000
31.17138 1680.31734 1721.00000
31.18162 1680.34538 1637.00000
31.19187 1680.39166 1654.00000
31.20211 1680.45715 1628.00000
31.21235 1680.54230 1666.00000
31.22259 1680.64862 1674.00000
31.23283 1680.78245 1639.00000
31.24307 1680.96000 1691.00000
31.25332 1681.21234 1546.00000
31.26356 1681.59032 1641.00000
31.27380 1682.17225 1681.00000
31.28404 1683.07808 1762.00000
31.29428 1684.49184 1676.00000
31.30452 1686.69005 1689.00000
31.31476 1690.05406 1732.00000
31.32501 1694.96355 1684.00000
31.33525 1701.27907 1653.00000
31.34549 1707.24019 1690.00000
31.35573 1709.33599 1703.00000
31.36597 1705.77851 1691.00000
31.37621 1699.52182 1677.00000
31.38645 1694.48312 1665.00000
31.39670 1692.09905 1654.00000
31.40694 1692.07934 1705.00000
31.41718 1693.59613 1655.00000
31.42742 1695.24363 1675.00000
31.43766 1695.18785 1632.00000
31.44790 1692.81100 1625.00000
31.45814 1689.59701 1655.00000
31.46839 1687.24673 1623.00000
31.47863 1686.36223 1658.00000
31.48887 1686.90588 1648.00000
31.49911 1688.73268 1634.00000
31.50935 1691.41502 1606.00000
31.51959 1693.63427 1653.00000
31.52983 1693.42742 1677.00000
31.54008 1690.45788 1641.00000
31.55032 1686.93987 1694.00000
31.56056 1684.60383 1681.00000
31.57080 1683.67029 1645.00000
31.58104 1683.81573 1696.00000
31.59128 1684.56742 1662.00000
31.60153 1685.10899 1656.00000
31.61177 1684.48787 1651.00000
31.62201 1682.66426 1622.00000
31.63225 1680.65180 1667.00000
31.64249 1679.13514 1643.00000
31.65273 1678.13449 1727.00000
31.66297 1677.47089 1625.00000
31.67322 1677.00511 1680.00000
31.68346 1676.65714 1690.00000
31.69370 1676.38237 1601.00000
31.70394 1676.15556 1604.00000
31.71418 1675.96164 1654.00000
31.72442 1675.79116 1659.00000
31.73466 1675.63794 1653.00000
31.74491 1675.49777 1710.00000
31.75515 1675.36773 1615.00000
31.76539 1675.24567 1602.00000
31.77563 1675.13003 1657.00000
31.78587 1675.01957 1633.00000
31.79611 1674.91329 1707.00000
31.80635 1674.81025 1635.00000
31.81660 1674.71002 1739.00000
31.82684 1674.61302 1650.00000
31.83708 1674.51877 1664.00000
31.84732 1674.42661 1679.00000
31.85756 1674.33621 1628.00000
31.86780 1674.24736 1659.00000
31.87804 1674.15989 1650.00000
31.88829 1674.07365 1628.00000
31.89853 1673.98851 1647.00000
31.90877 1673.90438 1686.00000
31.91901 1673.82115 1660.00000
31.92925 1673.73876 1708.00000
31.93949 1673.65711 1561.00000
31.94974 1673.57616 1652.00000
31.95998 1673.49581 1665.00000
31.97022 1673.41595 1659.00000
31.98046 1673.33642 1640.00000
31.99070 1673.25730 1615.00000
32.00094 1673.17905 1596.00000
32.01118 1673.10144 1603.00000
32.02143 1673.02428 1706.00000
32.03167 1672.94754 1651.00000
32.04191 1672.87119 1696.00000
32.05215 1672.79520 1744.00000
32.06239 1672.71957 1655.00000
32.07263 1672.64428 1678.00000
32.08287 1672.56931 1614.00000
32.09312 1672.49465 1630.00000
32.10336 1672.42028 1612.00000
32.11360 1672.34620 1626.00000
32.12384 1672.27238 1669.00000
32.13408 1672.19879 1627.00000
32.14432 1672.12539 1697.00000
32.15456 1672.05204 1645.00000
32.16481 1671.97849 1660.00000
32.17505 1671.90488 1671.00000
32.18529 1671.83207 1544.00000
32.19553 1671.75995 1549.00000
32.20577 1671.68816 1693.00000
32.21601 1671.61658 1658.00000
32.22625 1671.54521 1694.00000
32.23650 1671.47404 1580.00000
32.24674 1671.40307 1629.00000
32.25698 1671.33228 1594.00000
32.26722 1671.26165 1656.00000
32.27746 1671.19113 1577.00000
32.28770 1671.12059 1618.00000
32.29795 1671.04978 1630.00000
32.30819 1670.97884 1624.00000
32.31843 1670.90860 1607.00000
32.32867 1670.83891 1605.00000
32.33891 1670.76926 1671.00000
32.34915 1670.69965 1676.00000
32.35939 1670.63053 1652.00000
32.36964 1670.56179 1541.00000
32.37988 1670.49325 1644.00000
32.39012 1670.42488 1687.00000
32.40036 1670.35666 1612.00000
32.41060 1670.28861 1621.00000
32.42084 1670.22070 1684.00000
32.43108 1670.15295 1600.00000
32.44133 1670.08533 1647.00000
32.45157 1670.01783 1627.00000
32.46181 1669.95038 1564.00000
32.47205 1669.88285 1556.00000
32.48229 1669.81533 1675.00000
32.49253 1669.74825 1676.00000
32.50277 1669.68155 1692.00000
32.51302 1669.61504 1659.00000
32.52326 1669.54869 1640.00000
32.53350 1669.48247 1601.00000
32.54374 1669.41640 1638.00000
32.55398 1669.35048 1680.00000
32.56422 1669.28469 1631.00000
32.57446 1669.21905 1658.00000
32.58471 1669.15355 1741.00000
32.59495 1669.08819 1642.00000
32.60519 1669.02297 1609.00000
32.61543 1668.95789 1578.00000
32.62567 1668.89295 1625.00000
32.63591 1668.82814 1706.00000
32.64616 1668.76347 1655.00000
32.65640 1668.69894 1658.00000
32.66664 1668.63455 1692.00000
32.67688 1668.57029 1591.00000
32.68712 1668.50617 1752.00000
32.69736 1668.44218 1666.00000
32.70760 1668.37833 1662.00000
32.71785 1668.31461 1725.00000
32.72809 1668.25102 1655.00000
32.73833 1668.18757 1710.00000
32.74857 1668.12425 1696.00000
32.75881 1668.06106 1713.00000
32.76905 1667.99800 1689.00000
32.77929 1667.93508 1665.00000
32.78954 1667.87235 1714.00000
32.79978 1667.80998 1795.00000
32.81002 1667.74829 1744.00000
32.82026 1667.68825 1758.00000
32.83050 1667.63365 1778.00000
32.84074 1667.59362 1694.00000
32.85098 1667.56749 1735.00000
32.86123 1667.52780 1709.00000
32.87147 1667.47106 1656.00000
32.88171 1667.41057 1670.00000
32.89195 1667.35000 1667.00000
32.90219 1667.28957 1734.00000
32.91243 1667.22928 1758.00000
32.92267 1667.16912 1669.00000
32.93292 1667.10910 1694.00000
32.94316 1667.04922 1650.00000
32.95340 1666.98947 1625.00000
32.96364 1666.92984 1660.00000
32.97388 1666.87031 1608.00000
32.98412 1666.81083 1713.00000
32.99437 1666.75129 1681.00000
33.00461 1666.69170 1603.00000
33.01485 1666.63244 1670.00000
33.02509 1666.57361 1623.00000
33.03533 1666.51499 1663.00000
33.04557 1666.45652 1694.00000
33.05581 1666.39818 1683.00000
33.06606 1666.33998 1680.00000
33.07630 1666.28191 1613.00000
33.08654 1666.22399 1637.00000
33.09678 1666.16620 1692.00000
33.10702 1666.10855 1713.00000
33.11726 1666.05104 1723.00000
33.12750 1665.99367 1687.00000
33.13775 1665.93643 1705.00000
33.14799 1665.87934 1706.00000
33.15823 1665.82238 1661.00000
33.16847 1665.76556 1705.00000
33.17871 1665.70889 1656.00000
33.18895 1665.65235 1649.00000
33.19919 1665.59595 1699.00000
33.20944 1665.53969 1649.00000
33.21968 1665.48357 1598.00000
33.22992 1665.42759 1675.00000
33.24016 1665.37175 1602.00000
33.25040 1665.31605 1699.00000
33.26064 1665.26050 1729.00000
33.27088 1665.20508 1716.00000
33.28113 1665.14981 1626.00000
33.29137 1665.09467 1651.00000
33.30161 1665.03968 1715.00000
33.31185 1664.98484 1647.00000
33.32209 1664.93013 1685.00000
33.33233 1664.87557 1600.00000
33.34258 1664.82115 1700.00000
33.35282 1664.76688 1654.00000
33.36306 1664.71275 1681.00000
33.37330 1664.65877 1722.00000
33.38354 1664.60493 1692.00000
33.39378 1664.55123 1693.00000
33.40402 1664.49768 1773.00000
33.41427 1664.44426 1626.00000
33.42451 1664.39095 1681.00000
33.43475 1664.33771 1640.00000
33.44499 1664.28441 1665.00000
33.45523 1664.23080 1722.00000
33.46547 1664.17703 1641.00000
33.47571 1664.12401 1707.00000
33.48596 1664.07155 1657.00000
33.49620 1664.01934 1692.00000
33.50644 1663.96732 1737.00000
33.51668 1663.91545 1763.00000
33.52692 1663.86374 1789.00000
33.53716 1663.81218 1802.00000
33.54740 1663.76078 1841.00000
33.55765 1663.70954 1936.00000
33.56789 1663.65845 1895.00000
33.57813 1663.60752 1889.00000
33.58837 1663.55675 1952.00000
33.59861 1663.50613 1960.00000
33.60885 1663.45571 1950.00000
33.61910 1663.40562 1896.00000
33.62934 1663.35624 1940.00000
33.63958 1663.30862 1888.00000
33.64982 1663.26585 1978.00000
33.66006 1663.23672 1945.00000
33.67030 1663.23919 1934.00000
33.68054 1663.26802 1948.00000
33.69079 1663.26206 1960.00000
33.70103 1663.22392 2045.00000
33.71127 1663.18060 1908.00000
33.72151 1663.14262 1947.00000
33.73175 1663.11862 2011.00000
33.74199 1663.10816 2092.00000
33.75223 1663.08458 2064.00000
33.76248 1663.04414 2060.00000
33.77272 1663.00006 2028.00000
33.78296 1662.95599 2120.00000
33.79320 1662.91218 2055.00000
33.80344 1662.86861 2142.00000
33.81368 1662.82529 2126.00000
33.82392 1662.78223 1989.00000
33.83417 1662.73942 2045.00000
33.84441 1662.69689 2207.00000
33.85465 1662.65462 2288.00000
33.86489 1662.61262 2464.00000
33.87513 1662.57090 2591.00000
33.88537 1662.52946 2548.00000
33.89561 1662.48831 2506.00000
33.90586 1662.44745 2467.00000
33.91610 1662.40689 2381.00000
33.92634 1662.36663 2270.00000
33.93658 1662.32667 2264.00000
33.94682 1662.28703 2200.00000
33.95706 1662.24771 2184.00000
33.96731 1662.20872 2188.00000
33.97755 1662.17006 2124.00000
33.98779 1662.13173 2123.00000
33.99803 1662.09376 2107.00000
34.00827 1662.05614 1949.00000
34.01851 1662.01887 1957.00000
34.02875 1661.98198 1866.00000
34.03900 1661.94547 1791.00000
34.04924 1661.90934 1836.00000
34.05948 1661.87361 1772.00000
34.06972 1661.83829 1759.00000
34.07996 1661.80338 1723.00000
34.09020 1661.76890 1706.00000
34.10044 1661.73485 1687.00000
34.11069 1661.70125 1730.00000
34.12093 1661.66811 1661.00000
34.13117 1661.63544 1627.00000
34.14141 1661.60326 1669.00000
34.15165 1661.57157 1632.00000
34.16189 1661.54040 1689.00000
34.17213 1661.50975 1656.00000
34.18238 1661.47965 1711.00000
34.19262 1661.45010 1692.00000
34.20286 1661.42113 1628.00000
34.21310 1661.39276 1690.00000
34.22334 1661.36499 1662.00000
34.23358 1661.33786 1710.00000
34.24382 1661.31139 1712.00000
34.25407 1661.28561 1700.00000
34.26431 1661.26063 1692.00000
34.27455 1661.23668 1684.00000
34.28479 1661.21433 1683.00000
34.29503 1661.19497 1663.00000
34.30527 1661.18267 1745.00000
34.31552 1661.18675 1721.00000
34.32576 1661.21060 1699.00000
34.33600 1661.23633 1774.00000
34.34624 1661.25973 1678.00000
34.35648 1661.26767 1659.00000
34.36672 1661.25980 1741.00000
34.37696 1661.24940 1678.00000
34.38721 1661.24034 1772.00000
34.39745 1661.23334 1684.00000
34.40769 1661.22966 1688.00000
34.41793 1661.23293 1656.00000
34.42817 1661.25136 1651.00000
34.43841 1661.28494 1584.00000
34.44865 1661.30795 1608.00000
34.45890 1661.31633 1671.00000
34.46914 1661.32291 1681.00000
34.47938 1661.33134 1718.00000
34.48962 1661.34197 1660.00000
34.49986 1661.35489 1613.00000
34.51010 1661.37027 1657.00000
34.52034 1661.38834 1565.00000
34.53059 1661.40952 1656.00000
34.54083 1661.43463 1694.00000
34.55107 1661.46550 1621.00000
34.56131 1661.50675 1641.00000
34.57155 1661.57052 1638.00000
34.58179 1661.67305 1662.00000
34.59203 1661.79109 1593.00000
34.60228 1661.85642 1584.00000
34.61252 1661.90925 1681.00000
34.62276 1661.96570 1547.00000
34.63300 1662.02716 1595.00000
34.64324 1662.09398 1645.00000
34.65348 1662.16654 1472.00000
34.66373 1662.24526 1625.00000
34.67397 1662.33058 1587.00000
34.68421 1662.42301 1644.00000
34.69445 1662.52310 1618.00000
34.70469 1662.63146 1592.00000
34.71493 1662.74875 1628.00000
34.72517 1662.87573 1701.00000
34.73542 1663.01323 1653.00000
34.74566 1663.16215 1687.00000
34.75590 1663.32355 1670.00000
34.76614 1663.49855 1640.00000
34.77638 1663.68848 1612.00000
34.78662 1663.89478 1697.00000
34.79686 1664.11910 1708.00000
34.80711 1664.36333 1697.00000
34.81735 1664.62960 1755.00000
34.82759 1664.92035 1635.00000
34.83783 1665.23839 1677.00000
34.84807 1665.58695 1696.00000
34.85831 1665.96979 1712.00000
34.86855 1666.39129 1722.00000
34.87880 1666.85656 1694.00000
34.88904 1667.37165 1647.00000
34.89928 1667.94371 1687.00000
34.90952 1668.58126 1643.00000
34.91976 1669.29453 1681.00000
34.93000 1670.09587 1633.00000
34.94024 1671.00022 1668.00000
34.95049 1672.02578 1686.00000
34.96073 1673.19473 1692.00000
34.97097 1674.53400 1695.00000
34.98121 1676.07600 1625.00000
34.99145 1677.85894 1680.00000
35.00169 1679.92626 1654.00000
35.01194 1682.32427 1633.00000
35.02218 1685.09712 1657.00000
35.03242 1688.27867 1624.00000
35.04266 1691.88366 1643.00000
35.05290 1695.90550 1700.00000
35.06314 1700.33444 1726.00000
35.07338 1705.20871 1653.00000
35.08363 1710.69459 1599.00000
35.09387 1717.16760 1690.00000
35.10411 1725.27039 1635.00000
35.11435 1735.96887 1766.00000
35.12459 1750.67984 1772.00000
35.13483 1771.55519 1720.00000
35.14507 1801.97735 1869.00000
35.15532 1847.26623 1851.00000
35.16556 1915.46308 1984.00000
35.17580 2017.47039 2120.00000
35.18604 2163.72120 2271.00000
35.19628 2350.40563 2375.00000
35.20652 2532.08607 2595.00000
35.21676 2616.24419 2593.00000
35.22701 2542.24666 2628.00000
35.23725 2366.20201 2474.00000
35.24749 2195.97913 2265.00000
35.25773 2088.60284 2135.00000
35.26797 2048.03256 2180.00000
35.27821 2061.74621 2153.00000
35.28845 2111.85466 2134.00000
35.29870 2165.21537 2166.00000
35.30894 2174.16083 2216.00000
35.31918 2113.79516 2172.00000
35.32942 2011.65864 2090.00000
35.33966 1913.63209 1894.00000
35.34990 1841.34836 1834.00000
35.36015 1793.29119 1867.00000
35.37039 1761.67649 1743.00000
35.38063 1740.26602 1781.00000
35.39087 1725.20082 1833.00000
35.40111 1714.21223 1690.00000
35.41135 1705.94623 1684.00000
35.42159 1699.56655 1766.00000
35.43184 1694.53717 1661.00000
35.44208 1690.50230 1706.00000
35.45232 1687.21830 1696.00000
35.46256 1684.51365 1710.00000
35.47280 1682.26472 1690.00000
35.48304 1680.38046 1741.00000
35.49328 1678.79262 1605.00000
35.50353 1677.44922 1638.00000
35.51377 1676.31012 1689.00000
35.52401 1675.34397 1607.00000
35.53425 1674.52606 1730.00000
35.54449 1673.83676 1633.00000
35.55473 1673.26039 1657.00000
35.56497 1672.78441 1674.00000
35.57522 1672.39876 1651.00000
35.58546 1672.09544 1657.00000
35.59570 1671.86811 1688.00000
35.60594 1671.71186 1631.00000
35.61618 1671.62303 1625.00000
35.62642 1671.59898 1620.00000
35.63666 1671.63808 1598.00000
35.64691 1671.73955 1689.00000
35.65715 1671.90347 1611.00000
35.66739 1672.13070 1695.00000
35.67763 1672.42282 1632.00000
35.68787 1672.78202 1642.00000
35.69811 1673.21080 1645.00000
35.70836 1673.71040 1680.00000
35.71860 1674.27905 1632.00000
35.72884 1674.92458 1565.00000
35.73908 1675.68112 1643.00000
35.74932 1676.56269 1606.00000
35.75956 1677.56831 1602.00000
35.76980 1678.70932 1648.00000
35.78005 1680.00369 1683.00000
35.79029 1681.47347 1677.00000
35.80053 1683.14540 1672.00000
35.81077 1685.05203 1602.00000
35.82101 1687.23303 1665.00000
35.83125 1689.74049 1639.00000
35.84149 1692.63424 1654.00000
35.85174 1695.98239 1701.00000
35.86198 1699.86743 1678.00000
35.87222 1704.38147 1738.00000
35.88246 1709.61992 1757.00000
35.89270 1715.66923 1731.00000
35.90294 1722.58887 1762.00000
35.91318 1730.39433 1679.00000
35.92343 1739.05980 1675.00000
35.93367 1748.57001 1698.00000
35.94391 1759.04191 1839.00000
35.95415 1770.89421 1718.00000
35.96439 1785.00027 1785.00000
35.97463 1802.78853 1791.00000
35.98487 1826.36015 1793.00000
35.99512 1858.78084 1907.00000
36.00536 1904.70305 1968.00000
36.01560 1971.40720 2012.00000
36.02584 2070.24054 2065.00000
36.03608 2218.14601 2248.00000
36.04632 2437.73901 2434.00000
36.05657 2750.07750 2649.00000
36.06681 3146.01142 2892.00000
36.07705 3531.11318 3096.00000
36.08729 3716.88857 3407.00000
36.09753 3575.47176 3361.00000
36.10777 3209.53319 3228.00000
36.11801 2840.72958 2785.00000
36.12826 2598.22496 2602.00000
36.13850 2496.97132 2542.00000
36.14874 2512.25523 2495.00000
36.15898 2609.29628 2591.00000
36.16922 2727.03228 2615.00000
36.17946 2771.59885 2640.00000
36.18970 2674.49817 2559.00000
36.19995 2467.60738 2413.00000
36.21019 2248.89272 2321.00000
36.22043 2079.97222 2089.00000
36.23067 1965.73738 1920.00000
36.24091 1890.39796 1868.00000
36.25115 1839.50901 1777.00000
36.26139 1803.81999 1830.00000
36.27164 1777.84572 1813.00000
36.28188 1758.30993 1722.00000
36.29212 1743.20256 1755.00000
36.30236 1731.26668 1788.00000
36.31260 1721.65890 1646.00000
36.32284 1713.78770 1667.00000
36.33308 1707.24386 1688.00000
36.34333 1701.73556 1620.00000
36.35357 1697.04842 1693.00000
36.36381 1693.02180 1697.00000
36.37405 1689.53318 1642.00000
36.38429 1686.48772 1627.00000
36.39453 1683.81095 1607.00000
36.40478 1681.44372 1568.00000
36.41502 1679.34064 1693.00000
36.42526 1677.46192 1645.00000
36.43550 1675.77407 1640.00000
36.44574 1674.25121 1646.00000
36.45598 1672.87175 1643.00000
36.46622 1671.61758 1609.00000
36.47647 1670.47342 1640.00000
36.48671 1669.42627 1628.00000
36.49695 1668.46502 1623.00000
36.50719 1667.58013 1602.00000
36.51743 1666.76338 1598.00000
36.52767 1666.00761 1566.00000
36.53791 1665.30657 1669.00000
36.54816 1664.65466 1608.00000
36.55840 1664.04668 1596.00000
36.56864 1663.47743 1635.00000
36.57888 1662.94067 1624.00000
36.58912 1662.42532 1657.00000
36.59936 1661.91186 1624.00000
36.60960 1661.40315 1618.00000
36.61985 1660.95474 1571.00000
36.63009 1660.56320 1664.00000
36.64033 1660.20053 1611.00000
36.65057 1659.85798 1614.00000
36.66081 1659.53357 1606.00000
36.67105 1659.22594 1545.00000
36.68129 1658.93386 1669.00000
36.69154 1658.65620 1574.00000
36.70178 1658.39194 1554.00000
36.71202 1658.14013 1667.00000
36.72226 1657.89993 1651.00000
36.73250 1657.67057 1565.00000
36.74274 1657.45131 1590.00000
36.75299 1657.24152 1587.00000
36.76323 1657.04059 1565.00000
36.77347 1656.84796 1569.00000
36.78371 1656.66312 1606.00000
36.79395 1656.48561 1592.00000
36.80419 1656.31497 1699.00000
36.81443 1656.15080 1601.00000
36.82468 1655.99264 1543.00000
36.83492 1655.83997 1583.00000
36.84516 1655.69202 1615.00000
36.85540 1655.54735 1548.00000
36.86564 1655.40223 1663.00000
36.87588 1655.24861 1627.00000
36.88612 1655.08666 1638.00000
36.89637 1654.94214 1669.00000
36.90661 1654.81925 1578.00000
36.91685 1654.70414 1643.00000
36.92709 1654.59278 1661.00000
36.93733 1654.48478 1656.00000
36.94757 1654.37996 1620.00000
36.95781 1654.27809 1545.00000
36.96806 1654.17881 1629.00000
36.97830 1654.08150 1614.00000
36.98854 1653.98480 1598.00000
36.99878 1653.88549 1673.00000
37.00902 1653.77348 1574.00000
37.01926 1653.62874 1636.00000
37.02950 1653.46724 1575.00000
37.03975 1653.36586 1647.00000
37.04999 1653.28749 1641.00000
37.06023 1653.21347 1648.00000
37.07047 1653.14131 1649.00000
37.08071 1653.07081 1611.00000
37.09095 1653.00191 1584.00000
37.10120 1652.93453 1641.00000
37.11144 1652.86859 1579.00000
37.12168 1652.80394 1638.00000
37.13192 1652.74030 1603.00000
37.14216 1652.67715 1570.00000
37.15240 1652.61370 1595.00000
37.16264 1652.54661 1563.00000
37.17289 1652.46014 1557.00000
37.18313 1652.34547 1646.00000
37.19337 1652.25651 1660.00000
37.20361 1652.19882 1683.00000
37.21385 1652.14914 1575.00000
37.22409 1652.10079 1665.00000
37.23433 1652.05331 1527.00000
37.24458 1652.00668 1603.00000
37.25482 1651.96086 1618.00000
37.26506 1651.91584 1552.00000
37.27530 1651.87160 1645.00000
37.28554 1651.82811 1617.00000
37.29578 1651.78536 1618.00000
37.30602 1651.74331 1576.00000
37.31627 1651.70197 1619.00000
37.32651 1651.66130 1604.00000
37.33675 1651.62130 1594.00000
37.34699 1651.58194 1606.00000
37.35723 1651.54321 1620.00000
37.36747 1651.50510 1585.00000
37.37772 1651.46759 1591.00000
37.38796 1651.43068 1686.00000
37.39820 1651.39434 1607.00000
37.40844 1651.35857 1628.00000
37.41868 1651.32336 1550.00000
37.42892 1651.28869 1571.00000
37.43916 1651.25456 1619.00000
37.44941 1651.22096 1630.00000
37.45965 1651.18788 1581.00000
37.46989 1651.15531 1618.00000
37.48013 1651.12324 1570.00000
37.49037 1651.09167 1663.00000
37.50061 1651.06058 1619.00000
37.51085 1651.02998 1590.00000
37.52110 1650.99983 1562.00000
37.53134 1650.97006 1618.00000
37.54158 1650.94048 1575.00000
37.55182 1650.91062 1610.00000
37.56206 1650.87933 1554.00000
37.57230 1650.84311 1645.00000
37.58254 1650.79404 1574.00000
37.59279 1650.73288 1544.00000
37.60303 1650.68644 1530.00000
37.61327 1650.65638 1649.00000
37.62351 1650.63004 1576.00000
37.63375 1650.60550 1588.00000
37.64399 1650.58162 1529.00000
37.65423 1650.55818 1636.00000
37.66448 1650.53517 1514.00000
37.67472 1650.51260 1555.00000
37.68496 1650.49047 1545.00000
37.69520 1650.46878 1545.00000
37.70544 1650.44751 1574.00000
37.71568 1650.42664 1537.00000
37.72593 1650.40597 1601.00000
37.73617 1650.38509 1684.00000
37.74641 1650.36297 1532.00000
37.75665 1650.33698 1582.00000
37.76689 1650.29920 1589.00000
37.77713 1650.23256 1558.00000
37.78737 1650.14178 1532.00000
37.79762 1650.08565 1573.00000
37.80786 1650.06775 1554.00000
37.81810 1650.06667 1600.00000
37.82834 1650.07841 1614.00000
37.83858 1650.09272 1604.00000
37.84882 1650.10524 1619.00000
37.85906 1650.11022 1619.00000
37.86931 1650.10426 1714.00000
37.87955 1650.09628 1585.00000
37.88979 1650.08880 1603.00000
37.90003 1650.08207 1603.00000
37.91027 1650.07632 1598.00000
37.92051 1650.07215 1612.00000
37.93075 1650.07146 1566.00000
37.94100 1650.07907 1549.00000
37.95124 1650.09663 1654.00000
37.96148 1650.10978 1662.00000
37.97172 1650.11259 1617.00000
37.98196 1650.11372 1598.00000
37.99220 1650.11568 1600.00000
38.00244 1650.11866 1603.00000
38.01269 1650.12270 1557.00000
38.02293 1650.12785 1556.00000
38.03317 1650.13417 1553.00000
38.04341 1650.14170 1564.00000
38.05365 1650.15052 1646.00000
38.06389 1650.16067 1593.00000
38.07414 1650.17223 1659.00000
38.08438 1650.18527 1576.00000
38.09462 1650.19987 1622.00000
38.10486 1650.21612 1617.00000
38.11510 1650.23409 1553.00000
38.12534 1650.25390 1586.00000
38.13558 1650.27564 1649.00000
38.14583 1650.29943 1617.00000
38.15607 1650.32538 1632.00000
38.16631 1650.35364 1638.00000
38.17655 1650.38435 1539.00000
38.18679 1650.41765 1607.00000
38.19703 1650.45372 1547.00000
38.20727 1650.49275 1572.00000
38.21752 1650.53493 1553.00000
38.22776 1650.58047 1593.00000
38.23800 1650.62963 1612.00000
38.24824 1650.68266 1520.00000
38.25848 1650.73984 1667.00000
38.26872 1650.80149 1582.00000
38.27896 1650.86796 1654.00000
38.28921 1650.93962 1571.00000
38.29945 1651.01691 1634.00000
38.30969 1651.10028 1586.00000
38.31993 1651.19026 1647.00000
38.33017 1651.28742 1590.00000
38.34041 1651.39241 1655.00000
38.35065 1651.50596 1676.00000
38.36090 1651.62886 1552.00000
38.37114 1651.76205 1595.00000
38.38138 1651.90653 1499.00000
38.39162 1652.06350 1630.00000
38.40186 1652.23426 1616.00000
38.41210 1652.42035 1551.00000
38.42235 1652.62349 1595.00000
38.43259 1652.84565 1609.00000
38.44283 1653.08900 1656.00000
38.45307 1653.35587 1665.00000
38.46331 1653.64852 1630.00000
38.47355 1653.96843 1572.00000
38.48379 1654.31350 1599.00000
38.49404 1654.67398 1594.00000
38.50428 1655.05220 1628.00000
38.51452 1655.50025 1641.00000
38.52476 1656.05427 1540.00000
38.53500 1656.68899 1654.00000
38.54524 1657.41291 1630.00000
38.55548 1658.23786 1674.00000
38.56573 1659.18012 1658.00000
38.57597 1660.25882 1578.00000
38.58621 1661.49412 1629.00000
38.59645 1662.90528 1543.00000
38.60669 1664.50744 1656.00000
38.61693 1666.30767 1594.00000
38.62717 1668.30259 1528.00000
38.63742 1670.48144 1622.00000
38.64766 1672.83987 1675.00000
38.65790 1675.40567 1625.00000
38.66814 1678.26986 1683.00000
38.67838 1681.61139 1661.00000
38.68862 1685.70983 1592.00000
38.69886 1690.95789 1635.00000
38.70911 1697.89817 1658.00000
38.71935 1707.31188 1583.00000
38.72959 1720.38728 1703.00000
38.73983 1738.99620 1624.00000
38.75007 1766.08468 1765.00000
38.76031 1806.08203 1843.00000
38.77056 1864.88114 1940.00000
38.78080 1947.90125 1987.00000
38.79104 2052.95566 2058.00000
38.80128 2156.92490 2354.00000
38.81152 2212.66028 2261.00000
38.82176 2184.38278 2334.00000
38.83200 2091.99428 2189.00000
38.84225 1990.32736 2055.00000
38.85249 1915.65544 1913.00000
38.86273 1875.31944 1865.00000
38.87297 1865.07407 1877.00000
38.88321 1879.45607 1801.00000
38.89345 1910.76230 1860.00000
38.90369 1942.99761 1997.00000
38.91394 1952.38658 1992.00000
38.92418 1924.62127 1948.00000
38.93442 1870.71847 1922.00000
38.94466 1814.37802 1772.00000
38.95490 1769.81650 1697.00000
38.96514 1738.61632 1639.00000
38.97538 1717.40508 1691.00000
38.98563 1702.76321 1662.00000
38.99587 1692.34470 1683.00000
39.00611 1684.68954 1663.00000
39.01635 1678.89753 1557.00000
39.02659 1674.40202 1665.00000
39.03683 1670.83565 1586.00000
39.04707 1667.95291 1645.00000
39.05732 1665.58492 1523.00000
39.06756 1663.61250 1609.00000
39.07780 1661.94949 1661.00000
39.08804 1660.53234 1629.00000
39.09828 1659.31328 1626.00000
39.10852 1658.25578 1636.00000
39.11877 1657.33153 1613.00000
39.12901 1656.51825 1636.00000
39.13925 1655.79822 1578.00000
39.14949 1655.15719 1563.00000
39.15973 1654.58357 1613.00000
39.16997 1654.06785 1681.00000
39.18021 1653.60220 1602.00000
39.19046 1653.18006 1594.00000
39.20070 1652.79594 1736.00000
39.21094 1652.44520 1620.00000
39.22118 1652.12391 1630.00000
39.23142 1651.82871 1656.00000
39.24166 1651.55669 1575.00000
39.25190 1651.30537 1558.00000
39.26215 1651.07258 1593.00000
39.27239 1650.85644 1524.00000
39.28263 1650.65530 1502.00000
39.29287 1650.46772 1652.00000
39.30311 1650.29242 1609.00000
39.31335 1650.12825 1628.00000
39.32359 1649.97415 1651.00000
39.33384 1649.82904 1606.00000
39.34408 1649.69157 1586.00000
39.35432 1649.55929 1581.00000
39.36456 1649.42709 1629.00000
39.37480 1649.29312 1608.00000
39.38504 1649.17118 1520.00000
39.39528 1649.06666 1586.00000
39.40553 1648.97001 1599.00000
39.41577 1648.87826 1519.00000
39.42601 1648.79091 1634.00000
39.43625 1648.70766 1633.00000
39.44649 1648.62822 1656.00000
39.45673 1648.55233 1575.00000
39.46698 1648.47974 1650.00000
39.47722 1648.41026 1645.00000
39.48746 1648.34366 1578.00000
39.49770 1648.27978 1633.00000
39.50794 1648.21845 1546.00000
39.51818 1648.15949 1592.00000
39.52842 1648.10279 1585.00000
39.53867 1648.04819 1644.00000
39.54891 1647.99558 1611.00000
39.55915 1647.94485 1607.00000
39.56939 1647.89588 1638.00000
39.57963 1647.84859 1566.00000
39.58987 1647.80287 1639.00000
39.60011 1647.75865 1577.00000
39.61036 1647.71584 1632.00000
39.62060 1647.67438 1574.00000
39.63084 1647.63419 1624.00000
39.64108 1647.59520 1572.00000
39.65132 1647.55737 1593.00000
39.66156 1647.52063 1533.00000
39.67180 1647.48493 1575.00000
39.68205 1647.45021 1610.00000
39.69229 1647.41644 1610.00000
39.70253 1647.38357 1656.00000
39.71277 1647.35156 1582.00000
39.72301 1647.32037 1570.00000
39.73325 1647.28996 1558.00000
39.74349 1647.26031 1572.00000
39.75374 1647.23136 1575.00000
39.76398 1647.20311 1554.00000
39.77422 1647.17548 1641.00000
39.78446 1647.14840 1665.00000
39.79470 1647.12167 1599.00000
39.80494 1647.09482 1632.00000
39.81519 1647.06642 1590.00000
39.82543 1647.03310 1594.00000
39.83567 1646.99690 1606.00000
39.84591 1646.97547 1537.00000
39.85615 1646.96632 1591.00000
39.86639 1646.94796 1589.00000
39.87663 1646.92715 1555.00000
39.88688 1646.90655 1638.00000
39.89712 1646.88635 1544.00000
39.90736 1646.86653 1595.00000
39.91760 1646.84710 1602.00000
39.92784 1646.82814 1660.00000
39.93808 1646.80995 1615.00000
39.94832 1646.79348 1547.00000
39.95857 1646.78169 1605.00000
39.96881 1646.77760 1655.00000
39.97905 1646.77200 1606.00000
39.98929 1646.74725 1637.00000
39.99953 1646.71119 1669.00000
40.00977 1646.68098 1609.00000
40.02001 1646.66293 1578.00000
40.03026 1646.64788 1604.00000
40.04050 1646.63321 1601.00000
40.05074 1646.61877 1623.00000
40.06098 1646.60453 1570.00000
40.07122 1646.59051 1562.00000
40.08146 1646.57669 1611.00000
40.09170 1646.56306 1573.00000
40.10195 1646.54963 1542.00000
40.11219 1646.53639 1558.00000
40.12243 1646.52333 1581.00000
40.13267 1646.51046 1643.00000
40.14291 1646.49775 1615.00000
40.15315 1646.48523 1554.00000
40.16340 1646.47286 1622.00000
40.17364 1646.46067 1572.00000
40.18388 1646.44863 1596.00000
40.19412 1646.43675 1641.00000
40.20436 1646.42503 1603.00000
40.21460 1646.41346 1607.00000
40.22484 1646.40204 1581.00000
40.23509 1646.39076 1624.00000
40.24533 1646.37963 1621.00000
40.25557 1646.36863 1556.00000
40.26581 1646.35778 1658.00000
40.27605 1646.34706 1596.00000
40.28629 1646.33648 1611.00000
40.29653 1646.32602 1578.00000
40.30678 1646.31569 1607.00000
40.31702 1646.30550 1583.00000
40.32726 1646.29542 1585.00000
40.33750 1646.28547 1602.00000
40.34774 1646.27564 1616.00000
40.35798 1646.26593 1599.00000
40.36822 1646.25634 1667.00000
40.37847 1646.24686 1651.00000
40.38871 1646.23750 1615.00000
40.39895 1646.22825 1690.00000
40.40919 1646.21911 1654.00000
40.41943 1646.21009 1627.00000
40.42967 1646.20117 1632.00000
40.43991 1646.19236 1736.00000
40.45016 1646.18365 1644.00000
40.46040 1646.17505 1562.00000
40.47064 1646.16656 1627.00000
40.48088 1646.15817 1699.00000
40.49112 1646.14988 1652.00000
40.50136 1646.14169 1607.00000
40.51161 1646.13360 1649.00000
40.52185 1646.12561 1690.00000
40.53209 1646.11772 1664.00000
40.54233 1646.10992 1751.00000
40.55257 1646.10223 1673.00000
40.56281 1646.09462 1636.00000
40.57305 1646.08712 1652.00000
40.58330 1646.07970 1688.00000
40.59354 1646.07236 1621.00000
40.60378 1646.06501 1615.00000
40.61402 1646.05745 1599.00000
40.62426 1646.04912 1614.00000
40.63450 1646.03822 1619.00000
40.64474 1646.02014 1653.00000
40.65499 1645.99337 1597.00000
40.66523 1645.97231 1591.00000
40.67547 1645.96339 1625.00000
40.68571 1645.95735 1608.00000
40.69595 1645.95155 1616.00000
40.70619 1645.94583 1592.00000
40.71643 1645.94020 1615.00000
40.72668 1645.93463 1681.00000
40.73692 1645.92915 1619.00000
40.74716 1645.92375 1560.00000
40.75740 1645.91842 1579.00000
40.76764 1645.91318 1566.00000
40.77788 1645.90801 1558.00000
40.78812 1645.90292 1592.00000
40.79837 1645.89791 1631.00000
40.80861 1645.89298 1631.00000
40.81885 1645.88813 1589.00000
40.82909 1645.88336 1613.00000
40.83933 1645.87867 1634.00000
40.84957 1645.87406 1574.00000
40.85982 1645.86953 1563.00000
40.87006 1645.86509 1635.00000
40.88030 1645.86072 1567.00000
40.89054 1645.85648 1573.00000
40.90078 1645.85245 1537.00000
40.91102 1645.84898 1589.00000
40.92126 1645.84716 1573.00000
40.93151 1645.85035 1649.00000
40.94175 1645.86211 1570.00000
40.95199 1645.87431 1556.00000
40.96223 1645.87430 1573.00000
40.97247 1645.87135 1592.00000
40.98271 1645.86832 1540.00000
40.99295 1645.86539 1601.00000
41.00320 1645.86255 1605.00000
41.01344 1645.85983 1624.00000
41.02368 1645.85727 1661.00000
41.03392 1645.85509 1581.00000
41.04416 1645.85386 1639.00000
41.05440 1645.85576 1584.00000
41.06464 1645.86636 1590.00000
41.07489 1645.88404 1592.00000
41.08513 1645.88703 1659.00000
41.09537 1645.88589 1611.00000
41.10561 1645.88455 1554.00000
41.11585 1645.88332 1605.00000
41.12609 1645.88221 1615.00000
41.13634 1645.88121 1610.00000
41.14658 1645.88034 1618.00000
41.15682 1645.87959 1598.00000
41.16706 1645.87896 1619.00000
41.17730 1645.87846 1686.00000
41.18754 1645.87808 1591.00000
41.19778 1645.87784 1573.00000
41.20803 1645.87772 1644.00000
41.21827 1645.87774 1619.00000
41.22851 1645.87790 1659.00000
41.23875 1645.87819 1587.00000
41.24899 1645.87863 1572.00000
41.25923 1645.87920 1660.00000
41.26947 1645.87993 1661.00000
41.27972 1645.88080 1635.00000
41.28996 1645.88182 1630.00000
41.30020 1645.88299 1535.00000
41.31044 1645.88432 1651.00000
41.32068 1645.88581 1575.00000
41.33092 1645.88747 1564.00000
41.34116 1645.88929 1609.00000
41.35141 1645.89127 1637.00000
41.36165 1645.89344 1648.00000
41.37189 1645.89577 1587.00000
41.38213 1645.89829 1567.00000
41.39237 1645.90096 1567.00000
41.40261 1645.90372 1572.00000
41.41285 1645.90638 1638.00000
41.42310 1645.90837 1662.00000
41.43334 1645.90791 1598.00000
41.44358 1645.90038 1639.00000
41.45382 1645.88446 1524.00000
41.46406 1645.87485 1581.00000
41.47430 1645.87657 1562.00000
41.48455 1645.88041 1590.00000
41.49479 1645.88545 1628.00000
41.50503 1645.89088 1580.00000
41.51527 1645.89655 1583.00000
41.52551 1645.90247 1559.00000
41.53575 1645.90864 1594.00000
41.54599 1645.91507 1649.00000
41.55624 1645.92177 1570.00000
41.56648 1645.92874 1556.00000
41.57672 1645.93600 1640.00000
41.58696 1645.94354 1606.00000
41.59720 1645.95138 1600.00000
41.60744 1645.95954 1603.00000
41.61768 1645.96804 1600.00000
41.62793 1645.97701 1511.00000
41.63817 1645.98679 1659.00000
41.64841 1645.99850 1605.00000
41.65865 1646.01558 1637.00000
41.66889 1646.04202 1625.00000
41.67913 1646.07104 1642.00000
41.68937 1646.09320 1615.00000
41.69962 1646.12137 1566.00000
41.70986 1646.15044 1599.00000
41.72010 1646.16765 1586.00000
41.73034 1646.18231 1586.00000
41.74058 1646.19733 1569.00000
41.75082 1646.21297 1557.00000
41.76106 1646.22954 1585.00000
41.77131 1646.24789 1566.00000
41.78155 1646.27103 1653.00000
41.79179 1646.30734 1651.00000
41.80203 1646.36083 1658.00000
41.81227 1646.40806 1626.00000
41.82251 1646.44553 1589.00000
41.83276 1646.48830 1618.00000
41.84300 1646.52630 1570.00000
41.85324 1646.57598 1590.00000
41.86348 1646.68880 1598.00000
41.87372 1646.99984 1617.00000
41.88396 1647.56146 1612.00000
41.89420 1647.93198 1600.00000
41.90445 1648.03151 1615.00000
41.91469 1648.07842 1635.00000
41.92493 1648.13072 1691.00000
41.93517 1648.19179 1606.00000
41.94541 1648.24572 1626.00000
41.95565 1648.29875 1586.00000
41.96589 1648.36870 1550.00000
41.97614 1648.49772 1655.00000
41.98638 1648.83152 1631.00000
41.99662 1649.69601 1646.00000
42.00686 1650.93081 1562.00000
42.01710 1651.25657 1578.00000
42.02734 1651.34802 1656.00000
42.03758 1651.42765 1548.00000
42.04783 1651.50975 1670.00000
42.05807 1651.59443 1574.00000
42.06831 1651.68182 1656.00000
42.07855 1651.77207 1533.00000
42.08879 1651.86532 1628.00000
42.09903 1651.96173 1609.00000
42.10927 1652.06149 1543.00000
42.11952 1652.16477 1585.00000
42.12976 1652.27178 1597.00000
42.14000 1652.38272 1618.00000
42.15024 1652.49784 1545.00000
42.16048 1652.61739 1550.00000
42.17072 1652.74164 1583.00000
42.18097 1652.87089 1672.00000
42.19121 1653.00546 1560.00000
42.20145 1653.14570 1570.00000
42.21169 1653.29200 1579.00000
42.22193 1653.44477 1670.00000
42.23217 1653.60447 1656.00000
42.24241 1653.77161 1648.00000
42.25266 1653.94674 1614.00000
42.26290 1654.13047 1606.00000
42.27314 1654.32348 1569.00000
42.28338 1654.52650 1668.00000
42.29362 1654.74037 1598.00000
42.30386 1654.96600 1658.00000
42.31410 1655.20444 1601.00000
42.32435 1655.45681 1629.00000
42.33459 1655.72443 1640.00000
42.34483 1656.00875 1646.00000
42.35507 1656.31142 1668.00000
42.36531 1656.63430 1608.00000
42.37555 1656.97953 1661.00000
42.38579 1657.34955 1583.00000
42.39604 1657.74716 1724.00000
42.40628 1658.17558 1591.00000
42.41652 1658.63855 1612.00000
42.42676 1659.14041 1664.00000
42.43700 1659.68622 1647.00000
42.44724 1660.28189 1674.00000
42.45748 1660.93435 1724.00000
42.46773 1661.65168 1599.00000
42.47797 1662.44329 1592.00000
42.48821 1663.32004 1645.00000
42.49845 1664.29426 1724.00000
42.50869 1665.37954 1573.00000
42.51893 1666.59019 1605.00000
42.52918 1667.94015 1595.00000
42.53942 1669.44126 1680.00000
42.54966 1671.10116 1667.00000
42.55990 1672.92161 1677.00000
42.57014 1674.89910 1659.00000
42.58038 1677.03009 1655.00000
42.59062 1679.32246 1696.00000
42.60087 1681.81148 1671.00000
42.61111 1684.57502 1611.00000
42.62135 1687.74251 1675.00000
42.63159 1691.49757 1696.00000
42.64183 1696.08132 1688.00000
42.65207 1701.80714 1664.00000
42.66231 1709.09699 1743.00000
42.67256 1718.54980 1745.00000
42.68280 1731.05811 1740.00000
42.69304 1747.99597 1748.00000
42.70328 1771.49254 1724.00000
42.71352 1804.73311 1823.00000
42.72376 1851.98073 1821.00000
42.73400 1917.36989 1939.00000
42.74425 2000.50922 2009.00000
42.75449 2087.88613 2108.00000
42.76473 2148.03386 2238.00000
42.77497 2149.09203 2204.00000
42.78521 2093.11335 2169.00000
42.79545 2017.19361 2086.00000
42.80569 1955.23028 1977.00000
42.81594 1919.89771 1892.00000
42.82618 1911.82265 1912.00000
42.83642 1929.90269 1910.00000
42.84666 1974.73226 1953.00000
42.85690 2046.76941 2164.00000
42.86714 2140.52937 2167.00000
42.87739 2237.58796 2163.00000
42.88763 2306.13776 2336.00000
42.89787 2314.24753 2220.00000
42.90811 2252.79344 2198.00000
42.91835 2147.50886 2234.00000
42.92859 2039.49002 2081.00000
42.93883 1954.87065 1940.00000
42.94908 1899.26115 1922.00000
42.95932 1869.02680 1905.00000
42.96956 1859.68567 1818.00000
42.97980 1867.72994 1855.00000
42.99004 1888.22971 1930.00000
43.00028 1910.77074 1868.00000
43.01052 1919.39147 1884.00000
43.02077 1902.57566 1910.00000
43.03101 1864.62302 1879.00000
43.04125 1820.88867 1747.00000
43.05149 1783.00110 1791.00000
43.06173 1754.40265 1712.00000
43.07197 1733.96855 1730.00000
43.08221 1719.40576 1653.00000
43.09246 1708.81792 1668.00000
43.10270 1700.91781 1686.00000
43.11294 1694.87354 1712.00000
43.12318 1690.15252 1708.00000
43.13342 1686.42517 1698.00000
43.14366 1683.55669 1694.00000
43.15390 1681.68258 1677.00000
43.16415 1680.70496 1654.00000
43.17439 1679.42684 1647.00000
43.18463 1678.01443 1729.00000
43.19487 1676.75332 1627.00000
43.20511 1675.66930 1650.00000
43.21535 1674.73604 1724.00000
43.22560 1673.93000 1702.00000
43.23584 1673.23235 1629.00000
43.24608 1672.62783 1590.00000
43.25632 1672.10395 1668.00000
43.26656 1671.65043 1661.00000
43.27680 1671.25870 1574.00000
43.28704 1670.92159 1637.00000
43.29729 1670.63307 1709.00000
43.30753 1670.38799 1666.00000
43.31777 1670.18200 1658.00000
43.32801 1670.01132 1624.00000
43.33825 1669.87270 1618.00000
43.34849 1669.76325 1676.00000
43.35873 1669.68024 1714.00000
43.36898 1669.62053 1742.00000
43.37922 1669.57916 1734.00000
43.38946 1669.55102 1747.00000
43.39970 1669.54246 1659.00000
43.40994 1669.56528 1681.00000
43.42018 1669.60877 1616.00000
43.43042 1669.66899 1681.00000
43.44067 1669.74490 1687.00000
43.45091 1669.83576 1695.00000
43.46115 1669.94089 1756.00000
43.47139 1670.05969 1629.00000
43.48163 1670.19155 1745.00000
43.49187 1670.33571 1764.00000
43.50211 1670.49069 1755.00000
43.51236 1670.65298 1745.00000
43.52260 1670.81937 1713.00000
43.53284 1670.99809 1790.00000
43.54308 1671.19975 1636.00000
43.55332 1671.41531 1745.00000
43.56356 1671.64197 1771.00000
43.57381 1671.87943 1707.00000
43.58405 1672.12762 1773.00000
43.59429 1672.38650 1759.00000
43.60453 1672.65602 1714.00000
43.61477 1672.93619 1730.00000
43.62501 1673.22701 1746.00000
43.63525 1673.52853 1743.00000
43.64550 1673.84081 1734.00000
43.65574 1674.16393 1783.00000
43.66598 1674.49798 1700.00000
43.67622 1674.84307 1757.00000
43.68646 1675.19935 1816.00000
43.69670 1675.56697 1737.00000
43.70694 1675.94609 1685.00000
43.71719 1676.33691 1761.00000
43.72743 1676.73963 1729.00000
43.73767 1677.15447 1804.00000
43.74791 1677.58183 1792.00000
43.75815 1678.02289 1786.00000
43.76839 1678.48163 1764.00000
43.77863 1678.97074 1748.00000
43.78888 1679.53676 1738.00000
43.79912 1680.31597 1735.00000
43.80936 1681.37549 1749.00000
43.81960 1682.33174 1845.00000
43.82984 1683.23276 1738.00000
43.84008 1684.34496 1787.00000
43.85032 1685.28805 1802.00000
43.86057 1685.97955 1755.00000
43.87081 1686.63316 1772.00000
43.88105 1687.30302 1796.00000
43.89129 1687.99724 1793.00000
43.90153 1688.73836 1829.00000
43.91177 1689.63001 1739.00000
43.92202 1690.96667 1799.00000
43.93226 1692.91481 1743.00000
43.94250 1694.84868 1774.00000
43.95274 1696.91253 1830.00000
43.96298 1699.21041 1792.00000
43.97322 1700.92009 1762.00000
43.98346 1702.06674 1764.00000
43.99371 1703.12786 1786.00000
44.00395 1704.21431 1798.00000
44.01419 1705.33304 1737.00000
44.02443 1706.48438 1768.00000
44.03467 1707.67281 1684.00000
44.04491 1708.92870 1803.00000
44.05515 1710.35452 1777.00000
44.06540 1712.19297 1759.00000
44.07564 1714.56203 1779.00000
44.08588 1716.67253 1791.00000
44.09612 1718.28676 1805.00000
44.10636 1719.84711 1788.00000
44.11660 1721.45656 1806.00000
44.12684 1723.12106 1804.00000
44.13709 1724.84294 1875.00000
44.14733 1726.62482 1800.00000
44.15757 1728.46952 1806.00000
44.16781 1730.37999 1826.00000
44.17805 1732.35930 1885.00000
44.18829 1734.41056 1852.00000
44.19853 1736.53654 1869.00000
44.20878 1738.73843 1842.00000
44.21902 1741.01594 1885.00000
44.22926 1743.37814 1831.00000
44.23950 1745.84669 1852.00000
44.24974 1748.41629 1863.00000
44.25998 1751.08885 1969.00000
44.27023 1753.86978 1883.00000
44.28047 1756.76507 1974.00000
44.29071 1759.78119 1938.00000
44.30095 1762.92503 1973.00000
44.31119 1766.20405 1961.00000
44.32143 1769.62623 1994.00000
44.33167 1773.20018 1946.00000
44.34192 1776.93520 2012.00000
44.35216 1780.84130 2060.00000
44.36240 1784.92935 2065.00000
44.37264 1789.21107 2066.00000
44.38288 1793.69922 2099.00000
44.39312 1798.40762 2071.00000
44.40336 1803.35133 2115.00000
44.41361 1808.54676 2094.00000
44.42385 1814.01181 2096.00000
44.43409 1819.76608 2081.00000
44.44433 1825.83104 2066.00000
44.45457 1832.23027 2054.00000
44.46481 1838.98972 2034.00000
44.47505 1846.13802 2037.00000
44.48530 1853.70682 2071.00000
44.49554 1861.73120 2103.00000
44.50578 1870.25015 2058.00000
44.51602 1879.30711 2042.00000
44.52626 1888.95065 2072.00000
44.53650 1899.23518 2010.00000
44.54674 1910.22195 2071.00000
44.55699 1921.98011 2019.00000
44.56723 1934.58821 2107.00000
44.57747 1948.13627 1932.00000
44.58771 1962.72584 2027.00000
44.59795 1978.46833 2035.00000
44.60819 1995.49722 2089.00000
44.61844 2013.96695 2046.00000
44.62868 2034.05437 2081.00000
44.63892 2055.96351 2178.00000
44.64916 2079.93015 2248.00000
44.65940 2106.22612 2184.00000
44.66964 2135.16299 2209.00000
44.67988 2167.09401 2254.00000
44.69013 2202.41222 2310.00000
44.70037 2241.54184 2268.00000
44.71061 2284.91918 2477.00000
44.72085 2332.96004 2448.00000
44.73109 2386.01442 2446.00000
44.74133 2444.31996 2582.00000
44.75157 2507.98299 2687.00000
44.76182 2577.03501 2716.00000
44.77206 2651.61357 2806.00000
44.78230 2732.27723 2921.00000
44.79254 2820.38522 2962.00000
44.80278 2918.40955 3040.00000
44.81302 3030.07775 3264.00000
44.82326 3160.38542 3344.00000
44.83351 3315.64799 3541.00000
44.84375 3503.73288 3734.00000
44.85399 3734.79744 4053.00000
44.86423 4022.64288 4394.00000
44.87447 4387.07107 4790.00000
44.88471 4857.83544 5125.00000
44.89496 5480.87891 5556.00000
44.90520 6326.79258 6292.00000
44.91544 7497.91504 7274.00000
44.92568 9120.24613 8420.00000
44.93592 11284.09898 9926.00000
44.94616 13877.81825 12016.00000
44.95640 16348.17896 13691.00000
44.96665 17744.47911 14972.00000
44.97689 17445.67156 15036.00000
44.98713 15876.75356 14405.00000
44.99737 14089.57553 13243.00000
45.00761 12879.14314 12190.00000
45.01785 12558.06106 12063.00000
45.02809 13215.75426 13002.00000
45.03834 14950.82009 15020.00000
45.04858 17935.64968 18456.00000
45.05882 22301.80209 23550.00000
45.06906 27784.56617 29418.00000
45.07930 33194.72647 35400.00000
45.08954 36367.30918 39663.00000
45.09978 35494.11677 39191.00000
45.11003 30974.31946 34520.00000
45.12027 25132.11942 27590.00000
45.13051 20009.17560 21412.00000
45.14075 16359.48513 16545.00000
45.15099 14143.92455 13842.00000
45.16123 13131.19370 12610.00000
45.17147 13138.16229 13220.00000
45.18172 14010.68522 14614.00000
45.19196 15452.61871 16400.00000
45.20220 16822.67776 18479.00000
45.21244 17216.41191 19440.00000
45.22268 16083.07218 18237.00000
45.23292 13787.07470 15591.00000
45.24317 11224.38194 12464.00000
45.25341 9031.31414 9617.00000
45.26365 7376.35726 7522.00000
45.27389 6181.54839 6148.00000
45.28413 5319.74442 5103.00000
45.29437 4686.94503 4533.00000
45.30461 4211.15964 4103.00000
45.31486 3844.78217 3743.00000
45.32510 3556.38172 3559.00000
45.33534 3324.88512 3335.00000
45.34558 3135.85896 3168.00000
45.35582 2979.19099 3125.00000
45.36606 2847.63882 2940.00000
45.37630 2735.90753 2921.00000
45.38655 2640.05217 2757.00000
45.39679 2557.08244 2674.00000
45.40703 2484.69602 2571.00000
45.41727 2421.09494 2625.00000
45.42751 2364.85690 2505.00000
45.43775 2314.84356 2426.00000
45.44799 2270.13409 2443.00000
45.45824 2229.97629 2353.00000
45.46848 2193.75027 2293.00000
45.47872 2160.94094 2236.00000
45.48896 2131.11707 2125.00000
45.49920 2103.91513 2255.00000
45.50944 2079.02671 2188.00000
45.51968 2056.18856 2133.00000
45.52993 2035.17476 2087.00000
45.54017 2015.79041 2135.00000
45.55041 1997.86658 1986.00000
45.56065 1981.25618 2072.00000
45.57089 1965.83046 2081.00000
45.58113 1951.47563 2027.00000
45.59138 1938.08868 1961.00000
45.60162 1925.57010 2041.00000
45.61186 1913.79900 1998.00000
45.62210 1902.58130 1889.00000
45.63234 1891.80935 1995.00000
45.64258 1881.84903 1930.00000
45.65282 1872.72917 2014.00000
45.66307 1864.18902 1902.00000
45.67331 1856.13409 1973.00000
45.68355 1848.52162 1880.00000
45.69379 1841.31474 1916.00000
45.70403 1834.49052 1877.00000
45.71427 1828.03157 1843.00000
45.72451 1821.88838 1869.00000
45.73476 1815.99354 1861.00000
45.74500 1810.17481 1807.00000
45.75524 1804.13649 1921.00000
45.76548 1798.11220 1821.00000
45.77572 1793.17593 1811.00000
45.78596 1788.67559 1861.00000
45.79620 1784.39350 1833.00000
45.80645 1780.30387 1754.00000
45.81669 1776.39384 1804.00000
45.82693 1772.64927 1944.00000
45.83717 1769.06066 1794.00000
45.84741 1765.63138 1886.00000
45.85765 1762.34926 1822.00000
45.86789 1759.20348 1835.00000
45.87814 1756.18613 1800.00000
45.88838 1753.28981 1726.00000
45.89862 1750.50801 1806.00000
45.90886 1747.83476 1786.00000
45.91910 1745.26442 1731.00000
45.92934 1742.79177 1855.00000
45.93959 1740.41188 1826.00000
45.94983 1738.12014 1742.00000
45.96007 1735.91224 1707.00000
45.97031 1733.78412 1709.00000
45.98055 1731.73197 1763.00000
45.99079 1729.75220 1821.00000
46.00103 1727.84143 1747.00000
46.01128 1725.99649 1772.00000
46.02152 1724.21441 1848.00000
46.03176 1722.49248 1822.00000
46.04200 1720.82841 1821.00000
46.05224 1719.22103 1743.00000
46.06248 1717.66962 1731.00000
46.07272 1716.16882 1825.00000
46.08297 1714.71096 1694.00000
46.09321 1713.29790 1766.00000
46.10345 1711.92874 1737.00000
46.11369 1710.60083 1721.00000
46.12393 1709.30889 1681.00000
46.13417 1708.03952 1699.00000
46.14441 1706.74762 1792.00000
46.15466 1705.30493 1764.00000
46.16490 1703.66224 1792.00000
46.17514 1702.24381 1732.00000
46.18538 1701.13089 1791.00000
46.19562 1700.10492 1764.00000
46.20586 1699.11111 1783.00000
46.21610 1698.14525 1730.00000
46.22635 1697.20627 1867.00000
46.23659 1696.29272 1750.00000
46.24683 1695.40087 1797.00000
46.25707 1694.51951 1668.00000
46.26731 1693.61481 1719.00000
46.27755 1692.56147 1728.00000
46.28780 1691.02076 1794.00000
46.29804 1689.07153 1750.00000
46.30828 1688.09287 1689.00000
46.31852 1687.37689 1756.00000
46.32876 1686.67785 1764.00000
46.33900 1685.93559 1795.00000
46.34924 1685.02144 1705.00000
46.35949 1683.88628 1730.00000
46.36973 1682.95879 1813.00000
46.37997 1682.32247 1790.00000
46.39021 1681.75757 1651.00000
46.40045 1681.20950 1733.00000
46.41069 1680.67466 1670.00000
46.42093 1680.15261 1778.00000
46.43118 1679.64255 1672.00000
46.44142 1679.14145 1663.00000
46.45166 1678.63915 1739.00000
46.46190 1678.10400 1750.00000
46.47214 1677.41673 1698.00000
46.48238 1676.25070 1735.00000
46.49262 1674.66780 1677.00000
46.50287 1673.96881 1745.00000
46.51311 1673.55857 1735.00000
46.52335 1673.18359 1650.00000
46.53359 1672.81773 1744.00000
46.54383 1672.45996 1749.00000
46.55407 1672.11005 1684.00000
46.56431 1671.76778 1745.00000
46.57456 1671.43296 1755.00000
46.58480 1671.10537 1687.00000
46.59504 1670.78483 1650.00000
46.60528 1670.47115 1673.00000
46.61552 1670.16418 1735.00000
46.62576 1669.86385 1681.00000
46.63601 1669.57038 1730.00000
46.64625 1669.28485 1781.00000
46.65649 1669.00751 1717.00000
46.66673 1668.73429 1727.00000
46.67697 1668.46680 1700.00000
46.68721 1668.20667 1734.00000
46.69745 1667.94966 1715.00000
46.70770 1667.69626 1691.00000
46.71794 1667.44774 1709.00000
46.72818 1667.20428 1776.00000
46.73842 1666.96577 1721.00000
46.74866 1666.73209 1669.00000
46.75890 1666.50314 1768.00000
46.76914 1666.27883 1682.00000
46.77939 1666.05917 1699.00000
46.78963 1665.84443 1717.00000
46.79987 1665.63573 1666.00000
46.81011 1665.43330 1768.00000
46.82035 1665.23277 1722.00000
46.83059 1665.03460 1755.00000
46.84083 1664.84011 1674.00000
46.85108 1664.64957 1644.00000
46.86132 1664.46309 1683.00000
46.87156 1664.28141 1709.00000
46.88180 1664.10684 1713.00000
46.89204 1663.93960 1700.00000
46.90228 1663.77122 1710.00000
46.91252 1663.60763 1730.00000
46.92277 1663.45069 1716.00000
46.93301 1663.29150 1718.00000
46.94325 1663.13347 1701.00000
46.95349 1662.97843 1683.00000
46.96373 1662.82655 1765.00000
46.97397 1662.67780 1655.00000
46.98422 1662.53213 1719.00000
46.99446 1662.38951 1776.00000
47.00470 1662.24994 1640.00000
47.01494 1662.11357 1615.00000
47.02518 1661.98110 1735.00000
47.03542 1661.85471 1606.00000
47.04566 1661.73463 1664.00000
47.05591 1661.61246 1672.00000
47.06615 1661.49074 1690.00000
47.07639 1661.37137 1704.00000
47.08663 1661.25397 1713.00000
47.09687 1661.13580 1636.00000
47.10711 1661.00667 1655.00000
47.11735 1660.82103 1728.00000
47.12760 1660.44320 1589.00000
47.13784 1659.82658 1647.00000
47.14808 1659.40157 1698.00000
47.15832 1659.25577 1690.00000
47.16856 1659.16989 1675.00000
47.17880 1659.08964 1755.00000
47.18904 1659.01184 1630.00000
47.19929 1658.93648 1712.00000
47.20953 1658.86323 1691.00000
47.21977 1658.78987 1721.00000
47.23001 1658.70783 1611.00000
47.24025 1658.58939 1739.00000
47.25049 1658.33025 1663.00000
47.26073 1657.63664 1709.00000
47.27098 1656.48605 1722.00000
47.28122 1655.95734 1605.00000
47.29146 1655.85457 1636.00000
47.30170 1655.83039 1669.00000
47.31194 1655.82259 1697.00000
47.32218 1655.82841 1691.00000
47.33243 1655.82409 1671.00000
47.34267 1655.82559 1703.00000
47.35291 1655.83940 1678.00000
47.36315 1655.84151 1718.00000
47.37339 1655.83957 1716.00000
47.38363 1655.83989 1658.00000
47.39387 1655.84370 1659.00000
47.40412 1655.85125 1668.00000
47.41436 1655.86277 1609.00000
47.42460 1655.87852 1668.00000
47.43484 1655.89892 1730.00000
47.44508 1655.92475 1659.00000
47.45532 1655.95828 1722.00000
47.46556 1656.00573 1739.00000
47.47581 1656.06948 1724.00000
47.48605 1656.13008 1673.00000
47.49629 1656.18834 1657.00000
47.50653 1656.25247 1699.00000
47.51677 1656.32498 1711.00000
47.52701 1656.40683 1681.00000
47.53725 1656.49898 1679.00000
47.54750 1656.60259 1708.00000
47.55774 1656.71894 1692.00000
47.56798 1656.84951 1713.00000
47.57822 1656.99598 1680.00000
47.58846 1657.16022 1655.00000
47.59870 1657.34427 1722.00000
47.60894 1657.55030 1704.00000
47.61919 1657.78046 1668.00000
47.62943 1658.03669 1808.00000
47.63967 1658.32045 1660.00000
47.64991 1658.63243 1778.00000
47.66015 1658.97230 1683.00000
47.67039 1659.33889 1691.00000
47.68064 1659.73081 1702.00000
47.69088 1660.14803 1748.00000
47.70112 1660.59386 1782.00000
47.71136 1661.07710 1647.00000
47.72160 1661.61332 1721.00000
47.73184 1662.22533 1779.00000
47.74208 1662.94306 1681.00000
47.75233 1663.80403 1731.00000
47.76257 1664.85536 1708.00000
47.77281 1666.15816 1738.00000
47.78305 1667.79527 1697.00000
47.79329 1669.88353 1728.00000
47.80353 1672.59320 1701.00000
47.81377 1676.17802 1730.00000
47.82402 1681.01936 1741.00000
47.83426 1687.67991 1771.00000
47.84450 1696.93143 1824.00000
47.85474 1709.63480 1766.00000
47.86498 1726.18863 1751.00000
47.87522 1745.20796 1828.00000
47.88546 1761.97589 1824.00000
47.89571 1769.48486 1747.00000
47.90595 1764.08440 1713.00000
47.91619 1749.53583 1782.00000
47.92643 1732.97159 1741.00000
47.93667 1719.24682 1738.00000
47.94691 1709.89633 1665.00000
47.95715 1704.73548 1662.00000
47.96740 1703.23435 1650.00000
47.97764 1705.04453 1741.00000
47.98788 1709.93795 1689.00000
47.99812 1717.32236 1770.00000
48.00836 1725.50901 1816.00000
48.01860 1731.57178 1742.00000
48.02885 1733.01566 1751.00000
48.03909 1730.17260 1824.00000
48.04933 1725.98954 1733.00000
48.05957 1723.74882 1795.00000
48.06981 1726.04002 1789.00000
48.08005 1734.24578 1778.00000
48.09029 1749.21001 1790.00000
48.10054 1771.54779 1885.00000
48.11078 1799.99414 1839.00000
48.12102 1828.78169 2014.00000
48.13126 1847.11358 1982.00000
48.14150 1845.32932 2022.00000
48.15174 1824.20815 1933.00000
48.16198 1794.56383 1964.00000
48.17223 1766.97952 1810.00000
48.18247 1745.99074 1839.00000
48.19271 1731.96685 1852.00000
48.20295 1724.77374 1781.00000
48.21319 1723.85512 1832.00000
48.22343 1728.21974 1835.00000
48.23367 1737.01468 1806.00000
48.24392 1748.21085 1782.00000
48.25416 1757.60984 1837.00000
48.26440 1760.00945 1755.00000
48.27464 1753.00904 1755.00000
48.28488 1739.40459 1831.00000
48.29512 1724.43742 1814.00000
48.30536 1711.71184 1766.00000
48.31561 1702.26864 1836.00000
48.32585 1695.74547 1746.00000
48.33609 1691.43449 1701.00000
48.34633 1688.71354 1734.00000
48.35657 1687.12858 1725.00000
48.36681 1686.37114 1715.00000
48.37706 1686.24519 1706.00000
48.38730 1686.64404 1764.00000
48.39754 1687.53546 1717.00000
48.40778 1688.95027 1788.00000
48.41802 1690.97303 1774.00000
48.42826 1693.73754 1679.00000
48.43850 1697.43016 1728.00000
48.44875 1702.30072 1706.00000
48.45899 1708.68946 1744.00000
48.46923 1717.09319 1835.00000
48.47947 1728.23145 1802.00000
48.48971 1743.17190 1769.00000
48.49995 1763.51641 1776.00000
48.51019 1791.64474 1789.00000
48.52044 1830.92046 1828.00000
48.53068 1885.48496 1896.00000
48.54092 1958.67218 1903.00000
48.55116 2048.48424 1901.00000
48.56140 2140.16772 2083.00000
48.57164 2203.30803 2169.00000
48.58188 2207.31754 2065.00000
48.59213 2150.24607 2051.00000
48.60237 2062.99774 2002.00000
48.61261 1979.25711 2020.00000
48.62285 1915.28607 1971.00000
48.63309 1873.45018 1913.00000
48.64333 1851.13217 1910.00000
48.65358 1845.65616 1799.00000
48.66382 1855.43074 1837.00000
48.67406 1878.79096 1882.00000
48.68430 1911.05456 1842.00000
48.69454 1941.14111 1942.00000
48.70478 1952.79156 1896.00000
48.71502 1935.25229 1864.00000
48.72527 1894.11253 1811.00000
48.73551 1845.53196 1824.00000
48.74575 1802.13813 1846.00000
48.75599 1768.26994 1783.00000
48.76623 1743.23844 1786.00000
48.77647 1724.99071 1723.00000
48.78671 1711.47765 1793.00000
48.79696 1701.28447 1716.00000
48.80720 1693.43793 1708.00000
48.81744 1687.27767 1745.00000
48.82768 1682.35214 1782.00000
48.83792 1678.34669 1676.00000
48.84816 1675.04122 1720.00000
48.85840 1672.28671 1667.00000
48.86865 1669.96212 1624.00000
48.87889 1667.97934 1706.00000
48.88913 1666.27274 1684.00000
48.89937 1664.79197 1717.00000
48.90961 1663.49782 1617.00000
48.91985 1662.35936 1701.00000
48.93009 1661.35192 1701.00000
48.94034 1660.45563 1681.00000
48.95058 1659.65431 1710.00000
48.96082 1658.93468 1764.00000
48.97106 1658.28577 1683.00000
48.98130 1657.69840 1622.00000
48.99154 1657.16488 1722.00000
49.00179 1656.67871 1642.00000
49.01203 1656.23436 1620.00000
49.02227 1655.82710 1619.00000
49.03251 1655.45288 1589.00000
49.04275 1655.10817 1693.00000
49.05299 1654.78994 1571.00000
49.06323 1654.49554 1613.00000
49.07348 1654.22263 1609.00000
49.08372 1653.96919 1666.00000
49.09396 1653.73341 1666.00000
49.10420 1653.51370 1641.00000
49.11444 1653.30866 1661.00000
49.12468 1653.11701 1562.00000
49.13492 1652.93762 1658.00000
49.14517 1652.76938 1636.00000
49.15541 1652.61101 1746.00000
49.16565 1652.46053 1685.00000
49.17589 1652.31694 1612.00000
49.18613 1652.18395 1686.00000
49.19637 1652.06027 1658.00000
49.20661 1651.94392 1638.00000
49.21686 1651.83413 1659.00000
49.22710 1651.73042 1623.00000
49.23734 1651.63237 1712.00000
49.24758 1651.53952 1737.00000
49.25782 1651.45121 1651.00000
49.26806 1651.36593 1739.00000
49.27830 1651.27954 1693.00000
49.28855 1651.18763 1721.00000
49.29879 1651.10040 1714.00000
49.30903 1651.03495 1630.00000
49.31927 1650.97870 1623.00000
49.32951 1650.92208 1655.00000
49.33975 1650.87022 1675.00000
49.35000 1650.82301 1593.00000
49.36024 1650.77343 1726.00000
49.37048 1650.72468 1631.00000
49.38072 1650.67654 1660.00000
49.39096 1650.62852 1652.00000
49.40120 1650.58421 1640.00000
49.41144 1650.54078 1660.00000
49.42169 1650.49632 1627.00000
49.43193 1650.45799 1811.00000
49.44217 1650.42440 1691.00000
49.45241 1650.39330 1598.00000
49.46265 1650.36498 1654.00000
49.47289 1650.34116 1630.00000
49.48313 1650.32076 1668.00000
49.49338 1650.29695 1632.00000
49.50362 1650.27334 1604.00000
49.51386 1650.25099 1660.00000
49.52410 1650.22992 1654.00000
49.53434 1650.21017 1644.00000
49.54458 1650.19256 1712.00000
49.55482 1650.18193 1564.00000
49.56507 1650.20078 1642.00000
49.57531 1650.33801 1683.00000
49.58555 1650.75953 1643.00000
49.59579 1651.31651 1612.00000
49.60603 1651.42354 1666.00000
49.61627 1651.42452 1655.00000
49.62651 1651.41771 1630.00000
49.63676 1651.40854 1641.00000
49.64700 1651.40354 1668.00000
49.65724 1651.40285 1642.00000
49.66748 1651.40371 1663.00000
49.67772 1651.40549 1634.00000
49.68796 1651.40814 1640.00000
49.69821 1651.41165 1697.00000
49.70845 1651.41602 1702.00000
49.71869 1651.42123 1684.00000
49.72893 1651.42727 1667.00000
49.73917 1651.43418 1645.00000
49.74941 1651.44230 1643.00000
49.75965 1651.45370 1651.00000
49.76990 1651.47781 1653.00000
49.78014 1651.55295 1663.00000
49.79038 1651.76580 1647.00000
49.80062 1652.07908 1646.00000
49.81086 1652.15607 1695.00000
49.82110 1652.17649 1653.00000
49.83134 1652.19430 1617.00000
49.84159 1652.21245 1736.00000
49.85183 1652.22928 1646.00000
49.86207 1652.23971 1635.00000
49.87231 1652.24122 1627.00000
49.88255 1652.25046 1724.00000
49.89279 1652.27224 1692.00000
49.90303 1652.29749 1586.00000
49.91328 1652.32389 1697.00000
49.92352 1652.35135 1664.00000
49.93376 1652.37990 1638.00000
49.94400 1652.40957 1626.00000
49.95424 1652.44040 1598.00000
49.96448 1652.47245 1645.00000
49.97472 1652.50577 1693.00000
49.98497 1652.54040 1694.00000
49.99521 1652.57641 1699.00000
50.00545 1652.61387 1632.00000
50.01569 1652.65285 1619.00000
50.02593 1652.69343 1633.00000
50.03617 1652.73567 1708.00000
50.04642 1652.77961 1662.00000
50.05666 1652.82505 1645.00000
50.06690 1652.87095 1698.00000
50.07714 1652.91370 1698.00000
50.08738 1652.94868 1632.00000
50.09762 1652.98448 1634.00000
50.10786 1653.03861 1651.00000
50.11811 1653.09937 1646.00000
50.12835 1653.16337 1601.00000
50.13859 1653.23064 1703.00000
50.14883 1653.30144 1618.00000
50.15907 1653.37608 1651.00000
50.16931 1653.45491 1616.00000
50.17955 1653.53828 1667.00000
50.18980 1653.62655 1700.00000
50.20004 1653.71981 1648.00000
50.21028 1653.81750 1645.00000
50.22052 1653.92004 1703.00000
50.23076 1654.03256 1658.00000
50.24100 1654.15493 1688.00000
50.25124 1654.28681 1651.00000
50.26149 1654.42908 1667.00000
50.27173 1654.58299 1644.00000
50.28197 1654.75001 1654.00000
50.29221 1654.93183 1575.00000
50.30245 1655.13065 1627.00000
50.31269 1655.34979 1705.00000
50.32293 1655.59419 1627.00000
50.33318 1655.86474 1628.00000
50.34342 1656.15280 1629.00000
50.35366 1656.46612 1652.00000
50.36390 1656.80787 1654.00000
50.37414 1657.17859 1633.00000
50.38438 1657.57757 1620.00000
50.39463 1658.00296 1654.00000
50.40487 1658.45241 1635.00000
50.41511 1658.92438 1580.00000
50.42535 1659.42023 1607.00000
50.43559 1659.94639 1705.00000
50.44583 1660.51600 1681.00000
50.45607 1661.14905 1597.00000
50.46632 1661.87272 1541.00000
50.47656 1662.72623 1727.00000
50.48680 1663.76010 1658.00000
50.49704 1665.02580 1653.00000
50.50728 1666.59359 1627.00000
50.51752 1668.55915 1623.00000
50.52776 1671.05549 1623.00000
50.53801 1674.27265 1665.00000
50.54825 1678.48792 1594.00000
50.55849 1684.11074 1762.00000
50.56873 1691.74212 1695.00000
50.57897 1702.22894 1715.00000
50.58921 1716.62910 1642.00000
50.59945 1735.86103 1790.00000
50.60970 1759.64165 1754.00000
50.61994 1784.59193 1723.00000
50.63018 1803.10608 1793.00000
50.64042 1806.71293 1810.00000
50.65066 1793.69996 1847.00000
50.66090 1771.29728 1708.00000
50.67114 1748.45247 1691.00000
50.68139 1730.06582 1661.00000
50.69163 1717.26279 1748.00000
50.70187 1709.54242 1773.00000
50.71211 1706.17839 1635.00000
50.72235 1706.70879 1669.00000
50.73259 1710.87987 1710.00000
50.74284 1718.18832 1715.00000
50.75308 1727.06657 1725.00000
50.76332 1734.25858 1750.00000
50.77356 1735.77982 1804.00000
50.78380 1729.85270 1682.00000
50.79404 1718.64497 1696.00000
50.80428 1706.12187 1663.00000
50.81453 1695.06517 1769.00000
50.82477 1686.37647 1709.00000
50.83501 1679.87191 1695.00000
50.84525 1675.05427 1680.00000
50.85549 1671.45795 1676.00000
50.86573 1668.73151 1693.00000
50.87597 1666.62785 1694.00000
50.88622 1664.97643 1681.00000
50.89646 1663.65899 1624.00000
50.90670 1662.59184 1721.00000
50.91694 1661.71273 1616.00000
50.92718 1660.97342 1739.00000
50.93742 1660.34813 1680.00000
50.94766 1659.83516 1702.00000
50.95791 1659.40451 1675.00000
50.96815 1659.04308 1631.00000
50.97839 1658.76196 1684.00000
50.98863 1658.64016 1668.00000
50.99887 1658.83814 1695.00000
51.00911 1659.21053 1647.00000
51.01935 1659.15855 1712.00000
51.02960 1659.02337 1678.00000
51.03984 1658.90255 1647.00000
51.05008 1658.79968 1692.00000
51.06032 1658.71263 1718.00000
51.07056 1658.63959 1567.00000
51.08080 1658.57902 1625.00000
51.09105 1658.52961 1690.00000
51.10129 1658.49024 1740.00000
51.11153 1658.45993 1595.00000
51.12177 1658.43784 1651.00000
51.13201 1658.42324 1724.00000
51.14225 1658.41550 1713.00000
51.15249 1658.41405 1613.00000
51.16274 1658.41851 1685.00000
51.17298 1658.42924 1656.00000
51.18322 1658.44974 1655.00000
51.19346 1658.49771 1727.00000
51.20370 1658.63727 1613.00000
51.21394 1658.92358 1801.00000
51.22418 1659.15115 1640.00000
51.23443 1659.22644 1651.00000
51.24467 1659.27264 1649.00000
51.25491 1659.32039 1723.00000
51.26515 1659.37135 1711.00000
51.27539 1659.42541 1653.00000
51.28563 1659.48243 1735.00000
51.29587 1659.54232 1596.00000
51.30612 1659.60498 1699.00000
51.31636 1659.67033 1722.00000
51.32660 1659.73831 1602.00000
51.33684 1659.80883 1731.00000
51.34708 1659.88184 1757.00000
51.35732 1659.95724 1680.00000
51.36756 1660.03478 1688.00000
51.37781 1660.11363 1686.00000
51.38805 1660.19200 1729.00000
51.39829 1660.27085 1707.00000
51.40853 1660.35703 1744.00000
51.41877 1660.44668 1638.00000
51.42901 1660.53859 1675.00000
51.43926 1660.63251 1698.00000
51.44950 1660.72772 1713.00000
51.45974 1660.82204 1695.00000
51.46998 1660.91522 1710.00000
51.48022 1661.01545 1729.00000
51.49046 1661.12058 1664.00000
51.50070 1661.22839 1772.00000
51.51095 1661.33849 1674.00000
51.52119 1661.45089 1722.00000
51.53143 1661.56559 1719.00000
51.54167 1661.68264 1717.00000
51.55191 1661.80203 1743.00000
51.56215 1661.92381 1727.00000
51.57239 1662.04800 1753.00000
51.58264 1662.17463 1675.00000
51.59288 1662.30373 1746.00000
51.60312 1662.43534 1726.00000
51.61336 1662.56950 1744.00000
51.62360 1662.70624 1784.00000
51.63384 1662.84562 1740.00000
51.64408 1662.98772 1680.00000
51.65433 1663.13265 1718.00000
51.66457 1663.28038 1786.00000
51.67481 1663.43074 1718.00000
51.68505 1663.58394 1685.00000
51.69529 1663.74004 1772.00000
51.70553 1663.89913 1747.00000
51.71577 1664.06126 1725.00000
51.72602 1664.22656 1755.00000
51.73626 1664.39531 1709.00000
51.74650 1664.56857 1673.00000
51.75674 1664.74951 1692.00000
51.76698 1664.93888 1728.00000
51.77722 1665.12310 1735.00000
51.78747 1665.30872 1750.00000
51.79771 1665.49778 1728.00000
51.80795 1665.69053 1689.00000
51.81819 1665.88706 1734.00000
51.82843 1666.08746 1745.00000
51.83867 1666.29183 1722.00000
51.84891 1666.50026 1849.00000
51.85916 1666.71285 1780.00000
51.86940 1666.92981 1779.00000
51.87964 1667.15203 1823.00000
51.88988 1667.38429 1798.00000
51.90012 1667.64822 1823.00000
51.91036 1668.03005 1792.00000
51.92060 1668.69907 1877.00000
51.93085 1669.53888 1776.00000
51.94109 1670.04217 1827.00000
51.95133 1670.74104 1799.00000
51.96157 1671.59464 1815.00000
51.97181 1672.01046 1779.00000
51.98205 1672.32634 1850.00000
51.99229 1672.64001 1803.00000
52.00254 1672.95870 1808.00000
52.01278 1673.28986 1802.00000
52.02302 1673.62991 1826.00000
52.03326 1673.97714 1807.00000
52.04350 1674.33202 1856.00000
52.05374 1674.69576 1800.00000
52.06398 1675.07323 1842.00000
52.07423 1675.48616 1828.00000
52.08447 1676.02006 1804.00000
52.09471 1676.84194 1740.00000
52.10495 1677.82632 1687.00000
52.11519 1678.39402 1843.00000
52.12543 1678.91848 1748.00000
52.13568 1679.58584 1759.00000
52.14592 1680.37488 1796.00000
52.15616 1680.99393 1753.00000
52.16640 1681.70452 1697.00000
52.17664 1682.52854 1738.00000
52.18688 1683.13296 1762.00000
52.19712 1683.69442 1735.00000
52.20737 1684.26595 1737.00000
52.21761 1684.84953 1805.00000
52.22785 1685.44663 1770.00000
52.23809 1686.06492 1684.00000
52.24833 1686.70108 1775.00000
52.25857 1687.35458 1762.00000
52.26881 1688.02624 1799.00000
52.27906 1688.71841 1741.00000
52.28930 1689.43947 1731.00000
52.29954 1690.22293 1706.00000
52.30978 1691.16044 1703.00000
52.32002 1692.24897 1809.00000
52.33026 1693.11896 1735.00000
52.34050 1693.95316 1733.00000
52.35075 1694.80859 1760.00000
52.36099 1695.68972 1702.00000
52.37123 1696.59764 1776.00000
52.38147 1697.53344 1755.00000
52.39171 1698.49833 1760.00000
52.40195 1699.49355 1790.00000
52.41220 1700.52040 1754.00000
52.42244 1701.58029 1817.00000
52.43268 1702.67467 1829.00000
52.44292 1703.80510 1858.00000
52.45316 1704.97322 1808.00000
52.46340 1706.18078 1774.00000
52.47364 1707.42963 1744.00000
52.48389 1708.72170 1906.00000
52.49413 1710.05906 1872.00000
52.50437 1711.44391 1790.00000
52.51461 1712.87859 1818.00000
52.52485 1714.36559 1920.00000
52.53509 1715.90756 1910.00000
52.54533 1717.50731 1909.00000
52.55558 1719.16786 1800.00000
52.56582 1720.89243 1955.00000
52.57606 1722.68448 1872.00000
52.58630 1724.54775 1866.00000
52.59654 1726.48619 1913.00000
52.60678 1728.50372 1887.00000
52.61702 1730.60510 1935.00000
52.62727 1732.79525 1869.00000
52.63751 1735.07908 2020.00000
52.64775 1737.46237 1942.00000
52.65799 1739.95130 1891.00000
52.66823 1742.55256 1896.00000
52.67847 1745.27395 1891.00000
52.68871 1748.12550 1782.00000
52.69896 1751.11725 1816.00000
52.70920 1754.25107 1883.00000
52.71944 1757.53751 1897.00000
52.72968 1760.99264 1833.00000
52.73992 1764.62195 1850.00000
52.75016 1768.43588 1879.00000
52.76041 1772.45245 1865.00000
52.77065 1776.68811 1857.00000
52.78089 1781.15966 1821.00000
52.79113 1785.88590 1807.00000
52.80137 1790.88762 1907.00000
52.81161 1796.18778 1971.00000
52.82185 1801.81187 1910.00000
52.83210 1807.78827 1907.00000
52.84234 1814.14872 1907.00000
52.85258 1820.92910 1867.00000
52.86282 1828.17081 1895.00000
52.87306 1835.92069 1873.00000
52.88330 1844.22496 1858.00000
52.89354 1853.13363 1940.00000
52.90379 1862.71566 1871.00000
52.91403 1873.04515 1818.00000
52.92427 1884.20467 1900.00000
52.93451 1896.28773 1933.00000
52.94475 1909.40032 1935.00000
52.95499 1923.66210 2003.00000
52.96523 1939.20753 1905.00000
52.97548 1956.18637 1983.00000
52.98572 1974.76307 1995.00000
52.99596 1995.11450 2062.00000
53.00620 2017.42478 2009.00000
53.01644 2041.87620 2120.00000
53.02668 2068.63502 2010.00000
53.03692 2097.83181 2138.00000
53.04717 2129.53825 2205.00000
53.05741 2163.74584 2195.00000
53.06765 2200.35807 2284.00000
53.07789 2239.21211 2198.00000
53.08813 2280.14653 2260.00000
53.09837 2323.12126 2391.00000
53.10862 2368.37827 2468.00000
53.11886 2416.59943 2523.00000
53.12910 2468.99432 2612.00000
53.13934 2527.34837 2621.00000
53.14958 2594.00436 2699.00000
53.15982 2671.84907 2773.00000
53.17006 2764.36997 2896.00000
53.18031 2875.83199 3131.00000
53.19055 3011.61263 3418.00000
53.20079 3178.73805 3398.00000
53.21103 3386.69316 3778.00000
53.22127 3648.63313 4192.00000
53.23151 3983.19935 4578.00000
53.24175 4417.21634 5060.00000
53.25200 4989.50900 5686.00000
53.26224 5755.54566 6426.00000
53.27248 6790.48384 7397.00000
53.28272 8182.20289 8526.00000
53.29296 9994.04710 10024.00000
53.30320 12167.65465 11425.00000
53.31344 14372.64607 13009.00000
53.32369 15953.45042 14007.00000
53.33393 16240.28956 14501.00000
53.34417 15126.80737 13936.00000
53.35441 13196.55558 12744.00000
53.36465 11179.21806 11350.00000
53.37489 9504.93679 9835.00000
53.38513 8298.44250 8485.00000
53.39538 7535.34543 7663.00000
53.40562 7157.93561 7346.00000
53.41586 7124.51837 7075.00000
53.42610 7417.11451 7443.00000
53.43634 8022.24821 7882.00000
53.44658 8884.36364 8648.00000
53.45683 9841.78406 9183.00000
53.46707 10609.30842 9769.00000
53.47731 10907.57713 10201.00000
53.48755 10695.12843 10184.00000
53.49779 10233.80893 10095.00000
53.50803 9881.70490 9953.00000
53.51827 9862.47479 9918.00000
53.52852 10171.34215 10078.00000
53.53876 10569.62109 10409.00000
53.54900 10676.09419 10229.00000
53.55924 10213.75995 9691.00000
53.56948 9234.24178 9011.00000
53.57972 8040.84014 7651.00000
53.58996 6925.41028 7011.00000
53.60021 6031.73792 6263.00000
53.61045 5384.56635 5720.00000
53.62069 4958.71400 5312.00000
53.63093 4723.06777 4851.00000
53.64117 4656.89512 4859.00000
53.65141 4749.02982 4866.00000
53.66165 4984.04706 5169.00000
53.67190 5315.28942 5313.00000
53.68214 5636.80341 5609.00000
53.69238 5794.74782 5733.00000
53.70262 5670.80123 5419.00000
53.71286 5274.92806 5177.00000
53.72310 4733.65637 4774.00000
53.73334 4187.76596 4319.00000
53.74359 3718.56623 3830.00000
53.75383 3346.61023 3544.00000
53.76407 3061.09393 3245.00000
53.77431 2842.89008 2871.00000
53.78455 2674.52979 2761.00000
53.79479 2542.61686 2704.00000
53.80504 2437.49508 2487.00000
53.81528 2352.32683 2326.00000
53.82552 2282.26200 2265.00000
53.83576 2223.82349 2236.00000
53.84600 2174.48199 2238.00000
53.85624 2132.36817 2106.00000
53.86648 2096.07830 2161.00000
53.87673 2064.54284 2077.00000
53.88697 2036.93690 2056.00000
53.89721 2012.61919 2023.00000
53.90745 1991.08978 2036.00000
53.91769 1971.96039 1982.00000
53.92793 1954.93272 2062.00000
53.93817 1939.78255 1939.00000
53.94842 1926.34809 1895.00000
53.95866 1914.52138 1944.00000
53.96890 1904.23905 1874.00000
53.97914 1895.46428 1976.00000
53.98938 1888.14984 1904.00000
53.99962 1882.18816 1862.00000
54.00986 1877.40974 1907.00000
54.02011 1873.72723 1882.00000
54.03035 1871.38485 1836.00000
54.04059 1871.05259 1902.00000
54.05083 1873.68331 1982.00000
54.06107 1880.40555 1922.00000
54.07131 1892.52203 1919.00000
54.08155 1911.31819 2009.00000
54.09180 1937.21377 1967.00000
54.10204 1967.88521 2038.00000
54.11228 1996.13453 2141.00000
54.12252 2010.81012 2168.00000
54.13276 2003.83973 2085.00000
54.14300 1977.54491 2003.00000
54.15325 1941.61883 2067.00000
54.16349 1906.12469 1986.00000
54.17373 1876.50724 1804.00000
54.18397 1854.18624 1884.00000
54.19421 1838.72921 1892.00000
54.20445 1829.31542 1837.00000
54.21469 1825.33611 1840.00000
54.22494 1826.46421 1792.00000
54.23518 1832.31732 1890.00000
54.24542 1841.69678 1908.00000
54.25566 1851.64227 1835.00000
54.26590 1857.35557 1812.00000
54.27614 1854.32562 1941.00000
54.28638 1841.69722 1876.00000
54.29663 1823.03570 1844.00000
54.30687 1803.27460 1783.00000
54.31711 1785.67285 1793.00000
54.32735 1771.28740 1746.00000
54.33759 1759.86937 1788.00000
54.34783 1750.72762 1748.00000
54.35807 1743.32468 1766.00000
54.36832 1737.47543 1716.00000
54.37856 1732.66304 1698.00000
54.38880 1728.59140 1732.00000
54.39904 1725.08267 1760.00000
54.40928 1722.01156 1674.00000
54.41952 1719.28706 1732.00000
54.42976 1716.84205 1701.00000
54.44001 1714.62572 1669.00000
54.45025 1712.60063 1678.00000
54.46049 1710.73538 1676.00000
54.47073 1709.00640 1715.00000
54.48097 1707.39518 1772.00000
54.49121 1705.88691 1719.00000
54.50146 1704.46942 1718.00000
54.51170 1703.13185 1671.00000
54.52194 1701.86601 1724.00000
54.53218 1700.66512 1704.00000
54.54242 1699.52322 1708.00000
54.55266 1698.43436 1651.00000
54.56290 1697.39426 1698.00000
54.57315 1696.39919 1631.00000
54.58339 1695.44573 1719.00000
54.59363 1694.53085 1742.00000
54.60387 1693.65187 1630.00000
54.61411 1692.80640 1705.00000
54.62435 1691.99229 1655.00000
54.63459 1691.20761 1664.00000
54.64484 1690.45061 1659.00000
54.65508 1689.71972 1682.00000
54.66532 1689.01353 1697.00000
54.67556 1688.33091 1685.00000
54.68580 1687.67072 1706.00000
54.69604 1687.03110 1661.00000
54.70628 1686.41126 1736.00000
54.71653 1685.81031 1650.00000
54.72677 1685.22663 1738.00000
54.73701 1684.65495 1669.00000
54.74725 1684.07405 1628.00000
54.75749 1683.40130 1623.00000
54.76773 1682.47132 1673.00000
54.77797 1681.40695 1631.00000
54.78822 1680.82151 1593.00000
54.79846 1680.35781 1661.00000
54.80870 1679.91177 1672.00000
54.81894 1679.47742 1696.00000
54.82918 1679.05449 1629.00000
54.83942 1678.64281 1645.00000
54.84967 1678.24183 1700.00000
54.85991 1677.85113 1741.00000
54.87015 1677.47031 1678.00000
54.88039 1677.09904 1651.00000
54.89063 1676.73697 1626.00000
54.90087 1676.38367 1672.00000
54.91111 1676.03845 1637.00000
54.92136 1675.69949 1628.00000
54.93160 1675.36423 1652.00000
54.94184 1675.03547 1685.00000
54.95208 1674.72100 1690.00000
54.96232 1674.41395 1629.00000
54.97256 1674.10603 1719.00000
54.98280 1673.76599 1672.00000
54.99305 1673.28348 1700.00000
55.00329 1672.55487 1638.00000
55.01353 1671.79060 1624.00000
55.02377 1670.96256 1605.00000
55.03401 1670.61129 1668.00000
55.04425 1670.37513 1661.00000
55.05449 1670.15046 1680.00000
55.06474 1669.93133 1661.00000
55.07498 1669.71791 1714.00000
55.08522 1669.50814 1601.00000
55.09546 1669.30217 1613.00000
55.10570 1669.10044 1586.00000
55.11594 1668.90295 1627.00000
55.12618 1668.70959 1687.00000
55.13643 1668.52025 1616.00000
55.14667 1668.33483 1685.00000
55.15691 1668.15322 1657.00000
55.16715 1667.97533 1685.00000
55.17739 1667.80105 1647.00000
55.18763 1667.63030 1622.00000
55.19788 1667.46284 1648.00000
55.20812 1667.29747 1622.00000
55.21836 1667.12888 1633.00000
55.22860 1666.93285 1652.00000
55.23884 1666.62681 1643.00000
55.24908 1666.18047 1736.00000
55.25932 1665.92270 1587.00000
55.26957 1665.76919 1638.00000
55.27981 1665.63384 1661.00000
55.29005 1665.50188 1689.00000
55.30029 1665.37249 1710.00000
55.31053 1665.24563 1633.00000
55.32077 1665.12124 1648.00000
55.33101 1664.99928 1630.00000
55.34126 1664.87970 1730.00000
55.35150 1664.76245 1638.00000
55.36174 1664.64750 1689.00000
55.37198 1664.53481 1644.00000
55.38222 1664.42433 1639.00000
55.39246 1664.31604 1549.00000
55.40270 1664.20990 1632.00000
55.41295 1664.10588 1610.00000
55.42319 1664.00395 1721.00000
55.43343 1663.90409 1723.00000
55.44367 1663.80628 1645.00000
55.45391 1663.71049 1693.00000
55.46415 1663.61666 1638.00000
55.47439 1663.52472 1613.00000
55.48464 1663.43477 1574.00000
55.49488 1663.34698 1658.00000
55.50512 1663.26122 1709.00000
55.51536 1663.17748 1634.00000
55.52560 1663.09575 1643.00000
55.53584 1663.01606 1644.00000
55.54609 1662.93842 1678.00000
55.55633 1662.86277 1617.00000
55.56657 1662.78871 1654.00000
55.57681 1662.71473 1590.00000
55.58705 1662.63861 1611.00000
55.59729 1662.56383 1625.00000
55.60753 1662.49832 1610.00000
55.61778 1662.43696 1598.00000
55.62802 1662.37835 1596.00000
55.63826 1662.32251 1647.00000
55.64850 1662.26958 1645.00000
55.65874 1662.21966 1661.00000
55.66898 1662.17286 1651.00000
55.67922 1662.12924 1676.00000
55.68947 1662.08881 1627.00000
55.69971 1662.05149 1600.00000
55.70995 1662.01715 1643.00000
55.72019 1661.98550 1625.00000
55.73043 1661.95638 1640.00000
55.74067 1661.93003 1618.00000
55.75091 1661.90644 1577.00000
55.76116 1661.88606 1665.00000
55.77140 1661.86979 1674.00000
55.78164 1661.85901 1652.00000
55.79188 1661.85552 1593.00000
55.80212 1661.86148 1602.00000
55.81236 1661.87938 1597.00000
55.82261 1661.91150 1679.00000
55.83285 1661.95882 1609.00000
55.84309 1662.02563 1667.00000
55.85333 1662.13065 1669.00000
55.86357 1662.27786 1653.00000
55.87381 1662.47693 1597.00000
55.88405 1662.74434 1610.00000
55.89430 1663.10385 1678.00000
55.90454 1663.58869 1668.00000
55.91478 1664.24243 1618.00000
55.92502 1665.10960 1670.00000
55.93526 1666.18643 1652.00000
55.94550 1667.37073 1666.00000
55.95574 1668.76150 1656.00000
55.96599 1670.75766 1612.00000
55.97623 1672.46503 1698.00000
55.98647 1673.11601 1705.00000
55.99671 1672.41789 1613.00000
56.00695 1670.73425 1630.00000
56.01719 1668.72551 1650.00000
56.02743 1666.88806 1593.00000
56.03768 1665.43476 1639.00000
56.04792 1664.39258 1697.00000
56.05816 1663.71752 1676.00000
56.06840 1663.35992 1649.00000
56.07864 1663.28839 1630.00000
56.08888 1663.49016 1611.00000
56.09912 1663.95339 1662.00000
56.10937 1664.62714 1630.00000
56.11961 1665.36421 1594.00000
56.12985 1665.89878 1661.00000
56.14009 1665.94834 1647.00000
56.15033 1665.41354 1632.00000
56.16057 1664.44574 1640.00000
56.17082 1663.26812 1721.00000
56.18106 1662.03034 1653.00000
56.19130 1660.98381 1629.00000
56.20154 1660.29412 1568.00000
56.21178 1659.79102 1563.00000
56.22202 1659.40269 1679.00000
56.23226 1659.09804 1591.00000
56.24251 1658.85524 1681.00000
56.25275 1658.65842 1639.00000
56.26299 1658.49622 1566.00000
56.27323 1658.36045 1632.00000
56.28347 1658.24515 1588.00000
56.29371 1658.14596 1581.00000
56.30395 1658.05960 1643.00000
56.31420 1657.98360 1731.00000
56.32444 1657.91608 1640.00000
56.33468 1657.85557 1630.00000
56.34492 1657.80094 1632.00000
56.35516 1657.75141 1594.00000
56.36540 1657.70680 1675.00000
56.37564 1657.66708 1607.00000
56.38589 1657.62989 1638.00000
56.39613 1657.59411 1626.00000
56.40637 1657.56045 1586.00000
56.41661 1657.52887 1595.00000
56.42685 1657.49915 1672.00000
56.43709 1657.47110 1656.00000
56.44733 1657.44454 1597.00000
56.45758 1657.41933 1476.00000
56.46782 1657.39534 1642.00000
56.47806 1657.37246 1668.00000
56.48830 1657.35059 1667.00000
56.49854 1657.32966 1632.00000
56.50878 1657.30962 1613.00000
56.51903 1657.29055 1600.00000
56.52927 1657.27323 1631.00000
56.53951 1657.26071 1607.00000
56.54975 1657.25470 1576.00000
56.55999 1657.24366 1630.00000
56.57023 1657.22866 1597.00000
56.58047 1657.21330 1648.00000
56.59072 1657.19837 1657.00000
56.60096 1657.18392 1686.00000
56.61120 1657.16992 1657.00000
56.62144 1657.15634 1626.00000
56.63168 1657.14317 1641.00000
56.64192 1657.13040 1653.00000
56.65216 1657.11812 1699.00000
56.66241 1657.10669 1648.00000
56.67265 1657.09644 1655.00000
56.68289 1657.08588 1667.00000
56.69313 1657.07496 1638.00000
56.70337 1657.06420 1636.00000
56.71361 1657.05372 1587.00000
56.72385 1657.04353 1665.00000
56.73410 1657.03360 1669.00000
56.74434 1657.02390 1632.00000
56.75458 1657.01429 1678.00000
56.76482 1657.00417 1616.00000
56.77506 1656.99144 1583.00000
56.78530 1656.97434 1625.00000
56.79554 1656.95931 1656.00000
56.80579 1656.94996 1696.00000
56.81603 1656.94195 1551.00000
56.82627 1656.93397 1608.00000
56.83651 1656.92589 1569.00000
56.84675 1656.91844 1560.00000
56.85699 1656.91136 1669.00000
56.86724 1656.90449 1613.00000
56.87748 1656.89781 1674.00000
56.88772 1656.89130 1625.00000
56.89796 1656.88497 1646.00000
56.90820 1656.87880 1638.00000
56.91844 1656.87281 1664.00000
56.92868 1656.86698 1651.00000
56.93893 1656.86131 1608.00000
56.94917 1656.85580 1628.00000
56.95941 1656.85045 1609.00000
56.96965 1656.84525 1605.00000
56.97989 1656.84020 1600.00000
56.99013 1656.83530 1598.00000
57.00037 1656.83054 1676.00000
57.01062 1656.82593 1608.00000
57.02086 1656.82142 1642.00000
57.03110 1656.81635 1693.00000
57.04134 1656.80652 1614.00000
57.05158 1656.77143 1602.00000
57.06182 1656.62893 1600.00000
57.07206 1656.20824 1670.00000
57.08231 1655.61975 1679.00000
57.09255 1655.50466 1570.00000
57.10279 1655.50193 1672.00000
57.11303 1655.50564 1698.00000
57.12327 1655.50944 1694.00000
57.13351 1655.51330 1623.00000
57.14375 1655.51723 1677.00000
57.15400 1655.52123 1613.00000
57.16424 1655.52529 1625.00000
57.17448 1655.52941 1697.00000
57.18472 1655.53360 1636.00000
57.19496 1655.53785 1612.00000
57.20520 1655.54217 1676.00000
57.21545 1655.54658 1550.00000
57.22569 1655.55119 1640.00000
57.23593 1655.55615 1623.00000
57.24617 1655.56124 1590.00000
57.25641 1655.56597 1568.00000
57.26665 1655.57050 1653.00000
57.27689 1655.57363 1681.00000
57.28714 1655.56941 1570.00000
57.29738 1655.53037 1574.00000
57.30762 1655.36366 1600.00000
57.31786 1655.04703 1651.00000
57.32810 1654.96835 1594.00000
57.33834 1654.96842 1618.00000
57.34858 1654.97674 1595.00000
57.35883 1654.98540 1631.00000
57.36907 1654.99408 1638.00000
57.37931 1655.00281 1601.00000
57.38955 1655.01161 1642.00000
57.39979 1655.02066 1659.00000
57.41003 1655.03067 1588.00000
57.42027 1655.04209 1635.00000
57.43052 1655.05211 1598.00000
57.44076 1655.06152 1630.00000
57.45100 1655.07173 1618.00000
57.46124 1655.08333 1605.00000
57.47148 1655.09360 1691.00000
57.48172 1655.10298 1594.00000
57.49196 1655.11218 1637.00000
57.50221 1655.12117 1598.00000
57.51245 1655.12990 1656.00000
57.52269 1655.13912 1637.00000
57.53293 1655.14857 1693.00000
57.54317 1655.15809 1640.00000
57.55341 1655.16766 1601.00000
57.56366 1655.17727 1595.00000
57.57390 1655.18695 1587.00000
57.58414 1655.19671 1626.00000
57.59438 1655.20672 1616.00000
57.60462 1655.21759 1691.00000
57.61486 1655.22982 1652.00000
57.62510 1655.24118 1608.00000
57.63535 1655.25152 1719.00000
57.64559 1655.26171 1676.00000
57.65583 1655.27196 1620.00000
57.66607 1655.28228 1673.00000
57.67631 1655.29268 1649.00000
57.68655 1655.30316 1726.00000
57.69679 1655.31381 1613.00000
57.70704 1655.32493 1599.00000
57.71728 1655.33699 1634.00000
57.72752 1655.34933 1626.00000
57.73776 1655.36064 1614.00000
57.74800 1655.37206 1630.00000
57.75824 1655.38416 1574.00000
57.76848 1655.39638 1634.00000
57.77873 1655.40789 1605.00000
57.78897 1655.41937 1630.00000
57.79921 1655.43092 1606.00000
57.80945 1655.44248 1694.00000
57.81969 1655.45414 1601.00000
57.82993 1655.46609 1628.00000
57.84017 1655.47822 1604.00000
57.85042 1655.49050 1539.00000
57.86066 1655.50292 1591.00000
57.87090 1655.51549 1696.00000
57.88114 1655.52823 1679.00000
57.89138 1655.54114 1608.00000
57.90162 1655.55423 1594.00000
57.91187 1655.56725 1611.00000
57.92211 1655.57752 1604.00000
57.93235 1655.58170 1684.00000
57.94259 1655.59158 1669.00000
57.95283 1655.60524 1598.00000
57.96307 1655.61972 1673.00000
57.97331 1655.63449 1568.00000
57.98356 1655.64953 1609.00000
57.99380 1655.66484 1674.00000
58.00404 1655.68045 1588.00000
58.01428 1655.69637 1556.00000
58.02452 1655.71263 1633.00000
58.03476 1655.72923 1621.00000
58.04500 1655.74622 1611.00000
58.05525 1655.76360 1631.00000
58.06549 1655.78141 1647.00000
58.07573 1655.79968 1636.00000
58.08597 1655.81844 1676.00000
58.09621 1655.83772 1623.00000
58.10645 1655.85757 1580.00000
58.11669 1655.87803 1616.00000
58.12694 1655.89914 1630.00000
58.13718 1655.92095 1612.00000
58.14742 1655.94355 1679.00000
58.15766 1655.96701 1617.00000
58.16790 1655.99158 1601.00000
58.17814 1656.01830 1627.00000
58.18838 1656.05080 1597.00000
58.19863 1656.09060 1658.00000
58.20887 1656.12343 1589.00000
58.21911 1656.15442 1569.00000
58.22935 1656.18642 1680.00000
58.23959 1656.22007 1650.00000
58.24983 1656.25555 1550.00000
58.26008 1656.29299 1540.00000
58.27032 1656.33254 1627.00000
58.28056 1656.37432 1661.00000
58.29080 1656.41841 1681.00000
58.30104 1656.46487 1558.00000
58.31128 1656.51368 1597.00000
58.32152 1656.56479 1592.00000
58.33177 1656.61807 1650.00000
58.34201 1656.67343 1640.00000
58.35225 1656.73084 1655.00000
58.36249 1656.79043 1612.00000
58.37273 1656.85260 1603.00000
58.38297 1656.91807 1645.00000
58.39321 1656.98793 1645.00000
58.40346 1657.06364 1621.00000
58.41370 1657.14700 1672.00000
58.42394 1657.24018 1718.00000
58.43418 1657.34570 1593.00000
58.44442 1657.46659 1602.00000
58.45466 1657.60653 1644.00000
58.46490 1657.77017 1604.00000
58.47515 1657.96352 1666.00000
58.48539 1658.19452 1589.00000
58.49563 1658.47392 1672.00000
58.50587 1658.81644 1642.00000
58.51611 1659.24256 1623.00000
58.52635 1659.78086 1592.00000
58.53659 1660.47106 1608.00000
58.54684 1661.36658 1575.00000
58.55708 1662.53342 1574.00000
58.56732 1664.03626 1705.00000
58.57756 1665.89471 1620.00000
58.58780 1667.99519 1685.00000
58.59804 1669.99149 1705.00000
58.60829 1671.32965 1647.00000
58.61853 1671.53496 1642.00000
58.62877 1670.58699 1670.00000
58.63901 1668.94016 1609.00000
58.64925 1667.15618 1662.00000
58.65949 1665.60221 1634.00000
58.66973 1664.41864 1654.00000
58.67998 1663.61218 1573.00000
58.69022 1663.14152 1683.00000
58.70046 1662.96374 1601.00000
58.71070 1663.05126 1681.00000
58.72094 1663.39214 1604.00000
58.73118 1663.97759 1700.00000
58.74142 1664.77345 1617.00000
58.75167 1665.67699 1555.00000
58.76191 1666.48823 1669.00000
58.77215 1666.95785 1690.00000
58.78239 1666.92742 1704.00000
58.79263 1666.45095 1616.00000
58.80287 1665.75177 1658.00000
58.81311 1665.06857 1638.00000
58.82336 1664.55212 1727.00000
58.83360 1664.26104 1615.00000
58.84384 1664.20268 1759.00000
58.85408 1664.36960 1682.00000
58.86432 1664.75944 1690.00000
58.87456 1665.38363 1715.00000
58.88480 1666.27204 1694.00000
58.89505 1667.47748 1718.00000
58.90529 1669.08240 1769.00000
58.91553 1671.20826 1778.00000
58.92577 1674.02693 1763.00000
58.93601 1677.76764 1697.00000
58.94625 1682.69980 1724.00000
58.95650 1689.04430 1762.00000
58.96674 1696.73723 1708.00000
58.97698 1705.02290 1817.00000
58.98722 1712.14675 1741.00000
58.99746 1715.82090 1721.00000
59.00770 1714.69033 1728.00000
59.01794 1709.44596 1735.00000
59.02819 1702.18676 1708.00000
59.03843 1694.92152 1645.00000
59.04867 1688.78412 1769.00000
59.05891 1684.12929 1714.00000
59.06915 1680.90603 1662.00000
59.07939 1678.94307 1739.00000
59.08963 1678.09057 1615.00000
59.09988 1678.26518 1669.00000
59.11012 1679.43777 1665.00000
59.12036 1681.56889 1737.00000
59.13060 1684.47751 1630.00000
59.14084 1687.66691 1705.00000
59.15108 1690.26348 1697.00000
59.16132 1691.30986 1676.00000
59.17157 1690.35906 1648.00000
59.18181 1687.81112 1698.00000
59.19205 1684.60201 1643.00000
59.20229 1681.60300 1619.00000
59.21253 1679.34057 1618.00000
59.22277 1678.03583 1662.00000
59.23301 1677.75085 1661.00000
59.24326 1678.52421 1666.00000
59.25350 1680.42973 1681.00000
59.26374 1683.55818 1622.00000
59.27398 1687.89806 1657.00000
59.28422 1693.08521 1730.00000
59.29446 1698.13161 1751.00000
59.30471 1701.47732 1656.00000
59.31495 1701.71590 1729.00000
59.32519 1698.65234 1651.00000
59.33543 1693.47459 1728.00000
59.34567 1687.79339 1636.00000
59.35591 1682.70951 1695.00000
59.36615 1678.66808 1711.00000
59.37640 1675.70937 1593.00000
59.38664 1673.71856 1640.00000
59.39688 1672.56696 1604.00000
59.40712 1672.16722 1754.00000
59.41736 1672.48000 1678.00000
59.42760 1673.48753 1687.00000
59.43784 1675.12693 1667.00000
59.44809 1677.17542 1667.00000
59.45833 1679.13441 1687.00000
59.46857 1680.27198 1667.00000
59.47881 1679.97304 1687.00000
59.48905 1678.18176 1681.00000
59.49929 1675.44568 1666.00000
59.50953 1672.48317 1726.00000
59.51978 1669.79059 1650.00000
59.53002 1667.56073 1695.00000
59.54026 1665.79096 1639.00000
59.55050 1664.40788 1601.00000
59.56074 1663.32704 1625.00000
59.57098 1662.47574 1577.00000
59.58123 1661.79757 1673.00000
59.59147 1661.25055 1630.00000
59.60171 1660.80385 1620.00000
59.61195 1660.43479 1687.00000
59.62219 1660.12663 1612.00000
59.63243 1659.86683 1589.00000
59.64267 1659.64592 1641.00000
59.65292 1659.45666 1587.00000
59.66316 1659.29344 1595.00000
59.67340 1659.15186 1658.00000
59.68364 1659.02844 1665.00000
59.69388 1658.92040 1661.00000
59.70412 1658.82550 1617.00000
59.71436 1658.74188 1695.00000
59.72461 1658.66806 1690.00000
59.73485 1658.60278 1630.00000
59.74509 1658.54500 1520.00000
59.75533 1658.49386 1609.00000
59.76557 1658.44860 1627.00000
59.77581 1658.40861 1591.00000
59.78605 1658.37335 1597.00000
59.79630 1658.34235 1587.00000
59.80654 1658.31523 1602.00000
59.81678 1658.29164 1585.00000
59.82702 1658.27128 1677.00000
59.83726 1658.25390 1609.00000
59.84750 1658.23927 1671.00000
59.85774 1658.22719 1661.00000
59.86799 1658.21745 1651.00000
59.87823 1658.20967 1627.00000
59.88847 1658.20295 1633.00000
59.89871 1658.19688 1675.00000
59.90895 1658.19490 1661.00000
59.91919 1658.19526 1631.00000
59.92944 1658.19734 1693.00000
59.93968 1658.20101 1655.00000
59.94992 1658.20602 1698.00000
59.96016 1658.21224 1686.00000
59.97040 1658.22043 1644.00000
59.98064 1658.23025 1662.00000
59.99088 1658.24152 1669.00000
60.00113 1658.25421 1672.00000
60.01137 1658.26829 1774.00000
60.02161 1658.28377 1655.00000
60.03185 1658.30063 1682.00000
60.04209 1658.31887 1644.00000
60.05233 1658.33851 1656.00000
60.06257 1658.35954 1619.00000
60.07282 1658.38199 1659.00000
60.08306 1658.40588 1609.00000
60.09330 1658.43123 1614.00000
60.10354 1658.45810 1694.00000
60.11378 1658.48653 1635.00000
60.12402 1658.51654 1651.00000
60.13426 1658.54817 1634.00000
60.14451 1658.58148 1648.00000
60.15475 1658.61652 1618.00000
60.16499 1658.65336 1665.00000
60.17523 1658.69207 1646.00000
60.18547 1658.73268 1612.00000
60.19571 1658.77508 1697.00000
60.20595 1658.81883 1614.00000
60.21620 1658.86396 1659.00000
60.22644 1658.91264 1590.00000
60.23668 1658.96413 1621.00000
60.24692 1659.01868 1652.00000
60.25716 1659.07610 1576.00000
60.26740 1659.13648 1570.00000
60.27765 1659.19998 1637.00000
60.28789 1659.26680 1578.00000
60.29813 1659.33718 1584.00000
60.30837 1659.41133 1581.00000
60.31861 1659.48955 1609.00000
60.32885 1659.57210 1682.00000
60.33909 1659.65932 1617.00000
60.34934 1659.75180 1636.00000
60.35958 1659.84973 1639.00000
60.36982 1659.95356 1634.00000
60.38006 1660.06377 1600.00000
60.39030 1660.18090 1548.00000
60.40054 1660.30556 1562.00000
60.41078 1660.43841 1587.00000
60.42103 1660.58022 1645.00000
60.43127 1660.73181 1658.00000
60.44151 1660.89412 1657.00000
60.45175 1661.06820 1590.00000
60.46199 1661.25518 1611.00000
60.47223 1661.45636 1580.00000
60.48247 1661.67304 1639.00000
60.49272 1661.90665 1578.00000
60.50296 1662.15916 1631.00000
60.51320 1662.43289 1628.00000
60.52344 1662.72950 1582.00000
60.53368 1663.05097 1621.00000
60.54392 1663.39935 1600.00000
60.55416 1663.77660 1588.00000
60.56441 1664.18445 1620.00000
60.57465 1664.62418 1653.00000
60.58489 1665.09715 1584.00000
60.59513 1665.60310 1571.00000
60.60537 1666.13980 1608.00000
60.61561 1666.70461 1598.00000
60.62586 1667.29449 1630.00000
60.63610 1667.90909 1638.00000
60.64634 1668.54942 1628.00000
60.65658 1669.21754 1642.00000
60.66682 1669.92093 1608.00000
60.67706 1670.67272 1555.00000
60.68730 1671.49179 1615.00000
60.69755 1672.40291 1677.00000
60.70779 1673.43865 1613.00000
60.71803 1674.64831 1642.00000
60.72827 1676.11010 1582.00000
60.73851 1677.87522 1690.00000
60.74875 1679.83953 1604.00000
60.75899 1682.15556 1615.00000
60.76924 1684.94217 1792.00000
60.77948 1688.32358 1675.00000
60.78972 1692.46275 1673.00000
60.79996 1697.57920 1612.00000
60.81020 1703.97210 1658.00000
60.82044 1712.05212 1714.00000
60.83068 1722.52136 1635.00000
60.84093 1736.11435 1744.00000
60.85117 1753.85698 1712.00000
60.86141 1776.90697 1755.00000
60.87165 1806.11781 1760.00000
60.88189 1840.98571 1795.00000
60.89213 1877.98128 1796.00000
60.90237 1909.50876 1977.00000
60.91262 1926.06656 1941.00000
60.92286 1922.01072 1860.00000
60.93310 1899.74987 1853.00000
60.94334 1867.63035 1851.00000
60.95358 1834.30131 1786.00000
60.96382 1805.16936 1794.00000
60.97407 1782.28370 1755.00000
60.98431 1765.70659 1751.00000
60.99455 1754.76458 1755.00000
61.00479 1748.74731 1665.00000
61.01503 1747.18050 1721.00000
61.02527 1749.85236 1724.00000
61.03551 1756.66643 1647.00000
61.04576 1767.28691 1718.00000
61.05600 1780.52725 1788.00000
61.06624 1793.54592 1852.00000
61.07648 1801.65356 1710.00000
61.08672 1801.05700 1732.00000
61.09696 1791.32552 1788.00000
61.10720 1775.42108 1698.00000
61.11745 1757.41405 1659.00000
61.12769 1740.38751 1733.00000
61.13793 1725.83068 1699.00000
61.14817 1714.03950 1656.00000
61.15841 1704.71870 1600.00000
61.16865 1697.39688 1640.00000
61.17889 1691.62270 1636.00000
61.18914 1687.02727 1650.00000
61.19938 1683.32806 1646.00000
61.20962 1680.31392 1557.00000
61.21986 1677.82848 1648.00000
61.23010 1675.75783 1627.00000
61.24034 1674.01482 1565.00000
61.25058 1672.53333 1677.00000
61.26083 1671.26316 1597.00000
61.27107 1670.16559 1691.00000
61.28131 1669.21038 1634.00000
61.29155 1668.37364 1625.00000
61.30179 1667.63633 1600.00000
61.31203 1666.98608 1534.00000
61.32228 1666.40686 1642.00000
61.33252 1665.88834 1596.00000
61.34276 1665.42231 1687.00000
61.35300 1665.00188 1650.00000
61.36324 1664.62128 1662.00000
61.37348 1664.27566 1614.00000
61.38372 1663.96087 1543.00000
61.39397 1663.67338 1636.00000
61.40421 1663.41015 1628.00000
61.41445 1663.16857 1702.00000
61.42469 1662.94637 1614.00000
61.43493 1662.74158 1629.00000
61.44517 1662.55247 1736.00000
61.45541 1662.37754 1558.00000
61.46566 1662.21545 1605.00000
61.47590 1662.06503 1561.00000
61.48614 1661.92524 1542.00000
61.49638 1661.79516 1630.00000
61.50662 1661.67395 1650.00000
61.51686 1661.56086 1600.00000
61.52710 1661.45512 1648.00000
61.53735 1661.35598 1580.00000
61.54759 1661.26324 1649.00000
61.55783 1661.17694 1634.00000
61.56807 1661.09614 1697.00000
61.57831 1661.02035 1645.00000
61.58855 1660.94923 1517.00000
61.59879 1660.88243 1557.00000
61.60904 1660.81968 1575.00000
61.61928 1660.76070 1583.00000
61.62952 1660.70524 1584.00000
61.63976 1660.65308 1623.00000
61.65000 1660.60401 1628.00000
61.66024 1660.55784 1549.00000
61.67049 1660.51439 1592.00000
61.68073 1660.47350 1600.00000
61.69097 1660.43503 1700.00000
61.70121 1660.39882 1612.00000
61.71145 1660.36476 1638.00000
61.72169 1660.33273 1630.00000
61.73193 1660.30261 1635.00000
61.74218 1660.27430 1708.00000
61.75242 1660.24772 1646.00000
61.76266 1660.22276 1640.00000
61.77290 1660.19934 1637.00000
61.78314 1660.17740 1633.00000
61.79338 1660.15690 1555.00000
61.80362 1660.13771 1648.00000
61.81387 1660.11959 1611.00000
61.82411 1660.10168 1569.00000
61.83435 1660.08087 1646.00000
61.84459 1660.05555 1540.00000
61.85483 1660.03735 1681.00000
61.86507 1660.02446 1596.00000
61.87531 1660.01335 1664.00000
61.88556 1660.00322 1653.00000
61.89580 1659.99395 1609.00000
61.90604 1659.98553 1592.00000
61.91628 1659.97788 1586.00000
61.92652 1659.97086 1621.00000
61.93676 1659.96388 1628.00000
61.94700 1659.95637 1680.00000
61.95725 1659.95009 1621.00000
61.96749 1659.94584 1679.00000
61.97773 1659.94252 1625.00000
61.98797 1659.93984 1632.00000
61.99821 1659.93776 1615.00000
62.00845 1659.93628 1619.00000
62.01870 1659.93536 1584.00000
62.02894 1659.93500 1633.00000
62.03918 1659.93519 1617.00000
62.04942 1659.93590 1645.00000
62.05966 1659.93713 1592.00000
62.06990 1659.93900 1589.00000
62.08014 1659.94240 1639.00000
62.09039 1659.95153 1585.00000
62.10063 1659.97130 1568.00000
62.11087 1659.98663 1603.00000
62.12111 1659.99421 1659.00000
62.13135 1660.00566 1558.00000
62.14159 1660.02763 1634.00000
62.15183 1660.04494 1637.00000
62.16208 1660.05342 1705.00000
62.17232 1660.06049 1589.00000
62.18256 1660.06793 1608.00000
62.19280 1660.07594 1613.00000
62.20304 1660.08446 1619.00000
62.21328 1660.09309 1624.00000
62.22352 1660.10211 1593.00000
62.23377 1660.11167 1623.00000
62.24401 1660.12170 1684.00000
62.25425 1660.13173 1596.00000
62.26449 1660.14162 1597.00000
62.27473 1660.15103 1662.00000
62.28497 1660.16104 1553.00000
62.29521 1660.17358 1618.00000
62.30546 1660.19196 1624.00000
62.31570 1660.22089 1580.00000
62.32594 1660.24520 1601.00000
62.33618 1660.26075 1604.00000
62.34642 1660.27488 1668.00000
62.35666 1660.28929 1676.00000
62.36691 1660.30407 1524.00000
62.37715 1660.31923 1660.00000
62.38739 1660.33479 1680.00000
62.39763 1660.35078 1641.00000
62.40787 1660.36732 1672.00000
62.41811 1660.38438 1606.00000
62.42835 1660.40156 1611.00000
62.43860 1660.41906 1592.00000
62.44884 1660.43696 1596.00000
62.45908 1660.45526 1532.00000
62.46932 1660.47397 1535.00000
62.47956 1660.49309 1590.00000
62.48980 1660.51264 1645.00000
62.50004 1660.53276 1592.00000
62.51029 1660.55467 1675.00000
62.52053 1660.58649 1563.00000
62.53077 1660.66281 1638.00000
62.54101 1660.81205 1561.00000
62.55125 1660.89615 1574.00000
62.56149 1660.93054 1644.00000
62.57173 1660.95581 1625.00000
62.58198 1660.98018 1602.00000
62.59222 1661.00156 1600.00000
62.60246 1661.01803 1633.00000
62.61270 1661.03861 1630.00000
62.62294 1661.06519 1591.00000
62.63318 1661.09350 1604.00000
62.64342 1661.12246 1604.00000
62.65367 1661.15201 1632.00000
62.66391 1661.18216 1630.00000
62.67415 1661.21292 1619.00000
62.68439 1661.24432 1654.00000
62.69463 1661.27636 1645.00000
62.70487 1661.30908 1683.00000
62.71512 1661.34248 1620.00000
62.72536 1661.37658 1642.00000
62.73560 1661.41142 1615.00000
62.74584 1661.44700 1573.00000
62.75608 1661.48336 1575.00000
62.76632 1661.52051 1527.00000
62.77656 1661.55846 1610.00000
62.78681 1661.59712 1581.00000
62.79705 1661.63641 1671.00000
62.80729 1661.67677 1674.00000
62.81753 1661.71924 1610.00000
62.82777 1661.76339 1671.00000
62.83801 1661.80724 1697.00000
62.84825 1661.85170 1632.00000
62.85850 1661.89653 1604.00000
62.86874 1661.93978 1641.00000
62.87898 1661.98167 1731.00000
62.88922 1662.04200 1739.00000
62.89946 1662.14806 1672.00000
62.90970 1662.24373 1651.00000
62.91994 1662.30491 1666.00000
62.93019 1662.36088 1613.00000
62.94043 1662.41801 1615.00000
62.95067 1662.47669 1608.00000
62.96091 1662.53701 1701.00000
62.97115 1662.59918 1697.00000
62.98139 1662.66420 1617.00000
62.99163 1662.73509 1678.00000
63.00188 1662.81231 1675.00000
63.01212 1662.88390 1636.00000
63.02236 1662.95577 1682.00000
63.03260 1663.02976 1649.00000
63.04284 1663.10611 1642.00000
63.05308 1663.18491 1633.00000
63.06333 1663.26631 1731.00000
63.07357 1663.35044 1643.00000
63.08381 1663.43745 1656.00000
63.09405 1663.52750 1671.00000
63.10429 1663.62076 1653.00000
63.11453 1663.71741 1637.00000
63.12477 1663.81765 1603.00000
63.13502 1663.92171 1634.00000
63.14526 1664.02980 1671.00000
63.15550 1664.14218 1573.00000
63.16574 1664.25912 1676.00000
63.17598 1664.38091 1588.00000
63.18622 1664.50784 1685.00000
63.19646 1664.64012 1550.00000
63.20671 1664.77754 1589.00000
63.21695 1664.91998 1673.00000
63.22719 1665.07004 1655.00000
63.23743 1665.22859 1650.00000
63.24767 1665.39520 1606.00000
63.25791 1665.57025 1711.00000
63.26815 1665.75439 1613.00000
63.27840 1665.94835 1642.00000
63.28864 1666.15297 1664.00000
63.29888 1666.36942 1655.00000
63.30912 1666.60014 1649.00000
63.31936 1666.84811 1601.00000
63.32960 1667.10924 1610.00000
63.33985 1667.38318 1640.00000
63.35009 1667.67409 1589.00000
63.36033 1667.98425 1700.00000
63.37057 1668.31553 1670.00000
63.38081 1668.66992 1724.00000
63.39105 1669.04960 1744.00000
63.40129 1669.45694 1693.00000
63.41154 1669.89448 1772.00000
63.42178 1670.36487 1657.00000
63.43202 1670.87085 1655.00000
63.44226 1671.41513 1620.00000
63.45250 1672.00027 1693.00000
63.46274 1672.62846 1713.00000
63.47298 1673.30133 1618.00000
63.48323 1674.01966 1737.00000
63.49347 1674.78318 1639.00000
63.50371 1675.59042 1674.00000
63.51395 1676.43881 1599.00000
63.52419 1677.32514 1683.00000
63.53443 1678.24638 1741.00000
63.54467 1679.20073 1593.00000
63.55492 1680.19002 1675.00000
63.56516 1681.22382 1635.00000
63.57540 1682.31722 1637.00000
63.58564 1683.49058 1685.00000
63.59588 1684.76118 1721.00000
63.60612 1686.16735 1730.00000
63.61636 1687.75061 1633.00000
63.62661 1689.55764 1604.00000
63.63685 1691.64253 1636.00000
63.64709 1694.06894 1666.00000
63.65733 1696.91353 1707.00000
63.66757 1700.27084 1678.00000
63.67781 1704.26012 1644.00000
63.68806 1709.03475 1731.00000
63.69830 1714.79572 1654.00000
63.70854 1721.81223 1662.00000
63.71878 1730.45738 1767.00000
63.72902 1741.24864 1767.00000
63.73926 1754.82383 1844.00000
63.74950 1771.92822 1757.00000
63.75975 1793.81015 1809.00000
63.76999 1821.97288 1896.00000
63.78023 1857.97186 1789.00000
63.79047 1902.64405 1874.00000
63.80071 1955.12172 1869.00000
63.81095 2010.34522 1978.00000
63.82119 2057.73745 2090.00000
63.83144 2083.93991 2098.00000
63.84168 2080.45674 2135.00000
63.85192 2049.88261 2020.00000
63.86216 2003.62053 1994.00000
63.87240 1954.12728 1907.00000
63.88264 1909.66898 1799.00000
63.89288 1873.80468 1811.00000
63.90313 1847.04634 1794.00000
63.91337 1828.50632 1866.00000
63.92361 1816.92342 1870.00000
63.93385 1811.23420 1749.00000
63.94409 1810.90898 1864.00000
63.95433 1815.96456 1819.00000
63.96457 1826.47126 1854.00000
63.97482 1842.02138 1868.00000
63.98506 1860.86516 1885.00000
63.99530 1878.99635 1915.00000
64.00554 1890.66245 1841.00000
64.01578 1890.83240 1921.00000
64.02602 1878.25710 1869.00000
64.03627 1856.16945 1903.00000
64.04651 1829.96180 1810.00000
64.05675 1804.30324 1856.00000
64.06699 1781.82413 1778.00000
64.07723 1763.33957 1766.00000
64.08747 1748.61616 1698.00000
64.09771 1736.99231 1736.00000
64.10796 1727.65506 1689.00000
64.11820 1719.94747 1761.00000
64.12844 1713.46479 1731.00000
64.13868 1707.98128 1718.00000
64.14892 1703.37644 1686.00000
64.15916 1699.46607 1669.00000
64.16940 1696.15458 1647.00000
64.17965 1693.36335 1662.00000
64.18989 1691.00423 1691.00000
64.20013 1688.99949 1622.00000
64.21037 1687.28564 1632.00000
64.22061 1685.81189 1718.00000
64.23085 1684.53786 1674.00000
64.24109 1683.43136 1690.00000
64.25134 1682.46659 1590.00000
64.26158 1681.62273 1640.00000
64.27182 1680.88283 1690.00000
64.28206 1680.23300 1611.00000
64.29230 1679.66189 1724.00000
64.30254 1679.16156 1641.00000
64.31278 1678.73391 1707.00000
64.32303 1678.39437 1642.00000
64.33327 1678.11164 1650.00000
64.34351 1677.82827 1633.00000
64.35375 1677.57503 1646.00000
64.36399 1677.35710 1638.00000
64.37423 1677.17188 1603.00000
64.38448 1677.01668 1688.00000
64.39472 1676.88917 1713.00000
64.40496 1676.78733 1602.00000
64.41520 1676.70939 1660.00000
64.42544 1676.65383 1596.00000
64.43568 1676.61930 1623.00000
64.44592 1676.60464 1579.00000
64.45617 1676.60885 1664.00000
64.46641 1676.63105 1701.00000
64.47665 1676.67054 1619.00000
64.48689 1676.72675 1633.00000
64.49713 1676.79900 1666.00000
64.50737 1676.88685 1686.00000
64.51761 1676.98989 1665.00000
64.52786 1677.10786 1619.00000
64.53810 1677.24047 1627.00000
64.54834 1677.38755 1649.00000
64.55858 1677.54898 1624.00000
64.56882 1677.72469 1712.00000
64.57906 1677.91468 1595.00000
64.58930 1678.11896 1645.00000
64.59955 1678.33764 1690.00000
64.60979 1678.57086 1712.00000
64.62003 1678.81878 1646.00000
64.63027 1679.08165 1616.00000
64.64051 1679.35974 1713.00000
64.65075 1679.65338 1619.00000
64.66099 1679.96294 1671.00000
64.67124 1680.28885 1655.00000
64.68148 1680.63159 1633.00000
64.69172 1680.99171 1622.00000
64.70196 1681.37000 1646.00000
64.71220 1681.76762 1665.00000
64.72244 1682.18513 1620.00000
64.73269 1682.62142 1575.00000
64.74293 1683.07830 1661.00000
64.75317 1683.55699 1716.00000
64.76341 1684.05847 1668.00000
64.77365 1684.58384 1651.00000
64.78389 1685.13411 1682.00000
64.79413 1685.70965 1703.00000
64.80438 1686.30768 1677.00000
64.81462 1686.92550 1656.00000
64.82486 1687.58105 1646.00000
64.83510 1688.27940 1619.00000
64.84534 1689.01422 1627.00000
64.85558 1689.78480 1684.00000
64.86582 1690.59425 1688.00000
64.87607 1691.44565 1678.00000
64.88631 1692.34351 1686.00000
64.89655 1693.29357 1692.00000
64.90679 1694.29328 1663.00000
64.91703 1695.34156 1641.00000
64.92727 1696.44700 1705.00000
64.93751 1697.61494 1663.00000
64.94776 1698.85007 1695.00000
64.95800 1700.15760 1659.00000
64.96824 1701.54331 1644.00000
64.97848 1703.01354 1746.00000
64.98872 1704.57532 1619.00000
64.99896 1706.23641 1638.00000
65.00920 1708.00538 1647.00000
65.01945 1709.89169 1709.00000
65.02969 1711.90575 1657.00000
65.03993 1714.05905 1699.00000
65.05017 1716.36416 1659.00000
65.06041 1718.83481 1711.00000
65.07065 1721.48588 1623.00000
65.08090 1724.33333 1747.00000
65.09114 1727.39407 1708.00000
65.10138 1730.68563 1601.00000
65.11162 1734.22577 1765.00000
65.12186 1738.03200 1701.00000
65.13210 1742.11990 1760.00000
65.14234 1746.50259 1711.00000
65.15259 1751.19484 1700.00000
65.16283 1756.19805 1746.00000
65.17307 1761.50540 1786.00000
65.18331 1767.10663 1718.00000
65.19355 1772.97613 1682.00000
65.20379 1779.09463 1670.00000
65.21403 1785.44717 1725.00000
65.22428 1792.03145 1788.00000
65.23452 1798.86812 1713.00000
65.24476 1806.00161 1832.00000
65.25500 1813.52413 1812.00000
65.26524 1821.57252 1772.00000
65.27548 1830.32357 1856.00000
65.28572 1839.99487 1783.00000
65.29597 1850.85219 1831.00000
65.30621 1863.20039 1858.00000
65.31645 1877.37994 1895.00000
65.32669 1893.79309 1907.00000
65.33693 1912.92088 1855.00000
65.34717 1935.34980 1981.00000
65.35741 1961.81032 2001.00000
65.36766 1993.22953 2044.00000
65.37790 2030.80304 2021.00000
65.38814 2076.09381 2060.00000
65.39838 2131.16837 2239.00000
65.40862 2198.78341 2243.00000
65.41886 2282.63769 2327.00000
65.42911 2387.68264 2330.00000
65.43935 2520.47439 2555.00000
65.44959 2689.40089 2694.00000
65.45983 2904.37111 2905.00000
65.47007 3174.98109 3051.00000
65.48031 3505.33028 3263.00000
65.49055 3883.32149 3505.00000
65.50080 4260.74376 3663.00000
65.51104 4554.48556 3762.00000
65.52128 4676.96079 3827.00000
65.53152 4592.29903 3723.00000
65.54176 4341.81432 3558.00000
65.55200 4009.18427 3544.00000
65.56224 3670.40883 3338.00000
65.57249 3371.17836 3300.00000
65.58273 3129.57303 3046.00000
65.59297 2947.17243 2938.00000
65.60321 2818.65324 2806.00000
65.61345 2737.51011 2778.00000
65.62369 2698.69290 2722.00000
65.63393 2699.41148 2664.00000
65.64418 2738.74750 2699.00000
65.65442 2816.17071 2727.00000
65.66466 2928.43865 2901.00000
65.67490 3064.65397 2829.00000
65.68514 3201.43910 3001.00000
65.69538 3303.71367 2870.00000
65.70562 3336.50932 2950.00000
65.71587 3283.79119 2873.00000
65.72611 3158.52350 2826.00000
65.73635 2993.79814 2694.00000
65.74659 2823.95874 2724.00000
65.75683 2672.01190 2640.00000
65.76707 2548.05511 2468.00000
65.77732 2453.63880 2522.00000
65.78756 2386.53787 2522.00000
65.79780 2343.78997 2502.00000
65.80804 2323.14479 2381.00000
65.81828 2323.62620 2374.00000
65.82852 2345.91213 2482.00000
65.83876 2391.68913 2539.00000
65.84901 2464.15050 2537.00000
65.85925 2566.86178 2658.00000
65.86949 2701.37208 2797.00000
65.87973 2862.39569 2965.00000
65.88997 3031.06829 3028.00000
65.90021 3171.58815 3110.00000
65.91045 3241.02576 3091.00000
65.92070 3213.62294 3027.00000
65.93094 3099.15612 2807.00000
65.94118 2934.44371 2702.00000
65.95142 2758.98960 2485.00000
65.96166 2599.15099 2396.00000
65.97190 2466.65620 2321.00000
65.98214 2363.66298 2320.00000
65.99239 2287.92144 2275.00000
66.00263 2236.11249 2199.00000
66.01287 2205.90061 2146.00000
66.02311 2194.88675 2250.00000
66.03335 2202.43373 2251.00000
66.04359 2228.48225 2289.00000
66.05383 2272.43314 2310.00000
66.06408 2331.07612 2371.00000
66.07432 2395.84173 2359.00000
66.08456 2451.38829 2319.00000
66.09480 2479.05082 2469.00000
66.10504 2465.84984 2379.00000
66.11528 2412.44874 2374.00000
66.12553 2332.08624 2192.00000
66.13577 2241.99738 2120.00000
66.14601 2155.59639 1967.00000
66.15625 2079.88643 1992.00000
66.16649 2016.80263 1955.00000
66.17673 1965.50283 1947.00000
66.18697 1924.12677 1824.00000
66.19722 1890.71032 1893.00000
66.20746 1863.52889 1848.00000
66.21770 1841.21827 1776.00000
66.22794 1822.71850 1718.00000
66.23818 1807.21853 1741.00000
66.24842 1794.10048 1727.00000
66.25866 1782.89213 1708.00000
66.26891 1773.23016 1690.00000
66.27915 1764.83274 1709.00000
66.28939 1757.47920 1682.00000
66.29963 1750.99684 1721.00000
66.30987 1745.26193 1679.00000
66.32011 1740.13991 1644.00000
66.33035 1735.54134 1694.00000
66.34060 1731.39287 1730.00000
66.35084 1727.63397 1643.00000
66.36108 1724.21477 1694.00000
66.37132 1721.09590 1654.00000
66.38156 1718.24424 1700.00000
66.39180 1715.61536 1583.00000
66.40204 1713.18921 1654.00000
66.41229 1710.94559 1639.00000
66.42253 1708.86552 1651.00000
66.43277 1706.93241 1625.00000
66.44301 1705.13181 1670.00000
66.45325 1703.45112 1746.00000
66.46349 1701.87950 1701.00000
66.47374 1700.40851 1802.00000
66.48398 1699.03140 1560.00000
66.49422 1697.73578 1702.00000
66.50446 1696.51124 1620.00000
66.51470 1695.34541 1585.00000
66.52494 1694.19686 1687.00000
66.53518 1693.03760 1650.00000
66.54543 1692.02539 1639.00000
66.55567 1691.09923 1681.00000
66.56591 1690.22535 1702.00000
66.57615 1689.39560 1700.00000
66.58639 1688.60670 1679.00000
66.59663 1687.85602 1565.00000
66.60687 1687.14175 1564.00000
66.61712 1686.46073 1662.00000
66.62736 1685.81088 1603.00000
66.63760 1685.19031 1588.00000
66.64784 1684.59726 1627.00000
66.65808 1684.03010 1699.00000
66.66832 1683.48737 1698.00000
66.67856 1682.96766 1614.00000
66.68881 1682.46974 1670.00000
66.69905 1681.99259 1630.00000
66.70929 1681.53607 1612.00000
66.71953 1681.10114 1670.00000
66.72977 1680.68504 1671.00000
66.74001 1680.28135 1634.00000
66.75025 1679.89401 1648.00000
66.76050 1679.52530 1629.00000
66.77074 1679.17075 1637.00000
66.78098 1678.82564 1616.00000
66.79122 1678.49295 1734.00000
66.80146 1678.17456 1646.00000
66.81170 1677.87266 1684.00000
66.82195 1677.58210 1637.00000
66.83219 1677.29726 1666.00000
66.84243 1677.02404 1575.00000
66.85267 1676.77451 1636.00000
66.86291 1676.57320 1577.00000
66.87315 1676.40546 1580.00000
66.88339 1676.18421 1621.00000
66.89364 1675.95610 1635.00000
66.90388 1675.73536 1659.00000
66.91412 1675.52161 1683.00000
66.92436 1675.30815 1612.00000
66.93460 1675.07258 1680.00000
66.94484 1674.81672 1613.00000
66.95508 1674.62200 1575.00000
66.96533 1674.44611 1611.00000
66.97557 1674.27744 1600.00000
66.98581 1674.11582 1652.00000
66.99605 1673.96397 1613.00000
67.00629 1673.83115 1658.00000
67.01653 1673.76075 1648.00000
67.02677 1673.82672 1621.00000
67.03702 1673.74088 1668.00000
67.04726 1673.61604 1642.00000
67.05750 1673.49300 1674.00000
67.06774 1673.36967 1626.00000
67.07798 1673.24121 1641.00000
67.08822 1673.12395 1625.00000
67.09847 1673.02053 1694.00000
67.10871 1672.92362 1605.00000
67.11895 1672.83152 1600.00000
67.12919 1672.74409 1677.00000
67.13943 1672.66132 1701.00000
67.14967 1672.58346 1672.00000
67.15991 1672.51203 1527.00000
67.17016 1672.44879 1571.00000
67.18040 1672.38642 1653.00000
67.19064 1672.32651 1592.00000
67.20088 1672.27113 1663.00000
67.21112 1672.22036 1632.00000
67.22136 1672.17420 1635.00000
67.23160 1672.13269 1571.00000
67.24185 1672.09590 1655.00000
67.25209 1672.06388 1665.00000
67.26233 1672.03673 1621.00000
67.27257 1672.01456 1654.00000
67.28281 1671.99747 1673.00000
67.29305 1671.98561 1625.00000
67.30329 1671.97913 1590.00000
67.31354 1671.97820 1616.00000
67.32378 1671.98293 1587.00000
67.33402 1671.99278 1652.00000
67.34426 1672.00287 1588.00000
67.35450 1671.99072 1616.00000
67.36474 1671.92555 1644.00000
67.37498 1671.87072 1635.00000
67.38523 1671.90533 1730.00000
67.39547 1671.96109 1601.00000
67.40571 1672.02501 1675.00000
67.41595 1672.09751 1640.00000
67.42619 1672.17909 1656.00000
67.43643 1672.27025 1618.00000
67.44668 1672.37204 1630.00000
67.45692 1672.48799 1608.00000
67.46716 1672.62013 1605.00000
67.47740 1672.75530 1708.00000
67.48764 1672.89995 1709.00000
67.49788 1673.05619 1636.00000
67.50812 1673.22453 1703.00000
67.51837 1673.40552 1595.00000
67.52861 1673.59997 1639.00000
67.53885 1673.80908 1669.00000
67.54909 1674.03447 1623.00000
67.55933 1674.27829 1640.00000
67.56957 1674.54321 1684.00000
67.57981 1674.83235 1661.00000
67.59006 1675.14930 1606.00000
67.60030 1675.49802 1654.00000
67.61054 1675.88283 1635.00000
67.62078 1676.30842 1621.00000
67.63102 1676.77984 1599.00000
67.64126 1677.30186 1650.00000
67.65150 1677.87506 1562.00000
67.66175 1678.48117 1618.00000
67.67199 1679.09836 1657.00000
67.68223 1679.81846 1611.00000
67.69247 1680.71279 1720.00000
67.70271 1681.74516 1611.00000
67.71295 1682.92803 1603.00000
67.72319 1684.29878 1589.00000
67.73344 1685.90980 1708.00000
67.74368 1687.83112 1683.00000
67.75392 1690.15063 1648.00000
67.76416 1692.96103 1662.00000
67.77440 1696.36522 1606.00000
67.78464 1700.56084 1686.00000
67.79489 1705.49202 1694.00000
67.80513 1710.88128 1711.00000
67.81537 1716.09616 1639.00000
67.82561 1720.20175 1703.00000
67.83585 1722.37312 1643.00000
67.84609 1722.44639 1624.00000
67.85633 1721.06039 1633.00000
67.86658 1719.22965 1696.00000
67.87682 1717.83846 1685.00000
67.88706 1717.44907 1712.00000
67.89730 1718.36415 1787.00000
67.90754 1720.76029 1640.00000
67.91778 1724.80107 1691.00000
67.92802 1730.71265 1680.00000
67.93827 1738.83009 1674.00000
67.94851 1749.61965 1675.00000
67.95875 1763.66329 1695.00000
67.96899 1781.55594 1739.00000
67.97923 1803.61710 1810.00000
67.98947 1829.30126 1832.00000
67.99971 1856.35345 1892.00000
68.00996 1880.27527 1932.00000
68.02020 1895.22968 1933.00000
68.03044 1896.84631 1901.00000
68.04068 1885.03678 1946.00000
68.05092 1863.96495 1847.00000
68.06116 1839.26345 1752.00000
68.07140 1815.37882 1810.00000
68.08165 1794.71753 1850.00000
68.09189 1778.09075 1742.00000
68.10213 1765.54085 1649.00000
68.11237 1756.61585 1663.00000
68.12261 1750.86395 1704.00000
68.13285 1747.95148 1718.00000
68.14310 1747.68824 1683.00000
68.15334 1750.00792 1697.00000
68.16358 1754.89117 1694.00000
68.17382 1762.20947 1784.00000
68.18406 1771.45706 1825.00000
68.19430 1781.43119 1781.00000
68.20454 1790.12641 1839.00000
68.21479 1795.22217 1776.00000
68.22503 1795.17315 1720.00000
68.23527 1790.13225 1768.00000
68.24551 1781.83275 1782.00000
68.25575 1772.58243 1745.00000
68.26599 1764.29987 1735.00000
68.27623 1758.15494 1761.00000
68.28648 1754.70327 1736.00000
68.29672 1754.17991 1732.00000
68.30696 1756.73502 1686.00000
68.31720 1762.54322 1759.00000
68.32744 1771.76787 1818.00000
68.33768 1784.33982 1797.00000
68.34792 1799.50430 1827.00000
68.35817 1815.24534 1812.00000
68.36841 1828.12049 1761.00000
68.37865 1834.27735 1778.00000
68.38889 1831.54993 1740.00000
68.39913 1820.85679 1782.00000
68.40937 1805.41597 1765.00000
68.41961 1788.75335 1733.00000
68.42986 1773.35183 1647.00000
68.44010 1760.43734 1711.00000
68.45034 1750.34759 1715.00000
68.46058 1742.96842 1702.00000
68.47082 1738.03395 1717.00000
68.48106 1735.28397 1696.00000
68.49131 1734.57292 1712.00000
68.50155 1735.84290 1700.00000
68.51179 1739.10948 1666.00000
68.52203 1744.41924 1748.00000
68.53227 1751.71678 1744.00000
68.54251 1760.66682 1651.00000
68.55275 1770.44415 1728.00000
68.56300 1779.73362 1728.00000
68.57324 1787.18167 1792.00000
68.58348 1792.19075 1885.00000
68.59372 1795.44653 1813.00000
68.60396 1798.67159 1790.00000
68.61420 1803.80433 1720.00000
68.62444 1812.14405 1879.00000
68.63469 1823.68232 1803.00000
68.64493 1836.61117 1934.00000
68.65517 1847.32568 1825.00000
68.66541 1851.60847 1867.00000
68.67565 1846.89990 1936.00000
68.68589 1833.87938 1848.00000
68.69613 1815.78054 1818.00000
68.70638 1796.32319 1812.00000
68.71662 1778.19928 1811.00000
68.72686 1762.75285 1775.00000
68.73710 1750.35995 1782.00000
68.74734 1740.88445 1760.00000
68.75758 1734.00961 1744.00000
68.76782 1729.42258 1747.00000
68.77807 1726.89360 1687.00000
68.78831 1726.29526 1741.00000
68.79855 1727.58362 1749.00000
68.80879 1730.73840 1730.00000
68.81903 1735.63985 1678.00000
68.82927 1741.86549 1840.00000
68.83952 1748.46161 1773.00000
68.84976 1753.87772 1767.00000
68.86000 1756.32135 1702.00000
68.87024 1754.60513 1736.00000
68.88048 1748.99387 1692.00000
68.89072 1740.65111 1788.00000
68.90096 1731.20211 1674.00000
68.91121 1722.01432 1769.00000
68.92145 1713.87684 1701.00000
68.93169 1706.97058 1696.00000
68.94193 1701.24943 1671.00000
68.95217 1696.57902 1751.00000
68.96241 1692.77477 1706.00000
68.97265 1689.66194 1791.00000
68.98290 1687.09553 1592.00000
68.99314 1684.96075 1650.00000
69.00338 1683.16848 1599.00000
69.01362 1681.65000 1703.00000
69.02386 1680.35222 1678.00000
69.03410 1679.23399 1604.00000
69.04434 1678.26316 1637.00000
69.05459 1677.41446 1678.00000
69.06483 1676.66841 1631.00000
69.07507 1676.01711 1746.00000
69.08531 1675.49926 1715.00000
69.09555 1675.17102 1733.00000
69.10579 1674.74127 1655.00000
69.11603 1674.32031 1670.00000
69.12628 1673.93828 1629.00000
69.13652 1673.59177 1633.00000
69.14676 1673.27671 1674.00000
69.15700 1672.98924 1663.00000
69.16724 1672.72619 1608.00000
69.17748 1672.48513 1584.00000
69.18773 1672.26384 1613.00000
69.19797 1672.06039 1636.00000
69.20821 1671.87308 1683.00000
69.21845 1671.70043 1714.00000
69.22869 1671.54114 1660.00000
69.23893 1671.39408 1674.00000
69.24917 1671.25824 1628.00000
69.25942 1671.13269 1627.00000
69.26966 1671.01605 1736.00000
69.27990 1670.90211 1677.00000
69.29014 1670.76732 1627.00000
69.30038 1670.60509 1756.00000
69.31062 1670.50782 1599.00000
69.32086 1670.43051 1646.00000
69.33111 1670.36023 1637.00000
69.34135 1670.29589 1631.00000
69.35159 1670.23717 1620.00000
69.36183 1670.18379 1618.00000
69.37207 1670.13549 1622.00000
69.38231 1670.09203 1665.00000
69.39255 1670.05323 1692.00000
69.40280 1670.01890 1681.00000
69.41304 1669.98887 1626.00000
69.42328 1669.96299 1718.00000
69.43352 1669.94084 1608.00000
69.44376 1669.92116 1642.00000
69.45400 1669.90437 1578.00000
69.46424 1669.89960 1617.00000
69.47449 1669.89498 1572.00000
69.48473 1669.89269 1603.00000
69.49497 1669.89404 1637.00000
69.50521 1669.89912 1704.00000
69.51545 1669.90795 1652.00000
69.52569 1669.92078 1760.00000
69.53594 1669.93904 1658.00000
69.54618 1669.96608 1613.00000
69.55642 1669.99782 1685.00000
69.56666 1670.02767 1714.00000
69.57690 1670.06046 1687.00000
69.58714 1670.09754 1640.00000
69.59738 1670.13912 1615.00000
69.60763 1670.18535 1679.00000
69.61787 1670.23639 1588.00000
69.62811 1670.29240 1610.00000
69.63835 1670.35351 1637.00000
69.64859 1670.41986 1630.00000
69.65883 1670.49151 1687.00000
69.66907 1670.56850 1647.00000
69.67932 1670.65080 1667.00000
69.68956 1670.73831 1600.00000
69.69980 1670.83088 1620.00000
69.71004 1670.92832 1616.00000
69.72028 1671.03036 1609.00000
69.73052 1671.13627 1611.00000
69.74076 1671.24386 1692.00000
69.75101 1671.35214 1608.00000
69.76125 1671.47178 1671.00000
69.77149 1671.60115 1656.00000
69.78173 1671.73940 1688.00000
69.79197 1671.88810 1698.00000
69.80221 1672.04957 1685.00000
69.81245 1672.22652 1671.00000
69.82270 1672.42201 1673.00000
69.83294 1672.63956 1656.00000
69.84318 1672.88315 1666.00000
69.85342 1673.15745 1663.00000
69.86366 1673.46796 1634.00000
69.87390 1673.82135 1674.00000
69.88415 1674.22578 1683.00000
69.89439 1674.69143 1628.00000
69.90463 1675.23115 1681.00000
69.91487 1675.86133 1689.00000
69.92511 1676.60309 1640.00000
69.93535 1677.48345 1635.00000
69.94559 1678.53600 1616.00000
69.95584 1679.80534 1705.00000
69.96608 1681.36352 1590.00000
69.97632 1683.28766 1685.00000
69.98656 1685.67092 1639.00000
69.99680 1688.61896 1597.00000
70.00704 1692.22152 1728.00000
70.01728 1696.48838 1690.00000
70.02753 1701.23571 1651.00000
70.03777 1705.95365 1666.00000
70.04801 1709.78571 1692.00000
70.05825 1711.79886 1730.00000
70.06849 1711.49710 1703.00000
70.07873 1709.14392 1693.00000
70.08897 1705.55526 1609.00000
70.09922 1701.61339 1693.00000
70.10946 1697.93973 1661.00000
70.11970 1694.84832 1636.00000
70.12994 1692.43340 1599.00000
70.14018 1690.67339 1678.00000
70.15042 1689.50514 1666.00000
70.16066 1688.86532 1640.00000
70.17091 1688.70874 1644.00000
70.18115 1689.01370 1680.00000
70.19139 1689.77963 1761.00000
70.20163 1691.01739 1682.00000
70.21187 1692.72800 1670.00000
70.22211 1694.86366 1716.00000
70.23236 1697.27381 1677.00000
70.24260 1699.66760 1716.00000
70.25284 1701.66321 1664.00000
70.26308 1702.95014 1693.00000
70.27332 1703.42126 1658.00000
70.28356 1703.24562 1706.00000
70.29380 1702.89631 1625.00000
70.30405 1702.79556 1629.00000
70.31429 1703.26422 1603.00000
70.32453 1704.63981 1732.00000
70.33477 1707.01619 1707.00000
70.34501 1710.56588 1685.00000
70.35525 1715.50333 1769.00000
70.36549 1722.09620 1734.00000
70.37574 1730.64732 1745.00000
70.38598 1741.40676 1762.00000
70.39622 1754.36142 1774.00000
70.40646 1768.86461 1800.00000
70.41670 1783.21564 1808.00000
70.42694 1794.62273 1789.00000
70.43718 1800.12891 1817.00000
70.44743 1798.25881 1832.00000
70.45767 1789.75548 1773.00000
70.46791 1777.21438 1774.00000
70.47815 1763.56643 1760.00000
70.48839 1750.88234 1758.00000
70.49863 1739.97063 1785.00000
70.50887 1731.16562 1728.00000
70.51912 1724.48113 1685.00000
70.52936 1719.65711 1779.00000
70.53960 1716.44133 1725.00000
70.54984 1714.70146 1654.00000
70.56008 1714.35030 1709.00000
70.57032 1715.35596 1674.00000
70.58057 1717.72048 1758.00000
70.59081 1721.41460 1773.00000
70.60105 1726.25699 1668.00000
70.61129 1731.74312 1812.00000
70.62153 1736.91576 1759.00000
70.63177 1740.47903 1760.00000
70.64201 1741.25235 1787.00000
70.65226 1738.79486 1764.00000
70.66250 1733.64126 1712.00000
70.67274 1726.93789 1773.00000
70.68298 1719.87991 1765.00000
70.69322 1713.35387 1763.00000
70.70346 1707.67211 1660.00000
70.71370 1702.82702 1768.00000
70.72395 1698.83942 1669.00000
70.73419 1695.60074 1746.00000
70.74443 1692.97088 1682.00000
70.75467 1690.80618 1650.00000
70.76491 1688.99236 1636.00000
70.77515 1687.55473 1720.00000
70.78539 1686.37493 1694.00000
70.79564 1685.39520 1702.00000
70.80588 1684.57862 1713.00000
70.81612 1683.89744 1722.00000
70.82636 1683.33135 1686.00000
70.83660 1682.85468 1714.00000
70.84684 1682.45224 1716.00000
70.85709 1682.11710 1719.00000
70.86733 1681.84320 1593.00000
70.87757 1681.61383 1666.00000
70.88781 1681.42369 1673.00000
70.89805 1681.27048 1712.00000
70.90829 1681.15280 1683.00000
70.91853 1681.07050 1693.00000
70.92878 1681.00722 1650.00000
70.93902 1680.96356 1642.00000
70.94926 1680.94075 1689.00000
70.95950 1680.94306 1657.00000
70.96974 1680.95940 1721.00000
70.97998 1680.99092 1691.00000
70.99022 1681.03747 1657.00000
71.00047 1681.09813 1660.00000
71.01071 1681.17208 1658.00000
71.02095 1681.25854 1669.00000
71.03119 1681.35696 1677.00000
71.04143 1681.46693 1667.00000
71.05167 1681.58783 1620.00000
71.06191 1681.72014 1670.00000
71.07216 1681.86633 1640.00000
71.08240 1682.02387 1687.00000
71.09264 1682.18589 1720.00000
71.10288 1682.35624 1706.00000
71.11312 1682.53586 1670.00000
71.12336 1682.72470 1729.00000
71.13360 1682.92270 1801.00000
71.14385 1683.13001 1681.00000
71.15409 1683.34796 1658.00000
71.16433 1683.57939 1710.00000
71.17457 1683.81917 1617.00000
71.18481 1684.06409 1662.00000
71.19505 1684.31752 1655.00000
71.20530 1684.58035 1656.00000
71.21554 1684.85274 1665.00000
71.22578 1685.13484 1666.00000
71.23602 1685.42685 1674.00000
71.24626 1685.72895 1700.00000
71.25650 1686.04136 1678.00000
71.26674 1686.36433 1672.00000
71.27699 1686.69813 1735.00000
71.28723 1687.04308 1759.00000
71.29747 1687.39961 1687.00000
71.30771 1687.76800 1698.00000
71.31795 1688.14814 1681.00000
71.32819 1688.53997 1717.00000
71.33843 1688.94414 1650.00000
71.34868 1689.36292 1731.00000
71.35892 1689.79581 1657.00000
71.36916 1690.24300 1698.00000
71.37940 1690.70500 1693.00000
71.38964 1691.18238 1703.00000
71.39988 1691.67572 1662.00000
71.41012 1692.18566 1724.00000
71.42037 1692.71286 1696.00000
71.43061 1693.25803 1748.00000
71.44085 1693.82194 1715.00000
71.45109 1694.40554 1711.00000
71.46133 1695.00975 1749.00000
71.47157 1695.63581 1658.00000
71.48181 1696.28606 1755.00000
71.49206 1696.96126 1708.00000
71.50230 1697.65764 1727.00000
71.51254 1698.37863 1684.00000
71.52278 1699.12504 1729.00000
71.53302 1699.89512 1709.00000
71.54326 1700.69023 1718.00000
71.55351 1701.52006 1733.00000
71.56375 1702.38773 1687.00000
71.57399 1703.29223 1565.00000
71.58423 1704.23355 1707.00000
71.59447 1705.21341 1698.00000
71.60471 1706.23399 1709.00000
71.61495 1707.29764 1699.00000
71.62520 1708.40743 1802.00000
71.63544 1709.56625 1707.00000
71.64568 1710.77689 1687.00000
71.65592 1712.04239 1681.00000
71.66616 1713.36552 1664.00000
71.67640 1714.75045 1665.00000
71.68664 1716.20139 1739.00000
71.69689 1717.72279 1730.00000
71.70713 1719.31947 1743.00000
71.71737 1720.99665 1726.00000
71.72761 1722.76003 1749.00000
71.73785 1724.61577 1687.00000
71.74809 1726.57153 1655.00000
71.75833 1728.63405 1696.00000
71.76858 1730.81096 1720.00000
71.77882 1733.11076 1693.00000
71.78906 1735.54261 1672.00000
71.79930 1738.11631 1827.00000
71.80954 1740.84231 1748.00000
71.81978 1743.73157 1754.00000
71.83002 1746.79553 1825.00000
71.84027 1750.04593 1802.00000
71.85051 1753.49453 1755.00000
71.86075 1757.15285 1699.00000
71.87099 1761.03174 1744.00000
71.88123 1765.14089 1723.00000
71.89147 1769.48823 1740.00000
71.90172 1774.07887 1823.00000
71.91196 1778.91460 1726.00000
71.92220 1783.99890 1795.00000
71.93244 1789.33808 1755.00000
71.94268 1794.93155 1799.00000
71.95292 1800.77688 1747.00000
71.96316 1806.88250 1769.00000
71.97341 1813.26633 1814.00000
71.98365 1819.95924 1794.00000
71.99389 1827.00773 1724.00000
72.00413 1834.47543 1878.00000
72.01437 1842.44330 1791.00000
72.02461 1851.00866 1731.00000
72.03485 1860.28393 1840.00000
72.04510 1870.40312 1873.00000
72.05534 1881.49607 1944.00000
72.06558 1893.71440 1869.00000
72.07582 1907.22874 1910.00000
72.08606 1922.22666 1897.00000
72.09630 1938.92478 1953.00000
72.10654 1957.57911 1948.00000
72.11679 1978.50018 1935.00000
72.12703 2002.07429 1976.00000
72.13727 2028.79227 2089.00000
72.14751 2059.28771 2072.00000
72.15775 2094.38658 2164.00000
72.16799 2135.17087 2144.00000
72.17823 2183.05900 2227.00000
72.18848 2239.90532 2160.00000
72.19872 2308.11784 2259.00000
72.20896 2390.78277 2364.00000
72.21920 2491.75815 2454.00000
72.22944 2615.63783 2601.00000
72.23968 2767.32766 2879.00000
72.24993 2951.46583 3029.00000
72.26017 3167.25677 3183.00000
72.27041 3404.08380 3434.00000
72.28065 3636.72962 3646.00000
72.29089 3825.82888 3795.00000
72.30113 3931.55833 4054.00000
72.31137 3935.54481 4116.00000
72.32162 3852.10234 3984.00000
72.33186 3718.13956 3834.00000
72.34210 3573.62359 3716.00000
72.35234 3448.38446 3520.00000
72.36258 3360.12373 3339.00000
72.37282 3317.52633 3314.00000
72.38306 3324.64490 3142.00000
72.39331 3384.36285 3292.00000
72.40355 3500.54402 3367.00000
72.41379 3678.98250 3606.00000
72.42403 3927.09957 3981.00000
72.43427 4251.77426 4322.00000
72.44451 4654.07369 4858.00000
72.45475 5119.76972 5531.00000
72.46500 5607.46010 6042.00000
72.47524 6043.10982 6878.00000
72.48548 6335.23273 7275.00000
72.49572 6413.29298 7404.00000
72.50596 6263.88114 7006.00000
72.51620 5932.96950 6500.00000
72.52644 5496.70780 5796.00000
72.53669 5029.29361 5238.00000
72.54693 4585.34451 4592.00000
72.55717 4196.29993 3949.00000
72.56741 3874.89923 3621.00000
72.57765 3621.12239 3337.00000
72.58789 3429.50250 3169.00000
72.59814 3293.37023 3147.00000
72.60838 3207.02658 2904.00000
72.61862 3166.57856 3005.00000
72.62886 3170.62679 3038.00000
72.63910 3217.94747 3144.00000
72.64934 3306.08329 3432.00000
72.65958 3428.89446 3536.00000
72.66983 3571.61217 3850.00000
72.68007 3707.61765 3963.00000
72.69031 3801.27480 4208.00000
72.70055 3820.01845 4286.00000
72.71079 3750.13094 4155.00000
72.72103 3603.48818 3867.00000
72.73127 3409.54969 3520.00000
72.74152 3200.55952 3329.00000
72.75176 3000.83457 3010.00000
72.76200 2823.76990 2744.00000
72.77224 2673.98976 2553.00000
72.78248 2550.94614 2554.00000
72.79272 2451.82769 2306.00000
72.80296 2373.31631 2351.00000
72.81321 2312.39695 2271.00000
72.82345 2266.50253 2141.00000
72.83369 2233.47860 2189.00000
72.84393 2211.17660 2016.00000
72.85417 2196.91486 2160.00000
72.86441 2187.09097 2151.00000
72.87465 2177.52726 2130.00000
72.88490 2164.87156 2159.00000
72.89514 2148.25703 2101.00000
72.90538 2129.61422 2135.00000
72.91562 2112.28419 2120.00000
72.92586 2099.26208 2102.00000
72.93610 2091.96128 2105.00000
72.94635 2089.59038 2143.00000
72.95659 2089.17037 2101.00000
72.96683 2086.18987 2113.00000
72.97707 2076.50137 2053.00000
72.98731 2058.60518 1997.00000
72.99755 2034.36804 2042.00000
73.00779 2007.55923 2008.00000
73.01804 1981.81166 1961.00000
73.02828 1959.57587 1954.00000
73.03852 1942.02391 1898.00000
73.04876 1929.34057 1881.00000
73.05900 1920.97121 1883.00000
73.06924 1915.74882 1839.00000
73.07948 1912.00665 1860.00000
73.08973 1907.97842 1866.00000
73.09997 1902.46945 1869.00000
73.11021 1895.38510 1880.00000
73.12045 1887.66615 1875.00000
73.13069 1880.68252 1890.00000
73.14093 1875.53183 1902.00000
73.15117 1872.55965 1893.00000
73.16142 1871.15047 1924.00000
73.17166 1869.81129 1864.00000
73.18190 1866.63332 1891.00000
73.19214 1860.09578 1847.00000
73.20238 1849.85021 1857.00000
73.21262 1836.77388 1782.00000
73.22286 1822.38577 1840.00000
73.23311 1808.12657 1857.00000
73.24335 1794.96077 1733.00000
73.25359 1783.33089 1761.00000
73.26383 1773.30539 1732.00000
73.27407 1764.75281 1713.00000
73.28431 1757.46674 1787.00000
73.29456 1751.23434 1676.00000
73.30480 1745.86572 1682.00000
73.31504 1741.20237 1684.00000
73.32528 1737.12004 1779.00000
73.33552 1733.51530 1610.00000
73.34576 1730.30171 1767.00000
73.35600 1727.41556 1759.00000
73.36625 1724.80589 1770.00000
73.37649 1722.43167 1747.00000
73.38673 1720.25962 1723.00000
73.39697 1718.26253 1696.00000
73.40721 1716.41797 1757.00000
73.41745 1714.70713 1717.00000
73.42769 1713.11265 1696.00000
73.43794 1711.61128 1684.00000
73.44818 1710.16598 1681.00000
73.45842 1708.76856 1702.00000
73.46866 1707.51969 1759.00000
73.47890 1706.35809 1699.00000
73.48914 1705.26062 1722.00000
73.49938 1704.22092 1677.00000
73.50963 1703.23430 1665.00000
73.51987 1702.29663 1767.00000
73.53011 1701.40386 1678.00000
73.54035 1700.55271 1667.00000
73.55059 1699.74026 1743.00000
73.56083 1698.96373 1720.00000
73.57107 1698.22070 1733.00000
73.58132 1697.50899 1751.00000
73.59156 1696.82664 1678.00000
73.60180 1696.17182 1685.00000
73.61204 1695.54258 1710.00000
73.62228 1694.93324 1680.00000
73.63252 1694.31333 1739.00000
73.64277 1693.61883 1656.00000
73.65301 1692.95448 1693.00000
73.66325 1692.41689 1757.00000
73.67349 1691.91896 1661.00000
73.68373 1691.43958 1660.00000
73.69397 1690.97664 1677.00000
73.70421 1690.52877 1684.00000
73.71446 1690.09512 1644.00000
73.72470 1689.67747 1714.00000
73.73494 1689.27424 1666.00000
73.74518 1688.88502 1738.00000
73.75542 1688.50664 1767.00000
73.76566 1688.13476 1648.00000
73.77590 1687.77912 1743.00000
73.78615 1687.43581 1674.00000
73.79639 1687.10318 1706.00000
73.80663 1686.78089 1683.00000
73.81687 1686.46848 1610.00000
73.82711 1686.16551 1725.00000
73.83735 1685.87163 1708.00000
73.84759 1685.58653 1750.00000
73.85784 1685.30989 1788.00000
73.86808 1685.04144 1753.00000
73.87832 1684.78091 1669.00000
73.88856 1684.52804 1696.00000
73.89880 1684.28264 1706.00000
73.90904 1684.04462 1662.00000
73.91928 1683.81406 1786.00000
73.92953 1683.59014 1746.00000
73.93977 1683.37247 1666.00000
73.95001 1683.16119 1703.00000
73.96025 1682.95621 1618.00000
73.97049 1682.75741 1641.00000
73.98073 1682.56464 1725.00000
73.99098 1682.37778 1686.00000
74.00122 1682.19672 1708.00000
74.01146 1682.02133 1687.00000
74.02170 1681.85136 1727.00000
74.03194 1681.68565 1714.00000
74.04218 1681.52150 1751.00000
74.05242 1681.36177 1702.00000
74.06267 1681.21230 1753.00000
74.07291 1681.06894 1720.00000
74.08315 1680.93053 1664.00000
74.09339 1680.79661 1712.00000
74.10363 1680.66561 1642.00000
74.11387 1680.53557 1612.00000
74.12411 1680.41266 1675.00000
74.13436 1680.29272 1684.00000
74.14460 1680.17218 1697.00000
74.15484 1680.06421 1698.00000
74.16508 1679.96275 1707.00000
74.17532 1679.86617 1717.00000
74.18556 1679.77458 1671.00000
74.19580 1679.68826 1652.00000
74.20605 1679.60756 1643.00000
74.21629 1679.53291 1680.00000
74.22653 1679.46484 1615.00000
74.23677 1679.40401 1662.00000
74.24701 1679.35124 1582.00000
74.25725 1679.30753 1643.00000
74.26749 1679.27411 1638.00000
74.27774 1679.25248 1621.00000
74.28798 1679.24448 1667.00000
74.29822 1679.25232 1679.00000
74.30846 1679.27879 1607.00000
74.31870 1679.32730 1689.00000
74.32894 1679.40215 1737.00000
74.33919 1679.50876 1675.00000
74.34943 1679.65389 1714.00000
74.35967 1679.84488 1710.00000
74.36991 1680.08435 1604.00000
74.38015 1680.36194 1648.00000
74.39039 1680.68934 1687.00000
74.40063 1681.19663 1732.00000
74.41088 1681.85098 1661.00000
74.42112 1682.64820 1641.00000
74.43136 1683.57909 1672.00000
74.44160 1684.59537 1627.00000
74.45184 1685.59371 1687.00000
74.46208 1686.42569 1687.00000
74.47232 1686.94493 1611.00000
74.48257 1687.11528 1701.00000
74.49281 1687.02682 1680.00000
74.50305 1686.84730 1635.00000
74.51329 1686.73609 1721.00000
74.52353 1686.77631 1716.00000
74.53377 1686.97263 1698.00000
74.54401 1687.23193 1644.00000
74.55426 1687.38993 1711.00000
74.56450 1687.27732 1765.00000
74.57474 1686.78357 1749.00000
74.58498 1685.90256 1659.00000
74.59522 1684.95570 1685.00000
74.60546 1684.10797 1661.00000
74.61571 1683.39676 1638.00000
74.62595 1682.86666 1720.00000
74.63619 1682.53604 1635.00000
74.64643 1682.39559 1772.00000
74.65667 1682.41184 1707.00000
74.66691 1682.52710 1668.00000
74.67715 1682.66624 1673.00000
74.68740 1682.75767 1740.00000
74.69764 1682.76451 1751.00000
74.70788 1682.70331 1691.00000
74.71812 1682.63377 1631.00000
74.72836 1682.62511 1636.00000
74.73860 1682.70572 1684.00000
74.74884 1682.86755 1617.00000
74.75909 1683.22687 1719.00000
74.76933 1683.68505 1697.00000
74.77957 1684.16673 1650.00000
74.78981 1684.63248 1671.00000
74.80005 1685.07336 1719.00000
74.81029 1685.48104 1745.00000
74.82053 1685.80221 1623.00000
74.83078 1685.92230 1704.00000
74.84102 1685.71297 1633.00000
74.85126 1685.11889 1757.00000
74.86150 1684.20382 1660.00000
74.87174 1683.11174 1640.00000
74.88198 1681.99121 1625.00000
74.89222 1680.94765 1656.00000
74.90247 1680.03580 1671.00000
74.91271 1679.27211 1688.00000
74.92295 1678.64432 1659.00000
74.93319 1678.09055 1628.00000
74.94343 1677.52828 1666.00000
74.95367 1677.19781 1620.00000
74.96392 1677.01601 1700.00000
74.97416 1676.92568 1685.00000
74.98440 1676.91693 1657.00000
74.99464 1676.98626 1633.00000
75.00488 1677.14364 1739.00000
75.01512 1677.37656 1652.00000
75.02536 1677.66018 1681.00000
75.03561 1677.94941 1772.00000
75.04585 1678.17755 1659.00000
75.05609 1678.27293 1614.00000
75.06633 1678.18891 1672.00000
75.07657 1677.92543 1734.00000
75.08681 1677.52319 1668.00000
75.09705 1677.05329 1670.00000
75.10730 1676.58028 1736.00000
75.11754 1676.13972 1669.00000
75.12778 1675.75002 1641.00000
75.13802 1675.41587 1714.00000
75.14826 1675.13396 1745.00000
75.15850 1674.89817 1681.00000
75.16874 1674.70292 1730.00000
75.17899 1674.54009 1735.00000
75.18923 1674.39902 1711.00000
75.19947 1674.27785 1612.00000
75.20971 1674.17407 1674.00000
75.21995 1674.08611 1707.00000
75.23019 1674.01105 1680.00000
75.24043 1673.94247 1692.00000
75.25068 1673.88129 1657.00000
75.26092 1673.82743 1664.00000
75.27116 1673.78117 1683.00000
75.28140 1673.74061 1624.00000
75.29164 1673.70050 1718.00000
75.30188 1673.66497 1664.00000
75.31213 1673.63314 1644.00000
75.32237 1673.60431 1725.00000
75.33261 1673.57781 1733.00000
75.34285 1673.55125 1693.00000
75.35309 1673.52156 1705.00000
75.36333 1673.49978 1613.00000
75.37357 1673.48208 1632.00000
75.38382 1673.46635 1661.00000
75.39406 1673.45250 1666.00000
75.40430 1673.44048 1669.00000
75.41454 1673.42920 1719.00000
75.42478 1673.41885 1720.00000
75.43502 1673.40815 1641.00000
75.44526 1673.39407 1547.00000
75.45551 1673.38104 1631.00000
75.46575 1673.37439 1707.00000
75.47599 1673.36988 1698.00000
75.48623 1673.36693 1679.00000
75.49647 1673.36684 1649.00000
75.50671 1673.36902 1636.00000
75.51695 1673.36900 1610.00000
75.52720 1673.36911 1655.00000
75.53744 1673.37000 1672.00000
75.54768 1673.37170 1734.00000
75.55792 1673.37420 1633.00000
75.56816 1673.37749 1638.00000
75.57840 1673.38156 1665.00000
75.58864 1673.38640 1610.00000
75.59889 1673.39201 1722.00000
75.60913 1673.39839 1669.00000
75.61937 1673.40553 1603.00000
75.62961 1673.41343 1674.00000
75.63985 1673.42210 1651.00000
75.65009 1673.43152 1780.00000
75.66034 1673.44163 1657.00000
75.67058 1673.45254 1667.00000
75.68082 1673.46474 1611.00000
75.69106 1673.47538 1670.00000
75.70130 1673.48308 1651.00000
75.71154 1673.49482 1657.00000
75.72178 1673.50962 1668.00000
75.73203 1673.52565 1677.00000
75.74227 1673.54256 1654.00000
75.75251 1673.56027 1702.00000
75.76275 1673.57866 1677.00000
75.77299 1673.59825 1760.00000
75.78323 1673.61896 1677.00000
75.79347 1673.64071 1663.00000
75.80372 1673.66351 1679.00000
75.81396 1673.68740 1661.00000
75.82420 1673.71242 1695.00000
75.83444 1673.73861 1642.00000
75.84468 1673.76601 1648.00000
75.85492 1673.79468 1676.00000
75.86516 1673.82468 1638.00000
75.87541 1673.85605 1685.00000
75.88565 1673.88887 1677.00000
75.89589 1673.92319 1623.00000
75.90613 1673.95910 1677.00000
75.91637 1673.99667 1731.00000
75.92661 1674.03601 1700.00000
75.93685 1674.07719 1681.00000
75.94710 1674.12032 1740.00000
75.95734 1674.16550 1670.00000
75.96758 1674.21286 1653.00000
75.97782 1674.26252 1637.00000
75.98806 1674.31462 1662.00000
75.99830 1674.36931 1718.00000
76.00855 1674.42676 1683.00000
76.01879 1674.48715 1641.00000
76.02903 1674.55062 1709.00000
76.03927 1674.61726 1717.00000
76.04951 1674.68731 1755.00000
76.05975 1674.76147 1623.00000
76.06999 1674.83934 1629.00000
76.08024 1674.91739 1700.00000
76.09048 1674.97666 1687.00000
76.10072 1674.99323 1623.00000
76.11096 1675.04145 1613.00000
76.12120 1675.13668 1622.00000
76.13144 1675.24681 1696.00000
76.14168 1675.36401 1628.00000
76.15193 1675.48817 1681.00000
76.16217 1675.61969 1679.00000
76.17241 1675.75898 1647.00000
76.18265 1675.90640 1604.00000
76.19289 1676.06226 1657.00000
76.20313 1676.22680 1754.00000
76.21337 1676.40015 1721.00000
76.22362 1676.58231 1673.00000
76.23386 1676.77318 1740.00000
76.24410 1676.97245 1674.00000
76.25434 1677.17971 1723.00000
76.26458 1677.39445 1664.00000
76.27482 1677.61577 1746.00000
76.28506 1677.83860 1621.00000
76.29531 1678.03085 1750.00000
76.30555 1678.12822 1674.00000
76.31579 1678.25612 1628.00000
76.32603 1678.49504 1713.00000
76.33627 1678.76481 1683.00000
76.34651 1679.05008 1713.00000
76.35676 1679.35391 1687.00000
76.36700 1679.68114 1751.00000
76.37724 1680.03739 1732.00000
76.38748 1680.42896 1709.00000
76.39772 1680.86296 1735.00000
76.40796 1681.34730 1701.00000
76.41820 1681.89095 1729.00000
76.42845 1682.50415 1644.00000
76.43869 1683.19879 1705.00000
76.44893 1683.98891 1652.00000
76.45917 1684.89129 1717.00000
76.46941 1685.92628 1675.00000
76.47965 1687.11879 1658.00000
76.48989 1688.49965 1677.00000
76.50014 1690.10742 1772.00000
76.51038 1691.99249 1707.00000
76.52062 1694.23290 1724.00000
76.53086 1696.96351 1757.00000
76.54110 1700.30085 1632.00000
76.55134 1704.12723 1693.00000
76.56158 1708.71426 1565.00000
76.57183 1714.29495 1718.00000
76.58207 1721.10755 1789.00000
76.59231 1729.41132 1711.00000
76.60255 1739.43762 1829.00000
76.61279 1751.28767 1755.00000
76.62303 1764.72498 1772.00000
76.63327 1778.89027 1748.00000
76.64352 1792.07652 1805.00000
76.65376 1801.88859 1783.00000
76.66400 1806.06010 1784.00000
76.67424 1803.58996 1690.00000
76.68448 1795.50018 1839.00000
76.69472 1783.94413 1770.00000
76.70497 1771.17398 1719.00000
76.71521 1758.84651 1732.00000
76.72545 1747.89429 1704.00000
76.73569 1738.70094 1692.00000
76.74593 1731.30643 1699.00000
76.75617 1725.58654 1750.00000
76.76641 1721.39105 1753.00000
76.77666 1718.59623 1647.00000
76.78690 1716.94792 1685.00000
76.79714 1716.40633 1668.00000
76.80738 1716.96643 1712.00000
76.81762 1718.63243 1723.00000
76.82786 1721.40632 1742.00000
76.83810 1725.25536 1697.00000
76.84835 1729.98828 1733.00000
76.85859 1735.16648 1706.00000
76.86883 1740.03405 1763.00000
76.87907 1743.59453 1753.00000
76.88931 1744.91039 1660.00000
76.89955 1743.50939 1716.00000
76.90979 1739.60039 1812.00000
76.92004 1733.93640 1802.00000
76.93028 1727.45409 1770.00000
76.94052 1720.95158 1717.00000
76.95076 1714.94384 1731.00000
76.96100 1709.67357 1729.00000
76.97124 1705.19338 1655.00000
76.98148 1701.45158 1664.00000
76.99173 1698.35338 1731.00000
77.00197 1695.79567 1694.00000
77.01221 1693.68331 1714.00000
77.02245 1691.93548 1730.00000
77.03269 1690.48528 1763.00000
77.04293 1689.27860 1665.00000
77.05318 1688.27185 1720.00000
77.06342 1687.43023 1685.00000
77.07366 1686.72595 1741.00000
77.08390 1686.13681 1755.00000
77.09414 1685.64505 1742.00000
77.10438 1685.23660 1652.00000
77.11462 1684.90097 1691.00000
77.12487 1684.63003 1696.00000
77.13511 1684.41768 1762.00000
77.14535 1684.25980 1695.00000
77.15559 1684.15396 1675.00000
77.16583 1684.09909 1621.00000
77.17607 1684.09530 1737.00000
77.18631 1684.14377 1675.00000
77.19656 1684.24668 1718.00000
77.20680 1684.40721 1642.00000
77.21704 1684.62964 1706.00000
77.22728 1684.91949 1699.00000
77.23752 1685.28378 1726.00000
77.24776 1685.73134 1686.00000
77.25800 1686.27327 1698.00000
77.26825 1686.92352 1667.00000
77.27849 1687.69968 1682.00000
77.28873 1688.62391 1672.00000
77.29897 1689.72427 1709.00000
77.30921 1691.03639 1651.00000
77.31945 1692.60559 1672.00000
77.32969 1694.48959 1753.00000
77.33994 1696.76193 1708.00000
77.35018 1699.51574 1680.00000
77.36042 1702.86756 1683.00000
77.37066 1706.95927 1666.00000
77.38090 1711.95447 1720.00000
77.39114 1718.02104 1797.00000
77.40139 1725.28617 1735.00000
77.41163 1733.74334 1638.00000
77.42187 1743.09943 1707.00000
77.43211 1752.59938 1819.00000
77.44235 1760.95813 1791.00000
77.45259 1766.60435 1748.00000
77.46283 1768.29512 1780.00000
77.47308 1765.76133 1786.00000
77.48332 1759.84073 1792.00000
77.49356 1751.98596 1835.00000
77.50380 1743.61195 1737.00000
77.51404 1735.72729 1759.00000
77.52428 1728.89106 1746.00000
77.53452 1723.32728 1764.00000
77.54477 1719.06286 1767.00000
77.55501 1716.03493 1727.00000
77.56525 1714.15771 1734.00000
77.57549 1713.35539 1704.00000
77.58573 1713.56954 1748.00000
77.59597 1714.74629 1689.00000
77.60621 1716.80152 1774.00000
77.61646 1719.58160 1689.00000
77.62670 1722.85229 1707.00000
77.63694 1726.30860 1736.00000
77.64718 1729.63125 1738.00000
77.65742 1732.51579 1811.00000
77.66766 1734.62928 1718.00000
77.67790 1735.56766 1687.00000
77.68815 1734.94217 1723.00000
77.69839 1732.58691 1792.00000
77.70863 1728.70595 1820.00000
77.71887 1723.81333 1765.00000
77.72911 1718.51599 1741.00000
77.73935 1713.31561 1669.00000
77.74960 1708.58257 1779.00000
77.75984 1704.54252 1709.00000
77.77008 1701.18468 1763.00000
77.78032 1698.45987 1704.00000
77.79056 1696.30373 1672.00000
77.80080 1694.64808 1669.00000
77.81104 1693.42843 1741.00000
77.82129 1692.58155 1686.00000
77.83153 1692.03585 1702.00000
77.84177 1691.69841 1699.00000
77.85201 1691.44753 1700.00000
77.86225 1691.14328 1687.00000
77.87249 1690.66191 1687.00000
77.88273 1689.93898 1755.00000
77.89298 1688.99012 1746.00000
77.90322 1687.89229 1692.00000
77.91346 1686.74300 1666.00000
77.92370 1685.63364 1668.00000
77.93394 1684.61747 1718.00000
77.94418 1683.70211 1737.00000
77.95442 1682.82874 1648.00000
77.96467 1681.97313 1720.00000
77.97491 1681.36398 1697.00000
77.98515 1680.87122 1725.00000
77.99539 1680.44886 1625.00000
78.00563 1680.08397 1663.00000
78.01587 1679.76700 1603.00000
78.02611 1679.49023 1693.00000
78.03636 1679.24737 1693.00000
78.04660 1679.03328 1649.00000
78.05684 1678.84382 1702.00000
78.06708 1678.67554 1691.00000
78.07732 1678.52565 1679.00000
78.08756 1678.39182 1685.00000
78.09781 1678.27209 1665.00000
78.10805 1678.16485 1680.00000
78.11829 1678.06872 1722.00000
78.12853 1677.98255 1687.00000
78.13877 1677.90533 1690.00000
78.14901 1677.83623 1660.00000
78.15925 1677.77453 1711.00000
78.16950 1677.71958 1622.00000
78.17974 1677.67086 1723.00000
78.18998 1677.62789 1615.00000
78.20022 1677.59028 1638.00000
78.21046 1677.55766 1669.00000
78.22070 1677.52975 1652.00000
78.23094 1677.50627 1637.00000
78.24119 1677.48702 1637.00000
78.25143 1677.47180 1752.00000
78.26167 1677.46046 1707.00000
78.27191 1677.45285 1643.00000
78.28215 1677.44887 1691.00000
78.29239 1677.44843 1708.00000
78.30263 1677.45147 1660.00000
78.31288 1677.45794 1624.00000
78.32312 1677.46781 1661.00000
78.33336 1677.48106 1663.00000
78.34360 1677.49770 1651.00000
78.35384 1677.51771 1705.00000
78.36408 1677.54106 1668.00000
78.37433 1677.56715 1702.00000
78.38457 1677.59341 1723.00000
78.39481 1677.61916 1688.00000
78.40505 1677.65470 1708.00000
78.41529 1677.69495 1707.00000
78.42553 1677.73835 1670.00000
78.43577 1677.78531 1740.00000
78.44602 1677.83544 1640.00000
78.45626 1677.88851 1662.00000
78.46650 1677.94427 1609.00000
78.47674 1678.00184 1652.00000
78.48698 1678.05893 1741.00000
78.49722 1678.11699 1674.00000
78.50746 1678.18236 1650.00000
78.51771 1678.25042 1709.00000
78.52795 1678.32117 1693.00000
78.53819 1678.39550 1689.00000
78.54843 1678.47396 1689.00000
78.55867 1678.55741 1613.00000
78.56891 1678.64699 1667.00000
78.57915 1678.74400 1625.00000
78.58940 1678.84994 1705.00000
78.59964 1678.96648 1707.00000
78.60988 1679.09549 1704.00000
78.62012 1679.23904 1635.00000
78.63036 1679.39950 1750.00000
78.64060 1679.57955 1633.00000
78.65084 1679.78236 1738.00000
78.66109 1680.01235 1699.00000
78.67133 1680.27342 1743.00000
78.68157 1680.57096 1672.00000
78.69181 1680.91154 1663.00000
78.70205 1681.30318 1714.00000
78.71229 1681.75539 1604.00000
78.72254 1682.27932 1691.00000
78.73278 1682.89148 1650.00000
78.74302 1683.61583 1610.00000
78.75326 1684.47505 1706.00000
78.76350 1685.50012 1672.00000
78.77374 1686.73141 1680.00000
78.78398 1688.21994 1745.00000
78.79423 1690.02076 1727.00000
78.80447 1692.19382 1598.00000
78.81471 1694.80280 1752.00000
78.82495 1697.88376 1723.00000
78.83519 1701.40512 1738.00000
78.84543 1705.20663 1738.00000
78.85567 1708.94181 1682.00000
78.86592 1712.07940 1675.00000
78.87616 1714.02943 1740.00000
78.88640 1714.38068 1774.00000
78.89664 1713.10447 1763.00000
78.90688 1710.55959 1734.00000
78.91712 1707.29865 1748.00000
78.92736 1703.84486 1705.00000
78.93761 1700.57769 1697.00000
78.94785 1697.69653 1704.00000
78.95809 1695.27881 1708.00000
78.96833 1693.32774 1663.00000
78.97857 1691.81036 1653.00000
78.98881 1690.68287 1657.00000
78.99905 1689.90483 1670.00000
79.00930 1689.45068 1731.00000
79.01954 1689.34201 1654.00000
79.02978 1689.64344 1643.00000
79.04002 1690.16494 1649.00000
79.05026 1690.89576 1707.00000
79.06050 1691.89705 1667.00000
79.07075 1693.15460 1655.00000
79.08099 1694.57467 1749.00000
79.09123 1695.98370 1720.00000
79.10147 1697.13614 1704.00000
79.11171 1697.77010 1738.00000
79.12195 1697.70713 1686.00000
79.13219 1696.93072 1727.00000
79.14244 1695.58459 1706.00000
79.15268 1693.89874 1664.00000
79.16292 1692.10181 1681.00000
79.17316 1690.36609 1668.00000
79.18340 1688.79293 1679.00000
79.19364 1687.42139 1767.00000
79.20388 1686.25475 1704.00000
79.21413 1685.27099 1613.00000
79.22437 1684.44809 1734.00000
79.23461 1683.76166 1659.00000
79.24485 1683.19016 1668.00000
79.25509 1682.71390 1666.00000
79.26533 1682.32154 1794.00000
79.27557 1682.03158 1695.00000
79.28582 1681.82540 1749.00000
79.29606 1681.59241 1690.00000
79.30630 1681.37450 1706.00000
79.31654 1681.18652 1687.00000
79.32678 1681.02708 1671.00000
79.33702 1680.88973 1743.00000
79.34726 1680.77073 1646.00000
79.35751 1680.66748 1699.00000
79.36775 1680.57784 1690.00000
79.37799 1680.50003 1671.00000
79.38823 1680.43255 1720.00000
79.39847 1680.37415 1697.00000
79.40871 1680.32375 1730.00000
79.41896 1680.28043 1660.00000
79.42920 1680.24342 1697.00000
79.43944 1680.21204 1738.00000
79.44968 1680.18570 1611.00000
79.45992 1680.16391 1707.00000
79.47016 1680.14629 1680.00000
79.48040 1680.13307 1680.00000
79.49065 1680.12574 1719.00000
79.50089 1680.12297 1756.00000
79.51113 1680.11932 1670.00000
79.52137 1680.11739 1709.00000
79.53161 1680.11778 1651.00000
79.54185 1680.12035 1687.00000
79.55209 1680.12494 1732.00000
79.56234 1680.13139 1713.00000
79.57258 1680.13959 1700.00000
79.58282 1680.14941 1715.00000
79.59306 1680.16074 1684.00000
79.60330 1680.17349 1699.00000
79.61354 1680.18757 1655.00000
79.62378 1680.20289 1784.00000
79.63403 1680.21939 1712.00000
79.64427 1680.23700 1655.00000
79.65451 1680.25566 1759.00000
79.66475 1680.27531 1751.00000
79.67499 1680.29590 1650.00000
79.68523 1680.31740 1654.00000
79.69547 1680.33975 1685.00000
79.70572 1680.36292 1710.00000
79.71596 1680.38687 1760.00000
79.72620 1680.41149 1712.00000
79.73644 1680.43625 1713.00000
79.74668 1680.45972 1580.00000
79.75692 1680.48276 1693.00000
79.76717 1680.50951 1608.00000
79.77741 1680.53757 1736.00000
79.78765 1680.56628 1747.00000
79.79789 1680.59558 1715.00000
79.80813 1680.62543 1648.00000
79.81837 1680.65584 1683.00000
79.82861 1680.68678 1684.00000
79.83886 1680.71825 1641.00000
79.84910 1680.75022 1668.00000
79.85934 1680.78269 1702.00000
79.86958 1680.81565 1713.00000
79.87982 1680.84909 1706.00000
79.89006 1680.88300 1692.00000
79.90030 1680.91737 1733.00000
79.91055 1680.95220 1721.00000
79.92079 1680.98745 1684.00000
79.93103 1681.02293 1679.00000
79.94127 1681.05837 1662.00000
79.95151 1681.09461 1675.00000
79.96175 1681.13159 1668.00000
79.97199 1681.16904 1603.00000
79.98224 1681.20691 1707.00000
79.99248 1681.24520 1613.00000
80.00272 1681.28391 1761.00000
80.01296 1681.32303 1754.00000
80.02320 1681.36256 1731.00000
80.03344 1681.40250 1738.00000
80.04368 1681.44286 1640.00000
80.05393 1681.48362 1747.00000
80.06417 1681.52479 1701.00000
80.07441 1681.56638 1755.00000
80.08465 1681.60837 1636.00000
80.09489 1681.65077 1667.00000
80.10513 1681.69358 1749.00000
80.11538 1681.73670 1672.00000
80.12562 1681.77950 1636.00000
80.13586 1681.82051 1657.00000
80.14610 1681.86121 1683.00000
80.15634 1681.90572 1610.00000
80.16658 1681.95196 1744.00000
80.17682 1681.99769 1698.00000
80.18707 1682.04266 1680.00000
80.19731 1682.08909 1735.00000
80.20755 1682.13622 1730.00000
80.21779 1682.18378 1697.00000
80.22803 1682.23163 1758.00000
80.23827 1682.27973 1793.00000
80.24851 1682.32860 1729.00000
80.25876 1682.37800 1698.00000
80.26900 1682.42788 1706.00000
80.27924 1682.47822 1704.00000
80.28948 1682.52904 1668.00000
80.29972 1682.58034 1688.00000
80.30996 1682.63211 1677.00000
80.32020 1682.68420 1743.00000
80.33045 1682.73635 1733.00000
80.34069 1682.78922 1743.00000
80.35093 1682.84299 1624.00000
80.36117 1682.89735 1698.00000
80.37141 1682.95226 1733.00000
80.38165 1683.00772 1701.00000
80.39189 1683.06373 1758.00000
80.40214 1683.12030 1714.00000
80.41238 1683.17746 1642.00000
80.42262 1683.23520 1730.00000
80.43286 1683.29354 1661.00000
80.44310 1683.35249 1730.00000
80.45334 1683.41207 1660.00000
80.46359 1683.47242 1736.00000
80.47383 1683.53489 1689.00000
80.48407 1683.60217 1702.00000
80.49431 1683.66553 1712.00000
80.50455 1683.72852 1621.00000
80.51479 1683.79215 1749.00000
80.52503 1683.85644 1731.00000
80.53528 1683.92128 1686.00000
80.54552 1683.98681 1743.00000
80.55576 1684.05339 1734.00000
80.56600 1684.12084 1681.00000
80.57624 1684.18911 1651.00000
80.58648 1684.25822 1713.00000
80.59672 1684.32820 1671.00000
80.60697 1684.39908 1735.00000
80.61721 1684.47086 1719.00000
80.62745 1684.54360 1771.00000
80.63769 1684.61753 1728.00000
80.64793 1684.69641 1728.00000
80.65817 1684.80865 1721.00000
80.66841 1685.01901 1756.00000
80.67866 1685.24643 1756.00000
80.68890 1685.35782 1760.00000
80.69914 1685.44582 1679.00000
80.70938 1685.55818 1795.00000
80.71962 1685.75686 1674.00000
80.72986 1686.01595 1754.00000
80.74010 1686.14209 1678.00000
80.75035 1686.23675 1656.00000
80.76059 1686.33073 1756.00000
80.77083 1686.42497 1660.00000
80.78107 1686.51730 1687.00000
80.79131 1686.61227 1701.00000
80.80155 1686.71246 1716.00000
80.81180 1686.81518 1712.00000
80.82204 1686.91988 1724.00000
80.83228 1687.02660 1684.00000
80.84252 1687.13543 1714.00000
80.85276 1687.24647 1686.00000
80.86300 1687.35982 1779.00000
80.87324 1687.47560 1707.00000
80.88349 1687.59391 1699.00000
80.89373 1687.71498 1776.00000
80.90397 1687.84021 1769.00000
80.91421 1687.97985 1690.00000
80.92445 1688.16302 1771.00000
80.93469 1688.38442 1781.00000
80.94493 1688.54100 1688.00000
80.95518 1688.69038 1722.00000
80.96542 1688.89300 1670.00000
80.97566 1689.24748 1793.00000
80.98590 1689.61739 1796.00000
80.99614 1689.82322 1713.00000
81.00638 1689.99465 1714.00000
81.01662 1690.16886 1694.00000
81.02687 1690.34853 1768.00000
81.03711 1690.53396 1729.00000
81.04735 1690.72544 1665.00000
81.05759 1690.92324 1821.00000
81.06783 1691.12763 1708.00000
81.07807 1691.33896 1759.00000
81.08831 1691.55843 1700.00000
81.09856 1691.78813 1674.00000
81.10880 1692.02236 1779.00000
81.11904 1692.26250 1646.00000
81.12928 1692.50964 1743.00000
81.13952 1692.76379 1671.00000
81.14976 1693.02470 1648.00000
81.16001 1693.29208 1666.00000
81.17025 1693.56560 1734.00000
81.18049 1693.84498 1738.00000
81.19073 1694.13006 1776.00000
81.20097 1694.42098 1745.00000
81.21121 1694.71953 1656.00000
81.22145 1695.03762 1607.00000
81.23170 1695.40571 1748.00000
81.24194 1695.80880 1644.00000
81.25218 1696.16070 1627.00000
81.26242 1696.51170 1681.00000
81.27266 1696.87949 1704.00000
81.28290 1697.26863 1739.00000
81.29314 1697.68314 1662.00000
81.30339 1698.12750 1686.00000
81.31363 1698.60664 1741.00000
81.32387 1699.12605 1680.00000
81.33411 1699.69191 1744.00000
81.34435 1700.31126 1721.00000
81.35459 1700.99218 1728.00000
81.36483 1701.74413 1687.00000
81.37508 1702.57828 1719.00000
81.38532 1703.50816 1726.00000
81.39556 1704.55149 1711.00000
81.40580 1705.73084 1748.00000
81.41604 1707.05997 1716.00000
81.42628 1708.57193 1725.00000
81.43652 1710.30450 1677.00000
81.44677 1712.30312 1748.00000
81.45701 1714.62440 1834.00000
81.46725 1717.33901 1757.00000
81.47749 1720.53503 1762.00000
81.48773 1724.32121 1767.00000
81.49797 1728.82931 1753.00000
81.50822 1734.21311 1739.00000
81.51846 1740.63928 1846.00000
81.52870 1748.26132 1830.00000
81.53894 1757.16288 1757.00000
81.54918 1767.25535 1772.00000
81.55942 1778.12915 1739.00000
81.56966 1788.90636 1837.00000
81.57991 1798.22277 1862.00000
81.59015 1804.50173 1830.00000
81.60039 1806.53064 1827.00000
81.61063 1804.02949 1839.00000
81.62087 1797.76978 1860.00000
81.63111 1789.15486 1855.00000
81.64135 1779.63386 1743.00000
81.65160 1770.31625 1848.00000
81.66184 1761.87260 1799.00000
81.67208 1754.61905 1751.00000
81.68232 1748.63615 1821.00000
81.69256 1743.87460 1719.00000
81.70280 1740.23049 1837.00000
81.71304 1737.59112 1732.00000
81.72329 1735.85917 1681.00000
81.73353 1734.96340 1767.00000
81.74377 1734.86134 1813.00000
81.75401 1735.53692 1836.00000
81.76425 1736.99289 1847.00000
81.77449 1739.23569 1797.00000
81.78473 1742.24775 1849.00000
81.79498 1745.94276 1868.00000
81.80522 1750.10569 1854.00000
81.81546 1754.33739 1774.00000
81.82570 1758.04677 1770.00000
81.83594 1760.55963 1737.00000
81.84618 1761.33115 1903.00000
81.85643 1760.15896 1808.00000
81.86667 1757.26211 1797.00000
81.87691 1753.16620 1825.00000
81.88715 1748.49030 1790.00000
81.89739 1743.76656 1731.00000
81.90763 1739.35568 1675.00000
81.91787 1735.44716 1761.00000
81.92812 1732.10260 1806.00000
81.93836 1729.30623 1763.00000
81.94860 1727.00447 1743.00000
81.95884 1725.13110 1755.00000
81.96908 1723.62065 1763.00000
81.97932 1722.41439 1796.00000
81.98956 1721.46245 1770.00000
81.99981 1720.72326 1797.00000
82.01005 1720.16369 1762.00000
82.02029 1719.76610 1779.00000
82.03053 1719.53755 1751.00000
82.04077 1719.41892 1685.00000
82.05101 1719.35459 1798.00000
82.06125 1719.36581 1751.00000
82.07150 1719.45114 1745.00000
82.08174 1719.60324 1723.00000
82.09198 1719.81572 1820.00000
82.10222 1720.08337 1708.00000
82.11246 1720.40195 1695.00000
82.12270 1720.76803 1693.00000
82.13295 1721.17883 1735.00000
82.14319 1721.63215 1737.00000
82.15343 1722.12627 1706.00000
82.16367 1722.66024 1785.00000
82.17391 1723.23716 1715.00000
82.18415 1723.86978 1769.00000
82.19439 1724.54646 1821.00000
82.20464 1725.23677 1701.00000
82.21488 1725.95922 1752.00000
82.22512 1726.71900 1774.00000
82.23536 1727.51688 1801.00000
82.24560 1728.35353 1726.00000
82.25584 1729.22976 1803.00000
82.26608 1730.14656 1807.00000
82.27633 1731.10512 1770.00000
82.28657 1732.10675 1735.00000
82.29681 1733.15295 1756.00000
82.30705 1734.24541 1779.00000
82.31729 1735.38597 1716.00000
82.32753 1736.57677 1745.00000
82.33777 1737.82007 1772.00000
82.34802 1739.11820 1730.00000
82.35826 1740.47380 1789.00000
82.36850 1741.88997 1759.00000
82.37874 1743.37104 1818.00000
82.38898 1744.91919 1796.00000
82.39922 1746.53809 1793.00000
82.40946 1748.23174 1809.00000
82.41971 1750.00442 1763.00000
82.42995 1751.86077 1861.00000
82.44019 1753.80581 1799.00000
82.45043 1755.84490 1725.00000
82.46067 1757.98384 1782.00000
82.47091 1760.22902 1749.00000
82.48116 1762.58940 1796.00000
82.49140 1765.08275 1816.00000
82.50164 1767.72426 1831.00000
82.51188 1770.47583 1772.00000
82.52212 1773.36350 1755.00000
82.53236 1776.40131 1784.00000
82.54260 1779.60048 1750.00000
82.55285 1782.96922 1811.00000
82.56309 1786.51472 1846.00000
82.57333 1790.25625 1939.00000
82.58357 1794.20000 1870.00000
82.59381 1798.35334 1892.00000
82.60405 1802.72428 1941.00000
82.61429 1807.31977 1889.00000
82.62454 1812.14516 1843.00000
82.63478 1817.20376 1841.00000
82.64502 1822.49644 1806.00000
82.65526 1828.02175 1808.00000
82.66550 1833.77540 1868.00000
82.67574 1839.74969 1860.00000
82.68598 1845.93563 1928.00000
82.69623 1852.32357 1940.00000
82.70647 1858.90500 1835.00000
82.71671 1865.67488 1894.00000
82.72695 1872.63446 1894.00000
82.73719 1879.79420 1832.00000
82.74743 1887.17666 1994.00000
82.75767 1894.82310 1928.00000
82.76792 1902.78843 1928.00000
82.77816 1911.14159 1890.00000
82.78840 1919.97142 1926.00000
82.79864 1929.38344 1933.00000
82.80888 1939.49015 1974.00000
82.81912 1950.42541 2031.00000
82.82937 1962.33669 2006.00000
82.83961 1975.38537 1956.00000
82.84985 1989.75044 2001.00000
82.86009 2005.63189 1979.00000
82.87033 2023.24281 2017.00000
82.88057 2042.83711 2011.00000
82.89081 2064.70554 2091.00000
82.90106 2089.18499 2072.00000
82.91130 2116.67177 2162.00000
82.92154 2147.63697 2165.00000
82.93178 2182.64580 2238.00000
82.94202 2222.38158 2188.00000
82.95226 2267.67621 2335.00000
82.96250 2319.55344 2310.00000
82.97275 2379.28129 2443.00000
82.98299 2448.42278 2497.00000
82.99323 2528.92432 2671.00000
83.00347 2623.20476 2783.00000
83.01371 2734.26443 2758.00000
83.02395 2865.78818 2960.00000
83.03419 3022.21808 3153.00000
83.04444 3208.72398 3330.00000
83.05468 3430.93222 3762.00000
83.06492 3694.16020 3887.00000
83.07516 4001.76193 4331.00000
83.08540 4352.11680 4723.00000
83.09564 4734.07784 5135.00000
83.10588 5121.84971 5398.00000
83.11613 5472.56912 5810.00000
83.12637 5731.96832 6007.00000
83.13661 5851.19456 6152.00000
83.14685 5805.26658 5908.00000
83.15709 5617.31892 5642.00000
83.16733 5332.93020 5279.00000
83.17758 5003.42632 4828.00000
83.18782 4670.93332 4447.00000
83.19806 4363.35863 4061.00000
83.20830 4095.74200 3885.00000
83.21854 3873.95002 3680.00000
83.22878 3698.36583 3508.00000
83.23902 3566.72439 3402.00000
83.24927 3475.98813 3245.00000
83.25951 3423.44898 3298.00000
83.26975 3407.30713 3339.00000
83.27999 3426.93265 3355.00000
83.29023 3482.93468 3347.00000
83.30047 3577.07488 3616.00000
83.31071 3712.05960 3875.00000
83.32096 3891.18812 3977.00000
83.33120 4115.74929 4248.00000
83.34144 4383.99495 4584.00000
83.35168 4687.45235 4981.00000
83.36192 5007.24074 5322.00000
83.37216 5311.90272 5733.00000
83.38240 5559.71314 5920.00000
83.39265 5707.65193 6261.00000
83.40289 5725.34587 6152.00000
83.41313 5607.09670 5921.00000
83.42337 5374.06613 5266.00000
83.43361 5065.02487 5026.00000
83.44385 4722.16120 4606.00000
83.45409 4380.13768 4242.00000
83.46434 4061.76066 3759.00000
83.47458 3778.85458 3511.00000
83.48482 3535.32090 3314.00000
83.49506 3330.29624 3096.00000
83.50530 3160.56872 2974.00000
83.51554 3022.14329 2887.00000
83.52579 2911.25261 2717.00000
83.53603 2824.47938 2750.00000
83.54627 2759.04167 2694.00000
83.55651 2713.01634 2635.00000
83.56675 2685.12217 2631.00000
83.57699 2674.56997 2621.00000
83.58723 2680.81540 2687.00000
83.59748 2703.14551 2744.00000
83.60772 2740.02199 2791.00000
83.61796 2788.16540 2891.00000
83.62820 2841.57402 2944.00000
83.63844 2891.00048 3063.00000
83.64868 2924.03972 3010.00000
83.65892 2930.36974 3040.00000
83.66917 2904.47998 3041.00000
83.67941 2847.85990 2913.00000
83.68965 2767.85473 2856.00000
83.69989 2674.47041 2709.00000
83.71013 2577.20718 2587.00000
83.72037 2483.19390 2382.00000
83.73061 2396.73560 2271.00000
83.74086 2319.75789 2252.00000
83.75110 2252.56692 2202.00000
83.76134 2194.55272 2098.00000
83.77158 2144.69395 2041.00000
83.78182 2101.86340 2087.00000
83.79206 2064.98708 2097.00000
83.80230 2033.11220 1954.00000
83.81255 2005.42547 1983.00000
83.82279 1981.24721 1927.00000
83.83303 1960.01566 1942.00000
83.84327 1941.26891 1997.00000
83.85351 1924.62805 1930.00000
83.86375 1909.78202 1916.00000
83.87400 1896.46920 1881.00000
83.88424 1884.47730 1859.00000
83.89448 1873.62923 1885.00000
83.90472 1863.77639 1881.00000
83.91496 1854.79663 1802.00000
83.92520 1846.58123 1805.00000
83.93544 1839.04037 1818.00000
83.94569 1832.09752 1931.00000
83.95593 1825.68699 1779.00000
83.96617 1819.75219 1828.00000
83.97641 1814.25375 1827.00000
83.98665 1809.13797 1728.00000
83.99689 1804.36729 1814.00000
84.00713 1799.90946 1769.00000
84.01738 1795.73606 1834.00000
84.02762 1791.82195 1780.00000
84.03786 1788.14480 1853.00000
84.04810 1784.68420 1757.00000
84.05834 1781.42073 1733.00000
84.06858 1778.33918 1760.00000
84.07882 1775.43089 1842.00000
84.08907 1772.68009 1798.00000
84.09931 1770.07436 1816.00000
84.10955 1767.60320 1832.00000
84.11979 1765.25711 1845.00000
84.13003 1763.02746 1772.00000
84.14027 1760.90642 1779.00000
84.15051 1758.88680 1805.00000
84.16076 1756.96205 1823.00000
84.17100 1755.12616 1761.00000
84.18124 1753.37363 1786.00000
84.19148 1751.69938 1777.00000
84.20172 1750.09873 1811.00000
84.21196 1748.56740 1748.00000
84.22221 1747.10139 1803.00000
84.23245 1745.69702 1833.00000
84.24269 1744.35089 1857.00000
84.25293 1743.05983 1765.00000
84.26317 1741.82091 1843.00000
84.27341 1740.63137 1839.00000
84.28365 1739.48870 1758.00000
84.29390 1738.39067 1866.00000
84.30414 1737.33583 1728.00000
84.31438 1736.32121 1749.00000
84.32462 1735.34474 1728.00000
84.33486 1734.40463 1846.00000
84.34510 1733.49918 1688.00000
84.35534 1732.62682 1671.00000
84.36559 1731.78607 1764.00000
84.37583 1730.97552 1732.00000
84.38607 1730.19388 1724.00000
84.39631 1729.43992 1740.00000
84.40655 1728.71247 1729.00000
84.41679 1728.01044 1750.00000
84.42703 1727.33282 1745.00000
84.43728 1726.67863 1820.00000
84.44752 1726.04690 1728.00000
84.45776 1725.43621 1797.00000
84.46800 1724.84401 1696.00000
84.47824 1724.27018 1645.00000
84.48848 1723.71960 1740.00000
84.49872 1723.18844 1758.00000
84.50897 1722.67182 1737.00000
84.51921 1722.14332 1814.00000
84.52945 1721.54078 1766.00000
84.53969 1720.92798 1784.00000
84.54993 1720.45443 1757.00000
84.56017 1720.02552 1798.00000
84.57042 1719.61330 1701.00000
84.58066 1719.21557 1796.00000
84.59090 1718.83195 1720.00000
84.60114 1718.46228 1705.00000
84.61138 1718.10676 1760.00000
84.62162 1717.76457 1786.00000
84.63186 1717.43438 1787.00000
84.64211 1717.11656 1802.00000
84.65235 1716.81105 1777.00000
84.66259 1716.51778 1753.00000
84.67283 1716.23701 1712.00000
84.68307 1715.96885 1783.00000
84.69331 1715.71114 1652.00000
84.70355 1715.46462 1741.00000
84.71380 1715.22947 1744.00000
84.72404 1715.00561 1658.00000
84.73428 1714.79299 1806.00000
84.74452 1714.59156 1784.00000
84.75476 1714.40130 1728.00000
84.76500 1714.22218 1743.00000
84.77524 1714.05411 1735.00000
84.78549 1713.89608 1753.00000
84.79573 1713.74362 1694.00000
84.80597 1713.59491 1754.00000
84.81621 1713.45418 1779.00000
84.82645 1713.33938 1801.00000
84.83669 1713.24009 1770.00000
84.84693 1713.15198 1794.00000
84.85718 1713.07462 1760.00000
84.86742 1713.00780 1763.00000
84.87766 1712.95132 1681.00000
84.88790 1712.90491 1709.00000
84.89814 1712.86831 1747.00000
84.90838 1712.84127 1762.00000
84.91863 1712.82361 1814.00000
84.92887 1712.81543 1731.00000
84.93911 1712.81763 1756.00000
84.94935 1712.83230 1661.00000
84.95959 1712.86427 1754.00000
84.96983 1712.92356 1695.00000
84.98007 1712.99181 1701.00000
84.99032 1713.05326 1742.00000
85.00056 1713.12577 1766.00000
85.01080 1713.21661 1689.00000
85.02104 1713.32819 1722.00000
85.03128 1713.45920 1781.00000
85.04152 1713.61437 1722.00000
85.05176 1713.79728 1742.00000
85.06201 1714.01137 1751.00000
85.07225 1714.26039 1763.00000
85.08249 1714.54853 1718.00000
85.09273 1714.88052 1755.00000
85.10297 1715.26179 1670.00000
85.11321 1715.69855 1724.00000
85.12345 1716.19809 1734.00000
85.13370 1716.76892 1679.00000
85.14394 1717.42116 1718.00000
85.15418 1718.16685 1711.00000
85.16442 1719.02049 1731.00000
85.17466 1719.99958 1740.00000
85.18490 1721.12547 1789.00000
85.19514 1722.42424 1826.00000
85.20539 1723.92796 1792.00000
85.21563 1725.67617 1726.00000
85.22587 1727.71758 1819.00000
85.23611 1730.11208 1791.00000
85.24635 1732.93249 1728.00000
85.25659 1736.26575 1707.00000
85.26684 1740.21211 1766.00000
85.27708 1744.88081 1771.00000
85.28732 1750.37690 1854.00000
85.29756 1756.76652 1839.00000
85.30780 1763.98758 1822.00000
85.31804 1771.80582 1814.00000
85.32828 1779.72808 1732.00000
85.33853 1786.94444 1783.00000
85.34877 1792.43463 1860.00000
85.35901 1795.27547 1926.00000
85.36925 1795.02113 1832.00000
85.37949 1791.90094 1809.00000
85.38973 1786.68504 1753.00000
85.39997 1780.34272 1877.00000
85.41022 1773.73822 1771.00000
85.42046 1767.48897 1834.00000
85.43070 1761.96019 1777.00000
85.44094 1757.32212 1746.00000
85.45118 1753.61874 1769.00000
85.46142 1750.82534 1812.00000
85.47166 1748.88930 1775.00000
85.48191 1747.75568 1809.00000
85.49215 1747.38161 1800.00000
85.50239 1747.74355 1831.00000
85.51263 1748.84052 1828.00000
85.52287 1750.69494 1808.00000
85.53311 1753.35137 1720.00000
85.54336 1756.87270 1905.00000
85.55360 1761.33144 1822.00000
85.56384 1766.79363 1785.00000
85.57408 1773.29251 1830.00000
85.58432 1780.79397 1797.00000
85.59456 1789.16537 1841.00000
85.60480 1798.17250 1864.00000
85.61505 1807.52853 1804.00000
85.62529 1816.98283 1841.00000
85.63553 1826.37789 1916.00000
85.64577 1835.58260 1893.00000
85.65601 1844.27647 1913.00000
85.66625 1851.72955 1993.00000
85.67649 1856.95591 1889.00000
85.68674 1858.90291 1897.00000
85.69698 1856.69473 1821.00000
85.70722 1850.33607 1906.00000
85.71746 1840.68481 1835.00000
85.72770 1829.05842 1900.00000
85.73794 1816.77323 1863.00000
85.74818 1804.85207 1818.00000
85.75843 1793.94469 1776.00000
85.76867 1784.37886 1774.00000
85.77891 1776.25560 1788.00000
85.78915 1769.54057 1822.00000
85.79939 1764.13381 1824.00000
85.80963 1759.91592 1809.00000
85.81987 1756.77512 1806.00000
85.83012 1754.62118 1795.00000
85.84036 1753.39053 1816.00000
85.85060 1753.04736 1835.00000
85.86084 1753.58112 1796.00000
85.87108 1754.99891 1809.00000
85.88132 1757.31194 1774.00000
85.89157 1760.51170 1806.00000
85.90181 1764.53158 1799.00000
85.91205 1769.19384 1826.00000
85.92229 1774.15401 1832.00000
85.93253 1778.87277 1864.00000
85.94277 1782.65155 1834.00000
85.95301 1784.79527 1869.00000
85.96326 1785.03714 1864.00000
85.97350 1783.29535 1878.00000
85.98374 1779.91840 1874.00000
85.99398 1775.51738 1850.00000
86.00422 1770.75457 1811.00000
86.01446 1766.19479 1835.00000
86.02470 1762.24328 1802.00000
86.03495 1759.15097 1804.00000
86.04519 1757.05233 1824.00000
86.05543 1756.00623 1817.00000
86.06567 1756.02126 1804.00000
86.07591 1757.04508 1759.00000
86.08615 1758.90728 1798.00000
86.09639 1761.43978 1799.00000
86.10664 1764.44645 1816.00000
86.11688 1767.26824 1848.00000
86.12712 1769.20165 1831.00000
86.13736 1769.66121 1835.00000
86.14760 1768.36321 1844.00000
86.15784 1765.43643 1846.00000
86.16808 1761.33363 1928.00000
86.17833 1756.61986 1868.00000
86.18857 1751.79256 1778.00000
86.19881 1747.19707 1816.00000
86.20905 1743.02305 1782.00000
86.21929 1739.34149 1818.00000
86.22953 1736.15236 1835.00000
86.23978 1733.42552 1750.00000
86.25002 1731.12678 1784.00000
86.26026 1729.22891 1705.00000
86.27050 1727.71289 1789.00000
86.28074 1726.56589 1769.00000
86.29098 1725.77955 1794.00000
86.30122 1725.34952 1732.00000
86.31147 1725.27532 1758.00000
86.32171 1725.55839 1786.00000
86.33195 1726.19802 1777.00000
86.34219 1727.18223 1747.00000
86.35243 1728.46912 1809.00000
86.36267 1729.95198 1806.00000
86.37291 1731.44476 1764.00000
86.38316 1732.82165 1829.00000
86.39340 1733.82674 1775.00000
86.40364 1734.19107 1745.00000
86.41388 1733.77356 1820.00000
86.42412 1732.58942 1817.00000
86.43436 1730.78973 1791.00000
86.44460 1728.60027 1751.00000
86.45485 1726.25137 1688.00000
86.46509 1723.92907 1829.00000
86.47533 1721.75651 1765.00000
86.48557 1719.79833 1762.00000
86.49581 1718.07599 1743.00000
86.50605 1716.58302 1855.00000
86.51629 1715.29870 1766.00000
86.52654 1714.19824 1721.00000
86.53678 1713.25608 1765.00000
86.54702 1712.44849 1855.00000
86.55726 1711.75472 1749.00000
86.56750 1711.15706 1713.00000
86.57774 1710.64072 1747.00000
86.58799 1710.19342 1776.00000
86.59823 1709.80499 1829.00000
86.60847 1709.46708 1720.00000
86.61871 1709.17369 1743.00000
86.62895 1708.92916 1734.00000
86.63919 1708.75821 1715.00000
86.64943 1708.61456 1833.00000
86.65968 1708.45566 1763.00000
86.66992 1708.31119 1738.00000
86.68016 1708.18769 1697.00000
86.69040 1708.09371 1747.00000
86.70064 1708.05696 1731.00000
86.71088 1708.03372 1806.00000
86.72112 1707.98360 1724.00000
86.73137 1707.93789 1676.00000
86.74161 1707.90359 1780.00000
86.75185 1707.88032 1811.00000
86.76209 1707.86730 1735.00000
86.77233 1707.86385 1769.00000
86.78257 1707.86935 1810.00000
86.79281 1707.88400 1811.00000
86.80306 1707.91514 1743.00000
86.81330 1707.98009 1774.00000
86.82354 1708.02595 1715.00000
86.83378 1708.07071 1648.00000
86.84402 1708.12155 1715.00000
86.85426 1708.18006 1735.00000
86.86450 1708.25503 1781.00000
86.87475 1708.36611 1748.00000
86.88499 1708.45674 1715.00000
86.89523 1708.54563 1792.00000
86.90547 1708.64209 1704.00000
86.91571 1708.74785 1673.00000
86.92595 1708.86380 1723.00000
86.93620 1708.99101 1771.00000
86.94644 1709.13043 1741.00000
86.95668 1709.28406 1707.00000
86.96692 1709.46320 1770.00000
86.97716 1709.69858 1784.00000
86.98740 1709.94983 1753.00000
86.99764 1710.18002 1710.00000
87.00789 1710.42329 1773.00000
87.01813 1710.68996 1721.00000
87.02837 1710.98336 1780.00000
87.03861 1711.30681 1732.00000
87.04885 1711.66422 1752.00000
87.05909 1712.06026 1739.00000
87.06933 1712.50050 1695.00000
87.07958 1712.99167 1766.00000
87.08982 1713.54186 1812.00000
87.10006 1714.16095 1736.00000
87.11030 1714.86098 1807.00000
87.12054 1715.65668 1740.00000
87.13078 1716.56739 1751.00000
87.14102 1717.62936 1713.00000
87.15127 1718.90266 1771.00000
87.16151 1720.32764 1722.00000
87.17175 1721.96061 1808.00000
87.18199 1723.84796 1669.00000
87.19223 1726.02583 1840.00000
87.20247 1728.51504 1761.00000
87.21271 1731.30888 1721.00000
87.22296 1734.27613 1674.00000
87.23320 1737.24334 1758.00000
87.24344 1739.92766 1799.00000
87.25368 1741.95742 1672.00000
87.26392 1743.04343 1761.00000
87.27416 1743.05899 1798.00000
87.28441 1742.10002 1754.00000
87.29465 1740.43137 1754.00000
87.30489 1738.37697 1764.00000
87.31513 1736.22685 1808.00000
87.32537 1734.19342 1689.00000
87.33561 1732.40824 1835.00000
87.34585 1730.93841 1799.00000
87.35610 1729.80756 1729.00000
87.36634 1729.01433 1756.00000
87.37658 1728.54607 1766.00000
87.38682 1728.38785 1708.00000
87.39706 1728.52794 1695.00000
87.40730 1728.96077 1760.00000
87.41754 1729.68851 1766.00000
87.42779 1730.72170 1763.00000
87.43803 1732.07998 1767.00000
87.44827 1733.79069 1807.00000
87.45851 1735.88788 1739.00000
87.46875 1738.40973 1745.00000
87.47899 1741.39725 1730.00000
87.48923 1744.89077 1801.00000
87.49948 1748.87503 1824.00000
87.50972 1753.31777 1812.00000
87.51996 1758.18978 1752.00000
87.53020 1763.46052 1744.00000
87.54044 1769.13099 1848.00000
87.55068 1775.25080 1813.00000
87.56092 1781.88923 1839.00000
87.57117 1789.06626 1838.00000
87.58141 1796.60651 1914.00000
87.59165 1804.01000 1906.00000
87.60189 1810.39747 1838.00000
87.61213 1814.68177 1931.00000
87.62237 1816.00815 1909.00000
87.63262 1814.04404 1806.00000
87.64286 1809.13773 1931.00000
87.65310 1802.13529 1861.00000
87.66334 1794.03575 1894.00000
87.67358 1785.70929 1752.00000
87.68382 1777.77361 1911.00000
87.69406 1770.59401 1753.00000
87.70431 1764.33911 1830.00000
87.71455 1759.04679 1890.00000
87.72479 1754.67926 1721.00000
87.73503 1751.15653 1785.00000
87.74527 1748.34765 1842.00000
87.75551 1746.09656 1891.00000
87.76575 1744.65764 1803.00000
87.77600 1743.86350 1768.00000
87.78624 1743.64995 1759.00000
87.79648 1744.00367 1807.00000
87.80672 1744.92637 1766.00000
87.81696 1746.42339 1778.00000
87.82720 1748.49004 1788.00000
87.83744 1751.08998 1758.00000
87.84769 1754.12436 1808.00000
87.85793 1757.39662 1745.00000
87.86817 1760.58855 1821.00000
87.87841 1763.27509 1790.00000
87.88865 1765.00135 1874.00000
87.89889 1765.41287 1815.00000
87.90913 1764.37830 1773.00000
87.91938 1762.03103 1817.00000
87.92962 1758.70722 1848.00000
87.93986 1754.82382 1851.00000
87.95010 1750.78002 1810.00000
87.96034 1746.87040 1708.00000
87.97058 1743.26982 1835.00000
87.98083 1740.06011 1749.00000
87.99107 1737.25813 1688.00000
88.00131 1734.85097 1777.00000
88.01155 1732.79859 1804.00000
88.02179 1731.05175 1788.00000
88.03203 1729.54877 1756.00000
88.04227 1728.22174 1749.00000
88.05252 1727.11207 1731.00000
88.06276 1726.21185 1771.00000
88.07300 1725.46010 1740.00000
88.08324 1724.82687 1787.00000
88.09348 1724.29442 1803.00000
88.10372 1723.84855 1757.00000
88.11396 1723.47746 1753.00000
88.12421 1723.17134 1738.00000
88.13445 1722.92203 1739.00000
88.14469 1722.72268 1747.00000
88.15493 1722.56756 1647.00000
88.16517 1722.45184 1739.00000
88.17541 1722.37143 1720.00000
88.18565 1722.32291 1691.00000
88.19590 1722.30333 1788.00000
88.20614 1722.31021 1707.00000
88.21638 1722.34141 1686.00000
88.22662 1722.39514 1711.00000
88.23686 1722.46984 1713.00000
88.24710 1722.56421 1668.00000
88.25734 1722.67712 1741.00000
88.26759 1722.80763 1785.00000
88.27783 1722.95501 1711.00000
88.28807 1723.11867 1804.00000
88.29831 1723.29786 1763.00000
88.30855 1723.49211 1676.00000
88.31879 1723.70079 1671.00000
88.32904 1723.92187 1799.00000
88.33928 1724.15267 1805.00000
88.34952 1724.40307 1752.00000
88.35976 1724.66881 1728.00000
88.37000 1724.94863 1744.00000
88.38024 1725.24254 1790.00000
88.39048 1725.55061 1731.00000
88.40073 1725.87295 1743.00000
88.41097 1726.20976 1746.00000
88.42121 1726.56114 1771.00000
88.43145 1726.92636 1706.00000
88.44169 1727.30380 1817.00000
88.45193 1727.69997 1695.00000
88.46217 1728.11349 1756.00000
88.47242 1728.54375 1745.00000
88.48266 1728.99113 1658.00000
88.49290 1729.45620 1776.00000
88.50314 1729.93960 1681.00000
88.51338 1730.44200 1742.00000
88.52362 1730.96415 1769.00000
88.53386 1731.50685 1718.00000
88.54411 1732.07097 1789.00000
88.55435 1732.65745 1717.00000
88.56459 1733.26728 1731.00000
88.57483 1733.90156 1745.00000
88.58507 1734.56145 1737.00000
88.59531 1735.24820 1793.00000
88.60555 1735.96308 1782.00000
88.61580 1736.70745 1742.00000
88.62604 1737.48308 1794.00000
88.63628 1738.29162 1770.00000
88.64652 1739.13474 1791.00000
88.65676 1740.01427 1724.00000
88.66700 1740.93219 1708.00000
88.67725 1741.89061 1767.00000
88.68749 1742.89174 1815.00000
88.69773 1743.93792 1805.00000
88.70797 1745.03162 1798.00000
88.71821 1746.17541 1754.00000
88.72845 1747.37194 1784.00000
88.73869 1748.62395 1698.00000
88.74894 1749.93412 1727.00000
88.75918 1751.30484 1771.00000
88.76942 1752.73852 1808.00000
88.77966 1754.23844 1723.00000
88.78990 1755.80322 1856.00000
88.80014 1757.44175 1776.00000
88.81038 1759.15587 1855.00000
88.82063 1760.94746 1812.00000
88.83087 1762.81641 1762.00000
88.84111 1764.76273 1819.00000
88.85135 1766.78622 1828.00000
88.86159 1768.88653 1666.00000
88.87183 1771.06259 1812.00000
88.88207 1773.31285 1848.00000
88.89232 1775.63549 1765.00000
88.90256 1778.02876 1716.00000
88.91280 1780.49145 1797.00000
88.92304 1783.02334 1867.00000
88.93328 1785.62585 1841.00000
88.94352 1788.30259 1849.00000
88.95376 1791.05993 1779.00000
88.96401 1793.90744 1724.00000
88.97425 1796.85822 1863.00000
88.98449 1799.92897 1769.00000
88.99473 1803.14006 1869.00000
89.00497 1806.51527 1826.00000
89.01521 1810.08163 1801.00000
89.02546 1813.86918 1778.00000
89.03570 1817.91083 1891.00000
89.04594 1822.24237 1820.00000
89.05618 1826.90270 1845.00000
89.06642 1831.93424 1818.00000
89.07666 1837.38382 1783.00000
89.08690 1843.30407 1912.00000
89.09715 1849.75394 1851.00000
89.10739 1856.80104 1992.00000
89.11763 1864.52319 1846.00000
89.12787 1873.01110 1791.00000
89.13811 1882.37790 1894.00000
89.14835 1892.74557 1915.00000
89.15859 1904.26779 1892.00000
89.16884 1917.11914 1956.00000
89.17908 1931.51289 2043.00000
89.18932 1947.70611 1981.00000
89.19956 1966.00565 1946.00000
89.20980 1986.78046 2021.00000
89.22004 2010.47584 2013.00000
89.23028 2037.63042 2032.00000
89.24053 2068.89605 2109.00000
89.25077 2105.05973 2074.00000
89.26101 2147.06640 2129.00000
89.27125 2196.04210 2164.00000
89.28149 2253.29001 2219.00000
89.29173 2320.26274 2299.00000
89.30198 2398.46271 2425.00000
89.31222 2489.21289 2514.00000
89.32246 2593.21801 2583.00000
89.33270 2709.83272 2596.00000
89.34294 2836.02841 2690.00000
89.35318 2965.28534 2827.00000
89.36342 3087.05097 2863.00000
89.37367 3187.74877 2738.00000
89.38391 3253.97136 2908.00000
89.39415 3277.03388 2972.00000
89.40439 3256.42712 2865.00000
89.41463 3199.86765 2846.00000
89.42487 3120.05920 2814.00000
89.43511 3030.48436 2667.00000
89.44536 2942.45315 2643.00000
89.45560 2864.02278 2637.00000
89.46584 2800.20492 2601.00000
89.47608 2753.68466 2712.00000
89.48632 2725.55210 2638.00000
89.49656 2715.80904 2697.00000
89.50680 2723.55533 2740.00000
89.51705 2746.84244 2808.00000
89.52729 2782.28200 2860.00000
89.53753 2824.67021 3005.00000
89.54777 2867.10388 2973.00000
89.55801 2902.09863 2982.00000
89.56825 2923.72135 3097.00000
89.57849 2929.77348 2987.00000
89.58874 2922.56877 2895.00000
89.59898 2907.67565 2741.00000
89.60922 2891.47388 2749.00000
89.61946 2878.90036 2743.00000
89.62970 2872.10667 2865.00000
89.63994 2870.03841 2788.00000
89.65019 2868.81754 2561.00000
89.66043 2862.93232 2605.00000
89.67067 2847.09123 2532.00000
89.68091 2818.13453 2516.00000
89.69115 2776.12779 2500.00000
89.70139 2724.15031 2557.00000
89.71163 2667.07707 2463.00000
89.72188 2610.11196 2499.00000
89.73212 2557.67672 2335.00000
89.74236 2512.94371 2386.00000
89.75260 2478.19732 2449.00000
89.76284 2454.46744 2432.00000
89.77308 2442.12300 2472.00000
89.78332 2441.13337 2521.00000
89.79357 2451.10338 2527.00000
89.80381 2471.19675 2605.00000
89.81405 2499.99204 2633.00000
89.82429 2535.39386 2666.00000
89.83453 2574.77826 2586.00000
89.84477 2615.47652 2796.00000
89.85501 2655.45007 2832.00000
89.86526 2693.67538 2940.00000
89.87550 2729.84157 2846.00000
89.88574 2763.28121 2959.00000
89.89598 2791.73340 2965.00000
89.90622 2810.87211 2882.00000
89.91646 2815.14794 2883.00000
89.92670 2799.83781 2874.00000
89.93695 2763.23378 2773.00000
89.94719 2707.58075 2730.00000
89.95743 2638.22495 2656.00000
89.96767 2561.71696 2612.00000
89.97791 2484.06192 2563.00000
89.98815 2409.77351 2389.00000
89.99840 2341.69443 2377.00000
90.00864 2281.25025 2225.00000
90.01888 2228.85447 2325.00000
90.02912 2184.28177 2194.00000
90.03936 2146.96810 2271.00000
90.04960 2116.33285 2162.00000
90.05984 2091.78403 2111.00000
90.07009 2072.73591 2117.00000
90.08033 2058.74939 1984.00000
90.09057 2049.52305 2222.00000
90.10081 2044.87827 2115.00000
90.11105 2044.73967 2160.00000
90.12129 2049.09898 2222.00000
90.13153 2057.95171 2180.00000
90.14178 2071.19173 2138.00000
90.15202 2088.45087 2219.00000
90.16226 2108.89285 2231.00000
90.17250 2130.96838 2223.00000
90.18274 2152.29576 2301.00000
90.19298 2169.80705 2327.00000
90.20322 2180.29801 2287.00000
90.21347 2181.28724 2266.00000
90.22371 2171.72831 2230.00000
90.23395 2152.50798 2179.00000
90.24419 2125.84969 2220.00000
90.25443 2094.59470 2067.00000
90.26467 2061.49973 2091.00000
90.27491 2028.77320 2073.00000
90.28516 1997.90798 2030.00000
90.29540 1969.73179 1944.00000
90.30564 1944.56233 2022.00000
90.31588 1922.38358 1947.00000
90.32612 1902.99086 1869.00000
90.33636 1886.09310 2030.00000
90.34661 1871.37644 1912.00000
90.35685 1858.53818 1932.00000
90.36709 1847.30504 1919.00000
90.37733 1837.44655 1852.00000
90.38757 1828.75619 1870.00000
90.39781 1821.06120 1848.00000
90.40805 1814.21712 1798.00000
90.41830 1808.10290 1865.00000
90.42854 1802.61712 1841.00000
90.43878 1797.67437 1848.00000
90.44902 1793.20249 1844.00000
90.45926 1789.14319 1796.00000
90.46950 1785.44511 1743.00000
90.47974 1782.06411 1820.00000
90.48999 1778.96292 1885.00000
90.50023 1776.10840 1711.00000
90.51047 1773.47043 1910.00000
90.52071 1771.03366 1816.00000
90.53095 1768.77610 1730.00000
90.54119 1766.67808 1756.00000
90.55143 1764.72390 1779.00000
90.56168 1762.89985 1773.00000
90.57192 1761.19395 1776.00000
90.58216 1759.59560 1791.00000
90.59240 1758.09545 1803.00000
90.60264 1756.68515 1848.00000
90.61288 1755.35730 1774.00000
90.62312 1754.10525 1751.00000
90.63337 1752.92312 1727.00000
90.64361 1751.80603 1714.00000
90.65385 1750.75031 1716.00000
90.66409 1749.74822 1767.00000
90.67433 1748.79704 1790.00000
90.68457 1747.89363 1762.00000
90.69482 1747.03477 1747.00000
90.70506 1746.21752 1780.00000
90.71530 1745.43916 1746.00000
90.72554 1744.69722 1753.00000
90.73578 1743.98942 1715.00000
90.74602 1743.31367 1722.00000
90.75626 1742.66805 1738.00000
90.76651 1742.05080 1739.00000
90.77675 1741.46027 1747.00000
90.78699 1740.89498 1723.00000
90.79723 1740.35355 1772.00000
90.80747 1739.83390 1804.00000
90.81771 1739.33262 1799.00000
90.82795 1738.85167 1813.00000
90.83820 1738.39280 1759.00000
90.84844 1737.95267 1811.00000
90.85868 1737.52990 1747.00000
90.86892 1737.12378 1717.00000
90.87916 1736.73327 1761.00000
90.88940 1736.35740 1716.00000
90.89964 1735.99566 1774.00000
90.90989 1735.64740 1793.00000
90.92013 1735.31109 1701.00000
90.93037 1734.97610 1747.00000
90.94061 1734.61288 1739.00000
90.95085 1734.26464 1737.00000
90.96109 1733.96786 1715.00000
90.97133 1733.68973 1730.00000
90.98158 1733.42153 1710.00000
90.99182 1733.16140 1727.00000
91.00206 1732.91039 1754.00000
91.01230 1732.66962 1767.00000
91.02254 1732.43758 1675.00000
91.03278 1732.21360 1668.00000
91.04303 1731.99736 1762.00000
91.05327 1731.78884 1768.00000
91.06351 1731.59112 1767.00000
91.07375 1731.41342 1720.00000
91.08399 1731.23847 1660.00000
91.09423 1731.05945 1770.00000
91.10447 1730.88504 1832.00000
91.11472 1730.71409 1775.00000
91.12496 1730.52374 1791.00000
91.13520 1730.34838 1734.00000
91.14544 1730.19607 1704.00000
91.15568 1730.04960 1827.00000
91.16592 1729.90787 1748.00000
91.17616 1729.77244 1758.00000
91.18641 1729.64571 1731.00000
91.19665 1729.52048 1804.00000
91.20689 1729.40035 1773.00000
91.21713 1729.28476 1711.00000
91.22737 1729.17033 1747.00000
91.23761 1729.05920 1688.00000
91.24785 1728.95188 1764.00000
91.25810 1728.84828 1774.00000
91.26834 1728.74829 1775.00000
91.27858 1728.65182 1725.00000
91.28882 1728.55874 1687.00000
91.29906 1728.46898 1734.00000
91.30930 1728.38243 1759.00000
91.31954 1728.29900 1713.00000
91.32979 1728.21859 1678.00000
91.34003 1728.14112 1731.00000
91.35027 1728.06659 1714.00000
91.36051 1727.99582 1797.00000
91.37075 1727.93632 1773.00000
91.38099 1727.90595 1812.00000
91.39124 1727.86557 1766.00000
91.40148 1727.80859 1762.00000
91.41172 1727.75003 1732.00000
91.42196 1727.69359 1752.00000
91.43220 1727.63976 1762.00000
91.44244 1727.58897 1743.00000
91.45268 1727.53945 1742.00000
91.46293 1727.49180 1707.00000
91.47317 1727.44554 1732.00000
91.48341 1727.39412 1770.00000
91.49365 1727.32262 1770.00000
91.50389 1727.27122 1685.00000
91.51413 1727.22979 1696.00000
91.52437 1727.19812 1736.00000
91.53462 1727.16654 1652.00000
91.54486 1727.13568 1703.00000
91.55510 1727.10593 1774.00000
91.56534 1727.07772 1745.00000
91.57558 1727.05112 1770.00000
91.58582 1727.02612 1695.00000
91.59606 1727.00285 1724.00000
91.60631 1726.98172 1759.00000
91.61655 1726.96203 1760.00000
91.62679 1726.94316 1799.00000
91.63703 1726.92558 1746.00000
91.64727 1726.90938 1773.00000
91.65751 1726.89453 1737.00000
91.66775 1726.88101 1715.00000
91.67800 1726.86880 1738.00000
91.68824 1726.85785 1793.00000
91.69848 1726.84816 1675.00000
91.70872 1726.83968 1730.00000
91.71896 1726.83241 1750.00000
91.72920 1726.82633 1763.00000
91.73945 1726.82163 1791.00000
91.74969 1726.81879 1725.00000
91.75993 1726.81662 1785.00000
91.77017 1726.81509 1766.00000
91.78041 1726.81455 1809.00000
91.79065 1726.81505 1771.00000
91.80089 1726.81658 1756.00000
91.81114 1726.81911 1659.00000
91.82138 1726.82263 1762.00000
91.83162 1726.82713 1760.00000
91.84186 1726.83257 1742.00000
91.85210 1726.83896 1734.00000
91.86234 1726.84627 1739.00000
91.87258 1726.85448 1679.00000
91.88283 1726.86358 1791.00000
91.89307 1726.87356 1683.00000
91.90331 1726.88447 1756.00000
91.91355 1726.89658 1754.00000
91.92379 1726.91029 1724.00000
91.93403 1726.92390 1662.00000
91.94427 1726.93808 1752.00000
91.95452 1726.95304 1688.00000
91.96476 1726.96879 1702.00000
91.97500 1726.98530 1717.00000
91.98524 1727.00258 1715.00000
91.99548 1727.02060 1745.00000
92.00572 1727.03936 1647.00000
92.01596 1727.05885 1698.00000
92.02621 1727.07906 1733.00000
92.03645 1727.09998 1735.00000
92.04669 1727.12159 1686.00000
92.05693 1727.14389 1704.00000
92.06717 1727.16688 1725.00000
92.07741 1727.19053 1711.00000
92.08766 1727.21485 1729.00000
92.09790 1727.23983 1721.00000
92.10814 1727.26545 1758.00000
92.11838 1727.29172 1734.00000
92.12862 1727.31861 1726.00000
92.13886 1727.34613 1726.00000
92.14910 1727.37427 1712.00000
92.15935 1727.40303 1720.00000
92.16959 1727.43239 1686.00000
92.17983 1727.46232 1721.00000
92.19007 1727.49186 1757.00000
92.20031 1727.51072 1781.00000
92.21055 1727.48905 1684.00000
92.22079 1727.46988 1737.00000
92.23104 1727.48999 1755.00000
92.24128 1727.52254 1694.00000
92.25152 1727.55733 1792.00000
92.26176 1727.59281 1689.00000
92.27200 1727.62883 1741.00000
92.28224 1727.66540 1726.00000
92.29248 1727.70251 1718.00000
92.30273 1727.74016 1711.00000
92.31297 1727.77833 1709.00000
92.32321 1727.81704 1776.00000
92.33345 1727.85628 1676.00000
92.34369 1727.89605 1700.00000
92.35393 1727.93633 1678.00000
92.36417 1727.97714 1731.00000
92.37442 1728.01823 1734.00000
92.38466 1728.05692 1739.00000
92.39490 1728.08178 1729.00000
92.40514 1728.09065 1666.00000
92.41538 1728.12769 1730.00000
92.42562 1728.17166 1766.00000
92.43587 1728.21652 1740.00000
92.44611 1728.26190 1721.00000
92.45635 1728.30779 1805.00000
92.46659 1728.35418 1668.00000
92.47683 1728.40109 1765.00000
92.48707 1728.44851 1754.00000
92.49731 1728.49644 1708.00000
92.50756 1728.54488 1714.00000
92.51780 1728.59384 1667.00000
92.52804 1728.64332 1670.00000
92.53828 1728.69331 1685.00000
92.54852 1728.74383 1740.00000
92.55876 1728.79487 1749.00000
92.56900 1728.84644 1704.00000
92.57925 1728.89839 1724.00000
92.58949 1728.94948 1757.00000
92.59973 1728.99613 1689.00000
92.60997 1729.04146 1766.00000
92.62021 1729.09291 1689.00000
92.63045 1729.14740 1796.00000
92.64069 1729.20278 1672.00000
92.65094 1729.25876 1705.00000
92.66118 1729.31434 1689.00000
92.67142 1729.35938 1770.00000
92.68166 1729.36497 1772.00000
92.69190 1729.37672 1678.00000
92.70214 1729.42811 1718.00000
92.71238 1729.48805 1677.00000
92.72263 1729.54904 1776.00000
92.73287 1729.61066 1742.00000
92.74311 1729.67292 1743.00000
92.75335 1729.73569 1789.00000
92.76359 1729.79393 1743.00000
92.77383 1729.82975 1667.00000
92.78408 1729.87380 1805.00000
92.79432 1729.93198 1728.00000
92.80456 1729.99642 1755.00000
92.81480 1730.06356 1751.00000
92.82504 1730.13173 1819.00000
92.83528 1730.20066 1739.00000
92.84552 1730.27024 1842.00000
92.85577 1730.33901 1785.00000
92.86601 1730.39711 1700.00000
92.87625 1730.43017 1771.00000
92.88649 1730.49548 1834.00000
92.89673 1730.56907 1764.00000
92.90697 1730.64391 1805.00000
92.91721 1730.71984 1778.00000
92.92746 1730.79674 1761.00000
92.93770 1730.87460 1767.00000
92.94794 1730.95346 1773.00000
92.95818 1731.03332 1745.00000
92.96842 1731.11424 1718.00000
92.97866 1731.19625 1765.00000
92.98890 1731.27937 1768.00000
92.99915 1731.36366 1693.00000
93.00939 1731.44915 1799.00000
93.01963 1731.53597 1632.00000
93.02987 1731.62437 1755.00000
93.04011 1731.71383 1657.00000
93.05035 1731.80457 1792.00000
93.06060 1731.89677 1674.00000
93.07084 1731.99088 1719.00000
93.08108 1732.08781 1759.00000
93.09132 1732.18509 1736.00000
93.10156 1732.28229 1738.00000
93.11180 1732.38439 1798.00000
93.12204 1732.48708 1753.00000
93.13229 1732.59107 1712.00000
93.14253 1732.69692 1691.00000
93.15277 1732.80478 1730.00000
93.16301 1732.91472 1739.00000
93.17325 1733.02682 1736.00000
93.18349 1733.14116 1813.00000
93.19373 1733.25783 1804.00000
93.20398 1733.37690 1720.00000
93.21422 1733.49846 1731.00000
93.22446 1733.62239 1824.00000
93.23470 1733.74629 1675.00000
93.24494 1733.85947 1741.00000
93.25518 1733.95726 1691.00000
93.26542 1734.08366 1776.00000
93.27567 1734.21831 1680.00000
93.28591 1734.35994 1784.00000
93.29615 1734.50579 1765.00000
93.30639 1734.65536 1744.00000
93.31663 1734.80883 1808.00000
93.32687 1734.96643 1768.00000
93.33711 1735.12844 1772.00000
93.34736 1735.29516 1733.00000
93.35760 1735.46693 1822.00000
93.36784 1735.64408 1716.00000
93.37808 1735.82700 1699.00000
93.38832 1736.01608 1724.00000
93.39856 1736.21174 1784.00000
93.40881 1736.41441 1662.00000
93.41905 1736.62456 1674.00000
93.42929 1736.84264 1672.00000
93.43953 1737.06914 1771.00000
93.44977 1737.30458 1709.00000
93.46001 1737.54946 1757.00000
93.47025 1737.80431 1788.00000
93.48050 1738.06969 1763.00000
93.49074 1738.34616 1648.00000
93.50098 1738.63430 1799.00000
93.51122 1738.93470 1822.00000
93.52146 1739.24802 1730.00000
93.53170 1739.57492 1715.00000
93.54194 1739.91619 1769.00000
93.55219 1740.27268 1689.00000
93.56243 1740.64541 1798.00000
93.57267 1741.03564 1705.00000
93.58291 1741.44493 1798.00000
93.59315 1741.87539 1666.00000
93.60339 1742.32960 1746.00000
93.61363 1742.80976 1765.00000
93.62388 1743.32010 1719.00000
93.63412 1743.86555 1760.00000
93.64436 1744.45196 1772.00000
93.65460 1745.08630 1772.00000
93.66484 1745.77657 1784.00000
93.67508 1746.53146 1791.00000
93.68532 1747.35958 1858.00000
93.69557 1748.26802 1732.00000
93.70581 1749.25977 1740.00000
93.71605 1750.33001 1668.00000
93.72629 1751.46141 1731.00000
93.73653 1752.61995 1755.00000
93.74677 1753.75408 1773.00000
93.75702 1754.80113 1734.00000
93.76726 1755.70224 1788.00000
93.77750 1756.42178 1815.00000
93.78774 1756.96152 1758.00000
93.79798 1757.36104 1763.00000
93.80822 1757.68487 1790.00000
93.81846 1758.00468 1808.00000
93.82871 1758.38553 1755.00000
93.83895 1758.87966 1805.00000
93.84919 1759.52624 1759.00000
93.85943 1760.35429 1758.00000
93.86967 1761.38652 1770.00000
93.87991 1762.64298 1774.00000
93.89015 1764.14417 1779.00000
93.90040 1765.91360 1721.00000
93.91064 1767.97982 1728.00000
93.92088 1770.37818 1832.00000
93.93112 1773.15252 1775.00000
93.94136 1776.35687 1754.00000
93.95160 1780.05723 1791.00000
93.96184 1784.33342 1728.00000
93.97209 1789.28079 1804.00000
93.98233 1795.01135 1733.00000
93.99257 1801.65348 1790.00000
94.00281 1809.34867 1861.00000
94.01305 1818.24282 1853.00000
94.02329 1828.46833 1848.00000
94.03353 1840.11217 1839.00000
94.04378 1853.16527 1887.00000
94.05402 1867.45206 1853.00000
94.06426 1882.54948 1976.00000
94.07450 1897.72231 1967.00000
94.08474 1911.92090 1830.00000
94.09498 1923.88859 1937.00000
94.10523 1932.38802 1898.00000
94.11547 1936.48629 1874.00000
94.12571 1935.78992 1923.00000
94.13595 1930.53692 1938.00000
94.14619 1921.51818 1848.00000
94.15643 1909.86705 1939.00000
94.16667 1896.79968 1944.00000
94.17692 1883.39742 1877.00000
94.18716 1870.48641 1898.00000
94.19740 1858.61452 1862.00000
94.20764 1848.09015 1822.00000
94.21788 1839.04448 1843.00000
94.22812 1831.49326 1840.00000
94.23836 1825.38728 1766.00000
94.24861 1820.64897 1847.00000
94.25885 1817.19668 1822.00000
94.26909 1814.95890 1754.00000
94.27933 1813.88092 1798.00000
94.28957 1813.92563 1775.00000
94.29981 1815.06900 1781.00000
94.31005 1817.29010 1832.00000
94.32030 1820.55524 1848.00000
94.33054 1824.79665 1887.00000
94.34078 1829.88910 1847.00000
94.35102 1835.63132 1861.00000
94.36126 1841.74045 1830.00000
94.37150 1847.85886 1807.00000
94.38174 1853.59481 1860.00000
94.39199 1858.52350 1873.00000
94.40223 1862.21992 1919.00000
94.41247 1864.30701 1894.00000
94.42271 1864.52714 1860.00000
94.43295 1862.79215 1849.00000
94.44319 1859.24239 1831.00000
94.45344 1854.23309 1852.00000
94.46368 1848.24890 1856.00000
94.47392 1841.81362 1813.00000
94.48416 1835.40030 1912.00000
94.49440 1829.36506 1909.00000
94.50464 1823.91294 1791.00000
94.51488 1819.08595 1822.00000
94.52513 1814.77461 1843.00000
94.53537 1810.85652 1847.00000
94.54561 1807.17437 1809.00000
94.55585 1803.54233 1833.00000
94.56609 1799.88482 1802.00000
94.57633 1796.22660 1824.00000
94.58657 1792.65720 1833.00000
94.59682 1789.28703 1731.00000
94.60706 1786.21128 1742.00000
94.61730 1783.48998 1752.00000
94.62754 1781.14144 1736.00000
94.63778 1779.14329 1814.00000
94.64802 1777.43769 1781.00000
94.65826 1775.94094 1770.00000
94.66851 1774.55877 1786.00000
94.67875 1773.20618 1705.00000
94.68899 1771.82624 1824.00000
94.69923 1770.40008 1838.00000
94.70947 1768.94088 1741.00000
94.71971 1767.47708 1755.00000
94.72995 1766.08325 1716.00000
94.74020 1764.83575 1748.00000
94.75044 1763.77627 1766.00000
94.76068 1762.88755 1744.00000
94.77092 1762.17290 1762.00000
94.78116 1761.65762 1754.00000
94.79140 1761.33418 1743.00000
94.80165 1761.18229 1800.00000
94.81189 1761.16803 1827.00000
94.82213 1761.24068 1753.00000
94.83237 1761.33236 1741.00000
94.84261 1761.36364 1781.00000
94.85285 1761.25642 1779.00000
94.86309 1760.95163 1714.00000
94.87334 1760.42442 1748.00000
94.88358 1759.68903 1674.00000
94.89382 1758.79131 1721.00000
94.90406 1757.79349 1765.00000
94.91430 1756.75857 1799.00000
94.92454 1755.73932 1696.00000
94.93478 1754.77342 1754.00000
94.94503 1753.88412 1693.00000
94.95527 1753.08124 1847.00000
94.96551 1752.36575 1705.00000
94.97575 1751.73367 1749.00000
94.98599 1751.17825 1771.00000
94.99623 1750.69169 1739.00000
95.00647 1750.26615 1817.00000
95.01672 1749.89424 1755.00000
95.02696 1749.56929 1755.00000
95.03720 1749.28546 1683.00000
95.04744 1749.03767 1770.00000
95.05768 1748.82158 1748.00000
95.06792 1748.63342 1719.00000
95.07816 1748.47000 1665.00000
95.08841 1748.32813 1735.00000
95.09865 1748.20079 1766.00000
95.10889 1748.07213 1799.00000
95.11913 1747.95770 1870.00000
95.12937 1747.87609 1704.00000
95.13961 1747.81249 1757.00000
95.14986 1747.76385 1768.00000
95.16010 1747.72704 1797.00000
95.17034 1747.70009 1668.00000
95.18058 1747.68233 1692.00000
95.19082 1747.67312 1764.00000
95.20106 1747.67181 1766.00000
95.21130 1747.67780 1692.00000
95.22155 1747.69061 1760.00000
95.23179 1747.71032 1758.00000
95.24203 1747.73798 1662.00000
95.25227 1747.77026 1753.00000
95.26251 1747.80620 1636.00000
95.27275 1747.84680 1666.00000
95.28299 1747.89221 1691.00000
95.29324 1747.94237 1755.00000
95.30348 1747.99736 1810.00000
95.31372 1748.05777 1759.00000
95.32396 1748.12508 1684.00000
95.33420 1748.19721 1709.00000
95.34444 1748.27372 1740.00000
95.35468 1748.35617 1714.00000
95.36493 1748.44531 1791.00000
95.37517 1748.54173 1743.00000
95.38541 1748.64609 1724.00000
95.39565 1748.75908 1703.00000
95.40589 1748.88149 1745.00000
95.41613 1749.01418 1792.00000
95.42637 1749.15811 1787.00000
95.43662 1749.31430 1741.00000
95.44686 1749.48379 1690.00000
95.45710 1749.66819 1742.00000
95.46734 1749.86930 1794.00000
95.47758 1750.08870 1742.00000
95.48782 1750.32841 1750.00000
95.49807 1750.59080 1766.00000
95.50831 1750.87864 1674.00000
95.51855 1751.19516 1784.00000
95.52879 1751.54413 1753.00000
95.53903 1751.93000 1758.00000
95.54927 1752.35811 1696.00000
95.55951 1752.83485 1792.00000
95.56976 1753.36702 1787.00000
95.58000 1753.96351 1712.00000
95.59024 1754.63482 1793.00000
95.60048 1755.39332 1717.00000
95.61072 1756.25370 1774.00000
95.62096 1757.23340 1713.00000
95.63120 1758.35361 1738.00000
95.64145 1759.64593 1711.00000
95.65169 1761.13070 1731.00000
95.66193 1762.83641 1741.00000
95.67217 1764.79424 1751.00000
95.68241 1767.03075 1810.00000
95.69265 1769.56100 1789.00000
95.70289 1772.37701 1713.00000
95.71314 1775.43111 1664.00000
95.72338 1778.61668 1719.00000
95.73362 1781.75325 1654.00000
95.74386 1784.58848 1807.00000
95.75410 1786.83033 1770.00000
95.76434 1788.21003 1740.00000
95.77458 1788.56068 1853.00000
95.78483 1787.86789 1803.00000
95.79507 1786.27140 1770.00000
95.80531 1784.01915 1826.00000
95.81555 1781.37928 1749.00000
95.82579 1778.60017 1735.00000
95.83603 1775.87290 1719.00000
95.84628 1773.32143 1838.00000
95.85652 1771.01827 1719.00000
95.86676 1768.99646 1733.00000
95.87700 1767.26195 1723.00000
95.88724 1765.80456 1635.00000
95.89748 1764.60611 1721.00000
95.90772 1763.64586 1805.00000
95.91797 1762.90395 1758.00000
95.92821 1762.36609 1760.00000
95.93845 1762.01971 1783.00000
95.94869 1761.85142 1717.00000
95.95893 1761.85624 1752.00000
95.96917 1762.03264 1690.00000
95.97941 1762.38171 1747.00000
95.98966 1762.90565 1786.00000
95.99990 1763.60533 1765.00000
96.01014 1764.47649 1689.00000
96.02038 1765.50423 1756.00000
96.03062 1766.65602 1746.00000
96.04086 1767.87449 1765.00000
96.05110 1769.07314 1757.00000
96.06135 1770.13933 1711.00000
96.07159 1770.94921 1760.00000
96.08183 1771.39368 1755.00000
96.09207 1771.40262 1735.00000
96.10231 1770.96565 1801.00000
96.11255 1770.13249 1734.00000
96.12279 1768.99649 1820.00000
96.13304 1767.66976 1753.00000
96.14328 1766.26017 1777.00000
96.15352 1764.85616 1771.00000
96.16376 1763.52012 1772.00000
96.17400 1762.28927 1696.00000
96.18424 1761.18173 1745.00000
96.19449 1760.20125 1751.00000
96.20473 1759.34277 1763.00000
96.21497 1758.59647 1725.00000
96.22521 1757.95306 1682.00000
96.23545 1757.39790 1716.00000
96.24569 1756.91846 1686.00000
96.25593 1756.50448 1738.00000
96.26618 1756.14831 1762.00000
96.27642 1755.84153 1732.00000
96.28666 1755.57726 1766.00000
96.29690 1755.34977 1755.00000
96.30714 1755.15417 1684.00000
96.31738 1754.98634 1778.00000
96.32762 1754.84271 1852.00000
96.33787 1754.72030 1703.00000
96.34811 1754.61651 1799.00000
96.35835 1754.52914 1748.00000
96.36859 1754.45630 1679.00000
96.37883 1754.39635 1710.00000
96.38907 1754.34788 1852.00000
96.39931 1754.30966 1623.00000
96.40956 1754.28064 1738.00000
96.41980 1754.25989 1711.00000
96.43004 1754.24659 1741.00000
96.44028 1754.24003 1746.00000
96.45052 1754.23958 1686.00000
96.46076 1754.24469 1741.00000
96.47100 1754.25487 1788.00000
96.48125 1754.26969 1763.00000
96.49149 1754.28875 1815.00000
96.50173 1754.31171 1816.00000
96.51197 1754.33827 1725.00000
96.52221 1754.36824 1693.00000
96.53245 1754.40126 1669.00000
96.54270 1754.43710 1647.00000
96.55294 1754.47557 1829.00000
96.56318 1754.51648 1775.00000
96.57342 1754.55967 1758.00000
96.58366 1754.60500 1730.00000
96.59390 1754.65276 1721.00000
96.60414 1754.70797 1707.00000
96.61439 1754.78248 1796.00000
96.62463 1754.84139 1755.00000
96.63487 1754.89630 1706.00000
96.64511 1754.95217 1727.00000
96.65535 1755.00941 1738.00000
96.66559 1755.06799 1710.00000
96.67583 1755.12834 1694.00000
96.68608 1755.19592 1779.00000
96.69632 1755.28183 1710.00000
96.70656 1755.35074 1745.00000
96.71680 1755.41558 1686.00000
96.72704 1755.48001 1824.00000
96.73728 1755.53394 1754.00000
96.74752 1755.54747 1755.00000
96.75777 1755.56675 1786.00000
96.76801 1755.62734 1762.00000
96.77825 1755.69701 1686.00000
96.78849 1755.76793 1672.00000
96.79873 1755.83960 1766.00000
96.80897 1755.91193 1772.00000
96.81922 1755.98473 1722.00000
96.82946 1756.05823 1715.00000
96.83970 1756.13263 1649.00000
96.84994 1756.20771 1813.00000
96.86018 1756.28342 1715.00000
96.87042 1756.35973 1721.00000
96.88066 1756.43662 1730.00000
96.89091 1756.51410 1708.00000
96.90115 1756.59213 1786.00000
96.91139 1756.67071 1723.00000
96.92163 1756.74983 1738.00000
96.93187 1756.82928 1775.00000
96.94211 1756.90834 1735.00000
96.95235 1756.98786 1736.00000
96.96260 1757.07886 1751.00000
96.97284 1757.16365 1734.00000
96.98308 1757.24666 1762.00000
96.99332 1757.32995 1667.00000
97.00356 1757.41383 1678.00000
97.01380 1757.50037 1712.00000
97.02404 1757.60343 1706.00000
97.03429 1757.74318 1709.00000
97.04453 1757.85829 1805.00000
97.05477 1757.95006 1722.00000
97.06501 1758.03771 1630.00000
97.07525 1758.12551 1777.00000
97.08549 1758.21376 1770.00000
97.09573 1758.30248 1730.00000
97.10598 1758.39168 1730.00000
97.11622 1758.48134 1771.00000
97.12646 1758.57146 1760.00000
97.13670 1758.66206 1741.00000
97.14694 1758.75307 1757.00000
97.15718 1758.84388 1686.00000
97.16743 1758.93255 1796.00000
97.17767 1759.02096 1739.00000
97.18791 1759.11216 1739.00000
97.19815 1759.20148 1703.00000
97.20839 1759.29301 1791.00000
97.21863 1759.38714 1734.00000
97.22887 1759.48217 1673.00000
97.23912 1759.57774 1732.00000
97.24936 1759.67381 1720.00000
97.25960 1759.77041 1757.00000
97.26984 1759.86754 1745.00000
97.28008 1759.96519 1746.00000
97.29032 1760.06340 1720.00000
97.30056 1760.16215 1675.00000
97.31081 1760.26146 1727.00000
97.32105 1760.36127 1743.00000
97.33129 1760.46104 1728.00000
97.34153 1760.55698 1729.00000
97.35177 1760.63690 1697.00000
97.36201 1760.71843 1688.00000
97.37225 1760.84767 1749.00000
97.38250 1760.97222 1716.00000
97.39274 1761.08116 1714.00000
97.40298 1761.18721 1718.00000
97.41322 1761.29371 1694.00000
97.42346 1761.40093 1723.00000
97.43370 1761.50888 1739.00000
97.44394 1761.61736 1731.00000
97.45419 1761.72589 1769.00000
97.46443 1761.83577 1724.00000
97.47467 1761.94691 1685.00000
97.48491 1762.05895 1711.00000
97.49515 1762.17152 1657.00000
97.50539 1762.28381 1722.00000
97.51564 1762.39752 1774.00000
97.52588 1762.51319 1731.00000
97.53612 1762.63011 1741.00000
97.54636 1762.74812 1785.00000
97.55660 1762.86723 1729.00000
97.56684 1762.98749 1696.00000
97.57708 1763.10895 1646.00000
97.58733 1763.23164 1764.00000
97.59757 1763.35563 1815.00000
97.60781 1763.48095 1770.00000
97.61805 1763.60766 1707.00000
97.62829 1763.73568 1765.00000
97.63853 1763.86470 1714.00000
97.64877 1763.99501 1773.00000
97.65902 1764.12767 1692.00000
97.66926 1764.26192 1759.00000
97.67950 1764.39618 1740.00000
97.68974 1764.52886 1790.00000
97.69998 1764.66717 1805.00000
97.71022 1764.80624 1749.00000
97.72046 1764.94641 1779.00000
97.73071 1765.09179 1815.00000
97.74095 1765.24004 1742.00000
97.75119 1765.39053 1739.00000
97.76143 1765.54325 1752.00000
97.77167 1765.69826 1752.00000
97.78191 1765.85558 1729.00000
97.79215 1766.01524 1744.00000
97.80240 1766.17727 1743.00000
97.81264 1766.34165 1703.00000
97.82288 1766.50839 1706.00000
97.83312 1766.67747 1714.00000
97.84336 1766.84886 1783.00000
97.85360 1767.02254 1773.00000
97.86385 1767.19845 1799.00000
97.87409 1767.37656 1753.00000
97.88433 1767.55683 1712.00000
97.89457 1767.73924 1695.00000
97.90481 1767.92379 1674.00000
97.91505 1768.11048 1741.00000
97.92529 1768.29939 1748.00000
97.93554 1768.49063 1720.00000
97.94578 1768.68437 1779.00000
97.95602 1768.88076 1699.00000
97.96626 1769.07980 1672.00000
97.97650 1769.28186 1606.00000
97.98674 1769.48871 1692.00000
97.99698 1769.70035 1719.00000
98.00723 1769.91728 1661.00000
98.01747 1770.14027 1757.00000
98.02771 1770.37020 1683.00000
98.03795 1770.60803 1759.00000
98.04819 1770.85483 1772.00000
98.05843 1771.11173 1745.00000
98.06867 1771.38000 1762.00000
98.07892 1771.66101 1722.00000
98.08916 1771.95624 1716.00000
98.09940 1772.26735 1701.00000
98.10964 1772.59614 1714.00000
98.11988 1772.94467 1795.00000
98.13012 1773.31518 1734.00000
98.14036 1773.71025 1756.00000
98.15061 1774.13260 1726.00000
98.16085 1774.58507 1721.00000
98.17109 1775.07252 1737.00000
98.18133 1775.59960 1774.00000
98.19157 1776.17103 1825.00000
98.20181 1776.79268 1782.00000
98.21206 1777.47153 1795.00000
98.22230 1778.21569 1759.00000
98.23254 1779.03467 1754.00000
98.24278 1779.93952 1702.00000
98.25302 1780.94305 1738.00000
98.26326 1782.05999 1773.00000
98.27350 1783.30703 1758.00000
98.28375 1784.70264 1844.00000
98.29399 1786.26654 1795.00000
98.30423 1788.01867 1805.00000
98.31447 1789.97742 1835.00000
98.32471 1792.15723 1880.00000
98.33495 1794.56606 1722.00000
98.34519 1797.20388 1730.00000
98.35544 1800.06370 1714.00000
98.36568 1803.13629 1767.00000
98.37592 1806.41675 1843.00000
98.38616 1809.90746 1755.00000
98.39640 1813.61065 1771.00000
98.40664 1817.50658 1795.00000
98.41688 1821.52147 1767.00000
98.42713 1825.49633 1764.00000
98.43737 1829.17313 1802.00000
98.44761 1832.21549 1808.00000
98.45785 1834.27253 1867.00000
98.46809 1835.07329 1787.00000
98.47833 1834.51306 1896.00000
98.48857 1832.68698 1866.00000
98.49882 1829.85371 1867.00000
98.50906 1826.35371 1898.00000
98.51930 1822.52614 1795.00000
98.52954 1818.65461 1805.00000
98.53978 1814.94675 1785.00000
98.55002 1811.53684 1788.00000
98.56027 1808.49940 1766.00000
98.57051 1805.86537 1749.00000
98.58075 1803.63693 1723.00000
98.59099 1801.79941 1741.00000
98.60123 1800.32991 1773.00000
98.61147 1799.20298 1706.00000
98.62171 1798.39402 1740.00000
98.63196 1797.88077 1778.00000
98.64220 1797.64358 1751.00000
98.65244 1797.66475 1804.00000
98.66268 1797.92749 1754.00000
98.67292 1798.41491 1764.00000
98.68316 1799.10981 1803.00000
98.69340 1799.99550 1746.00000
98.70365 1801.05751 1804.00000
98.71389 1802.28432 1717.00000
98.72413 1803.66511 1723.00000
98.73437 1805.18296 1814.00000
98.74461 1806.80383 1712.00000
98.75485 1808.46469 1744.00000
98.76509 1810.06614 1813.00000
98.77534 1811.47580 1872.00000
98.78558 1812.54692 1789.00000
98.79582 1813.15019 1831.00000
98.80606 1813.20815 1818.00000
98.81630 1812.71728 1762.00000
98.82654 1811.74783 1770.00000
98.83678 1810.42326 1815.00000
98.84703 1808.89025 1780.00000
98.85727 1807.29117 1795.00000
98.86751 1805.74581 1769.00000
98.87775 1804.34360 1787.00000
98.88799 1803.14404 1768.00000
98.89823 1802.18162 1724.00000
98.90848 1801.47205 1792.00000
98.91872 1801.01723 1793.00000
98.92896 1800.80825 1835.00000
98.93920 1800.82985 1741.00000
98.94944 1801.05278 1800.00000
98.95968 1801.43256 1742.00000
98.96992 1801.90735 1920.00000
98.98017 1802.39777 1773.00000
98.99041 1802.81343 1785.00000
99.00065 1803.06771 1787.00000
99.01089 1803.09714 1722.00000
99.02113 1802.87756 1783.00000
99.03137 1802.42859 1873.00000
99.04161 1801.80406 1789.00000
99.05186 1801.07420 1803.00000
99.06210 1800.30838 1836.00000
99.07234 1799.56413 1751.00000
99.08258 1798.88312 1781.00000
99.09282 1798.29181 1754.00000
99.10306 1797.80431 1765.00000
99.11330 1797.42571 1652.00000
99.12355 1797.15525 1877.00000
99.13379 1796.98869 1794.00000
99.14403 1796.92019 1750.00000
99.15427 1796.94353 1784.00000
99.16451 1797.05288 1716.00000
99.17475 1797.24322 1797.00000
99.18499 1797.51056 1822.00000
99.19524 1797.85202 1835.00000
99.20548 1798.26579 1755.00000
99.21572 1798.75104 1843.00000
99.22596 1799.30777 1827.00000
99.23620 1799.93646 1876.00000
99.24644 1800.63810 1759.00000
99.25669 1801.41228 1749.00000
99.26693 1802.25691 1831.00000
99.27717 1803.16673 1805.00000
99.28741 1804.13136 1820.00000
99.29765 1805.13345 1839.00000
99.30789 1806.14777 1811.00000
99.31813 1807.14210 1844.00000
99.32838 1808.08182 1804.00000
99.33862 1808.93595 1743.00000
99.34886 1809.68416 1784.00000
99.35910 1810.32230 1830.00000
99.36934 1810.86275 1812.00000
99.37958 1811.33053 1746.00000
99.38982 1811.75705 1704.00000
99.40007 1812.17414 1753.00000
99.41031 1812.60979 1776.00000
99.42055 1813.08608 1774.00000
99.43079 1813.61902 1771.00000
99.44103 1814.21937 1786.00000
99.45127 1814.89365 1851.00000
99.46151 1815.64539 1872.00000
99.47176 1816.48116 1762.00000
99.48200 1817.40270 1811.00000
99.49224 1818.41254 1683.00000
99.50248 1819.51402 1752.00000
99.51272 1820.71119 1900.00000
99.52296 1822.00886 1798.00000
99.53320 1823.41266 1833.00000
99.54345 1824.92913 1804.00000
99.55369 1826.56574 1841.00000
99.56393 1828.33099 1849.00000
99.57417 1830.23453 1776.00000
99.58441 1832.28726 1809.00000
99.59465 1834.50150 1717.00000
99.60490 1836.89124 1884.00000
99.61514 1839.47237 1809.00000
99.62538 1842.26299 1731.00000
99.63562 1845.28385 1841.00000
99.64586 1848.55879 1771.00000
99.65610 1852.11537 1863.00000
99.66634 1855.98547 1894.00000
99.67659 1860.20510 1808.00000
99.68683 1864.81512 1872.00000
99.69707 1869.87517 1827.00000
99.70731 1875.44152 1824.00000
99.71755 1881.58313 1885.00000
99.72779 1888.39158 1851.00000
99.73803 1895.96422 1884.00000
99.74828 1904.41864 1839.00000
99.75852 1913.89440 1806.00000
99.76876 1924.55495 1790.00000
99.77900 1936.58978 1842.00000
99.78924 1950.21518 1965.00000
99.79948 1965.67203 1881.00000
99.80972 1983.21822 2003.00000
99.81997 2003.11150 1889.00000
99.83021 2025.57719 2032.00000
99.84045 2050.75293 2015.00000
99.85069 2078.60263 2051.00000
99.86093 2108.79581 2104.00000
99.87117 2140.56229 2106.00000
99.88141 2172.55965 2148.00000
99.89166 2202.82930 2189.00000
99.90190 2228.94178 2166.00000
99.91214 2248.39769 2207.00000
99.92238 2259.22547 2218.00000
99.93262 2260.55094 2162.00000
99.94286 2252.85122 2213.00000
99.95311 2237.74290 2189.00000
99.96335 2217.57693 2207.00000
99.97359 2194.72728 2220.00000
99.98383 2171.25388 2077.00000
99.99407 2148.73375 2102.00000
100.00431 2128.24975 2073.00000
