#------------------------------------------------------------------------------
#$Date: 2019-11-04 11:58:36 +0200 (Mon, 04 Nov 2019) $
#$Revision: 222668 $
#$URL: file:///home/coder/svn-repositories/cod/cif/7/23/49/7234915.cif $
#------------------------------------------------------------------------------
#
# This file is available in the Crystallography Open Database (COD),
# http://www.crystallography.net/
#
# All data on this site have been placed in the public domain by the
# contributors.
#
data_7234915
loop_
_publ_author_name
'Maciej Wojtas'
'Anna Gagor'
'Andrei L. Kholkin'
_publ_section_title
;
 Strong piezoelectricity in [H-beta-(2-pyridyl)-Ala-OH][BF4] and
 [H-beta-(2-pyridyl)-Ala-OH][ClO4] - new amino acid based hybrid crystals
;
_journal_name_full               'Journal of Materials Chemistry C'
_journal_page_first              7622
_journal_page_last               7631
_journal_paper_doi               10.1039/C6TC02206E
_journal_volume                  4
_journal_year                    2016
_chemical_absolute_configuration unk
_chemical_formula_sum            'C8 H11 B F4 N2 O2'
_chemical_formula_weight         254.00
_space_group_crystal_system      triclinic
_space_group_IT_number           1
_space_group_name_Hall           'P 1'
_space_group_name_H-M_alt        'P 1'
_atom_sites_solution_hydrogens   mixed
_cell_angle_alpha                88.242(4)
_cell_angle_beta                 80.518(3)
_cell_angle_gamma                89.255(3)
_cell_formula_units_Z            2
_cell_length_a                   5.0120(2)
_cell_length_b                   9.4413(4)
_cell_length_c                   11.0484(5)
_cell_measurement_reflns_used    7477
_cell_measurement_temperature    100(2)
_cell_measurement_theta_max      29.2900
_cell_measurement_theta_min      2.8130
_cell_volume                     515.41(4)
_computing_cell_refinement
;
CrysAlisPro, Agilent Technologies,
Version 1.171.37.35h (release 09-02-2015 CrysAlis171 .NET)
(compiled Feb  9 2015,16:26:32)
;
_computing_data_collection
;
CrysAlisPro, Agilent Technologies,
Version 1.171.37.35h (release 09-02-2015 CrysAlis171 .NET)
(compiled Feb  9 2015,16:26:32)
;
_computing_data_reduction
;
CrysAlisPro, Agilent Technologies,
Version 1.171.37.35h (release 09-02-2015 CrysAlis171 .NET)
(compiled Feb  9 2015,16:26:32)
;
_computing_structure_refinement  'SHELXL-2014/7 (Sheldrick, 2014)'
_diffrn_ambient_environment      N~2~
_diffrn_ambient_temperature      100(2)
_diffrn_detector                 'CCD plate'
_diffrn_detector_area_resol_mean 10.6249
_diffrn_detector_type            Atlas
_diffrn_measured_fraction_theta_full 0.999
_diffrn_measured_fraction_theta_max 0.999
_diffrn_measurement_device       'four-circle diffractometer'
_diffrn_measurement_device_type  'Xcalibur, Atlas'
_diffrn_radiation_monochromator  graphite
_diffrn_radiation_probe          x-ray
_diffrn_radiation_type           'Mo K\a'
_diffrn_radiation_wavelength     0.71073
_diffrn_reflns_av_R_equivalents  0.0173
_diffrn_reflns_av_unetI/netI     0.0206
_diffrn_reflns_Laue_measured_fraction_full 0.999
_diffrn_reflns_Laue_measured_fraction_max 0.999
_diffrn_reflns_limit_h_max       6
_diffrn_reflns_limit_h_min       -6
_diffrn_reflns_limit_k_max       11
_diffrn_reflns_limit_k_min       -11
_diffrn_reflns_limit_l_max       13
_diffrn_reflns_limit_l_min       -13
_diffrn_reflns_number            11556
_diffrn_reflns_point_group_measured_fraction_full 0.994
_diffrn_reflns_point_group_measured_fraction_max 0.994
_diffrn_reflns_theta_full        25.675
_diffrn_reflns_theta_max         25.675
_diffrn_reflns_theta_min         2.158
_diffrn_source                   'fine-focus sealed X-ray tube'
_diffrn_source_type              'Enhance (Mo) X-ray Source'
_exptl_absorpt_coefficient_mu    0.161
_exptl_absorpt_correction_T_max  1.00000
_exptl_absorpt_correction_T_min  0.98870
_exptl_absorpt_correction_type   multi-scan
_exptl_absorpt_process_details
;
CrysAlisPro, Agilent Technologies,
Version 1.171.37.35h (release 09-02-2015 CrysAlis171 .NET)
(compiled Feb  9 2015,16:26:32)
Empirical absorption correction using spherical harmonics,
 implemented in SCALE3 ABSPACK scaling algorithm.
;
_exptl_crystal_colour            colorless
_exptl_crystal_density_diffrn    1.637
_exptl_crystal_description       prism
_exptl_crystal_F_000             260
_exptl_crystal_size_max          0.25
_exptl_crystal_size_mid          0.21
_exptl_crystal_size_min          0.15
_refine_diff_density_max         0.728
_refine_diff_density_min         -0.417
_refine_diff_density_rms         0.063
_refine_ls_abs_structure_details
;
 Flack x determined using 1720 quotients [(I+)-(I-)]/[(I+)+(I-)]
 (Parsons, Flack and Wagner, Acta Cryst. B69 (2013) 249-259).
;
_refine_ls_abs_structure_Flack   0.05(17)
_refine_ls_extinction_expression Fc^*^=kFc[1+0.001xFc^2^\l^3^/sin(2\q)]^-1/4^
_refine_ls_extinction_method     'SHELXL-2014/7 (Sheldrick 2014'
_refine_ls_goodness_of_fit_ref   1.156
_refine_ls_hydrogen_treatment    mixed
_refine_ls_matrix_type           full
_refine_ls_number_parameters     360
_refine_ls_number_reflns         3889
_refine_ls_number_restraints     54
_refine_ls_restrained_S_all      1.188
_refine_ls_R_factor_all          0.0495
_refine_ls_R_factor_gt           0.0468
_refine_ls_shift/su_max          0.003
_refine_ls_shift/su_mean         0.000
_refine_ls_structure_factor_coef Fsqd
_refine_ls_weighting_details
'w=1/[\s^2^(Fo^2^)+(0.0536P)^2^+0.4746P] where P=(Fo^2^+2Fc^2^)/3'
_refine_ls_weighting_scheme      calc
_refine_ls_wR_factor_gt          0.1174
_refine_ls_wR_factor_ref         0.1201
_reflns_Friedel_coverage         0.988
_reflns_Friedel_fraction_full    0.988
_reflns_Friedel_fraction_max     0.988
_reflns_number_gt                3713
_reflns_number_total             3889
_reflns_threshold_expression     'I > 2\s(I)'
_cod_data_source_file            J-Mater-Chem-C-2016-4-7622.cif
_cod_data_source_block           100K
_cod_depositor_comments
;
The following automatic conversions were performed:

data item '_chemical_absolute_configuration' value 'UNK' was changed
to 'unk' in accordance with the built-in table derived from the CIF
Core dictionary named 'cif_core.dic' version 2.4.5 last updated on
2014-11-21.

Automatic conversion script
Id: cif_fix_values 6909 2019-04-08 15:41:33Z antanas 
;
_cod_database_code               7234915
_shelx_space_group_comment
;
The symmetry employed for this shelxl refinement is uniquely defined
by the following loop, which should always be used as a source of
symmetry information in preference to the above space-group names.
They are only intended as comments.
;
_shelx_res_file
;

    100K.res created by SHELXL-2014/7


TITL nc in P1
CELL 0.71073   5.0120  9.4413  11.0484  88.242  80.518  89.255
ZERR    2.00   0.0002   0.0004   0.0005   0.004   0.003   0.003
LATT -1
SFAC C H B N O F
UNIT 16 22 2 4 4 8
L.S. 14
BOND
FMAP 2
PLAN 20
shel 10 0.82
acta 56

HTAB N28 O12
EQIV $1 x+1, y, z
HTAB N27 F3_$1
HTAB N27 F4C_$1
HTAB C26 O13
EQIV $2 x+1, y-1, z
HTAB C26 F1_$2
HTAB C20 O13
HTAB C20 F3_$1
EQIV $3 x-1, y, z
HTAB N15 F22_$3
HTAB N15 F22A_$3
HTAB N15 F23
HTAB N15 O12
HTAB N15 O17_$3
EQIV $4 x, y-1, z
HTAB N14 F1_$4
HTAB N14 F2_$2
EQIV $5 x-1, y-1, z
HTAB N14 O17_$5
HTAB N14 O16_$4
HTAB C11 F21_$5
EQIV $6 x-1, y-1, z+1
HTAB C9 F4A_$6
EQIV $7 x-2, y, z
HTAB C8 F24_$7
HTAB C5 O16_$5
EQIV $8 x+1, y, z-1
HTAB C23 F21_$8
HTAB C24 F21_$8
HTAB C4 O13_$3
HTAB C4 F1_$4
WGHT    0.053600    0.474600
EXTI    0.000630
FVAR       8.67937   0.21599   0.58649   0.19924   0.70529   0.29431   0.44047
FVAR       0.55953
MOLE   1
MOLE   2
htab
bond $h

N28   4   -0.124479    0.129698    0.724320    11.00000    0.02009    0.01588 =
         0.01790   -0.00095   -0.00259   -0.00264
AFIX  43
H28   2   -0.028187    0.187932    0.674439    11.00000   -1.20000
AFIX   0
N27   4    1.106108    0.548012    0.179066    11.00000    0.02361    0.01619 =
         0.01613   -0.00004   -0.00411   -0.00287
AFIX  43
H27   2    1.038952    0.632354    0.180770    11.00000   -1.20000
AFIX   0
C26   1    1.086277    0.312596    0.252301    11.00000    0.02898    0.01515 =
         0.01545    0.00052   -0.00335   -0.00449
AFIX  43
H26   2    1.001773    0.240648    0.303419    11.00000   -1.20000
AFIX   0
C25   1    1.321300    0.284048    0.169439    11.00000    0.03040    0.02816 =
         0.02565   -0.01301   -0.00981    0.00817
AFIX  43
H25   2    1.394896    0.193043    0.165742    11.00000   -1.20000
AFIX   0
C21   1    0.980248    0.448374    0.257807    11.00000    0.01779    0.01669 =
         0.01133   -0.00226   -0.00454   -0.00476
C20   1    0.728158    0.487502    0.344959    11.00000    0.01564    0.01836 =
         0.01638   -0.00352   -0.00340   -0.00406
AFIX  23
H20A  2    0.597793    0.411778    0.348850    11.00000   -1.20000
H20B  2    0.648867    0.572413    0.313575    11.00000   -1.20000
AFIX   0
C19   1    0.784615    0.513760    0.475353    11.00000    0.01159    0.01216 =
         0.01384    0.00004   -0.00240   -0.00117
H19   2    0.908193    0.436599    0.489608    11.00000   -1.20000
C18   1    0.917658    0.659139    0.478986    11.00000    0.01550    0.01117 =
         0.01237   -0.00058   -0.00388   -0.00260
O17   5    1.166531    0.661972    0.432887    11.00000    0.00997    0.01402 =
         0.01972   -0.00031    0.00088   -0.00239
O16   5    0.778210    0.759286    0.523518    11.00000    0.01596    0.01132 =
         0.02206   -0.00323   -0.00430    0.00038
N15   4    0.523000    0.511713    0.560274    11.00000    0.01272    0.01276 =
         0.01686   -0.00128   -0.00195   -0.00278
AFIX 137
H15A  2    0.549245    0.535629    0.634692    11.00000   -1.50000
H15B  2    0.453629    0.425077    0.564162    11.00000   -1.50000
H15C  2    0.408939    0.573202    0.532992    11.00000   -1.50000
AFIX   0
N14   4    0.398314   -0.076354    0.421019    11.00000    0.01324    0.01108 =
         0.01608   -0.00103   -0.00163   -0.00077
AFIX 137
H14A  2    0.424931   -0.034914    0.346616    11.00000   -1.50000
H14B  2    0.308937   -0.156875    0.419075    11.00000   -1.50000
H14C  2    0.557273   -0.094863    0.444244    11.00000   -1.50000
AFIX   0
O13   5    0.626444    0.167105    0.456617    11.00000    0.01646    0.01640 =
         0.03788   -0.00264    0.00395   -0.00455
O12   5    0.259066    0.257686    0.569797    11.00000    0.02152    0.01369 =
         0.02656   -0.00504    0.00086   -0.00365
C11   1   -0.200646   -0.101075    0.808360    11.00000    0.02729    0.01870 =
         0.01862    0.00230   -0.00631   -0.00167
AFIX  43
H11   2   -0.152252   -0.196367    0.811734    11.00000   -1.20000
AFIX   0
C10   1   -0.424107   -0.050351    0.887015    11.00000    0.02253    0.03100 =
         0.01605    0.00300    0.00269   -0.00287
AFIX  43
H10   2   -0.524929   -0.111673    0.943790    11.00000   -1.20000
AFIX   0
C9    1   -0.496703    0.090763    0.881061    11.00000    0.02287    0.03031 =
         0.01298   -0.00154   -0.00330   -0.00229
AFIX  43
H9    2   -0.648212    0.125051    0.932277    11.00000   -1.20000
AFIX   0
C8    1   -0.341455    0.179715    0.798232    11.00000    0.02252    0.01964 =
         0.01937   -0.00487   -0.00335    0.00210
AFIX  43
H8    2   -0.387303    0.275254    0.793454    11.00000   -1.20000
AFIX   0
C6    1   -0.050144   -0.008386    0.724681    11.00000    0.01676    0.01973 =
         0.01423   -0.00218   -0.00687   -0.00039
C5    1    0.192979   -0.055435    0.637233    11.00000    0.01471    0.01199 =
         0.01674   -0.00018   -0.00515   -0.00047
AFIX  23
H5A   2    0.178314   -0.156366    0.626015    11.00000   -1.20000
H5B   2    0.352057   -0.041280    0.674790    11.00000   -1.20000
AFIX   0
C23   1    1.328936    0.522072    0.098976    11.00000    0.02801    0.03678 =
         0.01112   -0.00096   -0.00208   -0.01386
AFIX  43
H23   2    1.406607    0.594565    0.046448    11.00000   -1.20000
AFIX   0
C24   1    1.444224    0.390974    0.093058    11.00000    0.02080    0.04236 =
         0.01813   -0.01016   -0.00099    0.00039
AFIX  43
H24   2    1.602762    0.373627    0.038644    11.00000   -1.20000
AFIX   0
C4    1    0.237959    0.019644    0.509569    11.00000    0.01013    0.01189 =
         0.01615   -0.00026   -0.00192   -0.00108
H1    2    0.062077    0.042321    0.482276    11.00000    0.00961
C2    1    0.392429    0.158335    0.510197    11.00000    0.01738    0.01206 =
         0.01517    0.00056   -0.00414   -0.00057
MOLE   2

dfix 1.39 b1 f4B b1 f1 b1 f2  b1 f3 b1 f4A F4C B1

B1    3   -0.089154    0.925601    0.169493    11.00000    0.02330    0.02362 =
         0.02054   -0.00043   -0.00314    0.00001
F1    6    0.040644    0.972106    0.258982    11.00000    0.08281    0.04022 =
         0.06117   -0.01709   -0.05111    0.01922
F2    6   -0.305013    1.015382    0.164735    11.00000    0.07995    0.07128 =
         0.08495    0.00260   -0.04096    0.02289
F3    6   -0.217731    0.801392    0.215636    11.00000    0.10430    0.04778 =
         0.11071   -0.00534    0.02776   -0.02567
ISOR 0.005 F4A F4B
ISOR 0.001 F4C
SUMP 1 0.001 1 2 1 3 1 4
F4A   6   -0.052916    1.030383    0.077206    21.00000    0.04894    0.04974 =
         0.02290    0.00625   -0.02512   -0.00413
F4B   6    0.052516    0.896647    0.060505    31.00000    0.02632    0.10156 =
         0.02032   -0.01087    0.00469    0.00124
F4C   6    0.110512    0.833227    0.108472    41.00000    0.03001    0.02828 =
         0.02853   -0.00250   -0.00290    0.00109
mole 3
ISOR 0.005 F22 F22A F24 F24A
SUMP 1 0.001 1 5 1 6
SUMP 1 0.001 1 7 1 8
F21   6    0.886060    0.571785    0.923377    11.00000    0.02725    0.04140 =
         0.02248   -0.00524    0.00353    0.00175
B2    3    1.054415    0.509740    0.827879    11.00000    0.01609    0.02676 =
         0.01997   -0.00694   -0.00417    0.00335
F22   6    1.275811    0.604722    0.796811    51.00000    0.02926    0.03721 =
         0.03108   -0.00963    0.00959   -0.00904
F22A  6    1.311890    0.549891    0.808971    61.00000    0.02234    0.02398 =
         0.02129   -0.00552    0.00417   -0.00857
F23   6    0.928824    0.506732    0.724312    11.00000    0.03362    0.04407 =
         0.02147   -0.00296   -0.01245    0.00789
F24   6    1.164156    0.381993    0.848478    71.00000    0.02703    0.02025 =
         0.03010   -0.00148   -0.01490    0.00878
F24A  6    1.069674    0.367185    0.875822    81.00000    0.04833    0.03406 =
         0.04588   -0.00417   -0.01545    0.00696

MOLE   4
HKLF 4

REM  nc in P1
REM R1 =  0.0468 for    3713 Fo > 4sig(Fo)  and  0.0495 for all    3889 data
REM    360 parameters refined using     54 restraints

END

WGHT      0.0649      0.5440

REM Instructions for potential hydrogen bonds
HTAB N28 O12
HTAB N27 F3_$1
HTAB N27 F4C_$1
HTAB C26 O13
HTAB C26 F1_$2
HTAB C20 O13
HTAB C20 F3_$1
HTAB C19 O12_$1
HTAB N15 F22_$3
HTAB N15 F22A_$3
HTAB N15 F23
HTAB N15 O12
HTAB N15 O17_$3
HTAB N14 F1_$4
HTAB N14 F2_$2
HTAB N14 O17_$5
HTAB N14 O16_$4
HTAB C11 F21_$5
HTAB C9 F4A_$6
HTAB C8 F24_$7
HTAB C5 O16_$5
HTAB C23 F21_$8
HTAB C24 F21_$8
HTAB C4 O13_$3
HTAB C4 F1_$4

REM Highest difference peak  0.728,  deepest hole -0.417,  1-sigma level  0.063
Q1    1  -0.3418  0.8932  0.1837  11.00000  0.05    0.73
Q2    1   0.2010  0.8260  0.1388  11.00000  0.05    0.51
Q3    1   0.0450  0.9712  0.0558  11.00000  0.05    0.50
Q4    1  -0.0153  0.7984  0.1119  11.00000  0.05    0.46
Q5    1   0.1488  0.9977  0.1910  11.00000  0.05    0.34
Q6    1  -0.1458  1.0234  0.0956  11.00000  0.05    0.31
Q7    1   0.6822  0.1710  0.3764  11.00000  0.05    0.23
Q8    1   1.2873  0.6333  0.4864  11.00000  0.05    0.23
Q9    1   0.8934  0.4900  0.9394  11.00000  0.05    0.23
Q10   1   0.3062  0.0914  0.5013  11.00000  0.05    0.21
Q11   1  -0.0056  1.0798  0.0941  11.00000  0.05    0.21
Q12   1  -0.0104  0.9393  0.2655  11.00000  0.05    0.21
Q13   1   0.7294  0.6055  0.8569  11.00000  0.05    0.20
Q14   1   0.0346  1.0565  0.0284  11.00000  0.05    0.19
Q15   1  -0.1459 -0.0624  0.7419  11.00000  0.05    0.18
Q16   1   1.1971  0.7562  0.4330  11.00000  0.05    0.18
Q17   1   0.0799 -0.0270  0.7013  11.00000  0.05    0.18
Q18   1   0.9602  0.6383  0.8777  11.00000  0.05    0.18
Q19   1  -0.9688  0.1881  0.9869  11.00000  0.05    0.17
Q20   1   1.0732  0.3842  0.2666  11.00000  0.05    0.17
;
_shelx_res_checksum              28062
_shelx_hkl_file
;
   0   0   1-2.36281 13.7677   7
   0   0  -2 5943.20 141.438   3
   0   0   2 5935.86 141.704   3
   0   0  -2 5922.54 105.753   8
   0   0   2 6124.28 142.142   7
   0   0  -2 5969.72 128.486   2
   0   0  -2 6165.94 139.539   7
   0   0   2 5975.40 129.556   2
   0   0   2 6088.87 105.563   8
   0   0  -3 308490. 908.689   8
   0   0   3 305586. 1213.14   7
   0   0   3 315615. 910.685   8
   0   0  -3 311930. 1200.80   7
   0   0  -3 310400. 1214.47   3
   0   0   3 310354. 1217.89   3
   0   0   3 309946. 1117.58   2
   0   0  -3 310510. 1111.46   2
   0   0   4 13504.7 221.684   8
   0   0   4 13921.1 279.753   2
   0   0   4 13918.8 304.582   3
   0   0   4 13671.0 301.206   7
   0   0  -4 13798.9 276.854   2
   0   0  -4 13876.9 299.414   7
   0   0  -4 13896.0 302.421   3
   0   0   5 15220.8 359.873   3
   0   0   5 16200.4 269.118   8
   0   0  -5 15663.7 354.725   7
   0   0  -5 15746.5 361.475   3
   0   0  -5 16289.5 332.794   2
   0   0   5 15418.9 330.234   2
   0   0  -6 7235.33 250.703   2
   0   0   6 7478.98 203.144   8
   0   0   6 7711.44 284.346   3
   0   0  -6 7381.23 272.106   7
   0   0   6 7411.35 256.514   2
   0   0  -6 7424.58 277.860   3
   0   0  -7 385.111 104.604   3
   0   0  -7 428.869 99.7064   7
   0   0   7 450.439 69.4965   8
   0   0   7 517.821 101.201   2
   0   0   7 295.234 91.0180   3
   0   0  -7 266.752 74.6695   2
   0   0  -8 4399.94 259.178   3
   0   0   8 3909.12 228.148   2
   0   0   8 4261.64 180.917   8
   0   0  -8 3942.45 240.198   7
   0   0  -8 3973.94 225.746   2
   0   0  -9 3549.90 255.678   3
   0   0  -9 3429.81 244.690   7
   0   0   9 3731.07 181.744   8
   0   0   9 3664.50 239.066   2
   0   0  10-16.0237 90.0595   2
   0   0 -10 179.585 107.380   7
   0   0 -10 10.9368 99.9691   3
   0   0  10 45.7734 51.5711   8
   0   0  11 23750.7 479.515   8
   0   0  11 24166.4 655.561   2
   0   0 -11 23088.2 690.831   3
   0   0 -11 24367.1 701.910   7
   0   0 -12 3027.28 284.056   3
   0   0  12 2978.98 260.989   2
   0   0 -12 3001.36 279.080   7
   0   0 -13 16931.2 653.806   7
   0   0  13 17300.4 622.980   2
   0   0 -13 16588.8 658.549   3
   0   0  14 1367.04 222.852   2
   0   0 -14 1115.61 192.821  10
   0   0  15 366.131 179.015   2
   0  -1  14 4781.14 371.049   2
   0  -1  13 1182.63 215.229   2
   0   1 -13 1106.71 209.070   3
   0   1 -13 1395.69 175.076  10
   0   1 -13 1765.92 245.934   7
   0   1 -12 2584.46 255.926   7
   0   1 -12 3084.36 282.606   3
   0  -1  12 3143.42 283.202   2
   0   1 -11 7767.35 413.070   3
   0  -1  11 7591.37 249.378   8
   0   1 -11 6960.47 382.343   7
   0  -1  11 7888.92 395.209   2
   0  -1  10 2117.96 216.504   2
   0   1 -10 2059.60 199.875   7
   0   1 -10 1687.83 192.984   3
   0  -1  10 2010.66 128.704   8
   0  -1   9 4384.92 267.815   2
   0   1  -9 4141.87 274.510   3
   0   1  -9 4335.95 272.706   7
   0  -1   9 4502.85 176.061   8
   0   1  -8 2228.70 195.888   3
   0  -1   8 2168.27 119.769   8
   0   1  -8 2427.72 194.812   7
   0  -1   8 2078.08 182.280   2
   0  -1   7 3250.60 131.306   8
   0   1  -7 2856.37 186.449   2
   0  -1   7 3046.89 207.697   3
   0   1  -7 3244.50 213.943   3
   0  -1   7 3211.49 201.650   7
   0  -1   7 3232.23 203.768   2
   0   1  -7 3424.79 206.529   7
   0   1  -6 4304.11 212.185   7
   0   1  -6 4091.26 214.360   3
   0  -1   6 4203.40 215.995   7
   0  -1   6 4808.55 231.615   3
   0   1  -6 4188.81 139.416   8
   0   1  -6 4154.79 203.273   2
   0  -1   6 4415.63 138.406   8
   0  -1   6 4144.17 210.282   2
   0  -1   5 21488.2 270.204   8
   0   1  -5 20257.7 265.475   8
   0   1  -5 20711.3 409.791   7
   0  -1   5 20534.6 410.251   2
   0   1  -5 20848.8 423.596   3
   0  -1   5 20488.5 415.269   7
   0  -1   5 20200.5 420.990   3
   0   1  -5 21123.1 409.618   2
   0   1  -4 18268.4 346.361   2
   0  -1   4 18248.6 345.384   7
   0  -1   4 18280.8 357.138   3
   0  -1   4 18311.1 347.277   2
   0   1  -4 18245.7 221.132   8
   0  -1   4 18291.3 220.399   8
   0   1  -4 18001.9 354.725   3
   0   1  -4 18033.1 343.134   7
   0  -1   3 3435.54 84.2625   8
   0  -1   3 3440.54 141.825   2
   0   1  -3 3563.34 139.526   7
   0  -1   3 3313.83 139.453   3
   0   1  -3 3298.43 138.105   2
   0   1  -3 3255.29 81.2408   8
   0  -1   3 3496.29 139.087   7
   0   1  -3 3253.98 141.085   3
   0  -1   2 29823.0 331.567   3
   0  -1   2 30265.3 324.443   7
   0   1  -2 29926.9 322.559   7
   0   1  -2 30112.8 200.815   8
   0  -1   2 30483.8 340.137   2
   0   1  -2 30542.2 337.906   2
   0   1  -2 29452.3 330.478   3
   0  -1   1 10572.2 152.096   3
   0   1  -1 10527.5 135.194   4
   0   1  -1 10333.3 161.528   2
   0  -1   1 10737.3 155.207   7
   0  -1   0 6.33404 16.0208   7
   0   1   0-7.42715 15.9099   5
   0   1   1 4668.55 92.9208   5
   0  -1  -1 4703.57 88.4088   3
   0  -1  -1 4661.35 106.523   4
   0   1   2 2927.22 83.4552   2
   0   1   2 3012.19 94.8676   5
   0   1   2 2949.21 100.144   3
   0  -1  -2 2732.94 98.4161   3
   0  -1  -2 2821.50 82.2383   2
   0  -1  -2 2883.12 93.0561   5
   0   1   3 8024.77 167.958   2
   0   1   3 8469.47 183.525   5
   0  -1  -3 8342.81 199.912   3
   0   1   3 8392.06 187.655   8
   0   1   3 8170.64 198.213   3
   0  -1  -3 8272.07 170.160   2
   0   1   4 20889.8 328.447   5
   0   1   4 19644.3 312.727   8
   0  -1  -4 20239.5 309.685   2
   0   1   4 20540.8 313.223   2
   0  -1  -4 20539.5 370.560   7
   0   1   4 19491.4 352.884   3
   0  -1  -4 20128.1 358.103   3
   0   1   5 2136.69 60.7133   9
   0  -1  -5 2715.67 161.516   7
   0  -1  -5 2605.58 156.501   3
   0  -1  -5 2615.33 132.358   2
   0   1   5 2656.84 132.838   8
   0   1   5 2806.15 141.044   5
   0   1   5 2600.99 152.108   3
   0   1   5 2308.37 127.385   2
   0  -1  -6 1104.71 105.786   2
   0  -1  -6 1236.11 127.093   7
   0   1   6 1237.01 125.955   3
   0   1   6 1006.27 94.5502   8
   0  -1  -6 1342.05 130.180   3
   0   1   6 1178.98 105.257   2
   0   1   6 1250.60 107.764   5
   0   1   7 16621.5 442.685   3
   0  -1  -7 15582.5 376.737   2
   0  -1  -7 16492.7 440.574   3
   0   1   7 16817.0 395.556   2
   0  -1  -7 16464.0 440.744   7
   0   1   7 17055.7 403.263   5
   0   1   7 15810.7 349.988   8
   0   1   8 33462.3 541.527   8
   0  -1  -8 33565.7 675.843   7
   0  -1  -8 34222.4 679.967   3
   0   1   8 34759.9 621.222   5
   0  -1  -8 33158.8 595.949   2
   0   1   8 33558.5 606.639   2
   0   1   9 8330.05 285.578   8
   0  -1  -9 8754.79 380.597   7
   0  -1  -9 8774.05 375.987   3
   0   1   9 7909.92 324.991   2
   0  -1 -10 7015.43 361.505   7
   0  -1 -10 6464.61 351.009   3
   0   1  10 6602.89 268.996   8
   0   1  10 6426.95 314.329   2
   0   1  11 8271.22 312.754   8
   0  -1 -11 8536.31 424.884   3
   0  -1 -11 8262.93 417.793   7
   0   1  11 7840.56 367.825   2
   0   1  12 1478.21 149.395   8
   0  -1 -12 1374.25 200.290   7
   0   1  12 1383.86 188.544   2
   0  -1 -12 1624.19 212.345   3
   0   1  13 6044.22 366.712   2
   0  -1 -13 6105.86 406.824   3
   0  -1 -13 5894.00 399.231   7
   0   1  14 1795.64 240.102   2
   0   1  15 343.106 166.023   2
   0  -2  14 1371.89 241.298   2
   0   2 -13 4715.51 364.727   7
   0  -2  13 4944.72 380.152   2
   0   2 -12 542.406 152.374   3
   0  -2  12 517.736 170.853   2
   0   2 -12 538.043 139.406   7
   0   2 -12 551.077 116.880  10
   0   2 -11 10185.8 477.575   3
   0  -2  11 10214.0 466.571   2
   0   2 -11 10552.5 360.125  10
   0   2 -11 10584.6 468.877   7
   0   2 -10 1877.48 200.906   7
   0   2 -10 1552.23 140.280  10
   0   2 -10 1428.59 187.018   3
   0  -2  10 1966.00 215.934   2
   0  -2  10 1591.24 103.206   8
   0   2  -9 471.017 122.713   7
   0  -2   9 582.571 141.197   2
   0   2  -9 374.494 121.623   3
   0  -2   9 447.427 60.5859   8
   0  -2   8 203.521 46.0095   8
   0   2  -8 204.492 90.0762   7
   0  -2   8 109.653 92.0704   2
   0   2  -8 146.220 96.7254   3
   0  -2   7 9784.97 356.681   2
   0  -2   7 9812.15 203.308   8
   0   2  -7 9990.84 349.247   7
   0  -2   7 8474.14 152.820   6
   0   2  -7 10254.8 357.035   2
   0  -2   7 10024.6 354.862   7
   0   2  -7 9955.70 364.136   3
   0   2  -7 10048.4 206.143   8
   0  -2   6 8277.09 308.613   3
   0   2  -6 8032.19 299.900   3
   0  -2   6 7914.91 298.638   2
   0   2  -6 7865.27 168.797   8
   0   2  -6 7962.38 287.258   7
   0   2  -6 8560.56 304.060   2
   0  -2   6 7638.57 290.660   7
   0  -2   6 7867.11 169.645   8
   0  -2   5 51246.4 685.418   3
   0   2  -5 51837.8 680.268   2
   0   2  -5 50339.6 387.607   8
   0   2  -5 51114.1 680.311   3
   0   2  -5 50863.8 659.615   7
   0  -2   5 51304.7 663.892   7
   0  -2   5 50844.1 684.968   2
   0  -2   4 59020.9 679.896   2
   0   2  -4 59491.7 387.162   8
   0   2  -4 59835.3 673.171   2
   0   2  -4 58583.2 551.250   4
   0  -2   4 61079.7 654.757   7
   0   2  -4 59781.7 665.777   3
   0   2  -4 60342.3 651.131   7
   0  -2   4 60007.7 671.048   3
   0   2  -3 47074.8 525.345   3
   0   2  -3 47364.1 445.427   4
   0   2  -3 44297.1 251.929  10
   0   2  -3 47682.7 519.016   7
   0   2  -3 47355.2 547.210   2
   0  -2   3 47402.1 528.129   3
   0   2  -3 46807.7 329.569   8
   0  -2   3 47546.7 517.247   7
   0  -2   3 46810.9 547.340   2
   0  -2   2 102478. 670.265   3
   0   2  -2 102034. 596.573   4
   0  -2   2 102712. 595.338   4
   0  -2   2 102574. 722.150   2
   0  -2   2 102662. 676.230   7
   0   2  -2 102049. 714.508   2
   0   2  -2 100326. 670.696   7
   0  -2   1 16605.0 231.082   4
   0   2  -1 17061.6 234.807   4
   0  -2   1 16889.5 250.998   7
   0   2  -1 16889.1 259.731   2
   0  -2   1 17188.4 260.942   2
   0   2  -1 16988.0 252.006   7
   0  -2   0 202934. 819.569   5
   0   2   0 200610. 823.194   5
   0  -2   0 201961. 813.951   4
   0  -2   0 201411. 820.585   7
   0   2   0 200191. 810.858   4
   0   2   0 201879. 757.716   2
   0   2   1 164047. 609.850   3
   0   2   1 162819. 721.318   5
   0  -2  -1 162136. 719.878   5
   0   2   1 162964. 793.930   4
   0  -2  -1 163981. 792.640   4
   0  -2  -1 163651. 606.439   3
   0   2   2 16770.1 235.471   3
   0   2   2 16406.4 246.329   5
   0  -2  -2 16483.5 283.942   4
   0   2   2 16736.7 283.147   4
   0  -2  -2 16191.4 231.836   3
   0  -2  -2 16546.1 247.581   5
   0   2   3 6598.38 151.290   2
   0   2   3 6600.52 178.159   3
   0   2   3 6742.44 176.253   5
   0  -2  -3 6724.32 204.219   4
   0  -2  -3 6274.44 170.788   5
   0  -2  -3 6603.58 180.606   3
   0   2   4 14675.7 303.567   3
   0  -2  -4 14516.8 302.333   3
   0  -2  -4 14547.1 285.215   5
   0  -2  -4 14270.2 251.876   2
   0  -2  -4 14056.8 317.991   4
   0   2   4 15000.1 258.318   2
   0   2   4 15462.9 291.151   5
   0  -2  -5 4626.77 204.299   4
   0  -2  -5 4359.08 159.136   2
   0   2   5 4530.01 165.314   2
   0   2   5 4612.63 181.463   5
   0  -2  -5 4549.31 193.613   3
   0   2   5 4384.91 186.197   8
   0   2   5 4256.57 188.163   3
   0   2   6 6408.71 251.675   3
   0  -2  -6 6752.97 256.686   3
   0   2   6 6190.11 212.893   2
   0  -2  -6 6152.28 249.510   4
   0   2   6 6940.32 239.379   5
   0  -2  -6 6409.42 268.333   7
   0  -2  -6 6138.58 212.466   2
   0   2   6 6584.10 239.086   8
   0  -2  -7 6088.20 279.758   7
   0   2   7 6070.15 233.770   2
   0   2   7 6102.41 268.024   3
   0   2   7 5460.03 129.887   9
   0   2   7 6039.49 244.578   5
   0  -2  -7 5769.64 225.435   2
   0  -2  -7 5151.69 121.774   6
   0  -2  -7 6409.52 276.561   3
   0   2   7 5756.57 238.396   8
   0  -2  -7 5268.57 253.082   4
   0   2   8 6994.93 284.336   5
   0  -2  -8 6750.80 304.755   3
   0   2   8 6873.13 269.890   2
   0   2   8 5115.56 100.180   9
   0  -2  -8 6371.22 255.885   2
   0   2   8 6917.85 272.368   8
   0  -2  -8 6852.35 318.570   7
   0  -2  -9 12926.9 463.786   7
   0   2   9 12977.2 387.129   8
   0  -2  -9 13669.8 463.692   3
   0  -2  -9 13014.9 391.683   2
   0   2   9 13012.7 394.612   2
   0  -2 -10 3990.69 277.472   3
   0   2  10 3496.26 220.029   8
   0  -2 -10 3453.85 268.785   7
   0   2  10 3821.32 239.080   2
   0   2  11 2527.44 216.377   2
   0   2  11 2681.91 197.984   8
   0  -2 -11 3047.97 268.808   7
   0  -2 -11 3474.11 275.737   3
   0   2  12 4069.68 247.855   8
   0  -2 -12 4239.06 322.225   3
   0  -2 -12 3965.44 319.789   7
   0   2  12 4156.96 288.831   2
   0   2  13 3286.78 271.068   2
   0  -2 -13 3187.19 310.410   7
   0  -2 -13 3261.98 308.976   3
   0   2  14 401.590 129.369   2
   0  -2 -14 506.482 167.565   3
   0  -3  13 1577.14 238.944   2
   0   3 -13 1273.46 211.648   7
   0   3 -12 3130.24 239.261   4
   0   3 -12 4181.18 330.963   7
   0  -3  12 4265.34 343.266   2
   0  -3  11 1870.91 227.551   2
   0   3 -11 2411.22 239.247   7
   0   3 -11 1926.93 188.599   4
   0   3 -10 861.228 151.700   7
   0   3 -10 847.166 132.570   4
   0  -3  10 864.550 172.298   2
   0   3 -10 925.909 108.223  10
   0   3  -9 6268.71 281.129   4
   0   3  -9 6964.54 230.156  10
   0  -3   9 6757.04 355.527   2
   0   3  -9 6800.86 342.658   7
   0  -3   9 5234.90 129.967   6
   0   3  -8 3494.75 121.774   9
   0  -3   8 3445.83 129.030   6
   0   3  -8 3196.87 193.671   4
   0   3  -8 3599.05 124.111   8
   0   3  -8 3651.18 243.541   7
   0  -3   8 3791.83 263.498   2
   0   3  -8 3767.81 157.541  10
   0   3  -7-7.90691 73.2792   7
   0   3  -7 26.3333 60.2358   4
   0   3  -7 85.7419 42.0465  10
   0   3  -7 60.6605 33.0459   8
   0  -3   7 138.268 99.9516   2
   0   3  -6 10223.2 191.514  10
   0   3  -6 10120.5 334.506   7
   0  -3   6 10134.1 350.468   3
   0   3  -6 10334.1 189.797   8
   0   3  -6 10730.9 294.756   4
   0  -3   6 10604.4 367.308   2
   0   3  -6 10103.9 350.444   2
   0  -3   6 10227.3 339.425   7
   0   3  -5 63195.6 656.117   4
   0   3  -5 62781.1 807.308   2
   0   3  -5 65647.0 465.839   8
   0  -3   5 65010.8 802.677   3
   0   3  -5 64823.8 778.046   7
   0  -3   5 65419.0 830.657   2
   0   3  -5 63316.4 386.550  10
   0  -3   5 63974.5 779.305   7
   0   3  -4 14618.1 222.307   8
   0  -3   4 14445.7 367.496   2
   0  -3   4 14419.8 343.421   7
   0   3  -4 13883.2 356.761   2
   0   3  -4 14141.0 338.892   7
   0   3  -4 14240.3 292.592   4
   0  -3   4 13935.3 342.544   3
   0   3  -3 8281.39 210.968   4
   0  -3   3 8282.71 257.229   2
   0  -3   3 8113.50 238.557   3
   0   3  -3 8053.45 239.061   7
   0  -3   3 7815.92 235.483   7
   0   3  -3 8072.19 254.462   2
   0  -3   3 8714.99 218.414   4
   0   3  -2 4858.30 175.718   7
   0  -3   2 4908.30 184.180   2
   0  -3   2 4441.71 158.379   3
   0   3  -2 4840.95 184.063   2
   0  -3   2 4660.01 172.749   7
   0   3  -2 4613.20 153.243   4
   0  -3   2 4659.39 154.972   4
   0   3  -1 25808.2 372.570   2
   0   3  -1 25614.7 350.971   4
   0  -3   1 26124.7 371.310   2
   0  -3   1 26124.9 386.497   5
   0  -3   1 25289.3 347.727   4
   0  -3   1 25869.9 370.874   7
   0   3  -1 25437.4 369.634   7
   0  -3   0 84970.6 654.536   5
   0  -3   0 83569.3 646.041   4
   0  -3   0 84376.5 654.096   7
   0   3   0 84036.4 652.830   5
   0   3   0 85064.7 650.245   4
   0   3   0 85415.0 608.275   2
   0  -3  -1 6420.67 194.715   4
   0   3   1 6641.26 182.852   5
   0   3   1 6578.32 195.158   4
   0  -3  -1 6341.25 179.557   5
   0  -3  -1 6458.23 147.322   3
   0   3   2 853.482 67.8628   3
   0   3   2 846.225 40.9501  11
   0   3   2 808.305 87.6691   4
   0  -3  -2 685.116 83.1273   4
   0  -3  -2 758.718 64.8355   3
   0  -3  -2 682.221 75.0031   5
   0   3   2 715.656 74.8885   5
   0   3   3 4614.99 155.852   3
   0  -3  -3 4702.21 156.101   3
   0   3   3 4563.70 188.758   4
   0  -3  -3 4567.18 188.697   4
   0  -3  -3 4398.23 159.783   5
   0   3   3 4643.12 123.820  11
   0   3   3 4736.19 165.932   5
   0   3   3 4578.86 134.319   2
   0   3   4 10696.4 262.910   3
   0  -3  -4 10242.9 298.260   4
   0  -3  -4 10356.7 261.007   3
   0   3   4 11040.1 225.762   2
   0  -3  -4 10759.9 263.766   5
   0   3   4 11190.2 266.641   5
   0  -3  -5 3564.08 174.693   3
   0   3   5 3739.34 171.647   5
   0   3   5 3816.09 196.388   8
   0  -3  -5 3549.68 168.371   5
   0   3   5 3634.28 173.778   3
   0   3   5 3709.57 148.156   2
   0  -3  -5 3572.67 195.142   4
   0   3   6 16914.8 403.117   3
   0   3   6 17000.6 418.266   8
   0  -3  -6 16648.0 431.483   4
   0   3   6 16923.2 338.976   2
   0  -3  -6 16560.0 399.903   3
   0   3   6 17349.0 384.443   5
   0  -3  -7 9768.83 282.177   2
   0   3   7 9801.31 335.529   3
   0   3   7 9310.96 277.396   2
   0   3   7 9674.36 311.290   5
   0  -3  -7 9671.59 336.487   3
   0   3   7 9926.56 334.999   8
   0   3   8 70288.3 584.339   9
   0   3   8 69904.8 914.923   8
   0   3   8 69755.8 811.788   2
   0  -3  -8 72326.6 1045.00   7
   0  -3  -8 70775.5 964.588   3
   0  -3  -8 69845.8 561.634   6
   0  -3  -8 67454.4 798.674   2
   0   3   8 71499.2 893.681   5
   0   3   9 3043.54 190.870   2
   0  -3  -9 2530.48 96.7090   6
   0  -3  -9 2977.95 239.032   7
   0   3   9 2721.65 107.352   9
   0  -3  -9 2868.05 186.073   2
   0  -3  -9 3158.63 233.572   3
   0   3   9 2956.63 208.967   8
   0  -3 -10 3237.19 255.811   3
   0   3  10 2605.50 194.357   2
   0  -3 -10 2932.86 251.958   7
   0   3  10 3025.55 217.665   8
   0  -3 -11 6712.87 377.611   3
   0   3  11 6856.82 333.564   8
   0   3  11 6806.04 329.093   2
   0  -3 -11 7365.86 406.628   7
   0   3  12 300.463 113.537   8
   0  -3 -12 284.819 141.320   3
   0   3  12 409.360 113.712   2
   0  -3 -12 312.990 133.586   7
   0   3  13 1743.63 196.974   2
   0  -3 -13 1689.75 233.738   3
   0  -3 -13 2037.16 252.577   7
   0   3  13 1506.05 185.307   8
   0  -3 -14-37.2749 134.030   3
   0   4 -13 307.606 137.528   7
   0  -4  13 168.777 137.302   2
   0  -4  12 1438.62 226.850   2
   0   4 -12 1234.81 162.720   4
   0   4 -12 1918.15 231.258   7
   0   4 -11 6175.80 384.096   7
   0  -4  11 6262.03 397.302   2
   0   4 -11 5412.77 291.692   4
   0   4 -10 1261.36 146.464   4
   0   4 -10 1363.58 184.054   7
   0  -4  10 1364.61 204.404   2
   0  -4   9 1154.71 186.131   2
   0   4  -9 673.446 70.7624   9
   0   4  -9 576.662 103.336   4
   0  -4   9 768.688 82.5959   6
   0   4  -9 757.495 68.6508  10
   0   4  -9 804.715 147.912   7
   0   4  -8 253.342 63.9044   9
   0   4  -8 49.5781 82.7446   7
   0   4  -8 74.1238 31.5357  10
   0  -4   8 284.990 126.845   2
   0   4  -8 33.9883 27.3384   8
   0   4  -8 149.118 76.2697   4
   0   4  -7 458.561 95.4041   4
   0  -4   7 650.323 143.040   2
   0   4  -7 645.560 121.522   7
   0   4  -7 512.509 42.1945  10
   0   4  -7 465.037 51.4563   8
   0  -4   6 13198.2 403.380   7
   0   4  -6 13162.6 404.448   7
   0   4  -6 13581.5 344.860   4
   0   4  -6 13118.5 231.822   8
   0  -4   6 13582.9 434.964   2
   0   4  -5 43381.6 579.990   4
   0  -4   5 45341.1 691.025   7
   0   4  -5 43875.4 719.723   2
   0  -4   5 44605.5 693.875   3
   0   4  -5 43159.4 674.482   7
   0   4  -5 45633.2 445.689   8
   0  -4   5 44558.1 732.850   2
   0  -4   4 12056.0 339.101   7
   0  -4   4 12549.8 367.738   2
   0   4  -4 12222.0 296.132   4
   0   4  -4 12278.3 362.744   2
   0  -4   4 11665.8 331.211   3
   0   4  -4 12290.0 342.063   7
   0   4  -3 21613.0 378.919   4
   0  -4   3 21440.4 406.646   3
   0  -4   3 22065.3 383.558   4
   0   4  -3 21326.7 441.110   2
   0  -4   3 21901.8 448.537   2
   0   4  -3 20724.7 414.988   7
   0  -4   3 22134.4 428.838   7
   0   4  -2 71392.0 732.139   7
   0  -4   2 71006.4 759.304   5
   0  -4   2 72287.0 751.449   2
   0  -4   2 71992.0 733.016   7
   0  -4   2 70782.0 670.549   4
   0   4  -2 71117.9 676.724   4
   0   4  -2 71836.9 754.160   2
   0   4  -1 29479.0 453.033   2
   0  -4   1 29884.3 457.705   7
   0  -4   1 30236.0 475.165   5
   0   4  -1 28986.8 450.842   7
   0  -4   1 29900.7 437.246   4
   0   4  -1 29788.1 440.351   4
   0   4   0 15652.8 326.125   4
   0   4   0 15535.4 331.512   5
   0  -4   0 15867.0 332.292   7
   0  -4   0 15952.6 332.788   5
   0   4   0 15860.0 309.219   2
   0  -4   0 15670.3 327.861   4
   0  -4  -1 111544. 848.770   5
   0  -4  -1 110690. 686.650   3
   0   4   1 110572. 852.302   5
   0   4   1 111224. 893.130   4
   0  -4  -1 110441. 897.842   4
   0   4   2 51490.2 636.542   4
   0  -4  -2 50799.5 483.686   3
   0  -4  -2 51260.5 580.010   5
   0   4   2 51809.1 583.247   5
   0  -4  -2 51464.6 642.074   4
   0   4   3 61912.8 650.218   5
   0  -4  -3 62130.6 578.529   3
   0  -4  -3 61593.3 649.726   5
   0   4   3 61693.9 735.983   4
   0   4   3 60094.9 575.149   3
   0   4   3 60549.1 389.816  11
   0  -4  -3 62068.8 740.995   4
   0   4   4 6179.34 160.570  11
   0  -4  -4 6159.06 208.194   3
   0  -4  -4 6508.91 256.320   4
   0  -4  -4 6372.05 221.735   5
   0   4   4 6046.83 205.703   3
   0   4   4 6309.22 220.508   5
   0   4   4 5847.40 175.060   2
   0  -4  -5 43352.9 599.801   5
   0   4   5 43539.4 500.841   2
   0   4   5 44051.3 603.747   5
   0   4   5 42770.3 493.631  11
   0  -4  -5 42798.4 589.872   3
   0  -4  -5 42252.0 684.953   4
   0   4   5 42844.3 589.498   3
   0   4   6 10229.6 319.082   3
   0   4   6 10612.1 317.484   5
   0  -4  -6 10402.1 314.678   5
   0  -4  -6 10408.5 321.041   3
   0   4   6 11139.4 367.336   8
   0   4   6 10630.3 270.160   2
   0   4   7 6605.58 269.288   5
   0   4   7 6745.92 233.636   2
   0   4   7 6087.72 274.337   3
   0  -4  -7 6710.68 284.754   3
   0   4   7 6204.39 295.559   8
   0  -4  -8 1345.56 152.170   3
   0   4   8 1898.97 185.691   8
   0   4   8 1429.10 145.028   5
   0   4   8 1546.95 130.412   2
   0   4   9 1300.37 154.179   8
   0  -4  -9 1768.51 198.217   7
   0   4   9 1497.42 111.674   9
   0   4   9 1555.56 144.886   2
   0  -4  -9 1880.37 190.481   3
   0  -4  -9 1524.88 106.814   6
   0   4  10 1970.46 191.715   8
   0   4  10 2208.79 175.893   2
   0  -4 -10 2084.05 216.053   3
   0  -4 -10 2090.02 224.397   7
   0   4  11 632.641 136.124   8
   0  -4 -11 409.710 146.135   3
   0   4  11 500.984 116.036   2
   0  -4 -11 452.608 143.975   7
   0  -4 -12 768.189 178.189   3
   0  -4 -12 529.543 154.178   7
   0   4  12 374.193 114.223   2
   0  -4 -13 2011.40 253.380   3
   0   4  13 2010.38 213.904   8
   0   4  13 2207.33 258.722  11
   0   4  14 1542.07 234.785  11
   0  -5  12 532.316 182.079   2
   0   5 -12 609.365 176.281   7
   0   5 -11 2893.50 275.655   7
   0   5 -11 2441.92 205.459   4
   0  -5  11 2502.16 277.206   2
   0   5 -10 594.553 113.133   4
   0   5 -10 892.474 169.452   7
   0  -5  10 862.556 182.178   2
   0   5  -9 1962.23 176.165   4
   0  -5   9 2373.39 240.092   2
   0   5  -9 2245.77 146.087   9
   0   5  -9 2478.23 231.381   7
   0   5  -8 1798.35 88.6705   8
   0   5  -8 1731.76 158.219   4
   0   5  -8 1783.20 188.741   7
   0  -5   8 1900.55 216.055   2
   0  -5   7 8266.98 384.670   2
   0   5  -7 7791.48 292.477   4
   0   5  -7 7949.00 350.940   7
   0   5  -7 7740.83 191.670   8
   0  -5   6 68.4066 102.844   2
   0   5  -6 120.844 67.4145   4
   0   5  -6 215.804 52.9711   8
   0   5  -6 60.4683 77.0915   7
   0   5  -5 3079.61 137.430   8
   0   5  -5 2877.81 168.788   4
   0  -5   5 3247.05 206.924   7
   0  -5   5 2983.44 217.582   2
   0   5  -5 3088.80 205.190   7
   0  -5   5 3050.77 201.604   3
   0  -5   4 5668.03 247.528   3
   0  -5   4 5951.85 276.290   2
   0  -5   4 5645.62 254.648   7
   0   5  -4 5470.09 265.681   2
   0   5  -4 5814.13 229.310   4
   0   5  -4 5563.73 254.009   7
   0  -5   4 5539.47 225.415   4
   0   5  -3 12621.7 371.149   2
   0  -5   3 12324.1 321.424   4
   0   5  -3 12465.1 321.939   4
   0   5  -3 12439.4 354.648   7
   0  -5   3 12589.8 369.155   2
   0  -5   3 12889.4 360.350   7
   0  -5   3 12583.5 376.539   5
   0  -5   3 12434.6 332.586   3
   0  -5   2 1141.70 120.377   5
   0  -5   2 1206.99 118.722   7
   0   5  -2 1315.28 115.467   4
   0  -5   2 1083.12 105.640   4
   0   5  -2 972.309 110.497   7
   0   5  -2 1152.11 122.167   2
   0   5  -1 31931.7 522.913   2
   0   5  -1 33205.0 523.206   4
   0  -5   1 32591.9 515.679   4
   0  -5   1 33078.0 550.926   5
   0  -5   1 33698.2 546.425   7
   0  -5   0 43226.0 613.619   7
   0  -5   0 41972.3 602.944   5
   0   5   0 41875.4 598.061   4
   0   5   0 42080.2 605.139   5
   0  -5   0 41505.7 598.668   4
   0   5   0 41201.8 555.445   2
   0  -5  -1 507.209 31.4129  11
   0  -5  -1 635.154 94.4112   5
   0  -5  -1 859.796 77.8492   3
   0  -5  -1 918.258 105.390   4
   0   5   1 766.479 95.7508   5
   0   5   1 821.791 105.511   4
   0   5   1 729.044 82.9944   2
   0   5   2 5731.04 223.347   5
   0  -5  -2 5587.99 178.304   3
   0   5   2 5694.17 241.166   4
   0  -5  -2 5943.67 248.919   4
   0  -5  -2 5417.31 215.838   5
   0  -5  -3 7411.12 254.231   5
   0  -5  -3 7055.75 280.500   4
   0   5   3 7038.11 248.296   5
   0  -5  -3 7076.01 211.733   3
   0   5   3 7101.27 277.434   4
   0   5   4 206.599 56.5689   3
   0   5   4 184.230 34.2646  11
   0   5   4 292.905 75.3341   5
   0  -5  -4 297.098 74.6479   5
   0  -5  -4 314.800 72.6256   3
   0   5   4 184.342 49.6472   2
   0  -5  -4 358.397 90.1724   4
   0  -5  -5 5313.42 230.604   5
   0   5   5 5628.76 168.799  11
   0   5   5 5849.67 226.071   3
   0   5   5 5632.63 236.143   5
   0   5   5 5691.71 193.475   2
   0  -5  -5 5486.71 224.825   3
   0  -5  -6 4213.79 217.303   5
   0  -5  -6 4508.91 224.747   3
   0   5   6 4449.73 219.807   3
   0   5   6 4266.71 173.582  11
   0   5   6 4288.32 178.448   2
   0   5   6 4810.45 269.499   8
   0   5   6 4259.47 219.081   5
   0   5   7 7084.60 241.461   2
   0   5   7 7257.67 340.649   8
   0   5   7 7285.48 252.143  11
   0  -5  -7 7298.94 299.176   5
   0  -5  -7 7841.95 307.973   3
   0   5   7 6981.32 292.278   3
   0   5   7 6777.09 285.668   5
   0  -5  -8 3839.07 236.745   3
   0   5   8 3870.37 209.788  11
   0   5   8 4030.20 266.230   8
   0   5   8 3999.73 194.582   2
   0   5   9 1569.12 141.681   2
   0   5   9 1763.02 192.850   8
   0  -5  -9 1585.81 181.384   3
   0   5   9 1380.71 150.833  11
   0  -5 -10 7003.63 358.861   3
   0   5  10 6857.98 287.956   2
   0  -5 -10 7722.50 410.928   7
   0   5  10 6654.01 356.786   8
   0   5  10 6795.71 319.977  11
   0  -5 -11 3673.85 287.832   3
   0   5  11 3945.63 288.801   8
   0   5  11 3810.95 231.956   2
   0  -5 -11 3910.69 319.326   7
   0   5  11 3309.40 247.045  11
   0  -5 -12 3568.34 305.049   3
   0  -5 -12 3209.85 306.756   7
   0   5  12 3051.21 254.351  11
   0   5  12 3216.89 274.476   8
   0   5  13 2388.63 250.978   8
   0  -5 -13 2437.10 278.386   3
   0   5  13 2532.00 253.842  11
   0   6 -12 558.155 175.805   7
   0   6 -11 3033.42 291.225   7
   0  -6  11 2658.24 294.461   2
   0   6 -10 1479.19 163.426   4
   0  -6  10 1490.25 227.331   2
   0   6 -10 1805.25 222.878   7
   0   6  -9 2054.99 164.027   9
   0   6  -9 2186.19 183.741   4
   0  -6   9 1988.76 235.701   2
   0   6  -9 2350.42 234.065   7
   0   6  -8 1618.14 185.603   7
   0   6  -8 1187.01 137.386   4
   0  -6   8 1277.82 189.195   2
   0  -6   7 1727.51 208.363   2
   0   6  -7 1913.27 110.679   8
   0   6  -7 1765.18 188.587   7
   0   6  -7 1672.32 153.119   4
   0  -6   6 4773.60 297.783   2
   0   6  -6 4943.78 245.311   4
   0   6  -6 4885.80 184.240   8
   0   6  -6 4381.34 265.525   7
   0   6  -5 7038.27 279.326   4
   0  -6   5 7199.28 339.782   5
   0  -6   5 6866.95 330.670   2
   0   6  -5 7215.15 322.569   7
   0  -6   4 22702.1 484.205   4
   0   6  -4 22967.1 486.676   4
   0  -6   4 22640.9 566.275   5
   0  -6   4 22697.9 508.338   3
   0   6  -4 22568.3 536.756   7
   0  -6   4 21777.8 547.214   2
   0  -6   3 31063.2 554.828   3
   0  -6   3 31879.0 612.188   7
   0   6  -3 31731.8 631.105   2
   0  -6   3 32399.7 647.344   5
   0   6  -3 32484.5 569.430   4
   0   6  -3 31829.3 612.544   7
   0  -6   3 31919.6 567.516   4
   0   6  -2 7766.36 284.221   4
   0  -6   2 7799.96 301.885   7
   0  -6   2 7772.70 309.716   5
   0   6  -2 8155.58 310.269   2
   0  -6   2 7924.22 285.361   4
   0   6  -2 7440.34 293.784   7
   0  -6   1 24339.8 514.379   7
   0  -6   1 24203.7 522.805   5
   0   6  -1 24450.3 497.251   4
   0   6  -1 24795.6 504.191   2
   0   6  -1 23997.7 280.169   1
   0  -6   1 24280.1 495.211   4
   0  -6   0 11563.6 355.858   7
   0  -6   0 11205.1 346.677   4
   0   6   0 11245.5 324.715   2
   0   6   0 10866.1 339.074   4
   0  -6   0 11810.9 356.022   5
   0  -6  -1 19823.4 359.456   3
   0  -6  -1 19612.1 448.563   5
   0  -6  -1 20144.5 471.908   7
   0  -6  -1 20095.8 472.399   4
   0   6   1 20058.7 458.608   5
   0   6   1 19991.0 406.680   2
   0   6   1 20295.4 472.867   4
   0  -6  -1 16359.0 163.783  11
   0   6   2 12405.4 383.424   4
   0   6   2 12484.0 361.359   5
   0  -6  -2 12289.0 284.584   3
   0   6   2 11889.1 305.213   2
   0  -6  -2 11958.2 379.319   4
   0  -6  -2 12173.4 353.355   5
   0   6   3 11674.8 352.625   5
   0   6   3 10955.3 373.477   4
   0  -6  -3 10975.5 339.213   5
   0  -6  -3 11381.2 282.675   3
   0   6   4 23527.8 561.495   4
   0  -6  -4 19696.6 220.642   1
   0  -6  -4 22525.6 418.304   3
   0  -6  -4 22986.9 492.065   5
   0   6   4 22413.1 491.643   5
   0  -6  -5 2406.30 172.055   5
   0  -6  -5 2481.36 157.779   3
   0   6   5 2548.04 178.663   5
   0  -6  -5 2468.12 112.880   1
   0   6   5 2391.79 98.6364  11
   0   6   5 2478.22 159.400   3
   0   6   5 2289.56 135.194   2
   0   6   6 1276.17 93.2291  11
   0   6   6 1174.74 125.231   3
   0   6   6 1289.31 139.044   5
   0  -6  -6 1353.87 136.341   3
   0  -6  -6 1231.32 136.372   5
   0   6   6 1376.57 113.338   2
   0   6   7 905.698 95.1221  11
   0   6   7 978.883 103.446   2
   0  -6  -7 1024.39 136.078   3
   0   6   7 747.127 118.094   3
   0  -6  -7 1007.65 128.569   5
   0   6   7 1278.24 175.358   8
   0   6   8 32174.6 542.695  11
   0   6   8 33304.1 774.632   8
   0   6   8 33014.0 542.888   2
   0  -6  -8 32273.1 664.285   5
   0  -6  -8 33297.5 677.560   3
   0  -6  -9 1530.30 178.807   3
   0   6   9 1275.43 134.751  11
   0   6   9 1388.01 196.154   8
   0   6   9 1473.13 135.468   2
   0   6  10 4011.36 305.825   8
   0   6  10 3796.65 235.080  11
   0   6  10 3295.32 200.331   2
   0  -6 -10 3948.54 280.320   3
   0   6  11 809.504 161.850   8
   0  -6 -11 1056.47 193.453   7
   0  -6 -11 1089.13 177.394   3
   0   6  11 772.036 129.957  11
   0  -6 -12 304.481 137.443   3
   0   6  12 557.554 158.812   8
   0   6  13 1106.44 190.136   8
   0  -6 -13 811.261 179.725   3
   0   7 -11 2569.35 281.557   7
   0   7 -10 1498.34 171.294   4
   0  -7  10 1458.44 226.967   2
   0   7 -10 806.014 157.331   7
   0   7  -9 2923.43 219.592   4
   0  -7   9 3490.04 312.963   2
   0   7  -9 2870.28 270.578   7
   0  -7   8 3881.70 307.405   5
   0   7  -8 4121.13 251.523   4
   0  -7   8 4330.02 333.964   2
   0   7  -8 4236.48 305.044   7
   0  -7   7 7083.30 394.033   5
   0  -7   7 7521.78 399.304   2
   0   7  -7 7701.52 326.398   4
   0   7  -7 7732.55 383.421   7
   0  -7   6 5319.04 329.710   5
   0  -7   6 4662.27 309.608   2
   0   7  -6 5133.30 304.034   7
   0   7  -6 5148.24 209.186   8
   0   7  -6 4648.48 252.751   4
   0   7  -5 7414.41 305.248   4
   0   7  -5 7656.82 353.573   7
   0  -7   5 7603.31 370.831   5
   0  -7   5 7490.59 363.320   2
   0  -7   4 16652.1 454.015   4
   0  -7   4 18453.8 550.652   5
   0   7  -4 18410.4 471.953   4
   0   7  -4 17404.0 507.805   7
   0  -7   3 2405.10 176.713   3
   0  -7   3 2624.41 189.204   4
   0  -7   3 2191.59 73.9011  10
   0  -7   3 2402.53 208.863   5
   0   7  -3 2402.38 197.690   7
   0   7  -3 2417.73 183.764   4
   0  -7   2 5452.03 285.957   5
   0   7  -2 5836.13 179.307   1
   0  -7   2 5887.88 272.084   4
   0   7  -2 5236.85 258.865   4
   0  -7   1 5615.12 267.670   4
   0  -7   1 5852.39 285.783   5
   0   7  -1 4998.75 125.244   1
   0   7  -1 5442.07 265.390   4
   0   7  -1 5341.91 262.292   2
   0  -7   0 6129.38 286.640   5
   0   7   0 6659.78 279.895   2
   0   7   0 6357.46 291.034   4
   0  -7   0 5598.01 145.947  11
   0  -7  -1 714.570 116.300   5
   0   7   1 822.886 126.515   4
   0   7   1 748.123 109.501   2
   0  -7  -1 581.569 81.2249   3
   0   7   2 4520.41 215.386   2
   0  -7  -2 4943.93 197.291   3
   0  -7  -2 4941.36 252.512   5
   0   7   2 5015.59 273.152   4
   0   7   2 4695.37 251.405   5
   0  -7  -3 3155.66 206.552   5
   0   7   3 3551.60 237.337   4
   0   7   3 3524.72 185.567   2
   0   7   3 3472.12 217.629   5
   0  -7  -3 3452.99 170.954   3
   0   7   4 5439.47 301.769   4
   0  -7  -4 4954.34 213.412   3
   0  -7  -4 5242.50 261.694   5
   0  -7  -5 2057.65 156.961   3
   0  -7  -5 1543.21 155.548   5
   0   7   5 1570.60 121.810   2
   0  -7  -6 3743.51 231.436   5
   0   7   6 2824.10 105.977  11
   0  -7  -6 3371.32 202.357   3
   0   7   6 3339.86 171.982   2
   0  -7  -6 2854.36 123.805   1
   0   7   7 8102.66 265.794   2
   0  -7  -7 8178.28 322.754   3
   0   7   7 7717.07 211.857  11
   0   7   7 8267.52 408.305   8
   0  -7  -7 8335.34 348.437   5
   0  -7  -7 7898.83 241.622   1
   0   7   8 4935.70 216.890   2
   0  -7  -8 5158.53 279.354   3
   0   7   8 5133.34 337.811   8
   0   7   8 4532.22 190.222  11
   0  -7  -8 4740.24 217.407   1
   0  -7  -8 4764.04 276.644   5
   0  -7  -9 8722.03 378.368   3
   0  -7  -9 8282.40 313.655   1
   0   7   9 8231.40 431.798   8
   0  -7 -10 646.170 141.964   3
   0   7  10 682.204 167.765   8
   0  -7 -11 7099.09 384.767   3
   0   7  11 6436.43 404.573   8
   0  -7 -11 6707.73 440.110   7
   0  -7 -12 689.593 164.789   3
   0   7  12 353.445 147.968   8
   0   8 -10 177.079 127.643   7
   0  -8   9 1420.93 223.305   2
   0  -8   9 1647.59 242.912   5
   0   8  -9 1322.79 208.329   7
   0   8  -9 1469.28 171.122   4
   0   8  -8 572.057 153.702   7
   0  -8   8 675.497 177.256   2
   0   8  -8 571.770 115.455   4
   0  -8   8 845.089 178.707   5
   0  -8   7 1288.01 196.156   2
   0   8  -7 1207.73 153.563   4
   0   8  -7 1330.63 189.786   7
   0  -8   7 1355.25 207.928   5
   0  -8   6 741.172 164.009   5
   0   8  -6 474.511 124.627   7
   0   8  -6 467.832 102.155   4
   0  -8   5 12966.4 508.886   5
   0   8  -5 12773.8 479.715   7
   0   8  -5 13739.1 444.232   4
   0   8  -4 1578.42 178.740   7
   0   8  -4 1487.78 161.055   4
   0  -8   4 2005.94 215.060   5
   0  -8   3 34246.3 767.238   5
   0  -8   3 26542.0 284.012  10
   0   8  -3 33461.3 680.351   4
   0   8  -3 33250.1 494.069   1
   0  -8   3 28668.3 291.291  10
   0  -8   2 7184.72 352.964   5
   0   8  -2 6759.31 185.828   1
   0   8  -2 7393.31 328.208   4
   0  -8   2 7239.76 292.449   3
   0  -8   1 166.117 105.581   5
   0   8  -1 56.9000 17.9192   1
   0   8  -1 151.491 108.333   4
   0  -8   0 21414.4 566.545   5
   0  -8   0 18759.3 260.625  11
   0   8   0 21550.8 560.170   4
   0   8   1 37896.6 761.475   4
   0  -8  -1 37395.4 567.600   3
   0   8   1 36681.7 658.618   2
   0  -8  -1 38069.8 742.758   5
   0   8   2 12972.4 383.900   2
   0  -8  -2 13358.4 338.377   3
   0  -8  -2 14416.6 454.277   5
   0   8   2 13714.8 469.049   4
   0  -8  -3 18080.7 396.708   3
   0   8   3 18544.8 559.092   4
   0   8   3 17243.0 423.031   2
   0  -8  -3 19173.2 521.950   5
   0  -8  -4 19981.5 538.514   5
   0   8   4 19415.4 436.941   2
   0  -8  -4 19884.7 429.394   3
   0   8   4 19491.7 585.777   4
   0   8   5 5638.27 231.219   2
   0  -8  -5 5611.58 291.036   5
   0  -8  -5 5649.52 247.999   3
   0   8   6 16851.1 391.125   2
   0  -8  -6 17031.6 442.260   3
   0  -8  -6 17191.0 509.018   5
   0   8   7 1919.35 234.073   8
   0   8   7 1247.58 121.350   2
   0  -8  -7 1453.23 173.411   5
   0  -8  -7 1255.06 147.449   3
   0  -8  -8 20256.1 577.458   5
   0  -8  -8 19668.3 533.734   3
   0   8   8 19379.0 671.199   8
   0  -8  -9 1613.43 182.427   3
   0   8   9 1726.57 238.515   8
   0  -8  -9 1511.41 183.455   5
   0   8  10 1299.27 216.272   8
   0  -8 -10 1403.96 187.813   3
   0   8  11 1857.46 243.021   8
   0   9  -9 1813.36 238.326   7
   0   9  -8 946.290 147.107   4
   0   9  -8 1037.89 196.131   7
   0  -9   8 1073.86 202.474   5
   0   9  -7 326.342 107.694   4
   0  -9   7 591.947 164.585   5
   0   9  -7 318.021 129.879   7
   0   9  -6 104.033 103.221   7
   0  -9   6 59.3836 122.090   5
   0   9  -6 101.069 109.047   4
   0   9  -5 1647.35 155.887   1
   0   9  -5 1628.08 204.411   7
   0   9  -5 1698.30 178.379   4
   0  -9   5 1407.22 205.514   5
   0   9  -4 1310.12 163.307   4
   0   9  -4 1401.95 132.771   1
   0  -9   4 1242.12 187.608   5
   0  -9   3 219.742 109.566   5
   0   9  -3 293.673 115.648   4
   0   9  -3 234.618 63.9714   1
   0   9  -2 1071.94 149.060   4
   0  -9   2 975.352 170.627   5
   0   9  -1 997.569 149.386   4
   0  -9   1 1133.74 166.720   5
   0  -9   0 1913.79 194.845   5
   0   9   0 2090.92 206.825   4
   0  -9   0 1583.14 142.085   3
   0  -9  -1 2024.86 150.387   3
   0   9   1 1960.85 195.122   4
   0  -9  -1 2262.37 208.361   5
   0   9   2 6.52164 91.3894   4
   0  -9  -2 34.6017 58.6797   3
   0  -9  -2-3.24946 78.8567   5
   0   9   3 100.229 96.2774   4
   0  -9  -3 142.025 63.1774   3
   0  -9  -3 284.923 119.637   5
   0  -9  -4 10605.3 329.501   3
   0   9   4 10785.7 468.961   4
   0  -9  -4 11417.4 437.079   5
   0  -9  -5 1492.23 172.267   5
   0  -9  -5 1684.31 151.612   3
   0   9   6 2025.96 244.128   8
   0  -9  -6 1986.69 198.369   5
   0  -9  -6 1795.05 162.235   3
   0   9   6 1938.63 149.534   2
   0  -9  -7 194.660 92.8285   3
   0  -9  -7 148.810 96.3520   5
   0   9   7 298.419 163.706   8
   0  -9  -8-45.6495 84.1306   5
   0   9   8 150.701 122.066   8
   0  -9  -9 456.129 125.658   5
   0   9   9 401.747 165.749   8
   0  10  -8 2162.26 268.456   7
   0  10  -7 1340.55 217.285   7
   0 -10   7 1081.47 215.927   5
   0  10  -7 1167.66 170.325   4
   0 -10   6 141.048 130.909   5
   0  10  -6 157.883 87.2596   4
   0 -10   5 1163.86 212.568   5
   0  10  -5 793.907 142.814   4
   0 -10   4 749.305 168.877   5
   0  10  -4 683.383 143.202   4
   0  10  -3 986.969 152.516   4
   0 -10   3 987.888 169.403   5
   0  10  -2 34.5779 107.654   4
   0 -10   2 169.174 116.862   5
   0 -10   1 4178.09 303.330   5
   0  10  -1 4256.63 294.209   4
   0 -10   0 113.636 73.1977   3
   0  10   0 419.221 138.656   4
   0 -10   0 347.371 123.547   5
   0 -10  -1 1862.20 210.365   5
   0 -10  -1 1444.89 134.782   3
   0  10   1 1331.96 194.019   4
   0 -10  -2 13608.8 515.881   5
   0 -10  -2 13522.4 376.661   3
   0  10   2 14789.0 557.059   4
   0 -10  -3 2044.51 212.295   5
   0  10   3 2195.24 239.719   4
   0 -10  -3 1904.04 149.647   3
   0 -10  -4 956.311 153.083   5
   0  10   4 724.655 160.590   4
   0 -10  -5 798.993 144.213   5
   0  10   6 276.822 152.788   8
   0 -10  -6 65.0616 95.2357   5
   0  10   7 504.942 154.233   8
   0 -10  -7 312.001 131.225   5
   0 -10  -8 516.775 138.467   5
   0  11  -6 815.920 161.115   4
   0  11  -5 1073.48 178.487   4
   0 -11   5 836.773 200.946   5
   0  11  -4 3780.20 293.612   4
   0 -11   4 3884.88 335.493   5
   0 -11   3 952.783 183.640   5
   0  11  -3 932.617 169.505   4
   0  11  -2 1829.53 218.756   4
   0 -11   2 1504.83 213.795   5
   0 -11   1 1957.12 234.554   5
   0  11  -1 2544.98 252.396   4
   0 -11   0 741.589 157.815   5
   0  11   0 935.047 186.027   4
   0  11   1 518.822 144.478   4
   0 -11  -1 587.062 143.825   5
   0 -11  -2 162.140 127.467   5
   0  11   2 83.7609 110.011   4
   0 -11  -3 3410.22 286.396   5
   0  11   3 3534.56 308.951   4
   0 -11  -4 3672.64 292.899   5
   0  11   5 1844.19 259.910   8
   0 -11  -5 1984.75 226.368   5
   0 -11  -6 286.457 127.658   5
   0  12  -4 1191.06 193.412   4
   0  12  -3 5862.46 387.924   4
   0 -12   2 11298.8 563.266   5
   0  12  -2 11943.3 550.358   4
   0  12  -1 8853.91 471.751   4
   0 -12   1 8924.62 492.545   5
   0  12   0 4504.40 349.842   4
   0 -12   0 4178.40 343.217   5
   0  12   1 3776.44 330.223   4
   0 -12  -1 4224.34 347.047   5
   0  12   2 2446.84 271.690   4
   0 -12  -2 2104.55 248.843   5
   0 -12  -3 487.387 139.223   5
   0 -12  -4 432.026 156.079   5
   0 -12  -5 141.319 105.761   5
   1 -12  -2-9.47370 96.7385   5
  -1  12   2 153.723 133.522   8
   1 -12  -1 480.527 142.385   5
  -1  12   1 426.188 180.951   8
  -1  12   0 475.311 183.013   8
   1 -12   0-39.6182 118.537   5
  -1  12  -1 1501.98 230.086   8
   1 -12   1 1382.04 205.150   5
  -1  12  -1 1276.19 201.101   4
  -1  12  -2-41.1694 122.085   4
   1 -12   2 42.0411 115.654   5
  -1  12  -2-86.1143 115.948   8
   1 -12   3 1714.51 240.777   5
  -1  12  -3 2026.91 225.000   4
  -1  11   7 579.262 171.298   9
  -1  11   6 2282.30 280.972   9
  -1  11   4 395.702 165.585   8
   1 -11  -4 239.124 102.368   5
  -1  11   3 272.818 139.837   8
   1 -11  -3 327.050 118.711   5
   1 -11  -2 324.784 124.814   5
  -1  11   2 549.328 166.048   8
   1 -11  -2 96.6463 86.3727   3
   1 -11  -1 364.090 125.892   5
  -1  11   1 320.604 159.942   8
   1 -11  -1 121.741 90.0681   3
  -1  11   0 40.6552 117.309   8
  -1  11   0 59.1661 108.606   4
   1 -11   0-11.0246 82.6177   3
   1 -11   0 82.8969 101.226   5
  -1  11  -1 1150.55 179.045   4
  -1  11  -1 1809.66 222.000   8
   1 -11   1 1238.66 191.911   5
   1 -11   1 982.092 148.086   3
  -1  11  -2 538.897 140.855   4
  -1  11  -2 663.126 150.608   8
   1 -11   2 404.721 132.423   5
   1 -11   3 472.901 150.248   5
  -1  11  -3 408.514 132.744   8
  -1  11  -3 475.995 129.739   4
  -1  11  -4 1053.39 163.013   4
   1 -11   4 1162.46 211.189   5
   1 -11   5 2339.08 278.211   5
  -1  11  -6 2006.41 260.945   9
  -1  11  -7 1063.34 207.522   9
  -1  10   8 1579.77 233.185   9
  -1  10   7 6548.88 410.245   9
   1 -10  -6 577.133 127.328   3
  -1  10   6 1053.96 199.251   8
   1 -10  -5 735.989 134.049   5
  -1  10   5 1223.70 209.024   8
   1 -10  -5 887.350 139.294   3
   1 -10  -4 693.663 131.546   5
   1 -10  -4 557.526 118.285   3
  -1  10   4 1091.32 195.465   8
   1 -10  -3 364.468 104.646   3
  -1  10   3 451.860 155.479   8
   1 -10  -3 240.031 93.7435   5
  -1  10   2 6899.61 396.574   8
   1 -10  -2 6641.35 345.280   5
   1 -10  -2 6106.09 312.680   3
   1 -10  -1 1365.84 174.360   5
  -1  10   1 1866.34 218.426   8
   1 -10  -1 1591.74 171.558   3
  -1  10   0 1337.96 180.137   4
  -1  10   0 1299.18 188.458   8
   1 -10   0 1306.89 170.877   5
   1 -10   0 1044.38 155.654   3
  -1  10  -1 835.420 159.140   8
  -1  10  -1 794.255 145.200   4
   1 -10   1 615.326 135.768   5
   1 -10   1 722.808 132.820   3
  -1  10  -2 581.754 124.394   4
  -1  10  -2 888.110 146.371   8
   1 -10   2 957.316 156.178   5
   1 -10   3 1639.78 208.729   5
  -1  10  -3 1335.94 163.209   4
  -1  10  -3 1366.32 170.427   8
   1 -10   4 972.533 185.672   5
  -1  10  -4 907.095 136.082   4
  -1  10  -4 1214.52 157.446   8
   1 -10   5 1721.09 227.562   5
  -1  10  -5 1726.35 181.172   4
   1 -10   6 1129.82 202.184   5
  -1  10  -6 1193.13 205.090   9
   1 -10   7 833.258 200.582   5
  -1  10  -7 529.458 161.756   9
  -1  10  -7 979.387 188.690   7
  -1  10  -8 319.175 141.587   9
   1  -9  -9 533.146 143.554   3
   1  -9  -8 872.722 167.399   3
  -1   9   8 1142.00 182.543   9
  -1   9   8 1513.02 231.282   8
   1  -9  -7 540.275 134.623   3
  -1   9   7 755.266 169.631   9
  -1   9   7 358.498 154.447   8
   1  -9  -6 1759.79 190.508   3
   1  -9  -6 1787.19 171.581   5
  -1   9   6 2126.78 248.910   8
  -1   9   5 445.889 162.541   8
   1  -9  -5 182.257 87.1311   3
   1  -9  -5 208.761 90.1475   5
   1  -9  -4 2173.76 184.272   5
  -1   9   4 1966.87 229.504   8
   1  -9  -4 2242.39 196.091   3
   1  -9  -3 927.699 133.382   5
   1  -9  -3 868.393 130.806   3
  -1   9   3 966.265 175.284   8
  -1   9   2 3863.52 287.672   8
   1  -9  -2 4059.63 252.264   5
   1  -9  -2 3870.00 241.531   3
  -1   9   1 3189.13 194.518   2
  -1   9   1 3913.77 275.714   8
   1  -9  -1 3130.39 214.965   3
   1  -9  -1 3691.18 245.939   5
  -1   9   1 3601.45 258.806   4
  -1   9   0 7160.29 356.633   8
   1  -9   0 6707.48 314.319   3
  -1   9   0 7791.18 363.867   4
  -1   9   0 7044.83 298.525   2
   1  -9   0 7771.71 356.384   5
  -1   9  -1 35944.6 743.728   4
  -1   9  -1 36988.4 764.422   8
   1  -9   1 36860.6 780.342   5
  -1   9  -2 18586.4 528.013   8
   1  -9   2 18928.7 579.984   5
  -1   9  -2 18820.7 529.046   4
   1  -9   3 9682.47 429.834   5
  -1   9  -3 11008.2 398.925   4
  -1   9  -3 10879.1 390.938   8
  -1   9  -3 10061.2 274.915   1
  -1   9  -4 13944.5 424.542   8
   1  -9   4 13395.9 523.693   5
  -1   9  -4 14028.8 369.570   1
  -1   9  -4 13664.5 433.962   4
  -1   9  -5 3881.65 309.508   7
   1  -9   5 4348.02 315.262   5
  -1   9  -5 4281.51 248.943   4
   1  -9   5 4179.67 302.007   2
  -1   9  -5 4333.12 229.582   8
  -1   9  -5 4492.52 239.101   1
  -1   9  -6 205.043 122.354   7
   1  -9   6-22.9715 110.322   2
  -1   9  -6 47.6943 84.3519   1
  -1   9  -6-12.9726 73.4324   4
   1  -9   6 72.7885 108.629   5
  -1   9  -6 99.2151 116.484   9
  -1   9  -7 369.816 139.200   7
   1  -9   7 49.7834 113.444   2
  -1   9  -7 309.001 118.241   1
  -1   9  -7 403.248 133.770   9
   1  -9   7 143.419 138.552   5
  -1   9  -8 438.497 132.119   9
   1  -9   8 223.092 149.511   2
  -1   9  -8 215.159 95.5143   1
  -1   9  -8 593.221 179.610   7
   1  -9   8 310.911 135.350   5
  -1   9  -9 52.3330 132.500   7
  -1   9  -9 23.4091 105.345   1
  -1   9  -9 180.736 118.634   9
   1  -9   9 350.344 168.575   2
  -1   9 -10 1036.38 193.279   1
   1  -8 -11 166.001 129.857   3
  -1   8  10 1634.23 256.993   8
   1  -8 -10 1258.30 197.110   3
  -1   8   9 5821.77 328.389   9
   1  -8  -9 5978.77 361.207   3
  -1   8   9 5377.53 384.562   8
   1  -8  -8 117.958 106.111   3
  -1   8   8 75.5734 126.274   8
  -1   8   8 113.262 98.2855   9
   1  -8  -7 593.829 135.523   3
  -1   8   7 587.617 137.965   9
   1  -8  -7 687.082 114.777   5
  -1   8   7 571.947 166.326   8
   1  -8  -6 15595.3 497.214   3
  -1   8   6 14700.0 562.143   8
   1  -8  -6 15859.2 446.150   5
   1  -8  -5 829.158 115.213   5
  -1   8   5 706.917 55.2950   2
  -1   8   5 985.136 171.866   8
   1  -8  -5 731.281 123.809   3
  -1   8   4 504.477 57.0367   2
   1  -8  -4 971.336 128.755   5
  -1   8   4 670.580 108.602   5
   1  -8  -4 604.847 115.519   3
  -1   8   4 624.278 137.317   8
  -1   8   3 8182.34 387.701   8
   1  -8  -3 8411.51 319.611   5
  -1   8   3 8303.03 233.445   2
   1  -8  -3 8369.93 332.196   3
   1  -8  -2 4928.81 256.079   3
   1  -8  -2 5006.99 165.946  11
  -1   8   2 4887.52 294.214   8
   1  -8  -2 4914.89 254.521   5
  -1   8   2 5112.32 204.514   2
   1  -8  -1 7573.92 311.806   3
  -1   8   1 7706.83 268.653   2
  -1   8   1 7792.14 356.004   8
  -1   8   1 8490.72 359.964   4
   1  -8  -1 8065.73 219.681  11
   1  -8  -1 8772.62 338.857   5
   1  -8   0 281.862 85.1044   3
   1  -8   0 222.570 60.0537  11
  -1   8   0 205.605 101.537   8
   1  -8   0 175.748 94.3973   5
  -1   8   0 230.518 94.6365   4
  -1   8   0 279.282 85.9603   2
  -1   8  -1 1307.62 147.718   4
  -1   8  -1 1185.29 71.5806   1
   1  -8   1 1333.09 158.894   5
   1  -8   1 1242.49 114.212  11
  -1   8  -1 1513.36 164.524   8
  -1   8  -1 1505.83 152.242   2
   1  -8   2 2939.77 225.374   5
  -1   8  -2 2789.74 195.991   4
  -1   8  -2 2580.41 127.843   1
  -1   8  -2 2985.97 207.194   8
  -1   8  -3 7648.39 245.753   1
   1  -8   3 8058.32 373.178   5
   1  -8   3 7744.76 233.239  10
  -1   8  -3 7562.51 299.473   8
  -1   8  -3 7780.76 310.831   4
  -1   8  -4 4832.76 243.904   4
  -1   8  -4 4865.37 225.452   1
   1  -8   4 5165.97 315.930   5
   1  -8   4 4745.54 287.048   2
   1  -8   4 4639.70 242.281   4
  -1   8  -4 4584.94 298.819   7
   1  -8   4 4467.64 151.915  10
  -1   8  -4 5039.97 236.684   8
   1  -8   5 2119.71 224.549   5
  -1   8  -5 1799.11 158.108   1
  -1   8  -5 1907.53 215.710   7
  -1   8  -5 1959.06 162.019   4
   1  -8   5 1749.92 196.311   2
  -1   8  -5 2056.32 148.960   8
  -1   8  -6 129.938 110.505   7
   1  -8   6 231.199 117.546   5
  -1   8  -6 158.867 63.4182   8
   1  -8   6 32.6237 106.507   2
  -1   8  -6 184.227 85.1265   1
  -1   8  -6 103.968 74.5820   4
  -1   8  -7 8572.41 316.953   4
   1  -8   7 9122.31 455.342   2
  -1   8  -7 8871.27 385.326   1
  -1   8  -7 8931.53 398.800   9
  -1   8  -7 8683.48 442.314   7
   1  -8   7 9273.96 463.287   5
  -1   8  -8 1136.32 163.505   9
  -1   8  -8 945.694 151.782   1
  -1   8  -8 1338.71 204.828   7
   1  -8   8 1185.75 205.978   2
  -1   8  -9 1671.28 215.545   1
   1  -8   9 1900.08 257.242   2
  -1   8  -9 2003.82 250.743   7
  -1   8  -9 1635.68 180.811   9
   1  -8  10 5273.41 405.462   2
  -1   8 -10 5678.95 374.116   1
  -1   8 -10 5359.21 395.856   7
  -1   8 -11 3003.72 304.094   1
   1  -7 -12 261.173 128.260   3
   1  -7 -11 287.091 150.770   3
  -1   7  11 703.619 179.859   8
  -1   7  10 22.5083 119.049   8
   1  -7 -10 10.8302 123.634   3
  -1   7   9 2868.90 199.969  11
  -1   7   9 3541.78 242.450   9
   1  -7  -9 3497.17 283.740   3
  -1   7   9 3171.69 292.339   8
  -1   7   8 1309.31 131.410  11
  -1   7   8 1118.42 198.457   8
   1  -7  -8 936.868 159.338   3
  -1   7   8 1561.55 178.954   9
  -1   7   7 1270.05 118.857  11
   1  -7  -7 1062.31 159.782   3
  -1   7   7 1553.34 180.671   9
  -1   7   7 1305.10 191.535   8
   1  -7  -7 1090.81 125.376   5
  -1   7   6 9316.97 314.933   5
  -1   7   6 9462.25 428.908   8
   1  -7  -6 9673.48 382.345   3
  -1   7   6 9423.20 278.461  11
   1  -7  -6 9549.28 320.169   5
  -1   7   5 8162.55 292.424   5
  -1   7   5 8239.86 238.878  11
   1  -7  -5 8558.39 216.286   1
  -1   7   5 6989.96 140.410   2
   1  -7  -5 7917.58 331.341   3
  -1   7   5 8311.07 393.916   8
  -1   7   5 6934.26 144.483   2
   1  -7  -5 8705.76 300.468   5
  -1   7   4 14348.5 237.993   2
   1  -7  -4 15162.4 436.123   3
   1  -7  -4 14665.3 385.823   5
  -1   7   4 14116.0 379.154   5
  -1   7   4 13689.9 227.086   2
  -1   7   4 14867.1 503.162   8
   1  -7  -4 13869.1 227.786   1
   1  -7  -3 9230.88 308.983   5
   1  -7  -3 9636.34 341.138   3
  -1   7   3 9543.84 220.658   2
  -1   7   3 9994.55 403.772   8
  -1   7   3 9271.40 313.305   5
   1  -7  -2 110.744 47.1564  11
  -1   7   2 219.403 110.918   8
   1  -7  -2 242.211 72.8557   5
  -1   7   2 213.021 59.3092   2
   1  -7  -2 65.9191 67.7745   3
  -1   7   1 10912.5 288.380   2
   1  -7  -1 10275.1 248.178  11
  -1   7   1 11025.8 392.088   8
   1  -7  -1 10384.5 345.596   3
  -1   7   1 10725.3 373.748   4
   1  -7  -1 10604.4 341.602   5
  -1   7   0 14351.7 415.451   4
   1  -7   0 13854.8 414.828   4
   1  -7   0 13099.1 298.530  11
   1  -7   0 14070.6 402.469   5
  -1   7   0 13449.0 346.986   2
  -1   7   0 14050.9 423.665   8
  -1   7  -1 4609.20 238.204   8
   1  -7   1 4332.53 239.980   5
   1  -7   1 3871.89 216.496   4
  -1   7  -1 3960.60 219.724   4
   1  -7   1 4044.09 186.864  11
  -1   7  -1 4020.03 136.743   1
  -1   7  -1 4198.42 214.425   2
  -1   7  -2 2432.34 126.588   1
   1  -7   2 2399.93 169.364   4
   1  -7   2 2721.22 189.926   2
  -1   7  -2 2566.12 173.696   4
  -1   7  -2 2413.66 181.634   2
   1  -7   2 2428.39 192.665   5
  -1   7  -3 21031.6 405.359   1
  -1   7  -3 21378.7 574.201   7
  -1   7  -3 21021.2 460.527   4
   1  -7   3 21183.0 554.895   5
   1  -7   3 20373.6 455.326   4
   1  -7   3 20753.0 355.959  10
  -1   7  -3 21074.3 454.587   8
   1  -7   3 20284.1 516.370   2
  -1   7  -4 8678.56 292.380   4
  -1   7  -4 8093.49 283.009   1
  -1   7  -4 7694.33 360.543   7
  -1   7  -4 8092.47 271.503   8
   1  -7   4 7628.07 340.385   2
   1  -7   4 7381.32 274.908   4
   1  -7   4 8051.55 362.961   5
   1  -7   4 7958.36 195.785  10
   1  -7   5 256.263 34.6336  10
  -1   7  -5 350.900 74.8229   8
   1  -7   5 485.254 126.394   2
  -1   7  -5 432.326 91.0487   1
  -1   7  -5 539.411 133.847   7
  -1   7  -5 321.585 79.1823   4
   1  -7   5 455.104 84.6969   4
  -1   7  -6 28676.2 618.801   1
  -1   7  -6 28432.4 725.267   7
  -1   7  -6 28147.0 647.405   9
  -1   7  -6 29119.0 525.548   4
   1  -7   6 28321.7 718.672   2
  -1   7  -6 28514.3 415.707   8
  -1   7  -7 1709.90 181.543   1
   1  -7   7 1768.22 205.607   2
  -1   7  -7 1838.06 211.180   7
  -1   7  -7 1581.13 134.438   4
  -1   7  -7 1466.71 167.488   9
  -1   7  -8 4325.65 290.545   1
   1  -7   8 4400.80 331.419   2
  -1   7  -8 4608.55 274.116   9
  -1   7  -8 4505.23 321.330   7
  -1   7  -8 4373.06 213.695   4
  -1   7  -9 1038.98 176.980   7
  -1   7  -9 930.144 132.350   9
   1  -7   9 882.580 187.870   2
  -1   7  -9 1278.75 187.263   1
  -1   7 -10 600.850 170.949   7
  -1   7 -10 561.152 149.320   1
   1  -7  10 226.084 149.008   2
  -1   7 -11 889.714 181.070   1
  -1   7 -11 732.266 183.426   7
  -1   6  12 3611.49 318.985   8
   1  -6 -12 4095.63 344.666   3
   1  -6 -11 1084.48 199.409   7
  -1   6  11 1240.33 199.873   8
   1  -6 -11 1405.71 220.266   3
  -1   6  11 1088.01 161.662  11
   1  -6 -10 6900.63 396.932   3
  -1   6  10 6895.48 405.323   8
  -1   6  10 6790.71 333.903  11
   1  -6  -9 1793.63 211.477   3
  -1   6   9 1328.63 151.389  11
  -1   6   9 1604.52 205.455   8
  -1   6   9 1671.49 157.928   9
   1  -6  -8 31462.6 737.129   3
  -1   6   8 29961.3 598.056  11
  -1   6   8 30583.4 772.912   8
  -1   6   8 31000.6 625.663   9
  -1   6   7 2806.35 239.425   8
  -1   6   7 2866.96 175.077   5
  -1   6   7 2976.32 208.729   9
  -1   6   7 2645.39 173.725  11
   1  -6  -7 2795.41 226.375   3
  -1   6   7 2416.64 87.4138   2
  -1   6   6 22570.3 450.439   5
   1  -6  -6 21574.0 549.275   3
  -1   6   6 21246.6 435.854  11
  -1   6   6 22444.8 617.637   8
  -1   6   6 22082.1 535.217   9
   1  -6  -6 22175.0 447.627   5
  -1   6   5 15977.0 506.798   8
   1  -6  -5 15437.7 365.330   5
  -1   6   5 15466.3 342.616  11
  -1   6   5 12344.8 168.791   2
  -1   6   5 15073.3 360.801   5
   1  -6  -5 15000.2 436.232   3
  -1   6   4 13189.9 292.705  11
  -1   6   4 13287.5 446.071   8
   1  -6  -4 13682.7 264.470   1
  -1   6   4 12148.7 185.343   2
  -1   6   4 12020.0 179.371   2
  -1   6   4 12867.0 330.009   5
   1  -6  -4 12768.2 384.894   3
   1  -6  -4 13261.1 332.289   5
   1  -6  -3 3572.06 201.545   3
   1  -6  -3 3709.74 120.340   1
  -1   6   3 3867.67 241.884   8
   1  -6  -3 3629.55 179.109   5
  -1   6   3 3684.30 119.122   2
  -1   6   3 3883.41 184.208   5
   1  -6  -2 2387.61 181.804   4
   1  -6  -2 2858.33 131.829  11
   1  -6  -2 2287.81 83.0229   1
  -1   6   2 2609.77 194.902   8
   1  -6  -2 2702.96 158.433   5
  -1   6   2 2712.90 118.570   2
   1  -6  -2 2486.04 169.733   3
  -1   6   1 7588.69 301.974   8
  -1   6   1 7898.17 297.109   4
  -1   6   1 7807.00 221.304   2
   1  -6  -1 7578.77 279.351   3
   1  -6  -1 7784.14 266.080   5
   1  -6  -1 7734.42 294.263   4
   1  -6  -1 7869.05 214.823  11
  -1   6   0 4521.02 217.020   4
   1  -6   0 4630.83 176.164  11
   1  -6   0 5032.64 221.713   5
   1  -6   0 4601.26 221.887   4
  -1   6   0 4435.33 225.934   8
  -1   6   0 4534.22 186.424   2
   1  -6   1 5069.90 221.540   4
   1  -6   1 5177.72 236.608   5
  -1   6  -1 5062.48 213.839   2
  -1   6  -1 4926.38 227.155   8
  -1   6  -1 4942.06 218.337   4
  -1   6  -1 4930.23 153.105   1
   1  -6   1 5049.07 211.787   2
   1  -6   2 14581.1 407.855   5
   1  -6   2 13942.4 348.935   4
  -1   6  -2 14395.1 352.773   4
  -1   6  -2 14335.7 294.385   1
  -1   6  -2 14191.0 377.586   2
   1  -6   2 14265.2 379.308   2
  -1   6  -3 9212.15 276.112   4
   1  -6   3 9500.81 332.779   2
  -1   6  -3 9437.12 360.971   7
  -1   6  -3 9677.00 279.794   8
   1  -6   3 9284.78 345.715   5
   1  -6   3 9027.75 274.831   4
  -1   6  -3 9205.68 326.573   2
  -1   6  -3 9065.29 266.012   1
   1  -6   3 9348.00 226.969  10
  -1   6  -4 4504.04 210.826   1
  -1   6  -4 4619.41 196.066   4
  -1   6  -4 4445.01 180.649   8
   1  -6   4 4256.38 189.974   4
  -1   6  -4 4283.29 256.209   7
   1  -6   4 4361.32 142.313  10
   1  -6   4 4174.25 247.270   2
  -1   6  -5 7986.94 354.826   7
   1  -6   5 8714.08 266.757   4
  -1   6  -5 8827.12 264.560   4
  -1   6  -5 8406.59 221.650   8
   1  -6   5 7905.15 169.397  10
  -1   6  -5 8596.96 313.374   1
   1  -6   5 8946.48 371.224   2
   1  -6   6 1568.37 193.085   2
  -1   6  -6 1061.50 139.959   9
  -1   6  -6 1092.20 152.017   7
  -1   6  -6 1417.11 156.045   1
  -1   6  -6 1207.76 77.6289   8
  -1   6  -6 1120.40 106.182   4
  -1   6  -7 30237.5 734.140   7
  -1   6  -7 30566.3 614.396   9
   1  -6   7 30936.4 756.188   2
  -1   6  -7 30895.0 500.563   4
  -1   6  -7 30085.1 673.757   1
  -1   6  -8 2123.26 219.926   7
  -1   6  -8 2119.12 141.064   4
   1  -6   8 1967.97 225.434   2
  -1   6  -8 2124.22 170.678   9
  -1   6  -8 2302.23 216.157   1
  -1   6  -9 3681.90 293.919   7
   1  -6   9 4043.86 324.929   2
  -1   6  -9 3920.05 221.365   9
  -1   6  -9 3651.62 281.625   1
  -1   6  -9 3579.38 185.939   4
  -1   6 -10 1782.14 226.098   7
   1  -6  10 1701.31 237.593   2
  -1   6 -10 2024.44 234.008   1
   1  -6  11 599.299 190.222   2
  -1   6 -11 542.468 177.483   1
  -1   6 -11 473.185 156.102   7
  -1   6 -12 2290.64 279.758   1
  -1   5  13 78.3913 135.469   8
  -1   5  13 147.357 133.726  11
  -1   5  12 1048.23 179.593  11
   1  -5 -12 976.152 207.319   3
   1  -5 -12 1199.30 221.354   7
  -1   5  12 827.774 162.453   8
  -1   5  11 375.139 129.910   8
  -1   5  11 253.396 113.501  11
   1  -5 -11 391.855 186.370   3
   1  -5 -11 665.393 170.644   7
  -1   5  10 61.4731 102.780   8
   1  -5 -10 272.241 131.477   3
   1  -5 -10 183.614 126.184   7
  -1   5  10 96.6288 99.4824  11
  -1   5   9 8005.41 284.046   9
  -1   5   9 8002.31 398.459   8
  -1   5   9 7688.54 229.298   2
   1  -5  -9 7969.61 394.395   3
  -1   5   9 7538.74 339.521  11
  -1   5   8 2289.57 183.497  11
  -1   5   8 1951.02 107.016   2
  -1   5   8 2045.38 148.999   5
  -1   5   8 2111.84 213.260   8
  -1   5   8 2109.85 155.750   9
   1  -5  -8 2150.72 207.801   3
  -1   5   7 7675.98 294.545  11
  -1   5   7 7794.95 264.839   5
   1  -5  -7 8188.51 356.716   3
  -1   5   7 8578.63 378.326   8
  -1   5   7 7754.16 179.405   2
  -1   5   7 7901.40 291.260   9
  -1   5   6 1507.52 177.530   8
  -1   5   6 1368.02 67.5494   2
  -1   5   6 1586.85 149.731   9
  -1   5   6 1369.77 112.693   5
  -1   5   6 1592.49 137.271  11
   1  -5  -6 1483.64 168.155   3
   1  -5  -6 1580.50 122.730   5
  -1   5   5 13192.2 395.873   3
  -1   5   5 13404.9 381.970   9
   1  -5  -5 13016.7 395.986   3
  -1   5   5 12921.3 322.745  11
  -1   5   5 12717.0 301.729   5
  -1   5   5 13666.1 440.567   8
   1  -5  -5 12748.0 303.357   5
  -1   5   4 3383.79 155.932  11
  -1   5   4 3355.34 197.300   3
  -1   5   4 2502.68 69.4947   2
  -1   5   4 3083.14 209.051   8
   1  -5  -4 3310.21 152.424   5
  -1   5   4 3458.40 156.018   5
   1  -5  -4 3269.37 195.408   3
   1  -5  -3 26381.4 411.377   5
  -1   5   3 26520.6 557.175   8
  -1   5   3 26459.8 392.406  11
  -1   5   3 26133.0 408.581   5
   1  -5  -3 26255.0 544.597   4
   1  -5  -3 25517.5 494.324   3
   1  -5  -3 26645.5 349.918   1
   1  -5  -3 25951.5 395.081  11
  -1   5   3 22115.2 223.289   2
  -1   5   3 23782.7 235.924   2
   1  -5  -2 15877.1 404.369   4
  -1   5   2 16345.0 325.447   5
   1  -5  -2 15706.3 320.515   5
  -1   5   2 16111.5 230.989   2
   1  -5  -2 15689.8 292.441  11
  -1   5   2 16139.8 417.768   8
   1  -5  -2 16115.3 379.426   3
   1  -5  -2 16211.1 242.716   1
   1  -5  -1 61492.5 742.205   4
   1  -5  -1 62549.5 810.343   7
  -1   5   1 60577.5 765.827   8
  -1   5   1 62375.2 524.943   2
   1  -5  -1 61630.6 443.861   1
   1  -5  -1 62125.8 577.508  11
   1  -5  -1 62120.6 652.678   5
   1  -5  -1 61279.9 722.160   3
   1  -5   0 7344.77 248.175   4
   1  -5   0 7301.51 209.085  11
  -1   5   0 6914.11 253.135   8
  -1   5   0 7067.68 244.430   4
   1  -5   0 7481.21 281.995   7
   1  -5   0 7312.72 237.400   5
  -1   5   0 7351.53 209.321   2
  -1   5   0 7539.97 166.440   1
   1  -5   1 2921.32 149.512   2
  -1   5  -1 2802.36 148.993   4
  -1   5  -1 2913.51 150.219   2
   1  -5   1 2978.87 166.479   5
   1  -5   1 2684.08 148.650   4
  -1   5  -1 3109.38 165.979   8
  -1   5  -1 2769.53 116.505   1
   1  -5   1 2992.11 182.817   7
  -1   5  -2 61371.6 596.110   1
  -1   5  -2 62912.4 815.472   7
   1  -5   2 60884.3 807.243   7
   1  -5   2 59580.7 629.911   4
  -1   5  -2 60074.4 651.286   8
   1  -5   2 61244.7 722.457   2
  -1   5  -2 61027.0 715.634   2
  -1   5  -2 60217.2 632.598   4
  -1   5  -3 4521.29 170.632   8
   1  -5   3 4876.37 156.674  10
  -1   5  -3 4608.81 220.238   2
  -1   5  -3 4546.64 173.535   4
  -1   5  -3 4280.80 181.035   1
   1  -5   3 4797.02 227.294   2
  -1   5  -3 4506.45 234.944   7
   1  -5   3 4824.88 239.217   7
   1  -5   3 4344.21 170.944   4
  -1   5  -4 1770.76 159.749   2
  -1   5  -4 1703.35 159.922   7
   1  -5   4 1544.57 148.023   7
   1  -5   4 1975.34 170.803   2
   1  -5   4 1667.94 108.896   4
   1  -5   4 1744.16 90.6094  10
  -1   5  -4 1733.49 112.072   4
  -1   5  -4 1697.04 97.9538   8
  -1   5  -4 1742.40 134.318   1
  -1   5  -5 7582.85 284.327   9
  -1   5  -5 6661.34 206.179   4
  -1   5  -5 7201.59 319.664   7
  -1   5  -5 7603.02 290.224   1
   1  -5   5 6992.69 168.203  10
  -1   5  -5 7307.15 170.706   8
   1  -5   5 7432.67 325.115   2
  -1   5  -6 34269.6 651.667   1
  -1   5  -6 34180.2 708.840   7
   1  -5   6 34516.8 719.809   2
  -1   5  -6 34376.9 468.300   4
  -1   5  -6 34318.7 594.697   9
   1  -5   7 1198.04 177.646   2
  -1   5  -7 1089.32 160.553   7
  -1   5  -7 1075.22 123.075   9
  -1   5  -7 951.458 93.0979   4
   1  -5   8 3740.66 282.244   2
  -1   5  -8 3508.44 166.883   4
  -1   5  -8 3421.32 191.500   9
  -1   5  -8 3635.67 265.322   7
  -1   5  -9 4983.92 221.772   9
   1  -5   9 5418.45 348.735   2
  -1   5  -9 5093.50 210.551   4
  -1   5  -9 5499.06 339.829   7
   1  -5  10-31.0219 132.240   2
  -1   5 -10 142.425 99.8293   7
  -1   5 -10 8.52364 52.1186   4
  -1   5 -10 139.744 57.3364   9
   1  -5  11 1405.48 222.812   2
  -1   5 -11 1693.06 222.615   7
   1  -5  12 441.833 178.801   2
  -1   5 -12 372.309 120.522   7
  -1   4  13 935.719 184.689   8
  -1   4  13 959.931 199.645  11
   1  -4 -13 1163.36 221.861   3
  -1   4  12 966.269 168.457   8
   1  -4 -12 1338.58 217.428   3
  -1   4  12 897.515 171.596  11
   1  -4 -12 1319.76 218.926   7
   1  -4 -11 7557.84 434.340   7
   1  -4 -11 7600.11 427.635   3
  -1   4  11 7382.12 386.298  11
  -1   4  11 7334.99 390.240   8
  -1   4  10 121.335 102.547   8
   1  -4 -10 65.2892 106.242   3
  -1   4  10 218.014 75.4018   2
  -1   4  10 289.644 106.720  11
   1  -4 -10 149.590 114.818   7
   1  -4  -9 4561.98 299.154   3
  -1   4   9 4483.49 284.012   8
  -1   4   9 4081.12 187.715   2
  -1   4   9 4249.52 264.521  11
  -1   4   9 4076.75 178.574   9
  -1   4   9 4319.99 220.556   5
  -1   4   8 1189.62 110.268   9
   1  -4  -8 963.232 155.575   3
  -1   4   8 1020.78 139.979   8
  -1   4   8 1011.18 136.166  11
  -1   4   8 1131.20 115.133   5
  -1   4   8 1085.07 96.3279   2
  -1   4   7 4374.67 152.313   2
  -1   4   7 4405.74 190.761   5
  -1   4   7 4491.29 198.672   9
  -1   4   7 4688.74 241.824  11
  -1   4   7 4561.05 265.145   8
   1  -4  -7 4678.67 272.979   3
   1  -4  -6 1883.58 174.730   3
  -1   4   6 2001.33 91.2911   2
  -1   4   6 1784.44 118.164   5
  -1   4   6 2044.43 144.425   9
  -1   4   6 2103.43 158.018  11
  -1   4   6 2009.37 177.737   8
   1  -4  -5 2966.43 191.789   3
   1  -4  -5 2551.74 128.339   5
  -1   4   5 2456.38 174.655   3
  -1   4   5 2434.28 151.263  11
  -1   4   5 2468.38 190.235   8
  -1   4   5 2358.76 79.2926   2
  -1   4   5 2440.16 125.403   5
  -1   4   5 2317.09 154.565   9
  -1   4   4 25997.7 366.020   5
   1  -4  -4 25518.1 531.767   4
   1  -4  -4 26006.8 367.539   5
  -1   4   4 25905.3 424.271  11
  -1   4   4 25987.4 474.986   9
  -1   4   4 25816.8 534.718   8
  -1   4   4 26059.3 502.136   3
   1  -4  -4 26084.3 503.054   3
   1  -4  -3 16955.3 409.151   4
   1  -4  -3 16924.4 284.684   5
  -1   4   3 18110.8 328.089  11
   1  -4  -3 17717.9 392.461   3
  -1   4   3 17274.7 415.818   8
   1  -4  -3 17550.9 328.838  11
  -1   4   3 16974.8 284.980   5
  -1   4   3 17174.8 386.870   3
  -1   4   2 2622.08 120.638  11
   1  -4  -2 2795.41 110.968   1
   1  -4  -2 2552.73 120.855  11
   1  -4  -2 2642.65 118.160   5
  -1   4   2 2177.01 66.0169   2
  -1   4   2 2369.61 112.200   5
   1  -4  -2 2499.09 150.420   3
   1  -4  -2 2633.66 157.764   4
  -1   4   2 2605.27 166.133   8
  -1   4   1 272.484 40.2877   2
   1  -4  -1 239.064 66.9493   3
   1  -4  -1 188.508 64.6610   4
   1  -4  -1 194.525 38.1176   1
   1  -4  -1 217.426 48.9365  11
   1  -4  -1 242.555 52.0951   5
  -1   4   1 218.917 72.9161   8
   1  -4   0 20964.4 368.626   4
  -1   4   0 20319.1 272.736   1
  -1   4   0 20687.2 386.094   8
   1  -4   0 21073.6 350.196   5
   1  -4   0 20359.5 328.548  11
  -1   4   0 20709.5 299.536   2
  -1   4   0 20343.6 362.698   4
   1  -4   0 21093.7 420.876   7
   1  -4   0 21070.3 305.630   2
   1  -4   0 20981.6 275.330   1
   1  -4   1 1278.62 117.435   7
  -1   4  -1 1233.51 94.2405   4
  -1   4  -1 1150.53 89.9886   2
   1  -4   1 1125.04 89.6322   4
  -1   4  -1 1203.91 79.0939   1
  -1   4  -1 1384.56 104.703   8
   1  -4   1 1254.21 96.0055   2
   1  -4   2 71422.3 591.968   4
   1  -4   2 72555.6 722.852   2
  -1   4  -2 71875.7 628.752   1
  -1   4  -2 71252.3 614.063   8
  -1   4  -2 71618.7 592.660   4
  -1   4  -2 71345.8 704.460   2
  -1   4  -2 69387.8 788.881   7
   1  -4   2 72566.3 595.818  10
   1  -4   2 72701.5 800.091   7
  -1   4  -3 22292.6 316.424   4
  -1   4  -3 21519.0 307.069   8
   1  -4   3 22411.2 444.136   2
   1  -4   3 21271.6 310.915   4
   1  -4   3 21508.6 308.631  10
  -1   4  -3 22377.2 435.044   2
  -1   4  -3 22401.4 463.795   7
  -1   4  -3 22022.5 389.972   1
   1  -4   3 21701.3 456.198   7
  -1   4  -4 10093.4 321.426   2
  -1   4  -4 9328.72 283.944   9
  -1   4  -4 9594.36 207.298   4
   1  -4   4 9549.97 208.088   4
  -1   4  -4 9497.63 287.370   1
   1  -4   4 9404.48 319.355   7
  -1   4  -4 9454.28 177.098   8
   1  -4   4 9533.75 202.363  10
   1  -4   4 9773.53 318.509   2
  -1   4  -4 9218.00 317.614   7
  -1   4  -5 3419.31 131.085   4
  -1   4  -5 3416.50 195.089   1
   1  -4   5 3254.57 124.479  10
   1  -4   5 3179.20 205.087   2
  -1   4  -5 3527.45 179.251   9
  -1   4  -5 3096.15 199.238   2
   1  -4   5 3124.85 200.820   3
   1  -4   5 3203.76 204.000   7
  -1   4  -5 3086.85 197.954   7
  -1   4  -6 5759.05 282.598   7
   1  -4   6 5443.45 281.534   2
  -1   4  -6 5487.38 217.507   9
  -1   4  -6 5860.89 170.349  10
  -1   4  -6 5612.17 172.316   4
  -1   4  -7 567.027 68.5415  10
  -1   4  -7 559.441 86.8195   9
  -1   4  -7 414.919 64.4335   4
  -1   4  -7 360.753 111.711   7
   1  -4   7 848.208 154.291   2
  -1   4  -8 2073.17 201.288   7
  -1   4  -8 2295.97 125.324  10
   1  -4   8 1903.86 207.597   2
  -1   4  -8 1999.57 134.403   9
  -1   4  -8 1972.65 124.017   4
  -1   4  -9 5921.41 210.354   9
   1  -4   9 6635.35 369.714   2
  -1   4  -9 6118.13 342.097   7
  -1   4  -9 6466.39 217.096  10
  -1   4  -9 5993.96 220.859   4
  -1   4 -10 7222.85 394.969   7
  -1   4 -10 7387.42 213.385   9
  -1   4 -10 7510.83 262.375   4
   1  -4  10 7089.68 402.424   2
  -1   4 -10 8137.18 260.147  10
   1  -4  11 181.915 136.803   2
  -1   4 -11 235.583 119.323   7
   1  -4  12 1183.76 213.793   2
  -1   4 -12 1256.73 208.696   7
   1  -4  13 2868.37 310.521   2
  -1   3  13 578.374 137.774   8
   1  -3 -13 675.990 184.716   3
   1  -3 -12 203.698 120.970   7
  -1   3  12 271.669 125.300   8
   1  -3 -12 279.432 127.972   3
  -1   3  12 134.468 136.618  11
  -1   3  11 1953.36 200.739   8
  -1   3  11 1968.39 177.185   2
   1  -3 -11 2459.30 259.553   7
   1  -3 -11 1856.34 224.158   3
  -1   3  11 1603.59 203.897  11
  -1   3  10 116.371 96.6217   8
  -1   3  10 150.404 86.2763   2
   1  -3 -10 76.4903 103.919   7
  -1   3  10 232.699 119.206  11
   1  -3 -10 53.6339 114.630   3
   1  -3  -9 5759.01 164.188   6
  -1   3   9 6483.41 328.224  11
  -1   3   9 6349.73 260.801   5
   1  -3  -9 6798.37 360.210   7
   1  -3  -9 6348.29 346.410   3
  -1   3   9 6653.06 325.019   8
   1  -3  -9 5523.03 230.084   2
  -1   3   9 6035.82 176.216   9
  -1   3   9 6571.22 255.414   2
  -1   3   8 736.399 133.029  11
   1  -3  -8 600.039 70.8874   6
  -1   3   8 644.941 119.905   8
  -1   3   8 609.563 70.0484   9
  -1   3   8 705.332 89.6771   5
  -1   3   8 791.883 96.1564   2
   1  -3  -8 470.032 74.3660   2
   1  -3  -8 681.811 134.804   3
  -1   3   7 5332.32 205.951   5
  -1   3   7 5681.02 278.075   8
   1  -3  -7 5111.88 179.676   2
  -1   3   7 5423.30 188.863   2
  -1   3   7 5697.85 193.860   9
  -1   3   7 5338.99 261.669  11
   1  -3  -7 5477.62 287.115   3
  -1   3   6 3045.38 200.499   3
  -1   3   6 3175.32 127.070   2
   1  -3  -6 3188.68 214.111   3
  -1   3   6 3373.03 149.125   5
  -1   3   6 2870.72 180.100  11
  -1   3   6 3140.38 149.925   9
  -1   3   6 3285.57 205.489   8
   1  -3  -6 2965.10 119.733   2
  -1   3   5 12824.9 370.687   3
  -1   3   5 13677.4 263.507   5
   1  -3  -5 12229.1 198.351   2
  -1   3   5 13050.4 335.504  11
  -1   3   5 12944.2 375.771   8
  -1   3   5 12968.9 296.316   9
   1  -3  -5 12867.4 371.279   3
  -1   3   5 12938.7 207.573   2
   1  -3  -4 7307.25 261.833   3
  -1   3   4 7373.48 270.063   8
  -1   3   4 6734.47 223.314  11
  -1   3   4 6923.69 255.463   3
  -1   3   4 7408.22 229.031   9
  -1   3   4 7017.67 170.911   5
  -1   3   3 7625.44 159.204   5
   1  -3  -3 7512.37 250.282   3
  -1   3   3 7779.41 217.146  11
  -1   3   3 7923.62 253.518   3
  -1   3   3 7265.31 255.660   8
  -1   3   3 7723.99 233.525   9
   1  -3  -3 7810.20 161.697   5
   1  -3  -2 36834.9 506.366   3
  -1   3   2 36563.6 428.803  11
  -1   3   2 36139.0 494.537   9
  -1   3   2 36852.3 525.108   8
   1  -3  -2 36082.5 432.135  11
  -1   3   2 37721.2 511.249   3
   1  -3  -2 36946.1 512.798   4
   1  -3  -2 37180.7 333.056   5
  -1   3   2 36623.9 331.155   5
   1  -3  -1 2690.73 115.451  11
  -1   3   1 2497.03 68.0672   2
  -1   3   1 2596.80 143.132   8
  -1   3   1 2592.51 142.540   9
   1  -3  -1 2520.11 130.579   4
   1  -3  -1 2503.29 96.2431   5
   1  -3  -1 2501.94 101.107   1
   1  -3  -1 2758.11 142.778   3
  -1   3   1 2773.02 117.793  11
  -1   3   0 92762.6 579.433   1
  -1   3   0 92895.6 725.922   8
   1  -3   0 94058.9 549.169   2
   1  -3   0 94674.7 619.898   5
   1  -3   0 93643.2 578.627   1
   1  -3   0 93943.3 656.511  11
  -1   3   0 92572.1 791.174   9
   1  -3   0 94052.2 672.123   4
   1  -3   0 92735.7 781.246   7
  -1   3   0 92668.6 533.117   2
  -1   3  -1 7552.45 229.915   9
   1  -3   1 7844.89 232.889   7
   1  -3   1 7737.65 176.082   4
   1  -3   1 7436.56 189.504   2
   1  -3   1 7486.29 179.987   1
  -1   3  -1 7944.41 179.189   4
  -1   3  -1 7812.74 196.048   8
  -1   3  -1 7500.90 185.558   2
  -1   3  -1 7598.06 181.831   1
  -1   3  -1 7718.58 233.365   7
  -1   3  -2 111539. 803.151   2
   1  -3   2 110756. 814.668   2
  -1   3  -2 110337. 648.305   8
  -1   3  -2 107160. 878.449   7
  -1   3  -2 108850. 587.621   4
  -1   3  -2 112551. 863.183   9
   1  -3   2 111266. 687.676  10
  -1   3  -2 110604. 757.968   1
   1  -3   2 111066. 890.261   7
   1  -3   2 109333. 588.986   4
   1  -3   3 5163.40 122.654   4
   1  -3   3 5564.85 208.777   2
  -1   3  -3 5156.35 210.368   7
   1  -3   3 5438.26 214.896   7
  -1   3  -3 5402.83 125.672   4
  -1   3  -3 5185.60 193.199   9
   1  -3   3 5273.89 152.323  10
  -1   3  -3 5394.21 191.988   1
  -1   3  -3 5701.29 210.238   2
  -1   3  -3 5484.43 125.612   8
  -1   3  -4 14068.1 352.064   2
   1  -3   4 13785.3 357.161   7
  -1   3  -4 13591.7 354.714   7
  -1   3  -4 14257.5 308.849   9
   1  -3   4 13649.8 353.781   2
   1  -3   4 13299.7 244.338  10
  -1   3  -4 13842.2 334.421   1
  -1   3  -4 13609.2 201.371   4
  -1   3  -4 13880.8 246.830  10
  -1   3  -5 29244.4 436.082   9
  -1   3  -5 29420.7 547.693   2
  -1   3  -5 28453.3 316.534   4
  -1   3  -5 29434.7 552.529   7
   1  -3   5 28750.1 548.150   3
   1  -3   5 28310.3 541.780   7
  -1   3  -5 28922.9 373.427  10
   1  -3   5 28603.7 548.912   2
  -1   3  -6 8584.77 221.602  10
   1  -3   6 8386.26 328.221   2
   1  -3   6 8541.44 325.538   3
  -1   3  -6 8712.44 238.463   9
  -1   3  -6 8567.53 321.814   7
  -1   3  -6 8424.64 193.591   4
   1  -3   6 8972.56 331.656   7
  -1   3  -6 8823.09 326.258   2
   1  -3   7 7223.69 328.229   2
  -1   3  -7 7186.40 215.924   9
  -1   3  -7 7442.99 222.936  10
  -1   3  -7 6909.33 196.806   4
  -1   3  -7 7365.27 319.217   7
  -1   3  -8 4545.99 191.879  10
  -1   3  -8 4418.29 175.498   4
  -1   3  -8 4613.81 275.144   7
  -1   3  -8 4576.11 165.731   9
   1  -3   8 4331.98 281.215   2
  -1   3  -9 1829.08 192.654   7
  -1   3  -9 1400.46 87.4718   9
  -1   3  -9 1562.25 126.725  10
   1  -3   9 1949.51 216.067   2
   1  -3   9 1484.74 96.4100   6
  -1   3  -9 1277.05 112.787   4
  -1   3 -10 3846.33 279.553   7
  -1   3 -10 4027.48 204.843  10
  -1   3 -10 3498.26 185.408   4
  -1   3 -10 3205.34 105.051   9
   1  -3  10 4220.67 305.125   2
  -1   3 -11 2761.30 184.937  10
   1  -3  11 3267.19 294.752   2
  -1   3 -11 2357.15 165.225   4
  -1   3 -11 2591.93 253.120   7
  -1   3 -12 270.688 137.735   7
   1  -3  12-39.0868 122.840   2
  -1   3 -13 20.9239 116.461   7
   1  -3  13 21.1349 128.414   2
  -1   2  13 3218.18 319.428  11
   1  -2 -13 3014.68 311.365   3
   1  -2 -13 3223.68 314.615   7
   1  -2 -12 5437.47 377.560   3
  -1   2  12 5476.43 317.784   8
  -1   2  12 4630.48 345.843  11
  -1   2  12 5004.78 298.012   2
   1  -2 -12 5803.82 381.218   7
  -1   2  11 574.293 158.510  11
  -1   2  11 584.589 123.335   8
   1  -2 -11 527.397 163.795   3
   1  -2 -11 456.848 129.837   7
  -1   2  11 401.479 115.318   2
   1  -2 -10 1288.40 178.724   7
  -1   2  10 1101.08 171.697  11
  -1   2  10 1156.25 153.812   8
   1  -2 -10 954.466 168.810   3
  -1   2  10 1040.60 139.523   2
  -1   2   9 18860.7 450.242   2
  -1   2   9 18001.6 542.321  11
   1  -2  -9 18825.0 579.471   3
   1  -2  -9 18772.9 561.876   7
  -1   2   9 18577.2 447.961   5
   1  -2  -9 17616.8 427.937   2
  -1   2   9 17450.2 492.918   8
  -1   2   8 3260.46 113.909   9
  -1   2   8 3784.96 191.864   5
  -1   2   8 3652.78 194.793   2
  -1   2   8 3301.55 215.025   8
  -1   2   8 3668.37 243.759  11
   1  -2  -8 3365.51 178.323   2
   1  -2  -8 3026.31 104.246   6
   1  -2  -8 4024.89 254.176   7
   1  -2  -8 3785.32 258.300   3
   1  -2  -7 35370.7 693.400   3
   1  -2  -7 34619.1 673.111   7
   1  -2  -7 32694.1 373.278   6
  -1   2   7 34128.8 388.991   9
  -1   2   7 34166.5 623.432   8
  -1   2   7 35052.6 516.123   5
  -1   2   7 34209.0 647.868  11
   1  -2  -7 32897.8 482.466   2
  -1   2   7 33513.4 501.790   2
  -1   2   6 7422.14 286.091  11
  -1   2   6 8150.10 311.916   3
   1  -2  -6 8203.12 219.252   2
   1  -2  -6 7719.71 192.178   6
  -1   2   6 8179.47 292.040   8
   1  -2  -6 8600.61 325.030   3
  -1   2   6 8107.09 227.363   5
  -1   2   6 8062.45 221.618   2
  -1   2   6 7926.59 197.390   9
  -1   2   5 73286.7 853.684   3
  -1   2   5 70949.4 788.513  11
   1  -2  -5 70574.8 545.073   2
   1  -2  -5 71972.6 850.836   3
  -1   2   5 71118.5 558.136   2
  -1   2   5 70790.9 595.788   9
  -1   2   5 70394.9 807.830   8
   1  -2  -5 71353.1 818.341   8
  -1   2   5 73045.0 590.609   5
   1  -2  -4 159195. 668.544   2
  -1   2   4 157205. 1137.69   8
   1  -2  -4 159821. 1163.51   3
  -1   2   4 158320. 1075.50  11
  -1   2   4 160825. 740.241   5
  -1   2   4 158493. 898.025   9
   1  -2  -4 160279. 1154.35   8
  -1   2   4 156463. 683.173   2
  -1   2   4 160215. 1164.17   3
  -1   2   3 51284.2 511.832   9
  -1   2   3 51826.2 607.512   3
   1  -2  -3 51957.0 616.738   8
  -1   2   3 51301.6 341.767   5
  -1   2   3 51938.2 611.734   8
   1  -2  -3 47158.0 266.795   2
  -1   2   3 52296.5 560.747  11
   1  -2  -3 51181.9 608.592   3
   1  -2  -2 45067.1 526.585   3
  -1   2   2 41344.8 251.003   5
  -1   2   2 44611.2 530.643   8
   1  -2  -2 44822.5 534.609   8
  -1   2   2 44608.0 480.123   9
  -1   2   2 45475.1 527.379   3
   1  -2  -2 44257.3 475.946  11
  -1   2   2 44071.6 469.308  11
   1  -2  -2 43071.1 256.824   5
  -1   2   1 1034.48 85.9707   9
  -1   2   1 1072.52 78.0835  11
   1  -2  -1 855.633 83.4090   8
   1  -2  -1 983.458 79.4089  11
   1  -2  -1 958.974 44.6663   5
   1  -2  -1 923.517 68.2676   1
   1  -2  -1 893.435 84.0308   3
  -1   2   1 938.539 86.8014   8
   1  -2   0 6991.02 182.653   8
   1  -2   0 6768.92 160.066   1
  -1   2   0 7140.50 164.527   1
  -1   2   0 6903.08 191.819   9
  -1   2   0 6940.17 125.477   2
   1  -2   0 6966.29 127.696   2
   1  -2   0 6821.43 173.679  11
  -1   2   0 7308.47 183.141   8
   1  -2   0 6925.28 186.227   7
   1  -2   1 9566.45 189.652   2
  -1   2  -1 9382.84 223.576   7
   1  -2   1 8962.07 195.865  10
   1  -2   1 9642.46 186.477   8
  -1   2  -1 9544.63 197.756   1
   1  -2   1 9314.71 221.110   7
  -1   2  -1 9030.39 220.218   9
   1  -2   1 9025.19 149.289   4
   1  -2   1 9315.71 196.660   1
  -1   2  -1 9331.74 184.660   2
  -1   2  -1 9648.89 185.238   8
   1  -2   2 51717.8 509.273   2
   1  -2   2 50872.9 446.213  10
   1  -2   2 51922.5 367.377   8
   1  -2   2 52025.0 504.232   1
  -1   2  -2 51092.0 448.176  10
  -1   2  -2 51636.2 500.608   1
  -1   2  -2 52575.3 364.954   8
  -1   2  -2 50721.3 539.145   7
   1  -2   2 49001.6 274.809   4
   1  -2   2 52006.7 543.020   7
  -1   2  -2 51408.8 511.776   9
  -1   2  -2 50876.2 503.531   2
   1  -2   3 6309.62 166.049  10
   1  -2   3 6386.81 208.550   2
  -1   2  -3 6439.82 204.329   1
   1  -2   3 6644.69 216.061   7
  -1   2  -3 6878.34 211.770   2
  -1   2  -3 6628.70 216.859   7
  -1   2  -3 6446.17 168.164  10
  -1   2  -3 6427.64 185.555   9
  -1   2  -4 9281.01 276.602   7
  -1   2  -4 10125.3 283.578   2
  -1   2  -4 9385.19 219.843   9
   1  -2   4 9768.40 279.889   2
  -1   2  -4 9770.62 216.594  10
  -1   2  -4 8910.91 134.021   4
  -1   2  -4 9253.59 269.458   1
   1  -2   4 9256.49 272.723   7
   1  -2   4 9526.92 216.502  10
   1  -2   5 22304.6 461.784   3
  -1   2  -5 22065.3 349.315  10
  -1   2  -5 22213.8 330.919   9
  -1   2  -5 21147.1 254.830   4
   1  -2   5 21868.0 453.390   7
   1  -2   5 21900.8 458.235   2
  -1   2  -5 22189.7 452.947   7
  -1   2  -5 22372.0 459.794   2
  -1   2  -6 8880.77 243.093  10
  -1   2  -6 8986.05 314.692   7
   1  -2   6 9180.95 319.639   7
  -1   2  -6 9087.03 316.287   2
  -1   2  -6 8903.32 207.572   9
   1  -2   6 8600.46 316.263   2
   1  -2   6 9332.62 327.107   3
   1  -2   7 21118.9 523.439   2
   1  -2   7 21575.5 316.813   6
  -1   2  -7 20367.1 302.277   9
  -1   2  -7 21321.2 404.024  10
  -1   2  -7 20698.9 509.029   7
   1  -2   8 18582.4 278.855   6
  -1   2  -8 17351.2 260.594   9
   1  -2   8 18902.2 529.914   2
  -1   2  -8 18698.7 520.290   7
  -1   2  -8 18988.3 410.864  10
   1  -2   9 3084.00 102.522   6
   1  -2   9 4192.78 284.778   2
  -1   2  -9 4024.16 207.888  10
  -1   2  -9 3849.42 263.587   7
  -1   2 -10 2075.66 214.992   7
  -1   2 -10 2275.70 172.892  10
   1  -2  10 2219.28 224.663   2
  -1   2 -11 12509.7 402.074  10
  -1   2 -11 11734.1 494.908   7
   1  -2  11 12023.5 509.431   2
  -1   2 -12 532.520 117.219  10
  -1   2 -12 764.707 163.243   7
   1  -2  12 651.459 166.940   2
  -1   2 -13 642.379 182.374   7
   1  -2  13 789.212 185.205   2
   1  -2  14 649.704 195.269   2
  -1   1  13 279.421 118.883   2
   1  -1 -13 433.681 177.566   3
  -1   1  13 130.471 145.250  11
   1  -1 -13 113.888 125.942   7
  -1   1  12 814.253 130.428   8
   1  -1 -12 1264.42 193.436   7
   1  -1 -12 901.297 182.920   3
  -1   1  12 1013.78 169.180   2
  -1   1  11 4698.48 281.904   2
  -1   1  11 4697.93 270.613   8
   1  -1 -11 4827.26 331.222   7
   1  -1 -11 4779.29 344.809   3
  -1   1  10 216.592 87.8740   8
   1  -1 -10 255.559 125.358   3
   1  -1 -10 459.227 130.141   7
  -1   1  10 409.380 111.777   2
   1  -1  -9 151.465 103.000   7
   1  -1  -9 97.6634 76.7398   2
   1  -1  -9-117.429 110.074   3
  -1   1   9 47.7203 70.3198   5
  -1   1   9 158.419 94.7329   8
  -1   1   9 98.4995 85.5496   2
  -1   1   8 2738.97 173.458   5
  -1   1   8 2550.97 174.920   2
  -1   1   8 2831.17 186.961   8
   1  -1  -8 2413.64 166.658   2
   1  -1  -8 2524.58 196.978   7
   1  -1  -8 2771.08 222.128   3
   1  -1  -7 941.137 143.282   3
  -1   1   7 1221.02 124.104   8
   1  -1  -7 1175.04 134.829   8
   1  -1  -7 848.246 51.3484   6
   1  -1  -7 1008.80 106.494   2
  -1   1   7 1092.02 102.676   5
   1  -1  -7 1158.02 138.425   7
  -1   1   7 897.061 106.098   2
   1  -1  -6 7766.69 234.445   2
  -1   1   6 8577.95 318.339   3
  -1   1   6 8582.76 284.690   8
   1  -1  -6 8173.99 314.080   3
   1  -1  -6 7819.29 162.876   6
  -1   1   6 8199.89 247.643   2
  -1   1   6 7991.90 168.257   9
   1  -1  -6 8475.56 284.988   8
   1  -1  -6 8521.18 300.895   7
  -1   1   5 2697.25 168.208  11
  -1   1   5 2632.88 131.296   2
   1  -1  -5 2404.91 119.790   2
   1  -1  -5 2452.40 98.3407   6
  -1   1   5 2569.33 166.346   3
   1  -1  -5 2403.01 168.804   3
   1  -1  -5 2398.50 149.325   8
  -1   1   5 2707.92 157.768   8
  -1   1   5 2600.78 102.329   9
  -1   1   4 49157.3 614.815  11
   1  -1  -4 48126.2 426.343   6
  -1   1   4 47738.6 624.809   3
   1  -1  -4 48143.9 631.063   3
  -1   1   4 48102.0 453.252   2
  -1   1   4 48140.7 588.860   8
   1  -1  -4 48531.2 434.128   9
   1  -1  -4 48515.8 591.279   8
   1  -1  -4 47682.9 442.586   2
  -1   1   4 48043.0 431.061   9
   1  -1  -3 74781.0 683.523   8
  -1   1   3 75960.4 714.492   3
  -1   1   3 75495.3 681.610   8
   1  -1  -3 75365.5 715.509   3
  -1   1   3 73705.4 468.083   2
  -1   1   3 75911.6 542.615   9
  -1   1   3 71398.1 671.390  11
   1  -1  -3 75712.4 466.981   2
   1  -1  -3 75459.7 538.379   6
   1  -1  -3 74459.0 543.137   9
   1  -1  -2 6504.85 194.393   3
  -1   1   2 6505.69 191.581   8
  -1   1   2 6670.37 165.320   9
  -1   1   2 6942.51 192.439  11
   1  -1  -2 6929.79 197.411   8
   1  -1  -2 6853.78 168.120   9
   1  -1  -2 7300.73 200.623  11
   1  -1  -2 6888.73 116.175   2
  -1   1   2 7093.50 202.646   3
  -1   1   1 145993. 812.881   3
   1  -1  -1 145676. 778.309  11
   1  -1  -1 145597. 808.431   3
   1  -1  -1 147903. 807.634   8
   1  -1  -1 146821. 753.740   9
  -1   1   1 147199. 753.580   9
  -1   1   1 145380. 778.580  11
  -1   1   1 145258. 800.009   8
   1  -1   0 10085.8 191.462   1
  -1   1   0 10311.5 193.477   8
   1  -1   0 10268.2 146.713   2
   1  -1   0 10521.1 197.433   8
   1  -1   0 10570.9 207.994   9
   1  -1   0 10642.2 182.702   7
  -1   1   0 10608.8 206.356   9
  -1   1   0 10313.3 195.509   1
  -1   1   0 10294.3 201.780  11
   1  -1   0 10469.8 203.317  11
   1  -1   1 24564.6 310.511   9
  -1   1  -1 24439.8 278.597   2
  -1   1  -1 24444.6 311.036   9
   1  -1   1 24449.9 308.534   1
   1  -1   1 24142.8 276.956   2
   1  -1   1 24035.4 299.199  10
  -1   1  -1 24348.2 301.005  10
  -1   1  -1 24321.1 304.541   1
  -1   1  -1 24473.9 259.391   8
   1  -1   1 24880.2 260.699   8
   1  -1   1 24616.7 288.862   7
  -1   1  -1 23670.6 287.948   7
  -1   1  -2 561248. 1477.17   9
  -1   1  -2 564632. 1468.63  10
  -1   1  -2 571294. 1613.03   1
  -1   1  -2 559136. 1059.10   8
   1  -1   2 563882. 1478.20  10
  -1   1  -2 561994. 1564.05   2
   1  -1   2 566031. 1057.52   8
   1  -1   2 565394. 1480.21   9
  -1   1  -2 557729. 1544.30   7
   1  -1   2 567225. 1558.51   7
   1  -1   2 561600. 1568.31   2
   1  -1   2 567798. 1617.07   1
   1  -1   3 11967.3 218.425   6
   1  -1   3 11588.6 229.714  10
  -1   1  -3 11545.3 214.465   9
  -1   1  -3 11324.4 254.071   7
  -1   1  -3 11533.2 259.219   2
   1  -1   3 11323.0 254.124   7
   1  -1   3 10760.4 125.375   8
  -1   1  -3 11524.8 228.010  10
  -1   1  -3 11514.5 262.632   1
   1  -1   3 11659.8 215.845   9
   1  -1   3 11500.1 259.652   2
   1  -1   4 155947. 1054.01   2
   1  -1   4 160048. 1052.53   7
  -1   1  -4 159907. 1061.53   2
   1  -1   4 159480. 788.476   9
  -1   1  -4 158361. 907.844  10
   1  -1   4 161740. 792.739   6
  -1   1  -4 159192. 1060.45   1
  -1   1  -4 159059. 778.144   9
  -1   1  -4 159174. 1047.03   7
   1  -1   4 160700. 1057.54   3
   1  -1   5 73785.1 796.392   2
   1  -1   5 73493.5 791.630   3
   1  -1   5 73167.5 789.997   7
  -1   1  -5 74240.2 792.787   2
  -1   1  -5 73098.9 787.064   7
   1  -1   5 72617.8 530.937   9
  -1   1  -5 73178.6 677.153  10
   1  -1   5 73925.9 535.978   6
  -1   1  -5 72339.4 518.897   9
   1  -1   6 14793.8 157.125   8
   1  -1   6 15733.6 242.217   6
   1  -1   6 15763.1 400.560   2
  -1   1  -6 16161.6 346.959  10
   1  -1   6 16190.2 405.844   3
  -1   1  -6 15421.2 235.728   9
   1  -1   6 16097.8 409.959   7
  -1   1  -6 16020.4 402.470   7
  -1   1  -6 15399.2 395.762   2
   1  -1   7 72435.5 493.514   6
   1  -1   7 68649.2 389.202   8
   1  -1   7 72036.7 923.355   3
   1  -1   7 72880.7 924.484   2
  -1   1  -7 73321.4 930.243   7
   1  -1   7 72942.0 941.497   7
  -1   1  -7 74800.2 799.856  10
  -1   1  -7 74635.6 928.311   2
   1  -1   8 237.474 32.3946   6
  -1   1  -8 365.876 109.702   7
  -1   1  -8 240.701 85.0721  10
   1  -1   8 182.325 100.436   2
   1  -1   8 203.556 30.8269   8
  -1   1  -9 2724.49 226.358   7
  -1   1  -9 2420.12 176.875  10
   1  -1   9 2464.42 217.408   2
   1  -1   9 2197.80 86.6129   8
  -1   1 -10 3160.81 249.982   7
   1  -1  10 2778.06 102.225   8
   1  -1  10 3011.35 246.929   2
  -1   1 -10 3617.76 225.950  10
  -1   1 -11 723.297 153.373   7
  -1   1 -11 472.733 110.982  10
   1  -1  11 415.821 131.773   2
   1  -1  12 596.855 164.160   2
  -1   1 -12 382.355 107.998  10
  -1   1 -12 436.680 144.817   7
   1  -1  13 1687.91 226.461   2
  -1   1 -13 1912.46 200.505  10
  -1   1 -13 1961.09 255.362   7
   1  -1  14 3789.82 346.583   2
  -1   0  14 1531.89 216.169   2
  -1   0  13 962.917 176.818   2
   1   0 -13 1182.00 211.395   3
   1   0 -13 1139.49 198.441   7
   1   0 -12 7176.48 433.860   3
  -1   0  12 6958.16 324.103   8
   1   0 -12 7297.38 415.196   7
  -1   0  12 7874.59 394.390   2
   1   0 -11 2824.95 262.946   7
  -1   0  11 2380.11 190.087   8
   1   0 -11 2725.51 280.242   3
  -1   0  11 3076.53 247.017   2
   1   0 -10 5620.07 326.891   7
   1   0 -10 5203.94 338.716   3
  -1   0  10 5864.71 312.616   2
  -1   0  10 5613.33 268.937   8
  -1   0   9 44006.0 767.226   2
   1   0  -9 45537.2 847.797   7
  -1   0   9 45609.3 715.058   8
   1   0  -9 46654.6 904.774   3
  -1   0   8 5784.36 271.571   2
   1   0  -8 5780.60 290.361   7
   1   0  -8 5759.90 256.558   8
  -1   0   8 5883.93 251.065   8
   1   0  -8 5732.49 260.644   2
   1   0  -8 6043.26 324.289   3
  -1   0   7 7551.61 266.470   8
  -1   0   7 7538.14 281.379   2
   1   0  -7 7809.47 305.190   7
   1   0  -7 7609.29 329.389   3
   1   0  -7 7879.84 277.721   8
   1   0  -7 7665.37 277.478   2
   1   0  -6 14154.9 346.817   8
   1   0  -6 14494.9 347.568   2
  -1   0   6 14660.9 412.607   3
   1   0  -6 13255.4 194.257   6
   1   0  -6 14516.0 412.017   3
  -1   0   6 14385.3 353.292   2
   1   0  -6 14873.2 382.439   7
   1   0  -6 13293.5 191.932   9
  -1   0   6 14899.0 352.351   8
   1   0  -5 1160.06 107.305   7
   1   0  -5 1180.04 64.8318   9
   1   0  -5 1125.12 97.2785   2
   1   0  -5 1238.86 128.450   3
  -1   0   5 1315.67 125.499   3
   1   0  -5 1276.86 68.8326   6
  -1   0   5 1288.52 106.436   8
   1   0  -5 1247.45 106.791   8
  -1   0   5 1213.54 104.593   2
  -1   0   4 88497.7 748.836   8
   1   0  -4 89988.5 545.015   6
   1   0  -4 88753.9 702.538   2
   1   0  -4 90161.9 761.783   8
   1   0  -4 88975.1 851.289   3
  -1   0   4 90955.5 848.773   3
  -1   0   4 89568.6 709.037   2
   1   0  -4 90857.8 540.199   9
   1   0  -4 90850.0 764.902   7
  -1   0   3 4340.44 122.497   6
   1   0  -3 4348.41 144.228   2
  -1   0   3 4670.00 183.249  11
   1   0  -3 4317.09 125.403   6
  -1   0   3 4289.60 174.606   3
   1   0  -3 4172.69 173.089   3
   1   0  -3 4509.90 163.480   8
   1   0  -3 4171.20 121.248   9
   1   0  -3 4510.79 155.495   7
  -1   0   3 4244.28 142.015   2
  -1   0   3 4096.01 157.018   8
  -1   0   3 4228.94 125.370   9
  -1   0   2 31682.0 327.417   6
   1   0  -2 30469.2 395.182   3
  -1   0   2 30306.1 391.401   3
   1   0  -2 31056.1 384.175   8
  -1   0   2 30932.8 402.771  11
   1   0  -2 30669.0 322.674   2
  -1   0   2 30984.3 327.526   9
  -1   0   2 31603.7 386.588   8
   1   0  -2 30249.1 324.752   6
   1   0  -2 31228.7 326.083   9
  -1   0   1 14067.9 152.427   5
  -1   0   1 14022.6 220.789   9
  -1   0   1 13812.6 232.465   3
   1   0  -1 14117.9 224.260   6
  -1   0   1 14283.4 222.593   6
   1   0  -1 13541.8 151.988   5
  -1   0   1 13719.2 241.254  11
   1   0  -1 13996.3 221.185   9
  -1   0   1 14054.6 239.592   8
   1   0  -1 14296.9 246.469  11
   1   0  -1 13827.3 233.885   3
   1   0  -1 13654.9 237.314   8
  -1   0   0 69662.4 488.415   9
   1   0   0 69157.3 486.032   6
  -1   0   0 69491.2 488.332   6
  -1   0   0 68985.3 486.802  11
   1   0   0 68530.4 491.150   1
  -1   0   0 68826.3 483.784  10
  -1   0   0 68887.2 482.740   8
  -1   0   0 67931.0 488.688   1
  -1   0   0 68016.9 364.550   5
   1   0   0 69649.6 485.614  10
   1   0   0 69106.4 367.301   5
   1   0   0 68099.6 456.249   3
   1   0   0 69689.9 486.479   9
   1   0   0 68721.3 480.986   8
   1   0   0 69603.4 305.580   7
   1   0   0 69036.1 492.278  11
   1   0   1 4283.58 128.391   1
   1   0   1 4533.99 129.167   9
   1   0   1 4585.06 129.803   6
   1   0   1 4395.75 118.090   5
  -1   0  -1 4216.25 128.447  10
   1   0   1 4476.81 131.455  10
  -1   0  -1 4407.17 116.063   8
   1   0   1 4333.82 124.579   2
   1   0   1 4258.89 113.794   8
  -1   0  -1 4527.12 97.9334   4
  -1   0  -1 4438.94 98.1748   7
  -1   0  -1 4584.82 130.176   6
  -1   0  -1 4320.16 130.468   1
   1   0   1 4644.42 98.9693   7
  -1   0  -1 4374.27 125.645   9
   1   0   1 4464.79 96.1548   4
  -1   0  -1 4410.42 117.541   5
   1   0   1 4364.62 128.390  11
  -1   0  -2 207272. 840.899   9
   1   0   2 207943. 946.207   1
   1   0   2 207222. 844.196   6
  -1   0  -2 207749. 932.421   2
   1   0   2 208585. 924.470   5
  -1   0  -2 206053. 938.440   1
  -1   0  -2 207938. 922.147  10
   1   0   2 206024. 833.731   7
   1   0   2 197265. 903.882  10
   1   0   2 205295. 933.294   2
   1   0   2 205028. 583.861   4
  -1   0  -2 206402. 843.188   6
  -1   0  -2 203324. 581.385   4
  -1   0  -2 202480. 823.472   7
   1   0   2 206700. 843.826   9
   1   0   3 11270.0 200.508   6
   1   0   3 10821.7 195.882   9
  -1   0  -3 10574.2 245.388   1
   1   0   3 10557.2 231.984   7
   1   0   3 10830.4 238.421  10
  -1   0  -3 10771.5 236.427  10
   1   0   3 11186.6 251.194   5
   1   0   3 10891.4 249.003   2
  -1   0  -3 10326.7 192.365   6
  -1   0  -3 10705.2 155.255   4
  -1   0  -3 10998.5 246.689   2
  -1   0  -3 10694.5 231.642   7
  -1   0  -3 11153.5 199.107   9
  -1   0  -4 77670.9 516.446   6
   1   0   4 78699.3 728.959   5
  -1   0  -4 77944.7 495.783   4
  -1   0  -4 76277.9 675.281  10
   1   0   4 75871.0 687.147   3
   1   0   4 77143.8 518.700   6
  -1   0  -4 78495.3 720.060   2
  -1   0  -4 77082.4 720.383   1
  -1   0  -4 76980.1 699.919   7
   1   0   4 76953.0 515.894   9
   1   0   4 77203.5 703.113   7
   1   0   4 76260.6 712.295   2
  -1   0  -5 89467.4 798.154  10
  -1   0  -5 87811.2 836.994   7
   1   0   5 88512.3 547.107   6
   1   0   5 89147.5 826.273   3
   1   0   5 87746.8 543.444   9
   1   0   5 89667.4 852.062   7
  -1   0  -5 89784.8 845.218   2
  -1   0  -5 87366.4 615.641   4
   1   0   5 88565.4 842.632   2
   1   0   6 1208.85 66.9881   9
  -1   0  -6 1405.43 128.345   2
   1   0   6 1338.04 129.536   2
   1   0   6 1161.25 67.1210   6
   1   0   6 1184.97 121.045   3
  -1   0  -6 1312.19 124.950  10
  -1   0  -6 1367.41 127.940   7
  -1   0  -6 1167.35 92.1006   4
   1   0   6 1200.68 121.222   7
   1   0   7 16250.9 430.410   5
  -1   0  -7 16537.6 403.642  10
   1   0   7 15113.4 204.642   9
  -1   0  -7 15400.2 415.548   2
   1   0   7 17179.7 452.467   7
   1   0   7 16047.6 269.169   8
   1   0   7 15656.7 423.642   2
  -1   0  -7 15979.3 436.355   7
   1   0   7 16096.4 428.083   3
   1   0   7 14037.8 199.987   6
  -1   0  -7 15770.7 330.879   4
   1   0   8 3642.86 232.075   2
   1   0   8 3715.52 141.005   8
  -1   0  -8 3779.82 234.071   3
  -1   0  -8 3496.77 180.667   4
  -1   0  -8 3486.96 206.366  10
  -1   0  -8 3537.66 231.370   7
   1   0   9 10058.5 390.975   2
   1   0   9 10482.6 247.869   8
  -1   0  -9 10463.2 409.114   7
  -1   0  -9 10156.0 360.570  10
  -1   0  -9 9316.55 310.633   4
  -1   0 -10 3897.66 273.994   7
   1   0  10 3773.27 258.595   2
  -1   0 -10 3643.80 238.194  10
   1   0  10 3828.38 160.024   8
  -1   0 -10 3542.21 211.563   4
   1   0  11 4646.20 308.009   2
  -1   0 -11 4586.05 277.681  10
   1   0  11 4691.83 181.420   8
  -1   0 -11 4276.35 307.618   7
  -1   0 -12 892.744 164.004   7
   1   0  12 1108.97 187.745   2
  -1   0 -12 1179.43 180.576  10
   1   0  13 174.714 137.529   2
  -1   0 -13-55.7704 106.789  10
  -1   0 -13 177.782 125.331   7
   1   0  14-54.6256 136.771   2
  -1   0 -14-32.0519 118.255  10
  -1  -1  14 1193.14 213.511   2
  -1  -1  13-102.192 143.439   2
   1   1 -13 33.5601 125.739   3
   1   1 -13 124.345 115.149   7
   1   1 -12 3746.06 328.190   3
  -1  -1  12 3421.16 284.054   2
   1   1 -12 3253.72 290.760   7
  -1  -1  11 5710.40 269.542   8
  -1  -1  11 6082.13 347.259   2
   1   1 -11 6202.77 384.405   3
   1   1 -11 5509.76 342.299   7
   1   1 -10 3880.26 297.298   3
  -1  -1  10 3736.15 214.623   8
   1   1 -10 3725.88 267.194   7
  -1  -1  10 3559.30 262.148   2
   1   1  -9 1651.39 196.027   3
   1   1  -9 1287.37 161.812   7
  -1  -1   9 1223.76 127.871   8
   1   1  -9 1380.13 139.311   8
  -1  -1   9 1256.95 156.419   2
  -1  -1   8 20485.1 520.793   2
   1   1  -8 21376.6 579.542   3
  -1  -1   8 20607.6 444.104   8
   1   1  -8 20427.3 445.074   8
   1   1  -8 20967.1 530.902   7
   1   1  -7 1210.71 55.4321   9
   1   1  -7 1480.61 124.884   8
   1   1  -7 1486.79 145.902   7
  -1  -1   7 1435.57 122.867   8
   1   1  -7 1485.79 170.200   3
  -1  -1   7 1573.30 150.324   2
   1   1  -7 1580.29 146.352   2
   1   1  -6 5998.00 138.298   9
   1   1  -6 5695.16 266.550   3
  -1  -1   6 6059.73 273.749   3
  -1  -1   6 6043.18 219.859   8
  -1  -1   6 5817.18 137.484   6
   1   1  -6 5789.34 243.164   7
  -1  -1   6 5921.00 245.457   2
   1   1  -6 6166.93 252.257   2
   1   1  -6 5573.30 212.619   8
   1   1  -5 25556.3 419.054   8
   1   1  -5 25757.7 462.375   2
  -1  -1   5 26160.1 304.699   6
  -1  -1   5 25432.9 417.637   8
  -1  -1   5 25875.9 504.153   3
   1   1  -5 25743.7 503.651   3
   1   1  -5 25826.7 299.344   9
  -1  -1   5 26219.0 467.788   2
   1   1  -5 25631.3 452.094   7
   1   1  -4 14798.5 349.084   3
  -1  -1   4 15304.0 353.701   3
   1   1  -4 14717.8 323.533   2
  -1  -1   4 14757.5 236.088   6
   1   1  -4 14918.6 306.330   7
  -1  -1   4 14343.6 299.964   8
   1   1  -4 14471.1 237.576   6
   1   1  -4 15258.7 237.641   9
   1   1  -4 14576.5 297.598   8
  -1  -1   4 14331.4 321.601   2
  -1  -1   3 8760.78 231.581   2
  -1  -1   3 8836.27 187.824   6
   1   1  -3 9041.51 236.132   2
   1   1  -3 8297.46 235.621   3
   1   1  -3 8814.48 219.129   8
   1   1  -3 8929.28 191.659   6
  -1  -1   3 8397.78 236.604   3
  -1  -1   3 8353.82 217.698   8
  -1  -1   3 8537.52 205.495   7
   1   1  -3 8815.78 203.518   7
   1   1  -3 8785.17 184.269   9
   1   1  -2 34995.2 372.159   6
   1   1  -2 35133.9 417.224   3
  -1  -1   2 35451.9 330.658   7
   1   1  -2 35556.2 419.670   2
  -1  -1   2 35361.6 413.223   3
   1   1  -2 35722.3 409.681   8
  -1  -1   2 34499.8 439.123  11
  -1  -1   2 35400.0 372.229   5
   1   1  -2 35581.1 326.591   7
  -1  -1   2 35246.5 412.560   8
  -1  -1   2 35459.3 372.605   6
   1   1  -1 64798.4 505.992   6
  -1  -1   1 63963.1 462.691   3
   1   1  -1 63730.3 465.242   3
   1   1  -1 63597.7 464.628   5
  -1  -1   1 62743.1 457.703   5
   1   1  -1 63461.2 447.811  10
   1   1  -1 61548.7 513.575  11
  -1  -1   1 64103.0 518.824  11
  -1  -1   1 63249.1 496.622   6
   1   1  -1 63781.3 520.474   8
  -1  -1   1 63438.6 521.391   8
  -1  -1   1 63351.9 306.024   7
   1   1  -1 64296.4 303.449   7
   1   1  -1 63605.0 535.189   4
   1   1   0 122605. 659.727   1
   1   1   0 121473. 672.084   4
   1   1   0 122928. 697.433   6
  -1  -1   0 124122. 694.644   6
  -1  -1   0 125100. 632.873  10
   1   1   0 122562. 516.409   3
  -1  -1   0 123441. 635.728   5
  -1  -1   0 121551. 673.374   4
  -1  -1   0 122026. 633.735  11
  -1  -1   0 122723. 518.410   3
   1   1   0 122026. 635.884   5
   1   1   0 124465. 635.208  10
   1   1   0 124467. 694.455   8
   1   1   0 124386. 638.167  11
   1   1   1 49056.9 441.452   6
  -1  -1  -1 49941.1 440.383   6
   1   1   1 49836.3 437.362  10
  -1  -1  -1 49445.6 415.589   1
   1   1   1 49361.7 402.800   4
  -1  -1  -1 49344.6 436.133  10
  -1  -1  -1 50395.5 407.453   4
   1   1   1 49295.1 432.441   5
   1   1   1 49976.6 386.017  11
  -1  -1  -1 48960.0 432.088   5
  -1  -1  -1 50058.3 282.283   7
   1   1   1 49531.5 416.193   1
   1   1   2 84274.1 577.254   6
   1   1   2 83891.6 620.177   2
  -1  -1  -2 84272.1 574.843   6
   1   1   2 83280.0 622.979  10
   1   1   2 83771.3 584.499   1
  -1  -1  -2 82893.9 578.401   1
  -1  -1  -2 83370.9 621.678  10
  -1  -1  -2 83158.3 528.460   4
   1   1   2 83677.3 529.856   4
  -1  -1  -2 82300.7 621.353   5
  -1  -1  -2 83314.3 513.932   7
   1   1   2 85183.6 626.495   5
   1   1   3 746195. 2004.62   2
  -1  -1  -3 750925. 1719.17   6
  -1  -1  -3 734730. 1929.33   1
  -1  -1  -3 773144. 2033.23   2
  -1  -1  -3 740138. 1866.13   7
   1   1   3 755433. 1689.89   4
   1   1   3 740214. 2055.25   5
   1   1   3 745441. 1699.67   3
  -1  -1  -3 740223. 1688.53   4
   1   1   3 756909. 1729.10   6
  -1  -1  -3 739134. 2050.66  10
  -1  -1  -3 727930. 2034.28   5
   1   1   4 64785.9 508.211   6
  -1  -1  -4 64688.6 644.626   1
  -1  -1  -4 64688.3 504.643   6
  -1  -1  -4 66037.0 654.382   2
  -1  -1  -4 63748.4 657.883  10
  -1  -1  -4 64678.9 546.175   4
   1   1   4 63710.4 504.909   9
   1   1   4 65136.7 588.450   3
  -1  -1  -4 64533.7 637.288   7
   1   1   4 65346.0 649.532   2
   1   1   4 66648.2 677.456   5
  -1  -1  -5 9589.20 193.584   6
  -1  -1  -5 9895.89 279.100   2
   1   1   5 9746.93 267.475   3
   1   1   5 9343.49 194.068   9
   1   1   5 10278.9 293.184   5
  -1  -1  -5 9472.65 279.969  10
  -1  -1  -5 9854.14 264.958   3
   1   1   5 9571.47 198.354   6
  -1  -1  -5 9819.64 282.426   7
  -1  -1  -5 9489.73 233.570   4
   1   1   5 9725.77 279.241   2
  -1  -1  -6 59555.6 466.340   6
  -1  -1  -6 58723.2 727.147   2
  -1  -1  -6 59024.8 712.163   3
   1   1   6 58955.0 717.654   3
  -1  -1  -6 58456.6 629.649   4
   1   1   6 57827.0 469.187   9
  -1  -1  -6 59693.9 759.015   7
   1   1   6 59866.5 758.535   5
   1   1   6 58518.2 732.469   2
  -1  -1  -7 4602.50 126.347   6
   1   1   7 5166.27 244.106   3
   1   1   7 4936.36 239.613   5
  -1  -1  -7 4641.65 200.006   4
  -1  -1  -7 4629.19 227.687   3
  -1  -1  -7 5143.19 242.179   2
  -1  -1  -7 5043.14 249.762   7
   1   1   7 4748.51 130.422   9
   1   1   7 5088.86 240.457   2
   1   1   8 8886.94 337.253   2
  -1  -1  -8 9234.74 344.215   3
   1   1   8 8141.15 150.379   9
  -1  -1  -8 8877.19 296.868   4
   1   1   8 9451.39 265.395   8
  -1  -1  -8 9021.30 353.271   7
  -1  -1  -9 1279.32 137.723   4
  -1  -1  -9 1433.25 159.741   3
  -1  -1  -9 1562.56 174.329   7
   1   1   9 1783.76 177.723   2
   1   1   9 1714.04 128.367   8
  -1  -1 -10 6436.41 325.988  10
   1   1  10 6181.27 320.393   2
  -1  -1 -10 6364.96 345.175   7
  -1  -1 -10 6300.00 332.105   3
   1   1  10 6520.24 239.798   8
   1   1  11 3499.19 268.053   2
  -1  -1 -11 3744.08 269.651  10
   1   1  11 3509.70 189.146   8
  -1  -1 -11 3658.59 285.929   7
  -1  -1 -11 3623.73 273.062   3
  -1  -1 -12 1328.21 190.674   7
  -1  -1 -12 1251.23 178.980  10
   1   1  12 985.003 174.171   2
  -1  -1 -13 209.033 118.929  10
   1   1  13 50.3176 115.868   2
  -1  -1 -13 216.635 125.140   7
  -1  -1 -14 10377.2 499.979  10
   1   1  14 9729.92 501.265   2
  -1  -1 -15 636.618 169.723  10
   1   1  15 694.354 189.107   2
  -1  -2  14 736.598 181.522   2
   1   2 -14 1069.90 192.674   4
  -1  -2  13 237.824 155.377   2
   1   2 -13 396.153 140.205   7
  -1  -2  12 1923.73 234.475   2
   1   2 -12 1596.69 224.598   3
   1   2 -12 1703.31 223.361   7
  -1  -2  11 6335.11 272.379   8
   1   2 -11 6497.37 372.273   7
  -1  -2  11 5908.05 357.095   2
   1   2 -11 7091.97 412.906   3
   1   2 -10 3397.33 255.412   7
   1   2 -10 3387.02 286.614   3
  -1  -2  10 3512.76 200.077   8
  -1  -2  10 3221.56 260.802   2
  -1  -2   9 39197.2 616.885   8
  -1  -2   9 38078.0 787.152   2
   1   2  -9 40181.0 854.191   3
   1   2  -9 39437.1 785.450   7
   1   2  -9 36891.1 597.264   8
  -1  -2   8 1746.41 183.280   2
   1   2  -8 1660.19 164.882   7
  -1  -2   8 1778.05 136.584   8
   1   2  -8 1410.50 65.0807   9
   1   2  -8 1816.34 203.689   3
   1   2  -8 1628.50 134.333   8
  -1  -2   8 1565.34 72.4641   6
  -1  -2   7 18119.1 484.473   2
  -1  -2   7 18197.5 388.216   8
   1   2  -7 18439.1 266.894   9
   1   2  -7 17892.1 385.697   8
  -1  -2   7 18200.9 272.996   6
   1   2  -7 17971.6 459.834   7
  -1  -2   7 17959.0 470.172   7
   1   2  -7 18825.8 511.553   3
   1   2  -6 5560.75 238.040   7
   1   2  -6 5758.57 271.355   3
  -1  -2   6 5553.17 208.232   8
  -1  -2   6 5431.30 261.419   3
   1   2  -6 5729.73 259.065   2
   1   2  -6 5403.75 206.038   8
  -1  -2   6 5371.06 160.431   6
   1   2  -6 5790.65 161.456   9
  -1  -2   6 5487.64 258.900   2
  -1  -2   6 5591.40 242.481   7
  -1  -2   5 10507.5 228.285   6
  -1  -2   5 10822.1 334.166   3
   1   2  -5 10394.5 266.079   8
  -1  -2   5 10736.3 331.714   2
   1   2  -5 10352.6 326.439   3
  -1  -2   5 10129.3 264.489   8
   1   2  -5 10676.3 327.267   2
  -1  -2   5 10423.2 297.146   7
   1   2  -5 10824.8 298.899   7
   1   2  -4 26280.6 470.291   4
   1   2  -4 27221.9 486.068   2
  -1  -2   4 26658.0 411.218   8
  -1  -2   4 27600.4 480.849   3
   1   2  -4 26633.5 469.640   3
  -1  -2   4 26346.4 476.357   2
   1   2  -4 27192.3 408.154   8
  -1  -2   4 26594.2 366.250   6
  -1  -2   4 26517.3 418.155   7
   1   2  -4 26867.3 415.547   7
  -1  -2   3 46689.1 556.462   3
  -1  -2   3 47398.5 549.823   5
   1   2  -3 47869.0 594.750   2
   1   2  -3 46695.3 551.155   3
  -1  -2   3 46257.4 481.644   7
   1   2  -3 46208.7 577.856   4
  -1  -2   3 45720.9 483.929   6
   1   2  -3 47253.9 516.639   8
   1   2  -3 46573.8 479.566   7
  -1  -2   2 8916.48 216.582   6
  -1  -2   2 8879.19 214.201   3
  -1  -2   2 9148.77 230.089   5
   1   2  -2 8828.39 243.527   2
   1   2  -2 8871.17 218.440   8
   1   2  -2 8961.09 161.337  10
   1   2  -2 8936.36 213.656   3
   1   2  -2 8403.14 234.156   4
  -1  -2   2 8620.84 178.214   7
   1   2  -2 8932.83 179.288   7
  -1  -2   1 842.020 57.5000  10
  -1  -2   1 925.774 84.5549   6
  -1  -2   1 955.123 64.3156   3
   1   2  -1 1064.75 69.5210   3
  -1  -2   1 1010.36 80.6864  11
   1   2  -1 925.872 60.5400  10
  -1  -2   1 978.678 85.0457   5
   1   2  -1 870.275 52.5563   7
   1   2  -1 898.980 79.5580   5
  -1  -2   1 1017.57 88.4606   4
  -1  -2   1 1022.27 56.9403   7
   1   2  -1 846.849 86.4833   4
  -1  -2   0 38101.2 437.710   4
  -1  -2   0 37798.3 253.187   3
   1   2   0 38377.3 440.571   4
  -1  -2   0 38049.9 430.590   5
   1   2   0 38930.8 356.486  11
   1   2   0 38855.8 373.592  10
   1   2   0 38582.2 258.256   3
  -1  -2   0 38406.8 369.087  10
  -1  -2   0 37844.1 271.199   7
  -1  -2   0 38463.3 351.187  11
  -1  -2   0 37765.1 439.041   6
   1   2   0 37903.4 431.473   5
  -1  -2  -1 25867.0 261.254  11
  -1  -2  -1 25415.3 337.159  10
   1   2   1 25643.8 296.871   1
  -1  -2  -1 26162.4 298.071   1
   1   2   1 26033.5 341.169  10
  -1  -2  -1 26023.8 354.069   4
  -1  -2  -1 25473.6 362.537   6
   1   2   1 25481.2 363.163   5
   1   2   1 26123.5 358.345   4
   1   2   1 26250.9 262.650  11
  -1  -2  -1 25489.1 362.369   5
  -1  -2  -2 43358.7 496.041   5
  -1  -2  -2 44165.2 409.482   1
  -1  -2  -2 43525.6 487.502  10
   1   2   2 44275.6 470.622   4
   1   2   2 44522.4 411.245   1
  -1  -2  -2 44225.2 472.478   4
   1   2   2 44278.9 499.792   5
   1   2   2 43689.8 265.389   3
  -1  -2  -2 44995.2 481.807   6
   1   2   3 2688.49 96.6948   3
  -1  -2  -3 2674.93 145.265  10
   1   2   3 2637.91 138.635   5
   1   2   3 2600.85 132.472   2
  -1  -2  -3 2674.76 140.640   5
  -1  -2  -3 2695.09 129.316   4
  -1  -2  -3 2743.59 122.733   1
   1   2   3 2598.47 126.218   4
  -1  -2  -3 2536.61 120.413   6
  -1  -2  -4 36515.0 526.659   5
  -1  -2  -4 37590.8 485.173   4
  -1  -2  -4 37497.6 473.865   1
   1   2   4 36728.3 422.213   3
  -1  -2  -4 36483.8 418.701   3
   1   2   4 37482.2 529.751   5
  -1  -2  -4 37190.4 436.050   6
   1   2   4 38322.4 511.475   2
   1   2   4 37541.1 483.950   4
  -1  -2  -4 37856.0 509.886   7
  -1  -2  -5 21446.5 402.680   1
  -1  -2  -5 21879.1 413.388   2
  -1  -2  -5 20850.6 369.250   3
  -1  -2  -5 20897.0 430.267   5
   1   2   5 21697.7 434.612   5
  -1  -2  -5 22051.1 336.336   6
  -1  -2  -5 20896.3 390.595   4
  -1  -2  -5 21266.5 426.024   7
   1   2   5 21500.9 373.993   3
   1   2   5 21730.0 413.168   2
  -1  -2  -6 654.217 89.1911   4
  -1  -2  -6 668.367 67.4785   6
  -1  -2  -6 610.815 91.5943   3
  -1  -2  -6 668.512 98.1666   7
  -1  -2  -6 618.896 90.0643   2
   1   2   6 791.547 100.396   2
   1   2   6 585.118 86.8841   3
   1   2   6 645.944 93.0536   5
  -1  -2  -7 13493.4 252.692   6
   1   2   7 13134.9 369.034   2
  -1  -2  -7 12972.1 363.130   3
  -1  -2  -7 13791.8 404.942   7
   1   2   7 13290.5 394.614   5
  -1  -2  -7 13223.2 373.701   2
   1   2   7 13343.1 374.315   3
  -1  -2  -7 12976.6 357.121   4
   1   2   8 9196.95 298.442   8
  -1  -2  -8 8682.20 326.109   3
   1   2   8 8775.38 333.697   3
  -1  -2  -8 9672.42 371.351   7
   1   2   8 8585.51 196.743   9
  -1  -2  -8 8694.60 325.636   2
  -1  -2  -8 8588.57 314.170   4
  -1  -2  -8 8685.13 192.555   6
   1   2   8 9228.28 337.741   2
   1   2   9 4611.86 261.598   2
  -1  -2  -9 4447.08 261.555   3
  -1  -2  -9 3832.92 113.311   6
   1   2   9 3967.55 121.931   9
   1   2   9 4457.57 223.756   8
  -1  -2  -9 4008.95 264.223   7
   1   2  10 27820.3 651.378   2
  -1  -2 -10 27826.5 667.771   3
   1   2  10 28363.3 553.455   8
  -1  -2 -10 27661.2 706.377   7
   1   2  11 2322.78 217.080   2
  -1  -2 -11 2532.30 231.707   3
  -1  -2 -11 2360.72 240.983   7
   1   2  11 2396.74 179.839   8
  -1  -2 -12 1121.44 192.652   7
   1   2  12 937.329 126.160   8
  -1  -2 -12 907.626 171.106  10
   1   2  12 645.016 143.766   2
  -1  -2 -12 787.662 168.485   3
   1   2  13 4518.09 330.425   2
  -1  -2 -13 3888.44 312.962  10
  -1  -2 -13 4496.56 350.408   7
   1   2  14 413.874 182.164   2
  -1  -2 -14 335.345 149.373  10
  -1  -2 -14 272.716 150.495   1
   1   2  15 4552.07 375.210   2
  -1  -3  13 3010.24 310.031   2
   1   3 -13 2818.56 271.230   4
   1   3 -13 3442.61 317.664   7
   1   3 -12 460.201 143.705   7
  -1  -3  12 276.410 154.131   2
   1   3 -12 391.272 116.946   4
   1   3 -12 270.530 148.845   3
   1   3 -11 1405.20 192.364   7
   1   3 -11 1816.27 223.357   3
  -1  -3  11 1875.31 234.946   2
   1   3 -11 1207.44 180.730   4
   1   3 -10 465.451 124.718   7
  -1  -3  10 320.385 123.508   2
   1   3 -10 169.584 125.038   3
   1   3 -10 151.962 98.4475   4
  -1  -3   9 8486.83 399.413   2
   1   3  -9 7858.73 362.462   4
  -1  -3   9 7820.89 180.187   6
   1   3  -9 8388.44 373.428   7
   1   3  -9 8432.60 284.774   8
   1   3  -9 8645.04 408.700   3
   1   3  -9 7686.60 167.990   9
   1   3  -8 1275.95 153.585   7
   1   3  -8 1499.83 178.806   3
  -1  -3   8 1262.90 89.8285   6
   1   3  -8 1253.72 84.9768   9
   1   3  -8 1348.46 118.517   8
   1   3  -8 1110.23 146.310   4
  -1  -3   8 1209.79 163.856   2
  -1  -3   7 6024.24 194.882   6
   1   3  -7 6240.45 312.159   3
  -1  -3   7 5828.36 300.510   2
   1   3  -7 5846.34 223.282   8
   1   3  -7 6092.12 280.037   7
   1   3  -7 5908.66 284.535   4
  -1  -3   6 988.585 120.124   7
  -1  -3   6 1099.88 96.2320   6
  -1  -3   6 952.635 137.113   2
  -1  -3   6 1150.96 142.467   3
   1   3  -6 935.360 125.020   3
   1   3  -6 962.336 113.372   7
   1   3  -6 1001.99 99.2834   8
   1   3  -6 1204.09 137.562   4
   1   3  -5 17177.3 386.631   7
  -1  -3   5 17048.4 337.846   6
  -1  -3   5 17534.5 433.500   3
   1   3  -5 17513.6 447.890   2
   1   3  -5 17286.1 426.561   3
  -1  -3   5 16924.0 442.461   2
   1   3  -5 16798.0 412.713   4
  -1  -3   5 17264.1 395.221   7
   1   3  -5 17660.8 353.089   8
   1   3  -4 6189.86 131.805  10
   1   3  -4 6263.28 261.586   2
  -1  -3   4 7392.57 258.929   3
  -1  -3   4 6448.31 210.663   6
   1   3  -4 6993.85 250.625   3
  -1  -3   4 6228.49 257.439   2
  -1  -3   4 6491.55 249.748   5
   1   3  -4 6564.90 247.849   4
  -1  -3   4 6389.70 217.165   7
   1   3  -4 6558.59 221.243   7
   1   3  -4 6302.37 209.251   8
   1   3  -3 1427.52 122.812   4
  -1  -3   3 1542.27 113.835   3
   1   3  -3 1551.82 133.899   2
  -1  -3   3 1574.05 102.465   7
   1   3  -3 1424.78 62.4316  10
  -1  -3   3 1592.86 124.450   5
   1   3  -3 1642.10 118.296   3
   1   3  -3 1554.99 107.002   8
   1   3  -3 1675.25 107.187   7
  -1  -3   3 1571.12 114.159   6
  -1  -3   2 23397.2 354.607   3
  -1  -3   2 24497.7 428.115   5
   1   3  -2 24269.5 354.744   3
   1   3  -2 24445.5 425.302   4
   1   3  -2 24559.9 250.702  10
   1   3  -2 24542.1 339.021   7
  -1  -3   2 24550.2 339.069   7
   1   3  -2 24556.9 443.368   2
  -1  -3   2 25411.5 432.528   4
  -1  -3   2 24375.3 408.044   6
   1   3  -1 270739. 932.061  10
  -1  -3   1 270691. 1347.05   6
   1   3  -1 271835. 1362.78   5
  -1  -3   1 271414. 1121.14  11
  -1  -3   1 271703. 1352.78   5
   1   3  -1 269304. 1344.36   4
  -1  -3   1 272740. 1362.32   4
  -1  -3   1 271411. 1032.26   7
  -1  -3   1 269700. 975.186   3
   1   3  -1 256077. 1005.13   7
   1   3  -1 271403. 975.625   3
  -1  -3   1 270380. 928.791  10
  -1  -3   0 140073. 952.970   5
  -1  -3   0 140280. 504.205   3
  -1  -3   0 141916. 674.458  11
  -1  -3   0 141619. 762.039  10
  -1  -3   0 140440. 715.300   7
   1   3   0 140476. 958.548   4
  -1  -3   0 141578. 957.626   4
   1   3   0 138433. 956.063   5
   1   3   1 73630.0 411.657  11
  -1  -3  -1 72766.8 611.668  10
   1   3   1 72524.5 685.643   4
  -1  -3  -1 72004.1 689.783   5
  -1  -3  -1 73666.0 686.133   4
   1   3   1 72623.4 693.341   5
  -1  -3  -1 73841.1 406.001  11
   1   3   1 72227.9 493.941   1
  -1  -3  -2 80593.0 536.277   1
  -1  -3  -2 81103.1 736.834   4
   1   3   2 80984.1 538.851   1
   1   3   2 80674.8 732.647   4
  -1  -3  -2 80770.5 736.404   6
  -1  -3  -2 80806.9 712.955  10
   1   3   2 82413.9 754.724   5
   1   3   2 81279.9 418.239  11
  -1  -3  -2 79667.4 741.279   5
   1   3   3 36369.3 523.424   5
   1   3   3 35152.3 301.700   3
  -1  -3  -3 35408.3 397.037   1
  -1  -3  -3 34708.9 512.935   5
   1   3   3 35339.7 504.582   4
  -1  -3  -3 34870.8 298.842   3
  -1  -3  -3 35468.0 488.632   6
  -1  -3  -3 35329.3 510.850   4
  -1  -3  -4 49841.3 650.426   5
   1   3   4 50707.8 605.697   2
  -1  -3  -4 52176.3 590.467   6
  -1  -3  -4 50482.1 535.100   1
   1   3   4 51147.1 467.801   3
   1   3   4 50775.3 633.868   4
   1   3   4 51813.6 657.494   5
  -1  -3  -4 51321.4 468.423   3
  -1  -3  -4 51141.1 640.147   4
   1   3   5 11976.3 339.837   5
   1   3   5 12273.9 273.946   3
  -1  -3  -5 11832.0 326.612   4
   1   3   5 11537.7 322.116   4
   1   3   5 12388.6 319.675   2
  -1  -3  -5 11970.9 268.783   3
  -1  -3  -5 11629.7 335.083   5
  -1  -3  -5 11676.2 281.687   6
  -1  -3  -5 11849.4 291.099   1
  -1  -3  -6 2128.56 160.780   5
   1   3   6 2144.02 151.030   2
  -1  -3  -6 2359.59 163.559   4
   1   3   6 2226.02 142.332   3
  -1  -3  -6 2291.83 153.052   1
  -1  -3  -6 2287.11 130.498   6
  -1  -3  -6 2373.16 146.127   3
   1   3   6 2279.33 167.029   5
  -1  -3  -6 2409.19 174.301   7
  -1  -3  -7 1210.75 130.105   4
  -1  -3  -7 1055.38 93.9575   6
  -1  -3  -7 1111.51 118.383   3
  -1  -3  -7 1117.21 127.080   1
  -1  -3  -7 1017.60 128.276   7
   1   3   7 1030.99 122.303   2
   1   3   7 1007.63 117.874   3
   1   3   7 1068.46 133.696   5
   1   3   8 2468.19 184.282   3
  -1  -3  -8 2426.57 127.875   6
  -1  -3  -8 2401.03 180.991   3
  -1  -3  -8 2408.40 205.515   7
   1   3   8 2461.84 184.019   2
  -1  -3  -9 3488.09 141.367   6
   1   3   9 3319.28 221.248   2
  -1  -3  -9 3296.55 221.471   3
   1   3   9 3799.34 226.318   8
  -1  -3  -9 3262.09 239.054   7
   1   3  10 10381.5 398.939   2
  -1  -3 -10 9270.08 200.230   6
  -1  -3 -10 10363.0 407.686   3
   1   3  10 10284.2 370.305   8
  -1  -3 -10 9567.14 425.371   7
   1   3  11 4044.75 272.241   2
   1   3  11 4165.55 250.911   8
  -1  -3 -11 3904.03 276.274   3
  -1  -3 -11 4294.39 313.051   7
  -1  -3 -12 300.797 157.321   1
   1   3  12-12.5771 101.031   2
  -1  -3 -12 74.9305 108.073   7
  -1  -3 -12-10.4283 101.777   3
   1   3  12 153.529 79.1392   8
  -1  -3 -13 856.664 184.123   7
  -1  -3 -13 706.644 179.064   3
  -1  -3 -13 874.989 212.396   1
   1   3  13 1053.47 187.363   2
  -1  -3 -13 969.833 183.529  10
  -1  -3 -14 1147.03 217.446   1
  -1  -3 -14 1251.65 217.442  10
   1   3  14 910.834 186.020   2
   1   4 -13 518.986 172.722   7
   1   4 -13 651.044 162.329   4
   1   4 -12 237.301 126.374   7
  -1  -4  12 30.4533 120.822   2
   1   4 -12-94.2098 114.056   4
   1   4 -11 459.956 154.332   7
   1   4 -11 490.056 153.596   3
  -1  -4  11 632.615 161.866   2
   1   4 -11 483.406 133.826   4
   1   4 -10 1016.14 161.671   7
  -1  -4  10 1116.29 184.914   2
   1   4 -10 1237.40 190.275   3
   1   4 -10 877.371 152.805   4
   1   4  -9 2837.80 129.256  10
  -1  -4   9 3346.71 154.313   6
  -1  -4   9 3401.99 274.069   2
   1   4  -9 3377.34 252.434   7
   1   4  -9 3305.50 245.712   4
   1   4  -9 3801.76 282.245   3
   1   4  -8 1239.75 155.730   7
  -1  -4   8 1328.08 176.004   2
  -1  -4   8 1128.61 104.978   6
   1   4  -8 1257.78 165.990   3
   1   4  -8 1161.26 112.510   8
   1   4  -8 1233.84 154.403   4
   1   4  -7 140.700 76.7724   7
  -1  -4   7 51.5555 100.669   2
   1   4  -7 129.383 95.4407   3
  -1  -4   7 202.990 62.3075   6
   1   4  -7 215.697 62.8966   8
   1   4  -7 117.895 28.6911  10
   1   4  -7 201.464 94.3696   4
  -1  -4   6 9233.75 283.885   6
   1   4  -6 9294.32 350.762   3
   1   4  -6 9592.29 279.255   8
   1   4  -6 9307.54 342.556   4
   1   4  -6 9886.44 336.382   7
  -1  -4   6 9130.76 370.180   2
   1   4  -6 7348.41 126.073  10
  -1  -4   6 9957.45 341.840   7
  -1  -4   5 7465.76 256.594   6
   1   4  -5 6908.65 282.773   4
  -1  -4   5 7383.95 303.840   5
   1   4  -5 7122.07 288.453   3
  -1  -4   5 7039.51 287.603   3
   1   4  -5 7319.59 242.039   8
  -1  -4   5 7473.00 276.772   7
   1   4  -5 7154.81 268.096   7
  -1  -4   5 7357.49 317.474   2
   1   4  -4 6102.19 273.720   2
  -1  -4   4 6539.10 270.844   5
  -1  -4   4 6053.06 242.615   3
   1   4  -4 6265.14 219.407   8
   1   4  -4 5901.54 237.954   3
   1   4  -4 6024.17 227.597   7
   1   4  -4 6185.54 253.195   4
  -1  -4   4 6345.38 232.087   7
  -1  -4   4 6203.05 238.007   6
   1   4  -3 4869.72 220.905   4
  -1  -4   3 4843.82 197.141   3
  -1  -4   3 5271.98 237.020   5
   1   4  -3 4968.94 237.631   2
  -1  -4   3 4868.90 217.775   4
   1   4  -3 4989.40 197.846   3
   1   4  -3 5335.56 203.426   8
  -1  -4   3 4776.80 188.077   7
   1   4  -3 4877.52 191.500   7
  -1  -4   2 2313.45 80.6890  10
   1   4  -2 2285.55 152.225   4
  -1  -4   2 2481.39 127.556   3
  -1  -4   2 2293.06 158.115   5
  -1  -4   2 2494.11 129.026   7
  -1  -4   2 2658.17 159.531   4
   1   4  -2 2210.16 127.069   7
   1   4  -2 2338.20 161.296   2
  -1  -4   1 6790.34 245.903   5
   1   4  -1 6956.77 252.828   5
  -1  -4   1 6712.58 168.159   3
  -1  -4   1 6919.05 245.005   4
   1   4  -1 6801.48 247.929   2
   1   4  -1 6794.01 243.355   4
  -1  -4   1 6822.66 162.542  10
  -1  -4   1 6951.31 199.155   7
  -1  -4   1 6719.62 187.276  11
  -1  -4   0 2201.14 88.7981  11
  -1  -4   0 1952.71 71.8686   3
  -1  -4   0 2228.43 146.312   5
   1   4   0 1817.73 136.588   5
  -1  -4   0 1881.80 101.939  10
  -1  -4   0 2034.99 139.792   4
   1   4   0 2169.30 143.362   4
  -1  -4   0 2114.84 113.985   7
   1   4   0 2077.18 95.4437   1
  -1  -4  -1 7156.03 119.955  11
   1   4   1 7177.37 155.370   1
  -1  -4  -1 7355.73 216.440  10
   1   4   1 7239.32 248.841   5
  -1  -4  -1 7505.23 252.384   4
   1   4   1 7872.58 258.320   4
  -1  -4  -1 7337.49 249.886   5
  -1  -4  -2 2474.59 151.972   5
   1   4   2 2553.04 95.2115   1
  -1  -4  -2 2750.71 97.9712   1
   1   4   2 2599.75 159.413   5
  -1  -4  -2 2737.81 160.445   4
   1   4   2 2659.81 162.274   4
   1   4   3 21336.4 226.913   3
   1   4   3 20817.2 200.489  11
  -1  -4  -3 22332.9 299.952   1
  -1  -4  -3 22266.6 450.934   4
   1   4   3 21300.0 439.828   4
  -1  -4  -3 22314.4 447.082   5
  -1  -4  -3 21213.9 223.014   3
   1   4   3 21573.9 440.583   5
   1   4   4 36462.0 379.242   3
  -1  -4  -4 35816.6 430.790   1
   1   4   4 36510.2 595.261   5
  -1  -4  -4 35860.6 586.766   5
  -1  -4  -4 35919.5 377.102   3
  -1  -4  -4 36437.0 595.623   4
   1   4   4 36240.4 592.378   4
  -1  -4  -5 8055.37 298.689   5
   1   4   5 8279.48 298.311   5
   1   4   5 8004.28 295.945   4
   1   4   5 7886.54 267.310   2
  -1  -4  -5 8219.92 235.431   1
  -1  -4  -5 7823.66 295.185   4
   1   4   5 8240.54 220.047   3
  -1  -4  -5 7359.52 209.650   3
  -1  -4  -5 7874.73 262.757   6
   1   4   6 5166.72 204.697   3
  -1  -4  -6 5352.18 215.767   1
  -1  -4  -6 5377.27 256.474   4
   1   4   6 5143.25 249.511   5
  -1  -4  -6 5057.12 250.593   5
  -1  -4  -6 5024.04 215.258   6
   1   4   6 5300.49 230.070   2
  -1  -4  -6 5482.73 206.357   3
  -1  -4  -7 3111.59 185.403   1
   1   4   7 2756.04 170.836   3
  -1  -4  -7 3033.95 209.327   5
  -1  -4  -7 2834.51 162.793   6
  -1  -4  -7 2853.84 173.367   3
   1   4   7 2985.87 191.490   2
  -1  -4  -8 8124.25 315.565   1
  -1  -4  -8 7143.37 289.084   3
  -1  -4  -8 8444.38 367.207   7
  -1  -4  -8 7672.95 255.238   6
   1   4   8 7639.18 298.384   3
   1   4   8 7910.26 310.408   2
   1   4   9 6119.51 306.444   8
  -1  -4  -9 6488.35 224.831   6
  -1  -4  -9 5901.92 293.586   1
  -1  -4  -9 6493.97 299.928   3
  -1  -4  -9 6523.32 343.705   7
   1   4   9 6218.66 291.352   2
   1   4  10 20614.6 550.069   2
  -1  -4 -10 21345.5 383.946   6
  -1  -4 -10 20736.3 564.790   3
   1   4  10 21276.9 569.079   8
  -1  -4 -10 20764.2 643.783   7
  -1  -4 -10 19642.3 561.756   1
  -1  -4 -11 1714.80 198.619   3
  -1  -4 -11 2103.27 223.308   1
   1   4  11 2311.64 212.363   8
  -1  -4 -11 1629.74 209.489   7
   1   4  11 1808.65 188.110   2
  -1  -4 -12 2118.03 250.475   7
   1   4  12 1970.10 210.411   2
  -1  -4 -12 2936.14 264.575   1
  -1  -4 -12 2076.71 223.876   3
   1   4  12 2047.99 206.311   8
  -1  -4 -13 826.379 180.973   7
   1   4  13 800.902 158.120   2
  -1  -4 -13 937.935 170.544   3
   1   4  14 164.166 132.822   2
  -1  -4 -14-62.1888 126.783   3
   1   5 -12 666.185 163.779   4
  -1  -5  12 695.998 188.698   2
   1   5 -12 587.698 163.593   7
   1   5 -11 1772.09 223.090   7
  -1  -5  11 2140.37 257.498   2
   1   5 -11 2035.95 220.570   4
   1   5 -10 1593.80 194.939   7
  -1  -5  10 1720.67 228.590   2
   1   5 -10 1503.08 185.140   4
  -1  -5   9 7042.39 400.899   2
  -1  -5   9 6111.91 242.680   6
   1   5  -9 6421.90 350.334   7
   1   5  -9 6467.23 342.656   4
   1   5  -8 383.139 114.657   7
   1   5  -8 277.577 67.5939   8
  -1  -5   8 397.720 78.0311   6
  -1  -5   8 188.381 114.147   2
   1   5  -8 205.798 95.0441   4
   1   5  -7 983.785 136.363   7
  -1  -5   7 1081.84 163.463   2
  -1  -5   7 1236.07 130.212   6
  -1  -5   7 838.630 141.672   5
   1   5  -7 1023.15 107.554   8
   1   5  -7 872.658 132.441   4
   1   5  -6 1496.38 147.425   7
  -1  -5   6 1496.06 146.231   6
   1   5  -6 1724.17 134.652   8
  -1  -5   6 1417.37 176.772   2
  -1  -5   6 1972.64 188.528   5
   1   5  -6 1723.13 171.378   4
  -1  -5   5 8119.56 302.391   6
   1   5  -5 8041.07 318.685   4
  -1  -5   5 8774.42 355.625   5
   1   5  -5 8636.01 312.855   7
   1   5  -5 8592.76 278.198   8
  -1  -5   5 8658.42 312.977   7
  -1  -5   5 8384.04 322.385   3
  -1  -5   4 2226.08 183.818   5
  -1  -5   4 2133.19 158.222   3
   1   5  -4 1763.67 143.168   7
   1   5  -4 2086.90 143.767   8
  -1  -5   4 2100.68 153.324   7
   1   5  -4 2107.73 166.252   4
   1   5  -3 27792.1 547.667   4
  -1  -5   3 27991.2 553.937   4
   1   5  -3 28762.0 598.541   2
  -1  -5   3 28487.2 478.793   3
  -1  -5   3 28153.3 580.417   5
  -1  -5   3 28181.0 492.719   7
   1   5  -3 26913.6 483.522   7
   1   5  -2 33191.0 610.211   2
  -1  -5   2 32209.8 455.756   3
   1   5  -2 32869.8 581.264   4
  -1  -5   2 32747.6 581.428   4
  -1  -5   2 33011.1 602.078   5
  -1  -5   2 32971.9 506.140   7
  -1  -5   2 31610.3 307.069  10
   1   5  -2 31996.7 499.961   7
  -1  -5   1 35587.0 397.796  10
  -1  -5   1 35075.7 406.449   3
   1   5  -1 34446.0 611.801   5
  -1  -5   1 35717.2 434.198  11
  -1  -5   1 35473.0 511.416   7
   1   5  -1 34911.8 595.808   4
   1   5  -1 35437.5 604.197   2
  -1  -5   1 36390.4 601.569   4
  -1  -5   1 35183.9 608.479   5
  -1  -5   0 5252.58 135.133  11
  -1  -5   0 4922.51 174.884  10
  -1  -5   0 4886.22 225.858   4
   1   5   0 4739.06 139.727   1
   1   5   0 4917.19 227.468   4
   1   5   0 5010.99 236.429   5
  -1  -5   0 4842.92 229.849   5
  -1  -5   0 5037.44 194.220   7
  -1  -5   0 5036.50 128.267   3
  -1  -5  -1 33019.0 498.243   7
  -1  -5  -1 27391.1 209.624  11
   1   5   1 31622.9 568.372   5
  -1  -5  -1 28882.6 236.542   3
  -1  -5  -1 32152.6 570.655   4
   1   5   1 32000.8 568.409   4
   1   5   1 31518.7 310.451   1
  -1  -5  -1 31634.9 563.493   5
   1   5   2 8814.53 159.876   1
  -1  -5  -2 8819.44 302.478   5
   1   5   2 8973.34 307.970   4
  -1  -5  -2 8783.90 308.631   4
   1   5   2 8774.41 304.382   5
  -1  -5  -3 25623.4 251.512   3
   1   5   3 27094.4 535.822   5
  -1  -5  -3 26213.4 524.550   5
  -1  -5  -3 26092.9 537.690   4
   1   5   3 26664.3 539.514   4
  -1  -5  -3 26616.8 301.786   1
   1   5   4 53216.4 453.914   3
  -1  -5  -4 52923.1 790.697   4
   1   5   4 54246.5 777.127   5
  -1  -5  -4 53897.3 497.336   1
  -1  -5  -4 53894.3 771.726   5
   1   5   4 54123.0 792.617   4
  -1  -5  -4 53403.8 453.053   3
  -1  -5  -5 2021.13 165.720   5
   1   5   5 1807.77 105.830   3
   1   5   5 1893.78 169.086   4
  -1  -5  -5 1760.08 110.830   1
   1   5   5 1834.31 147.567   2
   1   5   5 1849.32 160.588   5
  -1  -5  -5 2053.83 115.629   3
   1   5   6 6924.48 228.818   3
   1   5   6 7136.06 275.121   2
  -1  -5  -6 7223.16 281.487   6
  -1  -5  -6 6902.44 236.470   1
   1   5   6 7622.23 324.610   4
  -1  -5  -6 6639.52 298.744   5
  -1  -5  -6 6806.82 228.531   3
  -1  -5  -7 3700.08 190.346   3
   1   5   7 3588.38 188.939   3
  -1  -5  -7 3895.23 211.065   6
  -1  -5  -7 3695.63 193.915   1
  -1  -5  -7 3579.43 236.902   5
   1   5   7 3679.09 212.848   2
  -1  -5  -8 13779.5 380.609   6
   1   5   8 12980.1 381.070   3
  -1  -5  -8 13671.2 389.438   3
  -1  -5  -8 13974.1 397.504   1
  -1  -5  -8 13721.7 460.916   5
   1   5   8 14502.1 420.302   2
  -1  -5  -9 55.6099 77.4617   1
  -1  -5  -9 41.6823 62.0265   6
   1   5   9 32.9784 77.6147   2
  -1  -5  -9 250.243 123.652   7
  -1  -5  -9 46.7391 75.2996   3
  -1  -5 -10 191.638 75.5401   6
  -1  -5 -10 220.082 100.453   1
   1   5  10 80.3260 85.1648   2
  -1  -5 -10 161.320 98.9552   3
   1   5  10 50.6647 91.7986   8
   1   5  11 234.143 107.750   2
  -1  -5 -11 425.552 120.492   1
  -1  -5 -11 134.379 92.6851   3
   1   5  11 255.447 114.931   8
  -1  -5 -11 276.705 127.828   7
  -1  -5 -12 393.421 146.899   7
   1   5  12 420.781 129.463   2
   1   5  12 609.764 148.771   8
  -1  -5 -12 539.712 139.240   1
  -1  -5 -12 216.176 106.048   3
  -1  -5 -13-16.3804 120.952   3
   1   5  13 414.512 147.004   8
   1   5  13 333.180 126.384   2
  -1  -5 -13 120.811 129.681   1
  -1  -5 -14 1030.66 192.226   1
  -1  -5 -14 461.103 141.159   3
   1   6 -12 3446.27 322.535   7
   1   6 -12 3277.37 284.434   4
   1   6 -11 1432.11 209.202   7
  -1  -6  11 1268.66 215.408   5
   1   6 -11 1100.77 182.720   4
  -1  -6  10 2376.41 267.918   5
   1   6 -10 2236.18 222.302   4
  -1  -6  10 2105.65 253.878   2
   1   6 -10 2080.74 229.934   7
  -1  -6   9 4139.09 229.155   6
  -1  -6   9 4192.48 315.715   5
   1   6  -9 3876.46 277.646   4
   1   6  -9 4040.84 287.537   7
  -1  -6   8 5149.23 263.574   6
   1   6  -8 4898.33 303.060   7
  -1  -6   8 5593.33 345.126   5
   1   6  -8 4795.61 294.444   4
  -1  -6   7 2258.48 186.646   6
   1   6  -7 2737.38 219.470   4
   1   6  -7 2906.19 221.855   7
  -1  -6   7 2696.41 241.888   5
   1   6  -7 2588.54 167.231   8
   1   6  -6 7627.31 337.011   4
  -1  -6   6 7963.82 375.768   5
   1   6  -6 7303.27 324.717   7
  -1  -6   6 7154.21 313.843   6
   1   6  -6 7763.28 283.873   8
  -1  -6   5 10266.3 412.215   5
   1   6  -5 10040.4 376.600   4
   1   6  -5 10982.9 336.436   8
   1   6  -5 10568.5 368.295   7
  -1  -6   4 930.206 119.547   7
   1   6  -4 758.583 112.902   7
  -1  -6   4 847.574 114.913   3
   1   6  -4 753.215 123.809   4
  -1  -6   4 1087.71 155.991   5
  -1  -6   3 13633.4 438.597   5
  -1  -6   3 13157.4 346.971   3
   1   6  -3 13560.7 415.186   4
  -1  -6   3 13207.5 371.882   7
   1   6  -3 13485.7 376.107   7
  -1  -6   2 31246.5 333.110  10
  -1  -6   2 31764.0 649.758   5
  -1  -6   2 31307.5 475.695   3
  -1  -6   2 32326.6 625.783   4
   1   6  -2 31843.5 621.906   4
  -1  -6   2 32234.8 556.717   7
   1   6  -1 18126.9 471.730   2
  -1  -6   1 17533.2 314.395  11
  -1  -6   1 17888.0 478.203   5
  -1  -6   1 17746.7 461.292   4
  -1  -6   1 18378.3 413.412   7
  -1  -6   1 17395.2 311.637   3
  -1  -6   1 17236.7 303.050  10
   1   6  -1 17437.8 455.519   4
  -1  -6   0 5942.25 270.566   4
   1   6   0 6067.91 154.711   1
  -1  -6   0 6231.48 281.303   5
   1   6   0 6579.75 277.818   2
   1   6   0 6262.43 288.732   5
  -1  -6   0 6444.48 151.101  11
  -1  -6   0 6238.12 159.613   3
  -1  -6   0 6319.02 211.873  10
   1   6   0 6404.64 283.592   4
  -1  -6   0 6542.05 249.253   7
  -1  -6  -1 1773.74 75.8960   3
  -1  -6  -1 1891.27 76.4101   3
   1   6   1 1782.48 162.307   5
   1   6   1 1940.82 163.474   4
   1   6   1 1864.82 72.6080   1
  -1  -6  -1 1748.23 161.881   4
  -1  -6  -1 2121.23 169.943   5
  -1  -6  -1 2036.77 148.577   7
  -1  -6  -2 4866.90 106.885   3
   1   6   2 5112.87 257.837   5
  -1  -6  -2 5200.38 257.731   5
   1   6   2 5287.37 261.320   4
  -1  -6  -3 6311.86 134.121   3
  -1  -6  -3 6449.98 287.461   5
   1   6   3 6794.52 304.900   4
   1   6   4 15192.2 457.778   4
  -1  -6  -4 14192.2 236.632   3
  -1  -6  -4 14414.5 432.767   5
  -1  -6  -4 14360.1 229.737   1
   1   6   5 1017.07 141.631   4
   1   6   5 1119.88 87.7079   3
  -1  -6  -5 1262.13 150.466   5
  -1  -6  -5 944.324 75.9290   1
  -1  -6  -5 1078.65 86.6148   3
   1   6   6 12024.4 295.640   3
  -1  -6  -6 12483.7 298.827   3
  -1  -6  -6 11869.3 415.168   5
  -1  -6  -6 12343.8 291.899   1
   1   6   6 12320.7 438.653   4
   1   6   6 12086.1 370.183   2
   1   6   6 11626.9 208.618  11
   1   6   7 3576.33 184.881   3
  -1  -6  -7 3952.60 235.941   6
  -1  -6  -7 3799.11 188.719   1
  -1  -6  -7 4042.00 257.151   5
   1   6   7 3640.41 216.121   2
  -1  -6  -7 3694.06 187.156   3
  -1  -6  -8 3038.84 204.456   6
   1   6   8 2459.51 177.287   3
  -1  -6  -8 2831.19 187.547   3
  -1  -6  -8 2578.62 173.317   1
  -1  -6  -8 2692.00 221.242   5
   1   6   8 2918.93 201.185   2
  -1  -6  -9 4136.87 236.938   6
  -1  -6  -9 4452.67 297.578   5
  -1  -6  -9 4605.10 248.155   3
  -1  -6  -9 4044.89 231.635   1
   1   6   9 3951.64 240.930   2
  -1  -6 -10 3801.66 222.421   6
  -1  -6 -10 3869.52 245.782   1
   1   6  10 4143.17 304.868   8
  -1  -6 -10 4250.13 316.554   7
  -1  -6 -10 4030.33 257.519   3
   1   6  10 4097.38 254.807   2
   1   6  11 4136.11 266.481   2
  -1  -6 -11 4125.16 272.534   3
  -1  -6 -11 4166.05 272.463   1
   1   6  11 3962.65 310.298   8
  -1  -6 -11 4207.72 334.389   7
   1   6  12 4346.40 293.713   2
  -1  -6 -12 4685.96 315.244   3
  -1  -6 -12 4374.47 293.866   1
  -1  -6 -12 4663.22 368.951   7
   1   6  12 4601.25 336.594   8
   1   6  13 4075.66 328.487   8
   1   7 -11 453.428 144.624   7
   1   7 -11 249.340 118.034   4
   1   7 -10 3305.82 271.438   4
   1   7 -10 3688.17 299.464   7
  -1  -7  10 3388.84 323.775   5
  -1  -7   9 5660.33 384.094   5
  -1  -7   9 5503.19 288.928   6
   1   7  -9 5468.41 347.885   7
   1   7  -9 5383.23 333.080   4
   1   7  -8 2250.90 217.918   7
   1   7  -8 2070.54 215.527   4
  -1  -7   8 2508.80 260.785   5
  -1  -7   8 1788.90 177.893   6
   1   7  -7 394.447 118.394   7
  -1  -7   7 369.690 113.899   6
   1   7  -7 279.902 111.437   4
  -1  -7   7 561.281 157.224   5
   1   7  -6 281.353 108.591   7
  -1  -7   6 401.122 115.006   5
   1   7  -6 440.885 117.830   4
   1   7  -6 369.538 86.0850   8
  -1  -7   6 477.023 123.185   6
   1   7  -5 243.215 95.2055   7
  -1  -7   5 213.730 111.132   5
   1   7  -5 198.272 78.3121   8
   1   7  -5 300.186 105.161   4
  -1  -7   4 721.222 136.453   5
   1   7  -4 728.976 123.740   7
   1   7  -4 812.427 133.034   4
  -1  -7   4 799.834 122.626   3
  -1  -7   3 5038.32 297.045   5
  -1  -7   3 4734.28 225.422   3
   1   7  -3 4786.41 272.200   4
   1   7  -3 4537.45 245.165   7
  -1  -7   2 3222.38 119.106  10
  -1  -7   2 3441.20 175.662   3
  -1  -7   2 3400.69 240.929   5
  -1  -7   2 3284.56 207.213   7
   1   7  -2 3168.44 224.471   4
  -1  -7   1 2102.94 126.412   3
   1   7  -1 2007.94 185.633   4
  -1  -7   1 2071.79 121.532  10
  -1  -7   1 2265.46 122.361  11
  -1  -7   1 2054.23 163.011   7
  -1  -7   1 2084.43 190.477   5
  -1  -7   0 10500.1 291.465  10
  -1  -7   0 10183.5 224.328   3
  -1  -7   0 10046.9 183.422  11
  -1  -7   0 10345.2 387.102   5
   1   7   0 8947.64 175.388   1
   1   7   0 10248.3 382.266   4
  -1  -7   0 10530.2 348.360   7
  -1  -7  -1 2099.43 92.2173   3
  -1  -7  -1 2266.26 96.0753   3
   1   7   1 2499.61 205.895   4
  -1  -7  -1 2209.46 187.320   5
  -1  -7  -1 2047.16 164.158   7
   1   7   2 2915.86 218.842   4
  -1  -7  -2 2706.98 92.4262   3
  -1  -7  -2 2749.41 205.836   5
  -1  -7  -2 3125.00 201.932   7
  -1  -7  -3 12227.0 420.500   5
   1   7   3 12059.2 427.340   4
  -1  -7  -3 11542.0 191.702   3
  -1  -7  -4 28784.3 648.071   5
  -1  -7  -4 27932.3 333.872   3
   1   7   4 28281.5 666.673   4
  -1  -7  -5 6414.75 152.979   1
  -1  -7  -5 7092.97 196.404   3
  -1  -7  -5 7318.48 339.053   5
   1   7   5 8060.55 371.485   4
   1   7   6 22856.4 525.201   2
  -1  -7  -6 21394.3 582.922   5
  -1  -7  -6 21897.1 388.580   3
  -1  -7  -6 21233.0 341.765   1
   1   7   6 22948.8 632.192   4
  -1  -7  -7 13990.8 466.012   6
   1   7   7 13354.3 411.929   2
  -1  -7  -7 13870.3 487.305   5
  -1  -7  -7 14330.1 354.166   3
  -1  -7  -7 13343.4 315.327   1
  -1  -7  -8 4978.78 234.261   3
  -1  -7  -8 4501.42 211.645   1
  -1  -7  -8 4777.88 303.293   5
   1   7   8 4687.35 256.125   2
  -1  -7  -8 5184.83 291.259   6
  -1  -7  -9 871.704 113.256   1
  -1  -7  -9 1497.34 172.866   6
   1   7   9 1283.14 152.007   2
  -1  -7  -9 1025.03 163.994   5
  -1  -7  -9 1147.12 139.750   3
  -1  -7 -10 2377.44 197.478   6
  -1  -7 -10 2223.49 181.116   1
  -1  -7 -10 2411.45 203.451   3
   1   7  10 2457.98 261.459   8
   1   7  10 2624.00 206.154   2
  -1  -7 -10 2360.03 260.736   7
  -1  -7 -11 5558.82 389.129   7
   1   7  11 5327.71 372.804   8
   1   7  12 2180.98 266.442   8
   1   7  13 2398.07 282.496   8
   1   8 -11 1240.76 210.045   7
   1   8 -10 491.502 155.604   7
   1   8 -10 197.076 129.199   4
   1   8  -9 73.3438 106.077   7
  -1  -8   9 117.704 130.243   5
   1   8  -9 62.6472 100.862   4
   1   8  -8 202.090 106.506   7
  -1  -8   8 397.113 106.970   6
  -1  -8   8 272.987 134.914   5
   1   8  -8 287.713 119.858   4
   1   8  -7 2264.36 213.232   7
  -1  -8   7 2178.57 246.471   5
   1   8  -7 2118.73 217.406   4
  -1  -8   7 2616.65 240.074   6
  -1  -8   6 1826.91 221.369   5
   1   8  -6 2043.92 210.658   4
   1   8  -6 2334.69 216.550   7
   1   8  -5 124.393 89.4971   7
  -1  -8   5 363.991 129.753   5
   1   8  -5 338.473 116.984   4
   1   8  -4 3506.22 251.223   4
  -1  -8   4 3476.40 272.530   5
   1   8  -4 3243.40 235.437   7
   1   8  -3 15153.8 501.966   4
  -1  -8   3 15116.2 533.656   5
  -1  -8   3 14242.7 392.609   3
  -1  -8   2 8918.74 206.920  10
  -1  -8   2 9222.41 290.239   3
  -1  -8   2 10207.8 432.044   5
   1   8  -2 10163.9 408.273   4
  -1  -8   2 9849.25 289.202  11
  -1  -8   1 32949.5 432.225  11
   1   8  -1 30346.4 382.390   1
  -1  -8   1 32035.1 483.914   3
  -1  -8   1 34170.3 763.416   5
  -1  -8   1 32256.6 476.461  10
   1   8  -1 33571.0 733.592   4
  -1  -8   0 1009.34 56.8116  11
  -1  -8   0 1448.48 99.6464   3
   1   8   0 859.756 44.6764   1
  -1  -8   0 1425.76 128.456  10
  -1  -8   0 1223.33 165.490   5
   1   8   0 1358.25 166.787   4
  -1  -8  -1 2659.52 111.965   3
  -1  -8  -1 3044.86 230.379   5
  -1  -8  -1 2746.83 115.446   3
  -1  -8  -1 3111.83 196.129  10
   1   8   1 2892.57 232.279   4
  -1  -8  -2 1741.34 84.2292   3
  -1  -8  -2 1998.34 87.5231   3
  -1  -8  -2 1933.32 190.908   5
   1   8   2 1831.51 191.123   4
  -1  -8  -3 606.036 129.200   5
  -1  -8  -3 499.504 47.1599   3
   1   8   3 446.032 116.673   4
   1   8   4 2088.85 211.351   4
  -1  -8  -4 1878.62 90.8296   3
  -1  -8  -4 1974.88 197.714   5
  -1  -8  -5 3703.09 141.048   3
  -1  -8  -5 4059.17 273.001   5
   1   8   5 3869.91 281.352   4
  -1  -8  -6 383.520 118.932   5
   1   8   6 376.945 97.8348   2
  -1  -8  -6 464.806 71.3341   3
   1   8   6 327.093 131.831   4
  -1  -8  -7 738.343 145.782   5
  -1  -8  -7 497.533 89.1821   3
   1   8   7 528.994 103.981   2
  -1  -8  -8 5246.47 330.250   5
  -1  -8  -8 5548.66 326.150   6
   1   8   8 4973.65 269.084   2
  -1  -8  -9 2311.46 217.498   6
  -1  -8  -9 2409.10 242.318   5
   1   8   9 2624.34 209.753   2
  -1  -8 -10 7098.81 405.819   5
   1   8  10 7423.21 445.308   8
   1   8  11 1404.03 219.551   8
   1   9 -10 1379.85 225.338   7
   1   9  -9 395.068 150.446   7
   1   9  -9 624.906 163.127   4
   1   9  -8 938.452 180.847   7
  -1  -9   8 864.065 157.724   6
  -1  -9   8 1267.99 231.512   5
   1   9  -8 1023.63 192.153   4
   1   9  -7 1305.27 200.096   4
   1   9  -7 1563.01 201.513   7
  -1  -9   7 1196.39 208.400   5
  -1  -9   7 1905.77 226.093   6
  -1  -9   6 685.367 164.555   5
   1   9  -6 565.895 143.848   4
   1   9  -6 723.989 141.475   7
  -1  -9   5 502.974 150.989   5
   1   9  -5 628.211 135.890   4
  -1  -9   4 818.332 165.674   5
   1   9  -4 442.063 133.355   4
  -1  -9   3 44.6128 99.2735   5
  -1  -9   3 239.810 89.7502  11
   1   9  -3 56.7114 92.4782   4
  -1  -9   2 7262.33 247.588  11
  -1  -9   2 6297.50 181.108  10
  -1  -9   2 7793.70 406.740   5
   1   9  -2 7618.45 381.930   4
  -1  -9   1 3742.30 144.150  11
  -1  -9   1 4421.01 302.419   5
  -1  -9   1 4008.23 183.349  10
   1   9  -1 4801.65 308.981   4
  -1  -9   0 7231.37 216.329   3
  -1  -9   0 7514.45 278.578  10
  -1  -9   0 7695.89 392.598   5
   1   9   0 7605.25 379.710   4
  -1  -9  -1 10647.8 452.220   5
  -1  -9  -1 9847.34 345.461  10
  -1  -9  -1 9654.63 220.354   3
   1   9   1 10572.5 450.794   4
  -1  -9  -2 1079.35 70.2683   3
  -1  -9  -2 1367.09 179.626   5
   1   9   2 1126.07 168.183   4
   1   9   3 405.808 125.144   4
  -1  -9  -3 334.337 130.122   5
  -1  -9  -4 7893.03 393.183   5
   1   9   4 7762.95 408.402   4
   1   9   5 321.870 120.200   4
  -1  -9  -5 409.279 123.013   5
  -1  -9  -6 3844.45 288.878   5
   1   9   6 3395.02 230.830   2
   1   9   6 4155.02 319.394   4
   1   9   7 3329.09 232.912   2
  -1  -9  -7 3381.65 278.952   5
  -1  -9  -8 993.232 175.940   5
  -1  -9  -8 1092.49 172.965   6
   1   9   8 1107.13 147.098   2
  -1  -9  -9 5132.67 336.779   6
  -1  -9  -9 5086.61 350.996   5
  -1  -9 -10 70.9951 105.914   5
   1  10  -8 3106.94 297.212   7
  -1 -10   8 2695.95 277.604   6
   1  10  -8 2968.85 287.169   4
   1  10  -7 2006.42 241.203   7
  -1 -10   7 1931.93 253.882   6
   1  10  -7 2128.14 244.356   4
  -1 -10   6 306.875 149.795   6
  -1 -10   6 36.7018 131.765   5
   1  10  -6-90.8980 109.364   4
  -1 -10   5 883.384 191.237   5
   1  10  -5 1377.84 206.819   4
  -1 -10   4 2584.57 272.616   5
   1  10  -4 2574.36 250.641   4
   1  10  -3 930.087 168.770   4
  -1 -10   3 926.801 179.423   5
  -1 -10   2 980.252 186.677   5
   1  10  -2 1246.91 184.126   4
  -1 -10   1 2938.87 268.231   5
   1  10  -1 3306.41 274.628   4
   1  10   0 2682.16 254.365   4
  -1 -10   0 2320.56 171.456  10
  -1 -10   0 2458.68 248.263   5
   1  10   1 242.032 123.573   4
  -1 -10  -1 382.935 134.558   5
  -1 -10  -1 216.846 96.7614  10
  -1 -10  -2 1286.45 160.822  10
  -1 -10  -2 1208.36 181.637   5
   1  10   2 1254.10 180.927   4
   1  10   3 366.587 153.218   4
  -1 -10  -3 283.832 107.316   5
   1  10   4 128.708 117.069   4
  -1 -10  -4 198.178 136.287   5
   1  10   5 2042.58 246.457   4
  -1 -10  -5 1744.34 209.100   5
  -1 -10  -6 3553.73 294.314   5
   1  10   6 3482.43 243.678   2
   1  10   6 4370.83 346.829   4
  -1 -10  -7 3152.08 283.901   5
  -1 -10  -8 227.879 134.527   6
  -1 -10  -8 147.898 117.578   5
  -1 -10  -9 1479.41 218.855   6
  -1 -10  -9 1365.78 219.551   5
  -1 -10 -10 282.858 139.237   5
  -1 -11   7 856.223 212.100   6
   1  11  -7 751.716 166.914   4
  -1 -11   6 1514.09 238.928   6
   1  11  -6 1484.55 219.028   4
   1  11  -5 5036.19 362.617   4
   1  11  -4 2526.50 271.661   4
  -1 -11   3 174.835 123.049   5
   1  11  -3 48.2824 124.539   4
   1  11  -2 1192.41 196.518   4
  -1 -11   2 1004.81 187.084   5
  -1 -11   1 3293.79 304.083   5
   1  11  -1 3453.64 300.925   4
   1  11   0 2557.18 262.074   4
  -1 -11   0 2012.08 237.603   5
   1  11   1 1823.80 232.119   4
  -1 -11  -1 1980.55 242.338   5
   1  11   2 11590.9 541.383   4
  -1 -11  -2 10098.2 412.422  10
  -1 -11  -2 11339.4 532.273   5
  -1 -11  -3 6250.72 392.525   5
  -1 -11  -3 6621.12 357.886  10
   1  11   3 7300.06 436.829   4
   1  11   4 3064.64 302.614   4
  -1 -11  -4 3451.01 303.242   5
  -1 -11  -4 3509.87 284.641  10
   1  11   5 13048.1 602.561   4
  -1 -11  -5 13234.9 571.859   5
  -1 -11  -6 4799.69 361.289   5
  -1 -11  -7 1842.76 249.504   6
  -1 -11  -7 1473.52 217.831   5
  -1 -11  -8 95.6824 127.060   6
  -1 -11  -8-68.9172 122.340   5
   1  12  -3 468.963 168.366   4
   1  12  -2 288.805 141.253   4
   1  12  -1 515.025 152.723   4
   1  12   0 3301.40 318.440   4
   1  12   1 461.498 175.000   4
  -1 -12  -1 323.757 140.925   5
  -1 -12  -2 165.677 138.060   5
  -1 -12  -3 1700.26 251.541   5
  -1 -12  -4 672.236 163.506  10
  -1 -12  -4 914.219 191.319   5
  -1 -12  -5 541.076 163.718  10
  -1 -12  -5 486.659 164.291   5
  -1 -12  -6 579.763 170.772  10
  -2  12   1 2056.87 264.481   8
   2 -12   0 243.920 136.094   3
  -2  12   0 12.1585 127.466   8
   2 -12   1 5340.25 374.421   3
  -2  12  -1 6203.45 398.975   8
   2 -12   2 2368.58 265.988   3
   2 -12   2 2354.63 259.491   5
   2 -12   3 713.974 179.784   5
   2 -12   3 451.214 163.980   3
   2 -11  -5 4362.86 326.917   3
   2 -11  -4 612.878 154.295   3
   2 -11  -3 424.366 139.488   3
  -2  11   3 186.896 134.973   8
  -2  11   3 415.477 173.501   9
  -2  11   2 72.6110 128.089   8
  -2  11   2-161.075 134.343   9
   2 -11  -2 238.085 125.269   3
   2 -11  -1 874.380 166.031   3
  -2  11   1 619.871 163.193   8
  -2  11   1 834.987 179.735   9
   2 -11   0 535.092 152.565   3
  -2  11   0 540.922 175.920   9
  -2  11   0 290.370 128.097   8
   2 -11   0 528.016 129.391   5
   2 -11   1-153.219 123.398   3
   2 -11   1-26.4332 102.858   5
  -2  11  -1-138.115 109.493   8
  -2  11  -2 279.791 116.808   8
   2 -11   2 348.834 127.869   3
  -2  11  -2 609.297 181.412   9
   2 -11   2 347.447 134.684   5
  -2  11  -3 513.277 182.062   9
   2 -11   3 274.987 122.954   5
  -2  11  -3 272.652 114.573   8
  -2  11  -4 81.0293 150.519   9
   2 -11   4-69.0851 125.158   5
   2 -11   5 302.235 128.990   5
   2 -10  -8 1318.96 218.523   3
  -2  10   8 1436.73 213.770   9
  -2  10   7 339.796 112.146   9
   2 -10  -7 781.896 190.889   3
   2 -10  -6 877.534 171.563   3
  -2  10   6 524.919 149.905   9
  -2  10   5-228.392 150.935   8
   2 -10  -5 11.3618 125.479   3
   2 -10  -4 359.714 140.056   3
  -2  10   4 267.354 141.638   9
  -2  10   4 432.356 167.953   8
  -2  10   3 2268.24 260.715   9
   2 -10  -3 2583.84 241.948   3
  -2  10   3 2371.24 259.602   8
   2 -10  -2 2796.66 250.399   3
   2 -10  -2 2485.34 207.011   5
  -2  10   2 2277.31 250.395   8
  -2  10   2 1499.97 209.734   9
  -2  10   1 1191.16 205.673   9
   2 -10  -1 937.248 138.298   5
  -2  10   1 1139.23 184.936   8
   2 -10  -1 1230.23 184.081   3
   2 -10   0 683.678 127.091   5
  -2  10   0 869.437 177.970   9
  -2  10   0 615.338 152.857   8
   2 -10   0 583.382 130.695   3
   2 -10   1 1316.25 192.243   3
  -2  10  -1 1695.43 232.085   9
  -2  10  -1 1634.54 198.460   8
   2 -10   1 1443.12 183.920   5
   2 -10   2 7466.01 382.886   5
  -2  10  -2 7716.04 443.540   9
  -2  10  -2 7345.55 364.856   8
   2 -10   3 4630.63 319.219   5
  -2  10  -3 4468.40 345.822   9
  -2  10  -3 4819.62 283.933   8
  -2  10  -4 4263.43 257.298   8
   2 -10   4 4046.79 308.769   5
  -2  10  -4 4583.99 348.922   9
   2 -10   5 10165.4 500.892   5
   2 -10   5 9954.18 463.732   2
  -2  10  -5 9921.44 501.925   9
   2 -10   6 2051.16 242.767   2
   2 -10   6 2511.31 281.896   5
  -2  10  -6 2268.29 257.985   9
   2 -10   7 2625.11 286.033   2
   2 -10   7 2385.19 273.104   5
  -2  10  -7 2926.16 291.616   9
  -2  10  -8 3922.97 324.586   9
   2  -9  -9 280.702 155.132   3
  -2   9   8 2376.89 246.418   9
   2  -9  -8 2675.82 283.309   3
   2  -9  -7 998.082 183.461   3
  -2   9   7 536.500 149.594   9
  -2   9   7 610.240 186.643   8
   2  -9  -6 5885.33 365.989   3
  -2   9   6 5176.05 350.162   9
  -2   9   6 5068.88 376.882   8
  -2   9   5 3320.92 301.606   8
  -2   9   5 2751.50 266.991   9
   2  -9  -5 3082.07 271.368   3
   2  -9  -4 349.356 116.911   3
  -2   9   4 308.639 127.150   8
  -2   9   4 354.666 130.108   9
  -2   9   3 93.1915 108.550   9
  -2   9   3-117.127 114.678   8
   2  -9  -3-52.5294 68.7536   5
   2  -9  -3 61.4281 99.9422   3
   2  -9  -2 3617.34 271.942   3
  -2   9   2 2950.36 269.908   9
   2  -9  -2 3255.19 210.519   5
  -2   9   2 3474.37 278.898   8
   2  -9  -1 2470.16 228.511   3
  -2   9   1 2894.87 267.347   9
  -2   9   1 2773.33 240.237   8
   2  -9  -1 2911.60 207.380   5
   2  -9   0 1910.04 208.313   3
   2  -9   0 2249.07 195.622   5
  -2   9   0 2113.27 208.266   8
  -2   9   0 1930.28 224.194   9
   2  -9   1 3225.31 236.990   5
   2  -9   1 3139.52 250.980   3
  -2   9  -1 3502.15 294.594   9
  -2   9  -1 3340.25 245.635   8
  -2   9  -2 1593.05 210.728   9
  -2   9  -2 1713.90 178.203   8
   2  -9   2 1700.18 188.835   5
   2  -9   3 1872.09 185.740   2
   2  -9   3 1707.48 192.738   5
  -2   9  -3 1888.17 176.786   8
  -2   9  -3 1994.38 234.061   9
   2  -9   4 35.2696 92.7785   2
   2  -9   4 258.711 117.620   5
  -2   9  -4 112.181 121.287   9
  -2   9  -4 262.713 87.3062   8
  -2   9  -4 183.076 84.1341   1
   2  -9   5 1135.35 177.412   2
   2  -9   5 1181.59 200.567   5
  -2   9  -5 926.036 131.598   1
  -2   9  -5 893.138 168.317   9
   2  -9   6 454.405 150.185   2
  -2   9  -6 563.542 151.074   7
  -2   9  -6 541.263 160.828   9
   2  -9   6 745.735 159.133   5
  -2   9  -6 524.210 122.681   1
   2  -9   7 4807.24 363.000   5
   2  -9   7 4618.68 345.686   2
  -2   9  -7 4623.50 292.474   1
  -2   9  -7 5067.47 347.816   9
  -2   9  -7 3880.64 340.478   7
   2  -9   8 4044.41 345.928   2
   2  -9   8 3642.28 327.398   5
  -2   9  -8 4030.81 297.897   1
  -2   9  -8 3799.18 304.539   9
  -2   9  -8 4038.73 362.485   7
  -2   9  -9 90.4892 126.668   1
  -2   9  -9 34.4603 106.044   9
  -2   9 -10 1496.12 218.914   1
   2  -8 -10 1729.75 253.606   3
   2  -8  -9 224.140 177.548   3
  -2   8   8-100.144 100.951   9
  -2   8   8-100.790 127.330   8
   2  -8  -8 132.504 134.833   3
  -2   8   7 370.104 121.347   9
  -2   8   7 1.33351 124.986   8
   2  -8  -7 314.000 137.620   3
  -2   8   6 389.009 90.6443  11
  -2   8   6 256.941 103.332   9
   2  -8  -6 465.825 141.870   3
  -2   8   6 393.090 131.775   8
   2  -8  -5 4290.88 293.157   3
  -2   8   5 4706.40 311.592   9
  -2   8   5 4069.06 309.698   8
   2  -8  -4 940.184 167.787   3
   2  -8  -4 848.747 100.469   5
  -2   8   4 812.775 157.069   9
  -2   8   4 809.577 169.068   8
   2  -8  -3 8194.75 284.282   5
   2  -8  -3 7787.77 370.438   3
  -2   8   3 8276.12 406.495   9
  -2   8   3 7183.16 380.416   8
   2  -8  -2 7097.89 350.490   3
   2  -8  -2 7783.39 285.099   5
  -2   8   2 7462.18 384.265   9
   2  -8  -2 7025.25 274.466  11
  -2   8   2 7184.82 369.386   8
   2  -8  -1 10338.3 414.583   3
   2  -8  -1 10585.5 346.432   5
  -2   8   1 10074.7 416.378   8
   2  -8  -1 10470.0 335.497  11
  -2   8   1 10897.5 458.972   9
  -2   8   1 10756.9 256.716   2
   2  -8   0 4149.06 269.360   3
   2  -8   0 3942.08 215.989  11
  -2   8   0 4537.93 304.592   9
  -2   8   0 4388.67 195.726   2
   2  -8   0 4232.11 236.607   5
  -2   8   0 4013.75 260.086   8
   2  -8   1 417.367 98.9568   5
   2  -8   1 494.130 98.9835  11
  -2   8  -1 400.746 124.921   9
  -2   8  -1 325.796 77.3206   2
  -2   8  -1 719.582 128.647   8
   2  -8   2-0.21842 79.2696   2
   2  -8   2 244.576 93.3732   5
  -2   8  -2 4.58545 55.0867   1
  -2   8  -2 224.372 107.594   9
  -2   8  -2 179.019 74.5012   2
  -2   8  -2 150.479 87.0655   8
   2  -8   2 149.595 84.1658   4
  -2   8  -3 13992.2 417.087   8
   2  -8   3 13928.2 476.807   5
  -2   8  -3 13841.7 377.141   1
   2  -8   3 13573.2 442.511   2
  -2   8  -3 13979.9 520.088   9
   2  -8   3 13213.1 383.754  10
   2  -8   3 13718.8 392.964   4
   2  -8   4 2543.80 218.034   2
  -2   8  -4 2220.41 225.462   9
  -2   8  -4 2255.05 168.739   8
  -2   8  -4 2591.83 182.439   1
   2  -8   4 2762.08 235.788   5
   2  -8   5 1319.97 178.159   2
  -2   8  -5 831.612 158.927   7
  -2   8  -5 1113.96 168.084   9
  -2   8  -5 1149.15 140.205   1
  -2   8  -5 923.628 106.098   8
   2  -8   5 1078.59 169.831   5
  -2   8  -6 1536.15 212.903   7
  -2   8  -6 1675.46 175.164   1
  -2   8  -6 1559.31 187.302   9
   2  -8   6 1337.68 191.394   2
  -2   8  -7 3643.13 279.709   9
   2  -8   7 3703.64 303.675   2
  -2   8  -7 3855.60 271.558   1
  -2   8  -7 3714.82 309.127   7
  -2   8  -8 7909.64 394.825   9
  -2   8  -8 7696.10 392.134   1
   2  -8   8 7629.79 442.324   2
  -2   8  -8 7462.78 444.149   7
  -2   8  -9 373.292 160.923   7
  -2   8  -9 433.408 124.002   9
  -2   8  -9 118.155 112.275   1
   2  -8   9 363.689 164.838   2
  -2   8 -10 856.110 182.014   1
  -2   8 -11 618.660 174.997   1
   2  -7 -10 2067.42 262.958   3
   2  -7  -9 1182.59 213.513   3
  -2   7   9 1086.09 200.242   8
  -2   7   9 891.339 146.127  11
  -2   7   8 5531.14 314.806   9
   2  -7  -8 5445.76 357.750   3
  -2   7   8 4781.45 279.766  11
  -2   7   8 5009.29 363.811   8
   2  -7  -7 3543.91 282.322   3
  -2   7   7 3076.65 212.177  11
  -2   7   7 3042.64 238.531   9
  -2   7   7 3353.82 290.252   8
  -2   7   6 8575.18 431.792   8
  -2   7   6 8476.00 386.315   9
   2  -7  -6 8490.17 406.124   3
  -2   7   6 9227.81 342.595  11
   2  -7  -5 3185.44 251.806   3
  -2   7   5 3118.40 240.085   9
  -2   7   5 2675.99 246.329   8
  -2   7   5 2952.78 191.500  11
   2  -7  -5 2972.77 146.371   5
  -2   7   4 8718.11 409.957   8
   2  -7  -4 8191.23 242.971   5
   2  -7  -4 8142.01 372.317   3
  -2   7   4 8455.61 381.911   9
   2  -7  -4 8433.46 266.036   1
   2  -7  -3 22648.1 415.290   5
   2  -7  -3 23563.9 607.473   3
   2  -7  -3 21560.7 476.672  11
  -2   7   3 22060.5 615.667   8
  -2   7   3 22546.1 614.667   9
   2  -7  -3 23060.0 408.841   1
   2  -7  -2 914.998 149.041   3
   2  -7  -2 1080.88 109.277   5
   2  -7  -2 1160.22 125.076  11
  -2   7   2 1065.98 160.221   9
   2  -7  -2 1000.10 91.5088   1
  -2   7   2 1316.11 167.956   8
  -2   7   2 806.854 44.1082   2
   2  -7  -1 2776.10 216.890   3
  -2   7   1 2970.16 124.615   2
   2  -7  -1 2618.11 138.034   1
   2  -7  -1 2829.82 178.496  11
   2  -7  -1 3146.67 180.253   5
  -2   7   1 3165.82 244.384   9
  -2   7   1 3045.63 228.473   8
   2  -7   0 1626.48 141.770   5
   2  -7   0 1347.03 161.572   3
   2  -7   0 1558.63 140.600  11
  -2   7   0 1693.75 195.252   9
  -2   7   0 1663.33 115.615   2
   2  -7   0 1609.26 117.284   1
  -2   7   0 1125.36 144.731   8
   2  -7   1 5745.52 264.704   5
   2  -7   1 5584.14 259.227  11
  -2   7  -1 5960.79 220.541   1
   2  -7   1 5715.56 237.304   2
   2  -7   1 5756.65 260.719   4
  -2   7  -1 6010.73 236.981   2
  -2   7  -1 5885.46 322.301   9
  -2   7  -1 5855.75 280.869   8
  -2   7  -2 1376.13 119.816   1
   2  -7   2 1512.83 143.723   2
   2  -7   2 1746.95 167.844   5
   2  -7   2 1579.07 140.932  10
  -2   7  -2 1157.28 124.004   2
  -2   7  -2 1425.93 169.741   9
  -2   7  -2 1622.91 150.821   8
   2  -7   2 1156.40 135.859  11
   2  -7   2 1264.55 130.914   4
  -2   7  -3 426.953 86.2624   8
   2  -7   3 451.025 84.2292  10
  -2   7  -3 791.413 138.454   9
  -2   7  -3 551.007 96.6221   1
   2  -7   3 609.591 119.253   5
   2  -7   3 628.575 94.1133   4
   2  -7   3 615.500 116.799   2
  -2   7  -4 4264.55 226.816   1
  -2   7  -4 4652.50 288.839   9
   2  -7   4 4275.10 205.382  10
   2  -7   4 3958.92 182.544   4
   2  -7   4 4333.81 264.787   2
  -2   7  -4 4330.82 203.425   8
  -2   7  -4 4601.29 297.592   7
  -2   7  -5 351.498 129.107   7
  -2   7  -5 315.307 95.8572   1
  -2   7  -5 693.506 137.864   9
   2  -7   5 340.960 74.9195  10
  -2   7  -5 336.666 66.9154   8
   2  -7   5 278.430 64.1293   4
   2  -7   5 408.750 127.326   2
  -2   7  -6 867.845 160.770   7
  -2   7  -6 701.021 121.200   1
  -2   7  -6 786.549 135.736   9
  -2   7  -6 611.748 69.6684   8
   2  -7   6 973.018 174.990   2
  -2   7  -7 3205.17 246.413   1
   2  -7   7 3295.52 279.709   2
  -2   7  -7 2530.24 215.969   9
  -2   7  -7 2863.53 264.228   7
   2  -7   8 3561.33 303.363   2
  -2   7  -8 3753.01 258.146   9
  -2   7  -8 3393.55 265.458   1
  -2   7  -8 2973.95 278.074   7
  -2   7  -9 1336.73 198.484   7
  -2   7  -9 1365.59 169.042   9
  -2   7  -9 1431.41 199.848   1
   2  -7   9 1697.52 238.175   2
  -2   7 -10 2101.05 274.143   7
  -2   7 -10 1680.03 221.528   1
   2  -7  10 1985.77 266.108   2
  -2   7 -11 1921.65 246.637   1
  -2   6  11 327.477 122.441  11
   2  -6 -11 384.604 152.116   3
  -2   6  11 451.027 168.226   8
  -2   6  10 365.249 114.904  11
  -2   6  10 60.4030 124.813   8
   2  -6 -10 152.388 149.328   3
   2  -6  -9 265.518 133.333   3
  -2   6   9 153.082 98.2765  11
  -2   6   9-2.94878 135.795   8
  -2   6   8 538.339 143.495   8
  -2   6   8 940.465 134.992   9
  -2   6   8 739.795 128.964  11
   2  -6  -7 2018.30 221.858   3
  -2   6   7 1723.75 168.066  11
  -2   6   7 1697.03 172.803   9
  -2   6   7 1892.72 221.099   8
  -2   6   6 9607.37 378.678   9
   2  -6  -6 8925.88 401.699   3
  -2   6   6 8801.37 339.138  11
  -2   6   6 9252.75 424.656   8
  -2   6   5 18137.5 516.186   9
   2  -6  -5 18115.9 545.324   3
  -2   6   5 18742.6 466.651  11
   2  -6  -5 18511.7 434.300   1
   2  -6  -5 17862.0 296.775   5
  -2   6   5 17846.2 569.376   8
   2  -6  -4 2979.77 170.089   1
   2  -6  -4 2347.51 205.293   3
  -2   6   4 2652.30 209.999   9
   2  -6  -4 2778.97 123.178   5
  -2   6   4 2985.41 237.679   8
  -2   6   4 2725.21 180.138  11
  -2   6   3 7868.78 354.813   8
   2  -6  -3 8265.34 218.632   5
  -2   6   3 7906.94 284.102  11
   2  -6  -3 7460.24 285.095  11
  -2   6   3 7705.32 339.501   9
   2  -6  -3 7598.51 250.013   1
   2  -6  -3 7916.31 344.083   3
   2  -6  -2 22853.3 475.550  11
   2  -6  -2 24737.0 397.469   5
  -2   6   2 23925.8 589.704   9
   2  -6  -2 24363.0 580.112   3
  -2   6   2 23571.5 581.766   8
   2  -6  -2 24105.3 421.177   1
   2  -6  -1 9592.94 363.198   3
  -2   6   1 9670.11 377.904   9
   2  -6  -1 9611.26 263.606   1
  -2   6   1 9210.28 354.767   8
   2  -6  -1 9450.36 309.588  11
   2  -6  -1 9452.57 333.541   4
  -2   6   1 9612.89 193.413   2
   2  -6  -1 10279.5 276.749   5
   2  -6   0 13399.6 427.241   3
   2  -6   0 13745.9 318.296   1
   2  -6   0 13851.0 345.163   5
   2  -6   0 13938.6 376.543  11
  -2   6   0 14117.9 414.917   8
   2  -6   0 14081.3 295.975   2
  -2   6   0 14013.4 453.253   9
  -2   6   0 13869.2 287.691   2
   2  -6   0 13788.3 381.244   4
  -2   6  -1 22305.0 498.046   8
  -2   6  -1 23524.6 431.539   1
   2  -6   1 23088.9 473.485   5
   2  -6   1 23334.9 428.788   1
  -2   6  -1 23760.1 586.260   9
   2  -6   1 23027.0 463.538   4
   2  -6   1 23352.3 431.861   2
   2  -6   1 23128.5 493.889  11
  -2   6  -1 23179.2 422.747   2
  -2   6  -2 5120.35 232.380   8
   2  -6   2 5468.42 239.127   2
   2  -6   2 5257.63 212.363   4
   2  -6   2 5179.00 250.080  11
   2  -6   2 6281.64 253.141  10
  -2   6  -2 5436.28 286.823   9
  -2   6  -2 4998.35 223.306   2
  -2   6  -2 5087.21 216.796   1
   2  -6   3 11320.9 329.193  10
   2  -6   3 11875.9 373.205   2
  -2   6  -3 11193.8 403.863   9
  -2   6  -3 11854.5 343.734   1
  -2   6  -3 10914.8 313.249   8
   2  -6   3 11189.3 284.424   4
  -2   6  -3 11893.4 363.865   2
  -2   6  -3 11262.9 419.164   7
   2  -6   4 10538.1 380.475   2
  -2   6  -4 10715.4 286.361   8
   2  -6   4 10694.6 311.407  10
   2  -6   4 9873.08 246.298   4
  -2   6  -4 10598.1 346.254   1
  -2   6  -4 10182.0 387.766   9
  -2   6  -4 10365.9 415.497   7
  -2   6  -5 688.685 111.362   1
   2  -6   5 628.136 90.7687  10
  -2   6  -5 753.878 77.7247   8
  -2   6  -5 696.763 125.895   9
  -2   6  -5 666.267 134.964   7
   2  -6   5 674.945 69.6452   4
   2  -6   5 980.934 154.576   2
   2  -6   6 12865.2 467.103   2
   2  -6   6 12360.7 320.844  10
  -2   6  -6 12319.5 421.691   9
  -2   6  -6 11139.6 209.593   8
  -2   6  -6 13592.1 443.460   1
  -2   6  -6 12353.3 473.375   7
   2  -6   7 10569.7 450.651   2
   2  -6   7 10389.8 291.683  10
  -2   6  -7 10517.5 392.012   9
  -2   6  -7 10825.3 423.727   1
  -2   6  -7 11241.9 476.201   7
  -2   6  -8 9729.73 376.629   9
   2  -6   8 10141.2 466.501   2
  -2   6  -8 10257.6 441.298   1
  -2   6  -8 10601.9 477.660   7
   2  -6   9 11571.0 524.262   2
  -2   6  -9 13080.6 517.802   1
  -2   6  -9 12306.2 417.287   9
  -2   6  -9 12458.8 537.902   7
  -2   6 -10 120.764 112.122   7
  -2   6 -10 280.537 138.442   1
  -2   6 -10 45.7228 66.6117   9
   2  -6  10 340.150 150.814   2
  -2   6 -11 4644.34 361.217   1
   2  -6  11 4616.18 382.022   2
  -2   6 -11 5003.48 383.345   7
  -2   6 -12 1105.43 230.101   1
  -2   5  12 1861.74 238.990  11
  -2   5  12 2039.26 263.253   8
  -2   5  11 352.832 165.720  11
  -2   5  11 49.1955 122.933   8
   2  -5 -11-60.0394 129.505   3
   2  -5 -11-47.3277 159.056   7
  -2   5  10 1827.57 215.097  11
  -2   5  10 1943.54 233.051   8
   2  -5 -10 2123.31 250.385   3
  -2   5   9 74.6461 110.561   8
   2  -5  -9 33.0323 115.564   3
  -2   5   9 128.450 69.3943   9
  -2   5   9 396.680 128.333  11
  -2   5   8 568.518 103.437   9
   2  -5  -8 307.538 129.894   3
  -2   5   8 501.983 120.532  11
  -2   5   8 464.562 123.275   8
  -2   5   7 13192.6 500.106   8
   2  -5  -7 13453.3 501.317   3
  -2   5   7 12133.8 422.033  11
  -2   5   7 12811.7 404.474   9
  -2   5   6 1557.53 78.1415   5
  -2   5   6 1538.44 155.307   9
   2  -5  -6 1701.18 189.048   3
  -2   5   6 1311.64 173.467   8
  -2   5   6 1115.77 137.057  11
   2  -5  -5 21297.0 574.089   3
  -2   5   5 21363.2 518.694   9
  -2   5   5 21508.6 502.459  11
  -2   5   5 20482.8 575.506   8
   2  -5  -4 4538.53 264.650   3
   2  -5  -4 4877.78 218.373   1
  -2   5   4 4603.52 228.543  11
   2  -5  -4 4628.08 233.892  11
   2  -5  -4 4413.36 121.893   5
  -2   5   4 4749.31 280.382   8
  -2   5   4 4338.32 242.414   9
   2  -5  -3 36655.4 695.466   3
   2  -5  -3 36926.5 557.065   1
  -2   5   3 36950.5 598.766  11
   2  -5  -3 36616.8 367.660   5
  -2   5   3 36383.1 672.015   9
  -2   5   3 35677.8 702.341   8
   2  -5  -3 36083.3 602.966  11
  -2   5   2 4331.66 205.051  11
   2  -5  -2 4412.31 187.692   1
   2  -5  -2 4084.56 235.851   3
   2  -5  -2 4299.32 140.783   5
   2  -5  -2 4050.96 204.374  11
  -2   5   2 4416.71 242.170   9
  -2   5   2 3808.35 230.248   8
   2  -5  -2 4202.79 227.848   4
   2  -5  -1 2551.43 185.754   3
   2  -5  -1 2894.67 131.655   5
  -2   5   1 2443.67 184.660   9
   2  -5  -1 2693.04 162.813  11
   2  -5  -1 2512.14 143.024   1
  -2   5   1 2460.72 179.161   8
  -2   5   1 2571.35 90.6582   2
   2  -5  -1 2712.82 174.300   4
   2  -5  -1 2713.72 193.329   7
   2  -5   0 11650.9 377.995   3
   2  -5   0 12356.6 292.084   5
   2  -5   0 12631.6 258.660   2
   2  -5   0 12471.5 346.736  11
  -2   5   0 12146.3 391.338   9
  -2   5   0 12708.5 367.620   8
   2  -5   0 12635.2 306.586   1
   2  -5   0 12004.3 327.632   4
  -2   5   0 12648.3 251.850   2
   2  -5   0 12425.9 387.451   7
   2  -5   1 950.821 97.4454   4
   2  -5   1 811.064 119.827   7
   2  -5   1 1065.01 116.097  11
  -2   5  -1 811.112 96.4475   1
   2  -5   1 1060.74 104.906   2
  -2   5  -1 715.205 117.186   9
  -2   5  -1 988.960 92.6954   2
  -2   5  -1 935.328 106.972   8
   2  -5   1 817.831 91.5403   1
  -2   5  -2 5227.56 215.790   8
   2  -5   2 5389.18 221.427   1
  -2   5  -2 5476.38 267.815   7
   2  -5   2 5579.35 224.217   2
  -2   5  -2 5160.05 214.423   1
   2  -5   2 5621.76 250.813  11
   2  -5   2 5530.69 231.065  10
  -2   5  -2 5189.70 259.462   9
   2  -5   2 5325.95 189.237   4
  -2   5  -2 5202.23 211.261   2
   2  -5   3 4177.53 216.524   2
  -2   5  -3 4403.99 183.651   8
   2  -5   3 4119.48 152.208   4
  -2   5  -3 4113.29 231.989   9
   2  -5   3 4563.43 204.366  10
  -2   5  -3 4082.88 206.976   1
  -2   5  -3 4408.49 215.259   2
  -2   5  -3 4165.89 242.528   7
   2  -5   4 6588.54 286.620   2
   2  -5   4 6719.17 242.160  10
  -2   5  -4 6904.43 207.973   8
  -2   5  -4 6830.94 273.830   1
  -2   5  -4 6414.31 285.955   9
   2  -5   4 6211.90 162.227   4
  -2   5  -4 7025.03 290.049   2
  -2   5  -4 6484.38 308.605   7
  -2   5  -5 615.685 111.466   1
  -2   5  -5 700.645 132.115   7
   2  -5   5 631.472 92.1308  10
  -2   5  -5 360.928 96.0721   9
  -2   5  -5 566.939 61.1640   8
   2  -5   5 356.775 112.978   2
   2  -5   6 5650.86 308.435   2
  -2   5  -6 5314.63 261.259   9
  -2   5  -6 5179.10 276.304   1
  -2   5  -6 5628.42 311.754   7
   2  -5   6 5329.54 219.477  10
   2  -5   7 10841.9 437.706   2
  -2   5  -7 11302.6 422.714   1
  -2   5  -7 10828.2 368.542   9
   2  -5   7 10526.6 305.294  10
  -2   5  -7 10984.9 442.186   7
   2  -5   8 3401.16 275.398   2
  -2   5  -8 3331.28 249.997   1
  -2   5  -8 3336.51 205.951   9
  -2   5  -8 3520.16 273.949   7
  -2   5  -9 449.001 86.8748  10
  -2   5  -9 556.566 145.827   7
  -2   5  -9 448.535 93.2490   9
  -2   5  -9 504.067 134.045   1
   2  -5   9 440.344 133.683   2
   2  -5  10 7708.15 437.340   2
  -2   5 -10 7786.26 421.422   1
  -2   5 -10 7471.58 295.407   9
  -2   5 -10 7520.77 427.916   7
  -2   5 -11 741.923 168.365   7
  -2   5 -11 842.170 171.605   1
   2  -5  11 547.901 158.734   2
  -2   5 -12 2309.68 282.778   7
  -2   5 -12 2576.11 283.407   1
   2  -5  12 2921.58 321.142   2
  -2   4  13 788.674 199.069   8
  -2   4  12 2337.55 274.814  11
  -2   4  12 2568.15 277.157   8
   2  -4 -11 23.7884 132.282   3
  -2   4  11 242.341 130.919  11
  -2   4  11 154.107 119.105   8
  -2   4  10 763.925 171.669  11
   2  -4 -10 466.432 153.323   3
  -2   4  10 444.852 147.368   8
   2  -4 -10 515.243 149.099   7
  -2   4   9 1849.89 214.706   8
  -2   4   9 2281.59 226.386  11
  -2   4   9 1973.73 150.064   9
   2  -4  -9 2142.99 236.839   3
  -2   4   8 605.442 132.055  11
   2  -4  -8 1099.72 171.576   3
  -2   4   8 831.241 158.805   8
  -2   4   8 837.840 112.491   9
  -2   4   7 2989.87 240.119   8
   2  -4  -7 3024.80 190.550   6
  -2   4   7 2836.57 179.111   9
   2  -4  -7 2997.68 245.722   3
  -2   4   7 2610.16 215.858  11
  -2   4   7 2367.36 102.035   5
  -2   4   6 461.016 94.7723   9
  -2   4   6 190.573 89.3408   8
  -2   4   6 241.595 33.5870   5
   2  -4  -6 441.182 120.557   3
  -2   4   6 320.727 95.6826  11
  -2   4   5 1776.80 160.274  11
   2  -4  -5 1490.21 170.480   3
  -2   4   5 1587.45 145.283   9
  -2   4   5 1549.50 173.064   8
   2  -4  -4 7760.94 326.993   3
  -2   4   4 7643.14 291.621  11
  -2   4   4 7988.79 298.455   9
   2  -4  -4 7979.10 303.769  11
  -2   4   4 7784.43 329.936   8
   2  -4  -3 8750.03 277.830   1
   2  -4  -3 8726.81 330.109   3
  -2   4   3 8812.92 294.022  11
  -2   4   3 8630.04 310.560   9
   2  -4  -3 8651.03 298.004  11
   2  -4  -3 7098.32 105.872   5
  -2   4   3 8197.88 323.329   8
   2  -4  -2 20649.3 403.660   1
   2  -4  -2 20985.8 487.524   3
  -2   4   2 21253.0 437.031  11
   2  -4  -2 20025.3 428.863  11
   2  -4  -2 19597.9 227.735   5
  -2   4   2 20408.1 481.418   8
  -2   4   2 21361.9 478.036   9
   2  -4  -2 20297.7 487.384   8
  -2   4   1 11435.4 350.872   9
   2  -4  -1 11236.0 353.003   3
   2  -4  -1 10754.0 169.810   2
   2  -4  -1 11059.0 205.513   5
   2  -4  -1 11919.9 327.268  11
   2  -4  -1 10877.0 308.207   4
  -2   4   1 11609.2 319.126  11
   2  -4  -1 11581.9 348.599   8
  -2   4   1 11260.0 341.618   8
   2  -4  -1 11547.5 294.510   1
   2  -4  -1 11216.6 341.155   7
   2  -4   0 16791.7 427.294   3
   2  -4   0 17556.0 277.664   2
   2  -4   0 17537.9 395.693  11
  -2   4   0 17370.5 400.247   8
  -2   4   0 17421.0 428.924   9
   2  -4   0 17706.6 360.855   1
   2  -4   0 17554.8 408.498   8
  -2   4   0 17899.4 275.243   2
   2  -4   0 17850.7 363.317   4
   2  -4   0 17889.2 428.919   7
  -2   4  -1 11581.4 303.499   1
   2  -4   1 11463.8 297.193   1
  -2   4  -1 11710.3 262.230   2
   2  -4   1 11453.7 264.678   2
  -2   4  -1 11060.6 345.892   9
   2  -4   1 11543.7 326.801  11
   2  -4   1 12278.9 334.487  10
  -2   4  -1 11603.3 309.383   8
   2  -4   1 11247.8 262.389   4
   2  -4   1 11757.5 348.371   7
   2  -4   2 56521.8 688.977  10
   2  -4   2 53446.7 636.946   2
  -2   4  -2 54686.7 625.731   8
   2  -4   2 54442.8 668.316   1
   2  -4   2 53874.1 508.265   4
  -2   4  -2 55082.7 760.443   9
   2  -4   2 54840.4 729.462  11
  -2   4  -2 55780.8 672.141   1
  -2   4  -2 55254.5 635.935   2
   2  -4   2 57360.2 769.965   7
  -2   4  -2 56073.7 762.511   7
   2  -4   3 13566.2 336.344  10
   2  -4   3 13423.8 355.690   1
   2  -4   3 13588.9 355.001   2
   2  -4   3 13146.8 215.989   4
  -2   4  -3 13804.8 382.318   9
  -2   4  -3 12886.6 349.464   1
  -2   4  -3 12985.0 283.404   8
  -2   4  -3 13238.0 345.676   2
   2  -4   3 13356.8 387.721   7
  -2   4  -3 13714.7 393.060   7
   2  -4   4 15612.6 409.703   2
  -2   4  -4 15821.3 407.335   1
  -2   4  -4 16668.1 419.417   9
   2  -4   4 15529.2 357.851  10
  -2   4  -4 16041.6 279.372   8
   2  -4   4 12716.7 166.148   4
   2  -4   4 15467.0 432.123   7
  -2   4  -4 15929.3 409.676   2
  -2   4  -4 15555.0 435.852   7
   2  -4   5 11271.4 378.875   2
  -2   4  -5 10784.6 341.226   9
  -2   4  -5 11262.3 372.734   2
   2  -4   5 11447.5 314.165  10
  -2   4  -5 10362.1 190.109   8
  -2   4  -5 10700.0 357.904   1
  -2   4  -5 11060.4 385.035   7
  -2   4  -6 972.412 139.536   7
  -2   4  -6 913.114 133.292   1
  -2   4  -6 1037.98 109.926  10
   2  -4   6 899.161 149.647   2
  -2   4  -6 1052.68 122.758   9
   2  -4   6 1053.17 109.720  10
   2  -4   7 21588.4 589.578   2
  -2   4  -7 21338.0 567.172   1
  -2   4  -7 21495.1 444.199  10
   2  -4   7 21641.9 449.455  10
  -2   4  -7 22154.0 593.900   7
  -2   4  -7 21852.1 479.857   9
  -2   4  -8 1954.26 204.601   7
   2  -4   8 2052.21 157.385   6
  -2   4  -8 2112.29 157.875   9
  -2   4  -8 1808.55 195.532   1
   2  -4   8 2042.00 214.824   2
  -2   4  -8 2121.47 153.196  10
   2  -4   9 11543.6 353.277   6
  -2   4  -9 11522.5 471.898   1
   2  -4   9 11969.2 495.753   2
  -2   4  -9 11763.3 353.402  10
  -2   4  -9 11666.8 345.827   9
  -2   4  -9 11993.6 489.275   7
  -2   4 -10 1885.74 222.674   7
  -2   4 -10 1774.32 152.918  10
  -2   4 -10 1680.39 135.982   9
  -2   4 -10 1652.06 209.429   1
   2  -4  10 1848.64 232.386   2
  -2   4 -11 218.256 130.032   7
  -2   4 -11 165.441 105.371   1
   2  -4  11 181.253 144.493   2
  -2   4 -12 768.953 168.984   1
  -2   4 -12 635.304 169.566   7
   2  -4  12 737.451 186.373   2
  -2   3  13 1167.31 211.648   8
   2  -3 -12 2289.92 272.121   7
  -2   3  12 1402.87 206.374   8
   2  -3 -12 2302.31 285.537   3
  -2   3  12 2423.49 271.571  11
   2  -3 -11 3705.95 340.463   3
   2  -3 -11 3167.33 287.638   7
  -2   3  11 3325.01 296.498  11
  -2   3  11 3141.66 274.901   8
   2  -3 -10 9039.93 469.297   3
  -2   3  10 8749.24 433.790  11
  -2   3  10 9418.67 438.055   8
   2  -3 -10 9786.56 461.641   7
   2  -3  -9 12897.2 526.805   3
  -2   3   9 12291.7 318.799   9
  -2   3   9 11861.8 474.140  11
   2  -3  -9 12334.3 493.643   7
  -2   3   9 12479.7 482.376   8
   2  -3  -8 6101.26 234.352   6
   2  -3  -8 6405.18 360.856   3
  -2   3   8 6135.94 325.628  11
  -2   3   8 6281.11 193.653   5
  -2   3   8 6538.97 241.339   9
  -2   3   8 6822.77 347.960   8
  -2   3   7 2412.01 210.807   8
   2  -3  -7 2314.46 153.204   6
   2  -3  -7 2496.52 232.029   3
  -2   3   7 2435.39 107.410   5
   2  -3  -7 2534.73 109.250   2
  -2   3   7 2577.96 160.358   9
  -2   3   7 2518.29 203.490  11
   2  -3  -6 9509.20 300.026   6
   2  -3  -6 10287.9 404.407   3
  -2   3   6 9125.78 164.549   5
  -2   3   6 10649.0 315.908   9
  -2   3   6 10300.2 391.085   8
  -2   3   6 10439.7 374.849  11
   2  -3  -6 9327.12 168.874   2
   2  -3  -5 10990.9 321.929   6
   2  -3  -5 11720.1 404.045   3
  -2   3   5 11025.5 322.644   9
  -2   3   5 11403.2 394.738   8
  -2   3   5 11027.5 365.060  11
  -2   3   4 32904.2 633.716   3
   2  -3  -4 32201.4 628.523   3
  -2   3   4 31773.4 577.258  11
  -2   3   4 31669.7 621.869   8
  -2   3   4 32795.1 550.307   9
  -2   3   3 3583.31 210.442   3
   2  -3  -3 3614.61 209.398   3
  -2   3   3 3325.28 184.512  11
   2  -3  -3 3612.56 208.815   8
  -2   3   3 3390.56 200.273   8
  -2   3   3 3488.78 186.064   9
   2  -3  -3 3572.82 193.087  11
  -2   3   2 22110.6 439.960  11
   2  -3  -2 22242.1 445.721  11
   2  -3  -2 22656.0 484.121   3
   2  -3  -2 22146.4 477.492   8
  -2   3   2 21688.5 464.283   8
   2  -3  -2 22765.8 426.160   1
  -2   3   2 21602.9 445.879   9
   2  -3  -1 18391.1 216.938   2
   2  -3  -1 18642.7 373.788   1
   2  -3  -1 17645.0 202.350   5
  -2   3   1 18345.3 389.793  11
   2  -3  -1 18609.2 427.764   3
   2  -3  -1 18795.5 417.453   8
   2  -3  -1 18750.0 422.666   9
  -2   3   1 18003.4 410.547   9
  -2   3   1 17644.2 402.705   8
   2  -3  -1 18641.1 397.716  11
   2  -3  -1 18414.5 393.132   7
   2  -3   0 8379.23 284.346   3
  -2   3   0 8213.63 249.176   1
   2  -3   0 7971.22 277.927   9
  -2   3   0 7819.26 273.400   9
   2  -3   0 8222.37 182.461   2
   2  -3   0 8678.41 271.298   8
  -2   3   0 8235.08 261.600   8
  -2   3   0 8475.42 183.574   2
   2  -3   0 8281.00 250.269   1
   2  -3   0 8158.93 264.827  11
   2  -3   0 8167.56 260.358   7
  -2   3  -1 428.254 73.3408   1
   2  -3   1 530.553 61.0050   4
   2  -3   1 506.871 80.2657   7
   2  -3   1 476.129 73.4644   1
  -2   3  -1 533.679 93.6098   9
  -2   3  -1 534.548 65.6882   2
   2  -3   1 514.380 83.6248  10
   2  -3   1 585.037 94.2464   9
   2  -3   1 455.521 78.4443  11
   2  -3   1 587.014 83.4177   8
  -2   3  -1 429.803 70.0692   8
   2  -3   1 491.536 64.6293   2
   2  -3   2 38409.5 509.942   2
   2  -3   2 38910.5 370.932   4
   2  -3   2 39379.3 559.221  10
   2  -3   2 38590.3 553.712   1
  -2   3  -2 38951.9 487.674   8
   2  -3   2 38396.9 587.364  11
   2  -3   2 39053.1 604.719   9
   2  -3   2 38452.5 489.575   8
  -2   3  -2 38204.1 551.169   1
  -2   3  -2 39182.9 513.236   2
  -2   3  -2 37455.8 585.830   9
   2  -3   2 38395.7 576.959   7
  -2   3  -2 38447.4 578.938   7
   2  -3   3 5030.98 208.931   2
   2  -3   3 5286.84 223.825   1
   2  -3   3 5294.88 209.735  10
  -2   3  -3 5465.63 227.857   9
  -2   3  -3 5051.51 220.102   1
   2  -3   3 5101.30 167.093   8
  -2   3  -3 4745.75 159.895   8
   2  -3   3 4464.58 98.1398   4
  -2   3  -3 5256.73 212.827   2
   2  -3   3 5023.73 223.707   7
  -2   3  -3 5365.24 230.942   7
  -2   3  -4 9655.76 299.845   9
   2  -3   4 9445.94 310.155   2
   2  -3   4 9570.92 281.019  10
  -2   3  -4 9858.21 316.582   1
   2  -3   4 9898.26 203.718   8
  -2   3  -4 9702.94 200.598   8
  -2   3  -4 9362.71 278.909  10
  -2   3  -4 9826.46 312.316   2
   2  -3   4 9809.30 322.072   7
  -2   3  -4 9824.32 324.520   7
   2  -3   5 5333.47 255.980   2
  -2   3  -5 4941.71 208.620  10
  -2   3  -5 4724.35 238.110   1
   2  -3   5 5056.80 213.237  10
  -2   3  -5 5075.70 221.054   9
  -2   3  -5 4866.21 242.460   2
   2  -3   5 5222.61 250.941   7
  -2   3  -5 4978.05 247.292   7
   2  -3   6 20966.7 526.631   2
   2  -3   6 21578.1 449.925   6
  -2   3  -6 21189.8 440.652   9
  -2   3  -6 20952.2 519.738   1
   2  -3   6 21538.8 442.249  10
  -2   3  -6 21088.0 434.933  10
  -2   3  -6 21815.8 531.283   7
  -2   3  -7 1840.20 178.621   7
  -2   3  -7 1961.80 183.142   1
   2  -3   7 1910.84 143.573   6
  -2   3  -7 1988.65 143.247   9
  -2   3  -7 2009.73 147.430  10
   2  -3   7 2096.02 195.630   2
   2  -3   8 2945.35 244.151   2
   2  -3   8 2880.93 173.539   6
  -2   3  -8 2671.78 222.134   1
  -2   3  -8 2706.94 174.966  10
  -2   3  -8 2543.94 157.411   9
  -2   3  -8 2908.20 228.055   7
   2  -3   9 6030.64 347.446   2
   2  -3   9 5618.32 228.451   6
  -2   3  -9 5327.64 323.160   1
  -2   3  -9 5473.77 220.720   9
  -2   3  -9 5499.16 255.516  10
  -2   3  -9 5888.16 337.551   7
   2  -3  10 5247.83 343.421   2
  -2   3 -10 5557.02 346.828   1
  -2   3 -10 5281.49 264.846  10
  -2   3 -10 4758.56 197.168   9
  -2   3 -10 4908.23 322.200   7
  -2   3 -11 800.854 168.858   7
  -2   3 -11 976.740 181.328   1
   2  -3  11 811.608 181.281   2
  -2   3 -11 949.393 135.338  10
  -2   3 -12 1895.70 235.487   7
  -2   3 -12 1950.24 248.870   1
   2  -3  12 1398.23 223.327   2
  -2   3 -13 2432.14 280.204   7
   2  -3  13 1935.70 268.147   2
  -2   3 -13 2230.00 274.063   1
  -2   2  13 795.640 166.942   8
   2  -2 -12 712.393 177.823   7
   2  -2 -12 596.487 165.358   3
  -2   2  12 460.782 147.734  11
  -2   2  12 527.542 148.381   8
   2  -2 -11 220.182 119.695   7
  -2   2  11 378.974 149.773  11
   2  -2 -11 220.475 117.558   3
  -2   2  11 329.403 120.842   8
   2  -2 -10 5011.72 325.569   7
   2  -2 -10 4351.70 333.090   3
  -2   2  10 4538.20 298.672   8
  -2   2  10 4093.89 312.901  11
  -2   2   9 324.983 120.781  11
   2  -2  -9 511.428 144.599   3
  -2   2   9 498.436 130.284   8
   2  -2  -9 347.265 107.027   7
   2  -2  -8 3941.76 172.084   6
   2  -2  -8 3989.66 286.076   3
  -2   2   8 4150.09 172.492   5
  -2   2   8 3913.87 175.157   9
  -2   2   8 3927.88 257.651   8
   2  -2  -8 4163.55 268.640   7
  -2   2   8 4221.37 276.866  11
   2  -2  -8 3716.42 180.318   2
  -2   2   7 18576.9 383.313   9
   2  -2  -7 18266.6 376.086   6
   2  -2  -7 19672.6 574.121   3
  -2   2   7 19176.8 544.287  11
  -2   2   7 19192.3 528.160   8
  -2   2   7 19439.5 321.953   5
   2  -2  -7 18327.5 350.667   2
  -2   2   6 4403.99 194.974   9
  -2   2   6 4790.09 262.701  11
   2  -2  -6 4705.98 199.188   6
   2  -2  -6 4863.95 283.786   3
  -2   2   6 5058.02 268.510   8
  -2   2   6 4738.82 136.430   5
   2  -2  -6 4956.02 166.473   2
   2  -2  -5 22940.4 310.124   2
  -2   2   5 19877.0 217.907   5
   2  -2  -5 22821.2 430.914   6
   2  -2  -5 23131.2 550.291   3
  -2   2   5 23629.3 527.472  11
  -2   2   5 22424.9 522.216   8
  -2   2   5 22955.2 432.501   9
  -2   2   4 12136.6 368.724   8
   2  -2  -4 11667.3 196.941   2
   2  -2  -4 11724.8 312.016   6
   2  -2  -4 11907.2 376.420   3
  -2   2   4 12325.9 380.196   3
   2  -2  -4 11304.0 311.135   9
   2  -2  -4 12511.9 375.890   8
  -2   2   4 11877.7 312.672   9
  -2   2   4 11830.9 354.951  11
   2  -2  -3 22596.1 485.799   3
   2  -2  -3 21959.3 424.125   6
  -2   2   3 23252.6 469.095  11
   2  -2  -3 21955.5 245.501   2
   2  -2  -3 23015.0 475.699  11
  -2   2   3 23079.8 490.534   3
   2  -2  -3 22332.6 432.174   9
  -2   2   3 22849.5 430.184   9
   2  -2  -3 22038.7 474.875   8
  -2   2   3 22088.4 469.980   8
  -2   2   2 5396.96 222.077  11
  -2   2   2 5055.31 225.149   3
   2  -2  -2 4912.34 222.576   3
   2  -2  -2 5203.98 209.733   6
   2  -2  -2 5200.85 209.155   9
  -2   2   2 5098.79 207.607   9
   2  -2  -2 5419.15 224.022  11
   2  -2  -2 5321.88 228.850   8
  -2   2   2 5265.46 227.193   8
   2  -2  -1 2933.08 163.704   9
   2  -2  -1 2722.01 160.109   3
   2  -2  -1 2864.76 155.786   1
   2  -2  -1 2891.34 159.888   6
   2  -2  -1 3109.64 167.954  11
  -2   2   1 2877.26 160.370  11
  -2   2   1 2828.02 159.405   8
   2  -2  -1 3011.73 164.862   8
   2  -2  -1 2931.49 99.0314   2
  -2   2   1 2880.66 161.369   9
  -2   2   0 16625.5 359.534  11
   2  -2   0 16345.9 366.531   3
  -2   2   0 16904.9 349.583   8
   2  -2   0 16890.3 367.769  11
   2  -2   0 16310.1 222.847   5
   2  -2   0 16406.2 362.298  10
   2  -2   0 17185.4 356.348   8
  -2   2   0 16604.9 348.476   1
   2  -2   0 16819.0 369.564   9
  -2   2   0 16395.6 364.222   9
   2  -2   0 16180.7 362.738   6
   2  -2   0 17223.1 265.220   2
   2  -2   0 17196.2 354.320   1
   2  -2   0 16631.0 323.190   7
  -2   2  -1 88112.9 747.241   8
  -2   2  -1 88072.8 801.550   1
   2  -2   1 89672.4 847.090   6
   2  -2   1 88911.0 753.655   7
   2  -2   1 88499.0 815.670  10
   2  -2   1 88707.9 805.790   1
   2  -2   1 88391.9 842.876   9
  -2   2  -1 87606.2 829.853   9
   2  -2   1 88178.7 834.536  11
   2  -2   1 87938.7 751.574   8
  -2   2  -1 89155.3 676.410   2
   2  -2   1 87341.3 674.303   2
  -2   2  -1 87311.6 751.954   7
  -2   2  -2 11900.3 277.155   2
   2  -2   2 11964.9 312.331   6
   2  -2   2 12037.4 302.977  10
   2  -2   2 12016.0 320.070  11
   2  -2   2 11211.7 297.266   1
   2  -2   2 12177.1 315.374   9
  -2   2  -2 11684.2 255.896   8
   2  -2   2 11342.6 274.133   2
   2  -2   2 12184.0 263.987   8
  -2   2  -2 11790.0 311.569   9
  -2   2  -2 11388.2 299.497   1
   2  -2   2 11647.1 286.477   7
  -2   2  -2 11767.2 291.465   7
   2  -2   3 3209.00 168.587   6
   2  -2   3 3115.63 173.135   1
  -2   2  -3 3190.43 165.461   9
  -2   2  -3 3205.36 127.955   8
  -2   2  -3 3004.72 160.364  10
   2  -2   3 3202.88 169.030   9
  -2   2  -3 3306.35 177.664   1
   2  -2   3 3104.99 126.058   8
   2  -2   3 3147.36 163.728  10
  -2   2  -3 3083.09 161.628   2
   2  -2   3 3185.11 165.843   7
  -2   2  -3 3346.72 169.004   7
   2  -2   3 3290.20 165.504   2
   2  -2   4 845.115 99.6565  10
   2  -2   4 775.922 96.0919   7
  -2   2  -4 756.922 96.5534   7
  -2   2  -4 1012.37 112.596   1
   2  -2   4 730.088 94.3524   6
  -2   2  -4 811.297 95.4920   9
   2  -2   4 687.600 102.649   1
  -2   2  -4 771.161 95.1047  10
  -2   2  -4 668.146 95.6251   2
   2  -2   4 808.056 94.7945   9
   2  -2   4 797.966 106.009   2
   2  -2   4 804.446 62.1193   8
  -2   2  -4 775.537 62.2976   8
   2  -2   5 18950.9 450.935   2
   2  -2   5 19327.8 397.724   6
  -2   2  -5 18564.8 399.858  10
  -2   2  -5 18887.5 452.285   1
   2  -2   5 18388.0 402.124  10
  -2   2  -5 18042.5 379.387   9
  -2   2  -5 18909.1 450.069   2
   2  -2   5 18697.5 392.999   9
   2  -2   5 18561.1 232.590   8
   2  -2   5 18172.1 432.595   7
  -2   2  -5 18907.0 443.869   7
   2  -2   6 30106.1 605.993   2
   2  -2   6 29925.2 495.073   6
   2  -2   6 29659.3 599.060   3
  -2   2  -6 29452.8 600.044   1
   2  -2   6 29337.5 525.644  10
  -2   2  -6 29325.2 521.427  10
   2  -2   6 29465.1 495.495   9
  -2   2  -6 30241.2 490.795   9
   2  -2   6 24259.0 197.448   8
  -2   2  -6 29476.5 597.419   2
   2  -2   6 29820.2 599.771   7
  -2   2  -6 29988.8 593.702   7
   2  -2   7 27292.7 617.550   2
   2  -2   7 27060.6 472.029   6
  -2   2  -7 26937.6 607.087   1
  -2   2  -7 26864.9 460.436   9
  -2   2  -7 26979.9 523.776  10
  -2   2  -7 26194.5 591.100   7
   2  -2   8 36644.1 759.285   2
   2  -2   8 37338.2 544.243   6
  -2   2  -8 36372.1 751.853   1
  -2   2  -8 36587.6 638.113  10
  -2   2  -8 36542.5 530.250   9
  -2   2  -8 36423.8 742.284   7
   2  -2   9 3342.16 166.764   6
  -2   2  -9 3133.42 249.966   1
  -2   2  -9 3504.51 213.431  10
  -2   2  -9 3200.28 158.347   9
  -2   2  -9 2629.99 101.123   4
  -2   2  -9 2849.19 104.564   4
   2  -2   9 3403.99 258.644   2
  -2   2  -9 3307.56 252.841   7
  -2   2 -10 1659.77 196.249   7
  -2   2 -10 1764.10 166.734  10
  -2   2 -10 1472.14 90.2002   4
  -2   2 -10 1998.99 220.806   1
   2  -2  10 1535.46 195.306   2
  -2   2 -11 8844.73 448.649   1
   2  -2  11 9161.16 457.980   2
  -2   2 -11 9813.34 384.116  10
  -2   2 -11 9680.07 463.257   7
  -2   2 -12 727.679 163.432   7
  -2   2 -12 1101.54 200.528   1
   2  -2  12 972.577 201.440   2
  -2   2 -12 1024.94 148.251  10
  -2   2 -13 108.449 112.844   7
  -2   2 -13 53.8081 86.7153  10
  -2   2 -13-80.5037 128.533   1
   2  -2  13 124.738 159.062   2
   2  -1 -13 978.053 201.353   7
   2  -1 -12 4198.87 360.926   3
  -2   1  12 3479.06 326.184  11
  -2   1  12 4562.85 316.013   8
   2  -1 -12 4039.20 323.155   7
  -2   1  11 2776.50 288.808  11
   2  -1 -11 2704.03 291.430   3
   2  -1 -11 2725.29 254.318   7
  -2   1  11 2135.33 212.868   8
  -2   1  10 4854.47 299.860   8
   2  -1 -10 4158.43 323.999   3
  -2   1  10 4982.25 344.422  11
   2  -1 -10 3889.16 287.040   7
  -2   1   9 16538.4 570.989  11
   2  -1  -9 17235.4 597.149   3
  -2   1   9 16244.8 513.147   8
   2  -1  -9 16958.4 533.929   7
  -2   1   8 882.160 94.1105   5
   2  -1  -8 915.998 83.5077   6
  -2   1   8 833.041 143.158  11
   2  -1  -8 938.045 164.256   3
   2  -1  -8 816.331 108.618   2
  -2   1   8 840.693 134.113   8
   2  -1  -8 916.993 142.664   7
   2  -1  -7 5793.32 229.436   2
  -2   1   7 5486.26 301.969  11
   2  -1  -7 5862.13 203.464   6
   2  -1  -7 5709.55 316.686   3
  -2   1   7 5461.34 279.581   8
   2  -1  -7 5756.94 282.724   7
   2  -1  -6 3836.89 175.605   2
   2  -1  -6 3968.49 172.496   6
   2  -1  -6 4386.38 264.882   3
  -2   1   6 3807.61 241.482  11
   2  -1  -6 3821.69 173.390   9
  -2   1   6 3962.00 177.023   9
  -2   1   6 4169.09 237.452   8
   2  -1  -6 4007.95 219.908   7
   2  -1  -5 29683.7 430.126   2
   2  -1  -5 29732.2 465.332   6
   2  -1  -5 30261.0 617.616   3
  -2   1   5 30357.8 341.945   5
  -2   1   5 29596.2 598.640  11
  -2   1   5 31170.5 477.320   9
   2  -1  -5 30122.2 469.402   9
   2  -1  -5 30411.2 594.260   8
  -2   1   5 30577.3 588.366   8
  -2   1   4 3300.83 197.339   3
   2  -1  -4 3014.97 155.208   6
   2  -1  -4 3176.71 201.044   3
  -2   1   4 3188.42 188.066   8
   2  -1  -4 3063.66 132.929   2
  -2   1   4 2814.72 89.7736   5
  -2   1   4 3612.28 205.412  11
   2  -1  -4 3308.37 162.759   9
  -2   1   4 3120.54 158.774   9
   2  -1  -4 3021.91 186.115   8
   2  -1  -3 2391.56 139.739   6
   2  -1  -3 2301.05 159.941   3
   2  -1  -3 2580.87 171.811  11
  -2   1   3 2275.31 156.753  11
   2  -1  -3 2035.82 101.638   2
   2  -1  -3 2184.32 133.018   9
  -2   1   3 1989.20 128.951   9
  -2   1   3 2382.90 161.763   3
   2  -1  -3 2174.34 156.541   8
  -2   1   3 2059.54 151.935   8
  -2   1   2 140338. 1096.09   3
   2  -1  -2 137787. 1081.32   3
   2  -1  -2 140543. 1092.51  11
   2  -1  -2 136703. 1005.92   6
  -2   1   2 138665. 1080.81  11
  -2   1   2 138110. 1001.01   9
   2  -1  -2 137701. 1003.64   9
   2  -1  -2 138566. 1086.63   8
  -2   1   2 137062. 1077.37   8
  -2   1   1 8438.98 257.289   3
   2  -1  -1 7990.71 253.034   3
   2  -1  -1 8316.77 251.094   6
   2  -1  -1 8291.83 247.839   9
   2  -1  -1 8026.92 254.598  11
   2  -1  -1 7748.67 123.471   5
  -2   1   1 8087.65 254.066  11
   2  -1  -1 8283.81 252.822   1
   2  -1  -1 8319.91 256.304   8
  -2   1   1 8022.44 248.071   9
  -2   1   1 8142.37 254.981   8
   2  -1   0 4464.39 186.104   1
   2  -1   0 4513.14 187.715   3
   2  -1   0 4450.69 181.450   8
   2  -1   0 4254.89 184.563   6
  -2   1   0 4248.69 184.012  11
   2  -1   0 4427.10 188.961  11
   2  -1   0 4125.44 180.343  10
  -2   1   0 4212.59 176.781   8
   2  -1   0 4199.97 145.019   2
   2  -1   0 4196.88 116.854   5
   2  -1   0 4483.96 187.988   9
   2  -1   0 4521.69 146.135   7
  -2   1   0 4352.39 183.936   9
  -2   1  -1 11550.0 292.189  10
  -2   1  -1 11498.0 292.603   1
   2  -1   1 11770.8 297.930   6
   2  -1   1 11880.1 301.270  11
  -2   1  -1 11385.4 269.375   8
   2  -1   1 11960.6 229.719   5
  -2   1  -1 11603.8 292.377   9
   2  -1   1 11489.5 291.890  10
   2  -1   1 11656.7 293.212   9
   2  -1   1 11272.7 265.945   8
   2  -1   1 11930.1 255.348   2
   2  -1   1 11520.0 290.836   1
   2  -1   1 11290.5 232.561   7
  -2   1  -1 11876.3 238.866   7
  -2   1  -2 45981.0 578.971  10
   2  -1   2 46667.4 586.615   6
   2  -1   2 47078.9 586.458  10
   2  -1   2 46773.6 599.234  11
   2  -1   2 46069.2 515.888   5
  -2   1  -2 45969.2 540.403   2
   2  -1   2 47047.0 598.818   1
   2  -1   2 46205.1 580.556   9
   2  -1   2 46665.8 504.083   8
  -2   1  -2 46259.0 503.067   8
   2  -1   2 47607.8 550.109   2
  -2   1  -2 46173.6 591.799   1
  -2   1  -2 47763.5 585.428   9
   2  -1   2 46246.1 500.947   7
  -2   1  -2 46085.6 501.086   7
   2  -1   2 47187.4 377.085   4
  -2   1  -3 8632.42 239.661   7
   2  -1   3 8754.51 258.539   6
   2  -1   3 8857.04 274.758   1
   2  -1   3 8271.56 127.104   4
  -2   1  -3 8449.56 258.250  10
   2  -1   3 8510.26 259.644  10
   2  -1   3 8905.14 255.778   5
   2  -1   3 9359.69 263.256   9
  -2   1  -3 8803.16 258.028   9
   2  -1   3 8819.86 208.868   8
  -2   1  -3 8863.46 209.502   8
  -2   1  -3 9073.63 265.019   2
  -2   1  -3 8931.83 275.632   1
   2  -1   3 9004.32 264.739   2
   2  -1   3 8960.32 243.030   7
  -2   1  -4 1073.03 103.165   7
   2  -1   4 930.768 69.1528   8
   2  -1   4 1060.08 107.180   2
  -2   1  -4 1001.45 112.045   1
   2  -1   4 983.898 100.710   7
   2  -1   4 1111.26 102.164   6
   2  -1   4 1060.40 108.388  10
  -2   1  -4 978.265 102.702   2
  -2   1  -4 888.132 98.0847  10
  -2   1  -4 854.498 92.3247   9
   2  -1   4 987.118 103.962   5
   2  -1   4 905.213 111.004   1
   2  -1   4 1225.33 103.130   9
   2  -1   5 2761.94 176.485   5
   2  -1   5 2867.97 152.854   6
  -2   1  -5 2927.31 185.493   1
  -2   1  -5 3008.45 171.231  10
   2  -1   5 2975.34 109.172   8
   2  -1   5 2731.61 148.712   9
   2  -1   5 2755.89 166.649  10
  -2   1  -5 3282.17 159.823   9
  -2   1  -5 2974.07 181.370   2
   2  -1   5 3211.25 178.598   7
  -2   1  -5 3047.33 175.804   7
   2  -1   5 2825.44 180.868   2
   2  -1   6 15551.9 341.612   6
  -2   1  -6 15447.9 429.963   1
   2  -1   6 15525.3 431.978   2
   2  -1   6 15496.6 414.926   3
   2  -1   6 15796.4 431.119   5
   2  -1   6 15288.0 337.153   9
  -2   1  -6 15741.9 338.268   9
  -2   1  -6 15234.6 386.567  10
  -2   1  -6 12988.2 162.742   4
   2  -1   6 15238.9 228.365   8
  -2   1  -6 15618.8 427.247   2
   2  -1   6 15849.2 419.761   7
  -2   1  -6 15467.2 410.395   7
   2  -1   7 11857.2 400.384   2
   2  -1   7 11512.8 293.736   6
  -2   1  -7 11742.6 401.228   1
  -2   1  -7 11238.8 351.517  10
  -2   1  -7 11049.2 187.272   4
   2  -1   7 11482.8 293.433   9
   2  -1   7 11501.0 185.977   8
  -2   1  -7 11762.8 291.946   9
  -2   1  -7 11741.0 385.799   7
   2  -1   8 1810.07 124.534   6
   2  -1   8 1429.22 173.044   2
  -2   1  -8 1696.75 180.682   1
  -2   1  -8 1772.16 156.186  10
   2  -1   8 1781.24 125.084   9
   2  -1   8 1503.34 64.1891   8
   2  -1   8 1505.96 64.2379   8
  -2   1  -8 1839.00 93.5189   4
  -2   1  -8 1958.78 182.926   7
   2  -1   9 4375.22 284.085   2
  -2   1  -9 4289.47 249.564  10
   2  -1   9 3949.16 169.710   6
  -2   1  -9 4231.26 271.728   7
  -2   1  -9 4390.89 288.442   1
  -2   1  -9 4098.20 154.949   4
   2  -1   9 2633.55 64.9145   8
   2  -1  10 5217.29 321.998   2
   2  -1  10 3973.48 160.356   6
  -2   1 -10 4869.46 274.102  10
  -2   1 -10 4821.58 317.147   1
  -2   1 -10 4046.00 169.420   4
  -2   1 -10 4137.31 289.805   7
   2  -1  11 7480.47 407.691   2
  -2   1 -11 7279.14 403.372   1
  -2   1 -11 7856.71 364.161  10
  -2   1 -11 7930.06 418.389   7
  -2   1 -12 315.758 124.360   7
  -2   1 -12 442.131 152.446   1
   2  -1  12 618.019 154.270   2
  -2   1 -13 1325.49 220.063   7
  -2   1 -13 1334.23 188.960  10
  -2   1 -13 1503.16 233.018   1
   2  -1  13 1506.80 222.817   2
   2   0 -13 840.353 190.248   7
   2   0 -12 542.935 148.573   7
  -2   0  12 828.829 188.757  11
   2   0 -12 819.403 197.643   3
  -2   0  12 625.733 133.874   8
   2   0 -11 188.421 104.454   7
  -2   0  11 297.888 150.513  11
   2   0 -11 502.435 181.505   3
  -2   0  11 380.671 116.266   8
  -2   0  10 6746.94 399.141  11
   2   0 -10 6651.62 399.297   3
  -2   0  10 6259.20 328.290   8
   2   0 -10 6706.71 362.356   7
   2   0  -9 7028.88 386.772   3
  -2   0   9 6756.16 330.023   8
   2   0  -9 7089.14 347.976   7
  -2   0   9 6951.22 382.800  11
  -2   0   8 3707.56 236.049   8
   2   0  -8 3801.99 220.176   2
   2   0  -8 3744.61 152.214   6
   2   0  -8 3733.30 272.178   3
   2   0  -8 3561.15 147.804   9
  -2   0   8 3680.63 268.214  11
   2   0  -8 3788.16 240.941   7
   2   0  -7 14856.0 396.499   2
   2   0  -7 15074.2 313.614   6
   2   0  -7 14888.2 493.500   3
  -2   0   7 14885.9 489.666  11
  -2   0   7 15345.0 448.090   8
   2   0  -7 15501.9 433.938   7
   2   0  -7 14309.5 304.518   9
   2   0  -6 21679.4 386.143   6
   2   0  -6 22307.3 452.279   2
   2   0  -6 22713.0 570.251   3
   2   0  -6 22488.4 388.824   9
   2   0  -6 21673.9 509.835   8
  -2   0   6 21690.1 551.249  11
  -2   0   6 21717.1 508.222   8
   2   0  -6 21827.3 473.766   7
   2   0  -5 1561.94 111.824   6
   2   0  -5 1502.32 109.258   9
   2   0  -5 1455.55 118.433   2
  -2   0   5 1498.85 99.8646   5
  -2   0   5 1413.92 145.048   3
   2   0  -5 1454.68 151.506   3
   2   0  -5 1445.11 140.490   8
  -2   0   5 1539.12 151.741  11
  -2   0   5 1435.21 138.900   8
   2   0  -5 1548.78 125.472   7
   2   0  -4 5790.73 205.572   9
   2   0  -4 5550.33 201.584   6
  -2   0   4 5978.79 257.012   3
  -2   0   4 5675.63 201.182   6
   2   0  -4 5563.40 252.075   3
   2   0  -4 5902.57 207.637   2
  -2   0   4 5657.76 161.359   5
   2   0  -4 5219.60 234.426   8
  -2   0   4 5418.65 238.575   8
   2   0  -4 5893.58 207.067   7
  -2   0   4 5336.62 246.726  11
  -2   0   3 2349.17 155.661   3
   2   0  -3 2579.73 141.536   6
  -2   0   3 2065.31 125.720   6
   2   0  -3 2357.08 156.033   3
   2   0  -3 2653.21 172.116  11
  -2   0   3 2566.42 100.536   5
   2   0  -3 2368.00 125.840   2
   2   0  -3 2305.17 134.212   9
  -2   0   3 2211.16 134.679   9
   2   0  -3 2627.13 162.661   8
  -2   0   3 2659.17 164.127   8
  -2   0   3 2461.32 166.135  11
  -2   0   2 12753.2 317.419   3
   2   0  -2 13612.1 310.578   6
   2   0  -2 12609.5 319.518   3
  -2   0   2 13352.3 306.574   6
  -2   0   2 13122.4 206.244   5
   2   0  -2 13221.0 341.539  11
  -2   0   2 12617.2 328.805  11
   2   0  -2 12767.4 300.965   9
  -2   0   2 13222.9 308.998   9
   2   0  -2 13493.3 334.585   8
  -2   0   2 13149.5 332.488   8
  -2   0   1 69841.3 688.995   3
   2   0  -1 67414.6 678.193   3
   2   0  -1 68940.0 695.175   6
  -2   0   1 67839.8 687.297   6
   2   0  -1 67644.4 475.129   5
  -2   0   1 67897.6 717.531  11
  -2   0   1 67734.4 473.457   5
   2   0  -1 68047.7 699.704  10
   2   0  -1 69500.7 730.922  11
  -2   0   1 68757.1 692.733   9
   2   0  -1 68899.4 690.639   9
   2   0  -1 69090.8 718.194   8
  -2   0   1 67704.0 713.875   8
   2   0  -1 68871.7 723.961   1
   2   0   0 3216.71 117.095   5
   2   0   0 3357.58 162.160   9
   2   0   0 2979.25 143.211   3
   2   0   0 2942.45 155.051   1
   2   0   0 3149.88 157.497   6
  -2   0   0 3257.02 158.642   6
   2   0   0 3113.69 158.818  11
   2   0   0 3074.38 154.452  10
  -2   0   0 3036.29 154.096   9
   2   0   0 3126.05 152.126   8
  -2   0   0 3227.93 156.331   8
  -2   0   0 3347.44 118.265   5
  -2   0   0 2973.09 153.737  11
   2   0   0 3075.98 93.2194   7
  -2   0  -1 2524.10 134.757   8
   2   0   1 2660.67 144.324   6
  -2   0  -1 2573.48 146.291   6
  -2   0  -1 2618.58 148.450   1
   2   0   1 2682.14 144.885  11
  -2   0  -1 2689.46 146.543  10
   2   0   1 2590.03 143.592  10
  -2   0  -1 2639.74 119.636   5
  -2   0  -1 2498.96 141.464  11
  -2   0  -1 2711.05 146.916   9
   2   0   1 2717.70 119.568   4
   2   0   1 2606.20 136.124   8
   2   0   1 2866.59 151.094   1
   2   0   1 2750.73 95.6199   7
   2   0   1 2668.53 144.308   9
  -2   0  -1 2596.52 93.7200   7
   2   0   1 2694.00 119.825   5
   2   0   2 2741.57 146.002   6
  -2   0  -2 2881.30 151.926   6
   2   0   2 2885.60 153.185  10
   2   0   2 2909.54 136.454   8
  -2   0  -2 2789.43 149.452  10
   2   0   2 2699.84 144.566   9
  -2   0  -2 2899.29 148.163   9
   2   0   2 2712.80 132.891   5
   2   0   2 2872.83 110.642   4
  -2   0  -2 2790.42 136.908   5
   2   0   2 2647.32 146.665  11
   2   0   2 2653.39 140.371   2
   2   0   2 2848.65 153.705   1
   2   0   2 2696.73 110.192   7
  -2   0  -2 2899.26 113.501   7
  -2   0  -2 2973.85 156.634   1
  -2   0  -3 73623.3 499.903   4
   2   0   3 73569.4 720.881   6
  -2   0  -3 70892.3 708.479   6
   2   0   3 73343.4 757.374  10
  -2   0  -3 71297.9 745.480  10
   2   0   3 73649.6 717.570   9
  -2   0  -3 72083.8 710.424   9
   2   0   3 73427.8 728.958   5
  -2   0  -3 72959.0 761.815   1
   2   0   3 72591.8 493.640   4
   2   0   3 72034.0 746.110   2
   2   0   3 73180.9 633.795   8
   2   0   3 72654.1 628.060   7
  -2   0  -3 72054.2 624.830   7
   2   0   3 73986.0 767.241   1
  -2   0  -4 20476.3 417.844  10
   2   0   4 21187.4 391.641   6
   2   0   4 20609.8 432.329   1
   2   0   4 21260.8 385.151   7
  -2   0  -4 20201.3 378.954   6
   2   0   4 20568.3 329.632   8
  -2   0  -4 20547.5 430.710   1
   2   0   4 20583.6 422.093   5
   2   0   4 21246.5 389.127   9
  -2   0  -4 20758.7 258.746   4
   2   0   4 20129.0 255.040   4
  -2   0  -4 21229.1 388.116   9
   2   0   4 20534.6 420.069  10
   2   0   4 20694.9 429.249   2
  -2   0  -4 21254.1 431.439   2
  -2   0  -4 20376.1 375.222   7
   2   0   5 169886. 1103.68   6
  -2   0  -5 165307. 1088.48   6
   2   0   5 167622. 928.441   8
   2   0   5 171440. 1271.15  10
   2   0   5 169304. 1092.22   9
  -2   0  -5 171042. 1261.85  10
   2   0   5 172461. 1307.34   5
  -2   0  -5 169521. 1297.72   1
  -2   0  -5 171779. 767.431   4
  -2   0  -5 166241. 1283.05   2
   2   0   5 170809. 1199.02   7
  -2   0  -5 168460. 1188.62   7
   2   0   5 167603. 1293.06   2
   2   0   6 44253.2 563.752   6
  -2   0  -6 44109.4 706.948   1
   2   0   6 44541.8 668.021   3
  -2   0  -6 43380.5 671.379  10
   2   0   6 44182.5 557.945   9
  -2   0  -6 44166.7 429.030   4
   2   0   6 43123.3 705.597   5
  -2   0  -6 44792.3 709.027   2
   2   0   6 44031.0 670.178   7
  -2   0  -6 43065.4 661.579   7
   2   0   6 44090.6 709.575   2
   2   0   7 6450.59 218.828   6
  -2   0  -7 6899.05 308.173   1
   2   0   7 6709.29 219.843   9
   2   0   7 5863.27 267.805   3
  -2   0  -7 6352.22 182.497   4
  -2   0  -7 6799.27 287.077  10
   2   0   7 6767.53 294.028   7
  -2   0  -7 6299.70 280.032   7
   2   0   7 6626.47 303.492   2
  -2   0  -8 1782.44 173.722   7
   2   0   8 1725.37 118.875   6
  -2   0  -8 2016.37 191.234   1
  -2   0  -8 1919.55 173.072  10
   2   0   8 2046.13 125.663   9
   2   0   8 1979.38 186.946   2
  -2   0  -8 1649.65 111.255   4
   2   0   9 7050.81 346.198   2
   2   0   9 6593.64 209.848   6
  -2   0  -9 6593.68 341.357   1
  -2   0  -9 6548.18 314.409  10
   2   0   9 6608.89 207.617   9
   2   0   9 6930.17 196.926   8
  -2   0  -9 6316.49 218.917   4
  -2   0  -9 6437.12 326.342   7
   2   0  10 13234.6 495.982   2
  -2   0 -10 13387.0 502.585   1
  -2   0 -10 13529.7 464.187  10
  -2   0 -10 12888.1 335.151   4
   2   0  10 13180.8 266.048   8
  -2   0 -10 13646.1 496.982   7
   2   0  11 2980.72 266.478   2
  -2   0 -11 2841.28 255.074   1
  -2   0 -11 3176.36 251.446  10
  -2   0 -11 3609.11 280.747   7
  -2   0 -12 3123.04 283.202   1
  -2   0 -12 3308.90 264.799  10
   2   0  12 2824.68 273.407   2
  -2   0 -12 2896.07 269.579   7
  -2   0 -13 977.211 193.466   7
  -2   0 -13 858.252 154.031  10
  -2   0 -13 984.297 201.190   1
   2   0  13 673.825 160.583   2
  -2   0 -14 816.136 176.671  10
   2   0  14 1580.46 257.394   2
   2   1 -13 2025.70 256.544   7
   2   1 -12 1961.11 224.061   7
   2   1 -12 2024.73 269.759   3
  -2  -1  12 1740.90 248.040  11
  -2  -1  11 3275.39 247.781   8
   2   1 -11 3817.32 330.114   3
   2   1 -11 3520.96 284.108   7
  -2  -1  11 3614.40 323.213  11
  -2  -1  10 2888.13 276.759  11
  -2  -1  10 2768.48 220.254   8
   2   1 -10 3732.59 307.779   3
   2   1 -10 2848.69 240.265   7
  -2  -1   9 7950.46 414.438  11
   2   1  -9 7520.86 396.429   3
  -2  -1   9 7530.95 338.982   8
   2   1  -9 8391.56 369.471   7
  -2  -1   8 4783.73 311.425  11
   2   1  -8 4833.86 309.735   3
   2   1  -8 4669.90 168.639   9
  -2  -1   8 4585.37 257.037   8
   2   1  -8 4912.41 266.255   7
  -2  -1   7 31212.7 630.920   8
   2   1  -7 30702.9 611.392   2
  -2  -1   7 31712.4 719.818  11
   2   1  -7 30521.8 698.795   3
   2   1  -7 30993.6 446.701   9
   2   1  -7 31617.5 608.076   7
   2   1  -6 11743.9 294.116   6
   2   1  -6 12033.5 378.460   8
   2   1  -6 11960.9 364.099   2
  -2  -1   6 12547.3 294.651   6
  -2  -1   6 11879.9 318.120   5
   2   1  -6 11823.4 412.238   3
  -2  -1   6 12079.6 423.234  11
   2   1  -6 11846.4 287.241   9
  -2  -1   6 11410.5 370.043   8
   2   1  -6 11397.8 335.724   7
   2   1  -5 9717.92 269.628   6
   2   1  -5 9926.21 285.339   7
  -2  -1   5 9911.12 349.025   3
  -2  -1   5 9875.86 266.363   6
   2   1  -5 9837.64 313.632   2
   2   1  -5 10007.2 355.112   3
  -2  -1   5 9640.26 268.360   5
  -2  -1   5 10177.8 365.611  11
   2   1  -5 9863.08 266.824   9
   2   1  -5 9941.59 329.457   8
  -2  -1   5 10236.3 335.272   8
   2   1  -4 7969.50 245.307   6
  -2  -1   4 8009.03 289.049   3
  -2  -1   4 8132.11 244.591   6
   2   1  -4 8418.86 301.358   3
  -2  -1   4 8013.44 226.608   5
   2   1  -4 8094.87 270.136   2
  -2  -1   4 7814.63 300.545  11
   2   1  -4 7930.29 241.053   9
   2   1  -4 8259.71 287.681   8
  -2  -1   4 8142.85 287.397   8
   2   1  -4 7963.80 227.404   7
   2   1  -3 31174.5 481.236   6
  -2  -1   3 31410.8 524.131   3
  -2  -1   3 31009.9 474.126   6
   2   1  -3 31422.8 526.112   3
  -2  -1   3 31890.8 554.784  11
   2   1  -3 31056.7 482.711  10
   2   1  -3 30997.1 526.953   8
   2   1  -3 31270.0 487.968   2
   2   1  -3 31377.2 477.456   9
  -2  -1   3 31178.6 530.840   8
   2   1  -3 31642.1 381.982   7
  -2  -1   3 31149.3 413.535   5
   2   1  -2 220.904 35.1236   7
   2   1  -2 315.397 68.4436   6
   2   1  -2 300.026 54.9735   5
  -2  -1   2 249.205 68.8143   6
   2   1  -2 198.150 70.6645  11
   2   1  -2 206.317 60.5769  10
  -2  -1   2 167.090 46.4374   5
   2   1  -2 210.131 65.7867   3
   2   1  -2 162.590 48.9703   9
  -2  -1   2 250.922 77.2738  11
   2   1  -2 131.064 51.0318   8
  -2  -1   2 196.409 67.7902   8
  -2  -1   2 122.564 55.6209   3
  -2  -1   1 1722.81 99.0539   5
  -2  -1   1 1610.25 109.806   3
   2   1  -1 1513.62 116.822   6
  -2  -1   1 1371.35 109.414   6
   2   1  -1 1527.07 107.030   3
   2   1  -1 1519.40 94.1476   5
   2   1  -1 1562.43 119.709  11
  -2  -1   1 1519.42 124.236  11
   2   1  -1 1430.80 107.321  10
   2   1  -1 1645.66 120.005   4
   2   1  -1 1324.26 108.153   8
  -2  -1   1 1503.50 119.709   8
   2   1  -1 1392.14 47.5886   7
   2   1  -1 1355.68 108.152   9
   2   1   0 23927.6 420.802   6
   2   1   0 24568.7 359.268   3
  -2  -1   0 24248.5 421.598   6
   2   1   0 23902.3 418.441   1
  -2  -1   0 23721.2 413.410   8
   2   1   0 24847.0 408.519  10
  -2  -1   0 23787.2 406.629  11
  -2  -1   0 24312.9 405.559  10
   2   1   0 24417.6 400.880   4
   2   1   0 24179.6 356.254   5
  -2  -1   0 24309.4 356.619   5
   2   1   0 24251.3 420.372   8
   2   1   0 23692.4 406.591  11
   2   1   0 24917.3 424.426   9
   2   1   1 28430.6 371.124   3
   2   1   1 28727.2 461.668   6
  -2  -1  -1 28044.3 452.378   6
   2   1   1 28768.0 451.304  10
   2   1   1 28588.4 435.169  11
  -2  -1  -1 27657.0 429.009  11
   2   1   1 29025.6 413.970   5
  -2  -1  -1 29097.9 411.057   5
  -2  -1  -1 28946.5 450.425   1
  -2  -1  -1 28804.9 448.870  10
   2   1   1 29024.1 458.161   9
  -2  -1  -1 29618.8 414.203   4
   2   1   1 28089.9 402.025   4
   2   1   1 29490.7 450.701   8
   2   1   1 28052.4 218.265   7
   2   1   1 28503.3 451.063   1
  -2  -1  -1 26829.2 215.661   7
   2   1   2 875.399 94.7176   6
  -2  -1  -2 882.867 97.9464   6
   2   1   2 746.420 88.1690   1
   2   1   2 873.067 92.2758  11
   2   1   2 789.124 96.4065  10
  -2  -1  -2 778.033 85.7712   5
  -2  -1  -2 804.109 91.6819   1
   2   1   2 794.742 91.7203   9
   2   1   2 847.646 86.5124   8
   2   1   2 828.274 57.1005   7
  -2  -1  -2 843.412 76.1199   4
  -2  -1  -2 855.686 97.2528  10
  -2  -1  -2 876.723 58.6415   7
   2   1   2 838.713 76.1378   4
   2   1   2 849.044 86.9147   5
   2   1   3 28917.9 461.859   6
  -2  -1  -3 28226.1 457.282   6
   2   1   3 28842.7 472.258   5
  -2  -1  -3 28046.4 465.845   5
   2   1   3 29265.5 462.935   9
  -2  -1  -3 28371.0 481.374  10
  -2  -1  -3 29341.7 382.783   4
   2   1   3 28571.0 378.512   4
  -2  -1  -3 29035.6 474.416   1
   2   1   3 29682.4 489.314   2
   2   1   3 29121.9 376.269   7
   2   1   3 28479.0 482.879  10
  -2  -1  -3 28944.7 371.101   7
   2   1   3 28702.4 474.591   1
  -2  -1  -4 6352.09 245.152   5
  -2  -1  -4 6140.17 242.208  10
   2   1   4 6437.10 222.809   6
  -2  -1  -4 5809.13 210.934   6
   2   1   4 6534.55 242.334   1
   2   1   4 6003.81 215.358   9
   2   1   4 5801.25 235.274   2
   2   1   4 6042.63 240.815  10
  -2  -1  -4 6105.86 234.962   1
   2   1   4 6295.26 242.768   5
  -2  -1  -4 6119.33 177.922   4
   2   1   4 6278.73 181.200   4
   2   1   4 6346.00 208.228   7
  -2  -1  -4 6348.13 205.249   7
   2   1   5 35320.7 513.591   6
  -2  -1  -5 35159.2 509.447   6
   2   1   5 35564.6 513.081   9
   2   1   5 35842.3 518.908   3
   2   1   5 35706.0 607.581   5
  -2  -1  -5 35170.3 586.800   1
  -2  -1  -5 36317.7 443.331   4
  -2  -1  -5 35650.5 599.966  10
   2   1   5 35657.2 439.437   4
   2   1   5 35454.5 545.322   7
   2   1   5 34569.0 592.175   2
  -2  -1  -5 35570.8 534.849   7
  -2  -1  -6 1248.40 125.798   7
  -2  -1  -6 1303.21 108.846   6
   2   1   6 1393.98 144.724   5
   2   1   6 1244.75 103.978   9
   2   1   6 1240.00 105.413   6
  -2  -1  -6 1340.00 135.226   2
   2   1   6 1315.85 137.324   2
  -2  -1  -6 1291.36 136.669  10
   2   1   6 1354.65 125.430   3
  -2  -1  -6 1429.45 101.622   4
  -2  -1  -6 1212.94 134.151   1
  -2  -1  -7 8857.04 337.091  10
   2   1   7 7626.64 243.406   6
  -2  -1  -7 7908.79 246.247   6
  -2  -1  -7 7803.45 320.095   1
   2   1   7 8081.44 298.912   3
   2   1   7 7535.98 238.327   9
  -2  -1  -7 8391.94 246.258   4
  -2  -1  -7 8092.88 313.481   7
   2   1   7 7965.31 327.171   2
   2   1   8 3151.70 156.193   9
   2   1   8 3285.45 161.716   6
  -2  -1  -8 3338.85 161.298   6
  -2  -1  -8 3489.36 233.984   1
  -2  -1  -8 3145.07 222.388  10
  -2  -1  -8 3745.44 180.453   4
  -2  -1  -8 3353.76 224.804   7
   2   1   8 3620.49 240.952   2
  -2  -1  -9 176.849 103.164   7
  -2  -1  -9 299.074 106.463  10
   2   1   9 102.108 101.211   2
  -2  -1  -9 141.751 94.2298   1
   2   1   9 155.504 55.5143   9
  -2  -1  -9 176.947 69.5137   4
  -2  -1 -10 383.198 116.278   7
   2   1  10 448.901 81.0574   8
  -2  -1 -10 500.772 123.544  10
  -2  -1 -10 388.688 123.705   1
   2   1  10 440.423 127.297   2
  -2  -1 -10 415.721 87.2066   4
  -2  -1 -11 53.8930 97.9620   7
  -2  -1 -11 238.403 125.334   1
  -2  -1 -11 136.698 104.147  10
   2   1  11 195.438 112.626   2
   2   1  11 49.0940 56.9020   8
  -2  -1 -12 243.096 121.384   7
  -2  -1 -12 380.362 128.562  10
  -2  -1 -12 602.929 165.721   1
   2   1  12 720.890 161.994   2
  -2  -1 -13 1063.55 199.812   7
  -2  -1 -13 823.592 161.609  10
  -2  -1 -13 1242.55 205.418   1
   2   1  13 904.037 184.063   2
  -2  -1 -14 317.920 131.646  10
   2   1  14 215.295 140.582   2
  -2  -1 -15 1731.51 247.623  10
   2   2 -13 541.328 159.190   7
   2   2 -12 1523.45 213.432   7
   2   2 -12 1707.15 246.270   3
   2   2 -12 1329.67 210.334   4
  -2  -2  11 2292.06 275.727  11
   2   2 -11 2879.53 286.740   3
  -2  -2  11 2048.90 195.693   8
   2   2 -11 2558.00 244.657   7
   2   2 -10 2026.55 203.277   7
  -2  -2  10 2100.29 197.780   8
  -2  -2  10 2597.73 270.002  11
   2   2 -10 1980.35 237.270   3
  -2  -2   9 5706.27 363.521  11
   2   2  -9 5467.81 349.205   3
  -2  -2   9 5891.00 297.688   8
   2   2  -9 5504.77 300.201   7
  -2  -2   8 3734.14 162.156   6
  -2  -2   8 3498.36 271.561  11
  -2  -2   8 3277.59 213.794   5
   2   2  -8 3485.55 271.934   3
   2   2  -8 3352.12 153.293   9
  -2  -2   8 3462.48 224.712   8
   2   2  -8 3330.95 224.325   7
  -2  -2   7 7978.47 247.512   6
  -2  -2   7 8116.74 308.939   5
   2   2  -7 8382.60 375.295   3
  -2  -2   7 8038.06 376.154  11
   2   2  -7 8127.30 245.612   9
  -2  -2   7 7784.04 317.203   8
   2   2  -7 8253.62 313.633   7
   2   2  -6 383.668 83.6308   7
  -2  -2   6 351.028 89.8454   5
  -2  -2   6 520.342 78.5459   6
  -2  -2   6 531.463 129.695  11
   2   2  -6 387.668 74.1942   9
   2   2  -6 289.160 106.862   3
   2   2  -6 286.024 84.5419   8
  -2  -2   6 332.271 87.8380   8
   2   2  -6 320.726 104.367   2
  -2  -2   5 31971.1 503.875   6
  -2  -2   5 32937.2 624.841   3
   2   2  -5 32935.7 611.536   2
  -2  -2   5 32776.5 543.776   5
   2   2  -5 31879.8 620.801   3
  -2  -2   5 31268.6 641.003  11
   2   2  -5 31971.6 497.185   9
   2   2  -5 32982.7 588.640   8
  -2  -2   5 31175.3 581.131   8
   2   2  -5 31494.8 493.215   7
   2   2  -4 20713.0 411.891   6
  -2  -2   4 19500.8 396.584   6
  -2  -2   4 19529.6 445.046   3
   2   2  -4 19456.0 449.249   3
  -2  -2   4 19732.4 401.602   5
   2   2  -4 19739.6 450.801   2
  -2  -2   4 19655.0 474.619  11
   2   2  -4 18597.9 370.027  10
   2   2  -4 19235.0 474.126   4
   2   2  -4 19487.6 440.660   8
  -2  -2   4 18870.6 436.027   8
   2   2  -4 19901.1 399.148   9
   2   2  -4 19106.9 341.665   7
   2   2  -3 52966.5 696.168   8
   2   2  -3 53200.3 660.036   6
  -2  -2   3 52366.1 647.936   6
  -2  -2   3 53548.2 669.293   3
   2   2  -3 52469.9 673.294   3
   2   2  -3 53940.3 706.441   2
  -2  -2   3 52945.9 623.127   5
  -2  -2   3 52443.3 717.319  11
   2   2  -3 51235.6 590.278  10
   2   2  -3 52863.3 649.423   9
   2   2  -3 51539.8 730.855   4
  -2  -2   3 51104.4 693.495   8
   2   2  -3 52935.2 477.897   7
   2   2  -2 8302.71 262.220   6
  -2  -2   2 8478.12 263.978   6
  -2  -2   2 8380.02 242.455   3
   2   2  -2 8259.37 281.707   4
  -2  -2   2 7742.86 262.907  11
   2   2  -2 8645.78 250.720   3
   2   2  -2 8099.88 241.245   5
  -2  -2   2 7976.19 234.981   5
   2   2  -2 8413.83 237.178  10
   2   2  -2 8843.67 267.340   9
   2   2  -2 8826.95 280.710   8
   2   2  -2 8184.08 148.537   7
   2   2  -1 25479.4 455.397   6
  -2  -2   1 26041.3 380.219   3
  -2  -2   1 26046.6 459.675   6
  -2  -2   1 25138.4 437.750  11
   2   2  -1 25576.0 378.876   3
  -2  -2   1 25350.1 410.650   5
   2   2  -1 25569.7 414.449   5
   2   2  -1 25257.1 444.051  11
  -2  -2   1 25405.4 403.926  10
   2   2  -1 25636.2 409.690  10
   2   2  -1 24963.2 458.936   4
   2   2  -1 26201.9 467.190   8
  -2  -2   0 68960.7 552.024   3
   2   2   0 70393.9 753.832   6
  -2  -2   0 67601.2 740.727   6
   2   2   0 69218.8 554.733   3
   2   2   0 70091.4 717.570   1
   2   2   0 67983.6 679.181  11
   2   2   0 69486.2 683.122   5
  -2  -2   0 68850.6 678.889   5
  -2  -2   0 67697.1 673.944  10
   2   2   0 70294.7 686.838  10
  -2  -2   0 68412.9 679.430  11
   2   2   0 69338.5 726.969   4
   2   2   0 70083.9 746.511   8
  -2  -2   0 69672.5 732.850   4
   2   2   1 43529.8 595.704   6
   2   2   1 43056.9 397.853   3
  -2  -2  -1 42846.1 584.849   6
  -2  -2  -1 41650.9 510.883  11
   2   2   1 43563.7 558.531   5
   2   2   1 44227.2 525.921  11
  -2  -2  -1 42437.8 549.797   5
   2   2   1 43872.0 563.677  10
  -2  -2  -1 43402.7 555.910  10
  -2  -2  -1 43629.9 551.288   1
   2   2   1 43038.5 549.329   4
   2   2   1 44487.7 588.507   8
  -2  -2  -1 44273.1 560.488   4
   2   2   1 44020.3 558.330   1
   2   2   2 23680.4 441.969   6
  -2  -2  -2 23483.9 409.270   1
  -2  -2  -2 22809.5 431.410   6
   2   2   2 22968.5 427.758  10
   2   2   2 23986.7 433.506   5
   2   2   2 23862.0 413.097   1
  -2  -2  -2 23270.5 429.213  10
   2   2   2 22928.0 377.985  11
  -2  -2  -2 23867.3 401.111   4
   2   2   2 23145.5 397.704   4
  -2  -2  -2 23147.5 425.116   5
  -2  -2  -2 23627.4 270.949   7
   2   2   3 148183. 1097.61   6
  -2  -2  -3 145419. 1083.92   6
   2   2   3 146305. 1054.86   1
   2   2   3 147581. 973.188  11
   2   2   3 148350. 1127.77   5
  -2  -2  -3 144995. 1121.54   5
  -2  -2  -3 146005. 1123.37  10
   2   2   3 148342. 1137.11  10
  -2  -2  -3 150979. 995.108   4
   2   2   3 146487. 984.314   4
  -2  -2  -3 147678. 1055.78   1
  -2  -2  -3 146699. 839.497   7
   2   2   4 10684.8 299.430   6
  -2  -2  -4 11295.2 305.930   6
   2   2   4 11265.4 310.136   1
  -2  -2  -4 10843.5 328.087  10
  -2  -2  -4 11135.3 330.235   5
   2   2   4 10858.5 327.680   5
  -2  -2  -4 11397.9 312.274   1
   2   2   4 11011.4 304.002   9
  -2  -2  -4 11117.9 277.460   4
   2   2   4 11111.1 240.154   3
   2   2   4 11208.9 328.003   2
   2   2   4 11155.3 278.682   4
  -2  -2  -4 10754.2 267.908   7
   2   2   5 6927.28 245.401   6
  -2  -2  -5 6068.67 225.372   6
  -2  -2  -5 6590.42 252.185   1
   2   2   5 6353.82 207.877   3
   2   2   5 6588.28 271.067   5
  -2  -2  -5 6571.62 272.340  10
  -2  -2  -5 6362.77 270.401   5
   2   2   5 6746.76 240.380   9
  -2  -2  -5 7158.17 232.835   4
   2   2   5 6200.67 259.276   2
   2   2   5 6230.29 216.456   4
  -2  -2  -5 6570.89 234.718   7
   2   2   6 214247. 1333.62   6
  -2  -2  -6 218558. 1322.99   6
   2   2   6 212627. 1309.36   3
  -2  -2  -6 216752. 1515.17   1
  -2  -2  -6 216783. 1604.38  10
   2   2   6 211919. 1324.14   9
   2   2   6 212230. 1599.55   5
  -2  -2  -6 219751. 1313.79   4
   2   2   6 213759. 1560.08   2
   2   2   6 216185. 1302.94   4
  -2  -2  -6 213287. 1457.06   7
  -2  -2  -7 4320.26 192.554   6
  -2  -2  -7 4035.14 231.232   1
   2   2   7 4602.67 221.312   3
  -2  -2  -7 4370.02 251.961  10
   2   2   7 4090.73 189.980   9
  -2  -2  -7 4142.96 197.751   4
  -2  -2  -7 3932.95 223.947   7
   2   2   7 4186.92 250.463   2
  -2  -2  -8 644.270 106.316   7
  -2  -2  -8 900.698 98.2199   6
  -2  -2  -8 1060.51 152.135  10
   2   2   8 999.485 104.474   9
   2   2   8 816.307 118.298   3
  -2  -2  -8 788.295 133.783   1
   2   2   8 782.750 133.798   2
  -2  -2  -8 1090.91 120.694   4
  -2  -2  -9 375.175 108.899   7
  -2  -2  -9 462.555 76.5582   6
  -2  -2  -9 569.211 120.643  10
   2   2   9 436.307 105.826   2
   2   2   9 498.104 75.8358   9
  -2  -2  -9 657.279 125.310   1
  -2  -2  -9 548.328 103.577   4
  -2  -2 -10-201.179 106.303   7
  -2  -2 -10 9.93984 91.8539  10
   2   2  10 55.5640 99.1058   2
  -2  -2 -11-159.714 113.938   7
  -2  -2 -11-25.0072 98.2122  10
   2   2  11 80.5760 76.4075   8
  -2  -2 -11 136.430 110.231   1
   2   2  11 24.8185 111.318   2
  -2  -2 -12 2203.58 242.238   7
  -2  -2 -12 2327.46 244.898  10
   2   2  12 2085.09 232.138   2
  -2  -2 -12 2084.14 235.568   1
  -2  -2 -13 658.660 162.432   7
  -2  -2 -13 500.435 147.538  10
   2   2  13 241.256 139.551   2
  -2  -2 -13 440.739 140.493   1
  -2  -2 -14 1295.87 208.893  10
   2   2  14 1434.85 218.749   2
  -2  -2 -14 1535.54 232.611   1
   2   3 -13 2252.20 272.379   7
   2   3 -12 2458.83 262.071   7
  -2  -3  12 1877.78 231.112   5
   2   3 -12 1666.85 238.878   4
   2   3 -11 496.466 167.611   3
   2   3 -11 543.446 130.162   7
  -2  -3  11 691.718 182.165  11
  -2  -3  11 475.369 152.833   5
   2   3 -11 111.927 117.518   4
  -2  -3  10 2505.19 227.709   5
  -2  -3  10 2854.28 289.131  11
   2   3 -10 2823.47 273.855   3
   2   3 -10 2261.52 244.361   4
   2   3 -10 2331.42 220.412   7
   2   3  -9 1534.72 171.347   7
  -2  -3   9 1654.75 115.654   6
  -2  -3   9 1460.70 169.519   5
  -2  -3   9 1624.17 216.809  11
   2   3  -9 1763.59 221.277   3
   2   3  -9 1253.09 190.287   4
  -2  -3   8 15517.9 358.243   6
  -2  -3   8 15500.5 480.165   5
  -2  -3   8 15742.0 563.188  11
   2   3  -8 15810.4 539.401   3
   2   3  -8 16083.6 359.611   9
   2   3  -8 15203.7 527.805   4
   2   3  -8 15747.7 467.343   7
  -2  -3   7 8326.36 273.607   6
  -2  -3   7 8302.76 338.528   5
  -2  -3   7 8276.52 388.390  11
   2   3  -7 8549.83 378.984   3
   2   3  -7 7836.13 256.887  10
   2   3  -7 8079.09 265.139   9
   2   3  -7 7991.37 371.703   4
   2   3  -7 8694.30 324.338   7
  -2  -3   6 9220.13 291.722   6
  -2  -3   6 9254.44 338.012   5
   2   3  -6 9729.98 374.165   3
   2   3  -6 9019.22 261.441  10
   2   3  -6 9243.40 375.460   4
   2   3  -6 9799.82 298.207   9
   2   3  -6 8938.77 299.710   7
   2   3  -6 9267.82 333.016   8
  -2  -3   6 9063.00 380.886  11
   2   3  -5 4644.68 262.631   4
  -2  -3   5 5449.48 229.711   6
  -2  -3   5 5341.74 260.237   3
  -2  -3   5 5082.41 244.333   5
  -2  -3   5 5069.77 272.852  11
   2   3  -5 5320.34 262.609   3
   2   3  -5 5049.86 191.999  10
   2   3  -5 5155.49 245.297   8
  -2  -3   5 4991.84 210.092   7
   2   3  -5 5220.26 211.550   7
   2   3  -4 9049.71 241.477  10
  -2  -3   4 9180.19 295.851   6
  -2  -3   4 9209.20 308.745   3
  -2  -3   4 9110.95 303.742   5
  -2  -3   4 9310.32 339.715  11
   2   3  -4 9785.17 321.171   3
   2   3  -4 9629.55 341.628   2
   2   3  -4 8884.54 338.061   4
   2   3  -4 8992.40 311.256   8
  -2  -3   4 8722.90 242.137   7
   2   3  -4 8820.16 241.054   7
   2   3  -3 333.779 52.0409   7
   2   3  -3 232.638 78.8114   2
  -2  -3   3 453.384 86.1263   6
   2   3  -3 333.295 55.1666  10
  -2  -3   3 385.842 88.3737  11
  -2  -3   3 462.976 87.0891   5
  -2  -3   3 315.723 76.8655   3
   2   3  -3 374.919 84.8223   3
   2   3  -3 362.799 75.1754   8
   2   3  -3 347.419 89.9619   4
  -2  -3   3 399.912 53.5711   7
   2   3  -2 25803.5 515.895   4
  -2  -3   2 26062.6 491.966   6
  -2  -3   2 25536.4 415.445   3
   2   3  -2 25770.3 476.359   5
   2   3  -2 26512.0 423.618   3
  -2  -3   2 25942.3 475.591   5
   2   3  -2 26093.5 398.493  10
  -2  -3   2 26287.5 478.472  11
   2   3  -2 27439.6 508.946   8
  -2  -3   2 26095.8 292.821   7
   2   3  -2 26357.5 296.869   7
  -2  -3   1 15154.2 376.737   6
  -2  -3   1 15425.2 283.389   3
  -2  -3   1 15486.9 362.850   5
   2   3  -1 15176.0 284.065   3
   2   3  -1 15470.5 366.480   5
  -2  -3   1 15596.5 314.145  10
  -2  -3   1 15962.1 392.949   4
   2   3  -1 15271.1 384.073   4
   2   3  -1 16031.2 386.538   8
   2   3  -1 15556.8 317.664  10
  -2  -3   1 15392.7 344.825  11
  -2  -3   1 14769.2 179.741   7
  -2  -3   0 14833.0 234.190   3
   2   3   0 14617.2 371.433   6
  -2  -3   0 14587.2 367.608   6
   2   3   0 15145.1 339.287   1
   2   3   0 14471.6 232.915   3
  -2  -3   0 14204.5 311.446  11
   2   3   0 14933.3 356.977   5
   2   3   0 14781.3 318.309  11
  -2  -3   0 14512.6 351.534   5
  -2  -3   0 14487.2 318.064  10
   2   3   0 14764.4 320.552  10
  -2  -3   0 15234.2 369.294   4
   2   3   0 13942.0 356.827   4
  -2  -3   0 13143.2 154.658   7
   2   3   1 38626.8 600.041   6
  -2  -3  -1 37050.9 581.633   6
   2   3   1 37573.9 311.611   3
   2   3   1 37690.5 474.063  11
   2   3   1 39460.5 584.162   5
  -2  -3  -1 38104.2 574.419   5
  -2  -3  -1 37983.5 536.838  10
   2   3   1 38295.2 538.473  10
  -2  -3  -1 39287.8 578.765   4
   2   3   1 38330.2 572.833   4
  -2  -3  -1 37637.1 477.095  11
   2   3   1 38354.5 521.183   1
   2   3   2 6225.72 246.589   6
   2   3   2 5720.84 113.223   3
  -2  -3  -2 6446.32 248.978   6
  -2  -3  -2 6602.29 218.398   1
   2   3   2 6264.83 191.056  11
   2   3   2 6464.23 238.772  10
  -2  -3  -2 6267.72 235.096  10
   2   3   2 6196.72 244.581   5
   2   3   2 6254.18 213.406   1
  -2  -3  -2 6676.53 239.568   4
  -2  -3  -2 6241.88 244.887   5
   2   3   2 6124.84 231.833   4
  -2  -3  -3 11460.0 331.832  10
  -2  -3  -3 11743.0 332.597   6
   2   3   3 12346.0 349.952   5
   2   3   3 11752.0 263.940  11
   2   3   3 11987.3 181.055   3
   2   3   3 11616.7 295.884   1
  -2  -3  -3 12115.3 322.071   4
  -2  -3  -3 12006.4 344.353   5
   2   3   3 11479.7 313.264   4
  -2  -3  -3 12091.8 258.087   7
  -2  -3  -3 12143.4 301.969   1
  -2  -3  -4 4187.69 202.944   6
   2   3   4 4217.02 189.372   1
   2   3   4 4070.85 130.209   3
  -2  -3  -4 4153.06 173.464   7
   2   3   4 4118.55 216.167   5
   2   3   4 3975.16 164.421  11
  -2  -3  -4 3879.78 208.211  10
  -2  -3  -4 4268.65 197.016   4
  -2  -3  -4 4104.43 187.239   1
   2   3   4 3982.36 192.736   4
  -2  -3  -4 3979.45 217.635   5
   2   3   4 4301.18 217.241   2
  -2  -3  -5 18878.4 420.484   6
   2   3   5 19254.6 327.293   3
   2   3   5 19309.7 477.219   5
  -2  -3  -5 19102.5 477.565   5
  -2  -3  -5 18892.7 415.788   1
  -2  -3  -5 19786.9 428.115   4
   2   3   5 18841.1 456.643   2
   2   3   5 19621.2 425.813   4
  -2  -3  -5 19372.4 477.563  10
  -2  -3  -5 18728.9 402.401   7
  -2  -3  -6 7657.67 321.915   5
  -2  -3  -6 8058.70 277.186   6
   2   3   6 7942.09 244.016   3
  -2  -3  -6 8246.16 295.906   1
  -2  -3  -6 8458.96 291.501   4
   2   3   6 7664.99 312.420   2
   2   3   6 7601.62 278.133   4
  -2  -3  -6 8414.73 298.424   7
  -2  -3  -6 7352.72 317.032  10
  -2  -3  -7 3722.68 191.720   6
   2   3   7 3555.14 191.792   3
  -2  -3  -7 3925.49 224.675   1
  -2  -3  -7 3462.99 237.658  10
  -2  -3  -7 3509.05 241.050   5
  -2  -3  -7 3325.80 199.486   4
   2   3   7 3934.78 236.067   2
  -2  -3  -7 3574.99 216.996   7
   2   3   7 3640.09 205.486   4
  -2  -3  -8 9314.70 293.342   6
   2   3   8 8876.94 321.592   3
   2   3   8 9518.07 303.733   9
  -2  -3  -8 9017.00 384.443  10
  -2  -3  -8 9438.84 339.232   4
  -2  -3  -8 9895.76 376.621   7
  -2  -3  -8 9220.92 357.966   1
   2   3   8 9792.92 377.802   2
  -2  -3  -9 1591.11 180.398   7
  -2  -3  -9 1192.24 113.095   6
  -2  -3  -9 1612.38 189.799  10
   2   3   9 1481.60 172.252   2
   2   3   9 962.393 105.550   9
  -2  -3  -9 1107.81 148.006   1
  -2  -3 -10 397.405 130.622   7
  -2  -3 -10 417.369 76.8244   6
  -2  -3 -10 371.007 133.524  10
   2   3  10 280.389 112.303   2
  -2  -3 -10 364.405 108.732   1
  -2  -3 -11 1870.46 213.628   7
  -2  -3 -11 2075.17 232.573  10
   2   3  11 2363.23 193.676   8
   2   3  11 1944.67 210.966   2
  -2  -3 -11 1699.41 198.662   1
  -2  -3 -12 221.204 130.570   7
  -2  -3 -12 350.398 131.472  10
   2   3  12 206.290 125.374   2
   2   3  12 409.102 110.719   8
  -2  -3 -12 279.990 136.470   1
  -2  -3 -13 2861.03 295.350   7
   2   3  13 3316.80 305.359   2
  -2  -3 -13 2702.86 281.348  10
  -2  -3 -13 2940.35 286.983   1
   2   3  14 4577.92 359.232   2
  -2  -3 -14 4081.67 346.354   1
  -2  -3 -14 3771.47 346.467  10
  -2  -4  12 4801.58 358.067   5
   2   4 -12 4759.46 366.363   4
   2   4 -12 5577.67 374.611   7
   2   4 -11 1351.09 194.020   7
  -2  -4  11 2060.34 270.378  11
  -2  -4  11 1953.76 236.234   5
   2   4 -11 1815.08 262.786   3
   2   4 -11 1947.39 247.998   4
   2   4 -10 2098.84 210.655   7
  -2  -4  10 2238.84 226.285   5
  -2  -4  10 1875.06 253.219  11
   2   4 -10 2593.59 270.913   3
   2   4 -10 1737.02 228.201   4
  -2  -4   9 2393.92 156.211   6
  -2  -4   9 2586.28 234.020   5
  -2  -4   9 2469.65 264.409  11
   2   4  -9 2441.35 239.329   3
   2   4  -9 2197.87 231.876   4
   2   4  -9 2259.68 206.692   7
   2   4  -8 1331.48 151.343   7
  -2  -4   8 1191.87 120.503   6
  -2  -4   8 1366.63 199.420  11
   2   4  -8 1217.53 185.992   3
  -2  -4   8 1582.29 181.143   5
   2   4  -8 1171.42 173.105   4
   2   4  -7 594.520 107.516   7
  -2  -4   7 686.986 101.199   6
  -2  -4   7 593.503 140.946  11
  -2  -4   7 821.609 138.305   5
   2   4  -7 871.706 108.057   9
   2   4  -7 693.170 137.415   3
   2   4  -7 430.350 65.2241  10
   2   4  -7 377.573 116.037   4
  -2  -4   6 15031.2 401.134   6
  -2  -4   6 15844.6 471.839   5
  -2  -4   6 16133.7 514.191  11
   2   4  -6 15920.7 480.196   3
   2   4  -6 15611.0 303.845  10
   2   4  -6 14913.0 491.081   4
  -2  -4   6 15988.3 415.328   7
   2   4  -6 16641.9 418.121   7
   2   4  -5 502.578 84.7782   7
  -2  -4   5 721.943 102.803   6
  -2  -4   5 657.267 114.960   3
  -2  -4   5 523.483 105.004   5
  -2  -4   5 744.489 133.420  11
   2   4  -5 561.778 65.9899  10
   2   4  -5 720.878 122.635   3
   2   4  -5 642.741 109.140   8
   2   4  -5 470.542 117.047   4
  -2  -4   5 627.520 95.8872   7
  -2  -4   4 1947.42 156.372   6
  -2  -4   4 1886.75 152.799   3
  -2  -4   4 2318.49 177.166   5
  -2  -4   4 1950.75 174.410  11
   2   4  -4 2166.41 163.537   3
   2   4  -4 1981.69 110.206  10
   2   4  -4 1899.46 152.963   8
   2   4  -4 2044.37 182.057   4
  -2  -4   4 1956.98 127.418   7
   2   4  -4 1793.10 124.111   7
  -2  -4   3 1589.98 143.379   6
  -2  -4   3 1655.77 128.208   3
  -2  -4   3 1483.40 143.111  11
   2   4  -3 1597.41 102.855  10
  -2  -4   3 1525.07 143.966   5
   2   4  -3 1761.73 136.261   3
   2   4  -3 1638.11 106.025   7
   2   4  -3 1591.49 141.914   8
  -2  -4   3 1330.92 96.4739   7
   2   4  -3 1440.76 148.928   4
  -2  -4   2 33033.2 593.010   6
  -2  -4   2 33538.9 472.005   3
   2   4  -2 32825.2 595.139   5
  -2  -4   2 34206.1 449.543  10
  -2  -4   2 33757.5 549.971  11
  -2  -4   2 33656.2 597.522   5
   2   4  -2 33002.7 470.016   3
   2   4  -2 34597.0 641.649   2
   2   4  -2 33740.8 451.159  10
  -2  -4   2 33780.5 629.158   4
   2   4  -2 32999.4 619.028   4
   2   4  -2 35092.8 608.102   8
  -2  -4   2 33385.9 390.808   7
   2   4  -2 32889.8 390.136   7
  -2  -4   1 27432.5 540.422   6
  -2  -4   1 28330.7 369.711   3
   2   4  -1 28336.8 547.437   5
  -2  -4   1 29497.9 548.352   5
  -2  -4   1 29011.4 565.489   4
   2   4  -1 27547.7 549.386   4
   2   4  -1 28165.9 430.263  10
   2   4  -1 28308.3 373.428   3
  -2  -4   1 27866.7 463.846  11
  -2  -4   1 28346.7 327.599   7
  -2  -4   1 29003.0 432.193  10
   2   4   0 9229.62 169.825   3
  -2  -4   0 9509.41 319.313   6
   2   4   0 8821.50 263.649   1
  -2  -4   0 9187.03 248.637  11
  -2  -4   0 8851.12 304.159   5
   2   4   0 9022.08 312.404   5
   2   4   0 9347.30 263.332  10
  -2  -4   0 9417.02 318.912   4
  -2  -4   0 9206.77 167.424   3
   2   4   0 9322.44 317.462   4
  -2  -4   0 9195.65 183.430   7
  -2  -4   0 9412.86 263.254  10
  -2  -4  -1 53489.3 751.683   6
   2   4   1 54175.6 557.348  11
   2   4   1 53085.5 743.632   5
   2   4   1 54082.1 741.411   4
  -2  -4  -1 52550.3 733.986   5
  -2  -4  -1 51845.6 649.727  10
  -2  -4  -1 54608.8 746.848   4
   2   4   1 52839.0 614.451   1
  -2  -4  -1 52744.0 549.538  11
  -2  -4  -1 53325.3 468.023   7
  -2  -4  -2 27694.1 544.325   6
   2   4   2 26922.5 538.345   5
   2   4   2 27591.6 376.621  11
  -2  -4  -2 26955.6 498.313  10
  -2  -4  -2 26955.8 534.753   5
   2   4   2 27211.6 438.071   1
  -2  -4  -2 27869.0 533.418   4
   2   4   2 27130.3 527.524   4
  -2  -4  -3 20915.6 464.197  10
  -2  -4  -3 21034.6 475.310   6
  -2  -4  -3 20958.5 387.138   1
  -2  -4  -3 21682.2 471.810   4
   2   4   3 20573.4 484.562   5
   2   4   3 20411.4 384.529   1
  -2  -4  -3 20354.0 480.140   5
   2   4   3 21293.3 331.994  11
   2   4   3 21361.0 467.296   4
  -2  -4  -4 3580.13 218.378   5
  -2  -4  -4 3563.38 200.392   6
   2   4   4 3561.27 174.098   1
   2   4   4 3158.58 92.4232   3
   2   4   4 3491.84 145.062  11
   2   4   4 3245.29 204.973   5
  -2  -4  -4 3879.34 220.195  10
  -2  -4  -4 3634.22 204.111   4
   2   4   4 3630.71 203.643   4
  -2  -4  -4 3475.71 171.482   1
  -2  -4  -5 22925.5 498.064   6
   2   4   5 22683.0 316.323   3
  -2  -4  -5 22461.9 537.718  10
  -2  -4  -5 22167.0 445.863   1
  -2  -4  -5 23138.2 508.401   4
  -2  -4  -5 22450.7 543.939   5
   2   4   5 23054.1 525.055   2
   2   4   5 22897.1 503.303   4
  -2  -4  -5 22858.0 466.840   7
  -2  -4  -6 9980.20 379.355  10
  -2  -4  -6 10124.2 333.940   6
   2   4   6 9859.55 252.598   3
  -2  -4  -6 10278.0 383.972   5
  -2  -4  -6 10088.1 320.139   1
  -2  -4  -6 10676.0 359.819   4
   2   4   6 9342.82 348.339   2
   2   4   6 10878.4 358.614   4
  -2  -4  -6 10392.3 345.969   7
  -2  -4  -7 5064.80 239.908   6
   2   4   7 5289.01 213.905   3
  -2  -4  -7 5470.78 302.339  10
  -2  -4  -7 4890.70 245.943   1
  -2  -4  -7 5091.30 291.717   5
   2   4   7 5246.82 278.277   2
  -2  -4  -7 5149.86 261.956   7
   2   4   7 4854.83 256.680   4
  -2  -4  -8 6996.43 276.493   6
   2   4   8 7092.35 270.336   3
  -2  -4  -8 6834.08 352.405  10
  -2  -4  -8 7032.21 309.590   1
  -2  -4  -8 6980.48 351.228   5
  -2  -4  -8 7541.21 342.949   7
   2   4   8 7379.22 340.291   2
  -2  -4  -9 4816.69 228.800   6
   2   4   9 4585.21 244.960   3
  -2  -4  -9 4621.59 270.447   1
  -2  -4  -9 5089.12 320.589  10
   2   4   9 4613.42 232.001   9
  -2  -4  -9 4902.36 292.391   7
   2   4   9 4645.98 285.523   2
  -2  -4 -10 6329.55 256.671   6
  -2  -4 -10 6195.82 327.371   1
  -2  -4 -10 6421.54 377.049  10
  -2  -4 -10 6406.96 357.161   7
   2   4  10 6183.91 334.877   2
  -2  -4 -11 2362.77 242.183   7
  -2  -4 -11 2879.06 246.112   1
  -2  -4 -11 2649.04 267.190  10
   2   4  11 2953.59 255.225   2
  -2  -4 -12 2585.03 259.293   7
  -2  -4 -12 2508.59 273.701  10
   2   4  12 2928.45 237.260   8
   2   4  12 2471.67 238.441   2
  -2  -4 -12 2749.75 256.119   1
  -2  -4 -13 293.850 136.641   7
  -2  -4 -13 349.294 149.584  10
   2   4  13 629.150 184.718   2
  -2  -4 -13 321.372 142.419   1
   2   4  14 1573.08 236.369   2
  -2  -4 -14 1489.85 227.338   1
   2   5 -12 838.640 178.605   7
  -2  -5  12 804.479 187.327   5
   2   5 -12 693.409 170.077   4
   2   5 -11 1066.21 173.366   7
  -2  -5  11 1371.44 225.107   5
   2   5 -11 791.443 192.999   3
   2   5 -11 810.615 186.085   4
  -2  -5  10 7937.43 427.481   5
  -2  -5  10 7217.10 453.065  11
   2   5 -10 6910.19 417.769   3
   2   5 -10 6619.77 409.999   4
   2   5 -10 7417.77 384.619   7
  -2  -5   9 3241.53 273.755   5
  -2  -5   9 2614.33 270.880  11
   2   5  -9 3050.93 267.656   3
   2   5  -9 2756.75 259.429   4
   2   5  -9 2634.22 225.802   7
  -2  -5   8 5198.61 253.343   6
  -2  -5   8 4933.97 318.560   5
  -2  -5   8 5354.43 349.791  11
   2   5  -8 5311.89 329.478   3
   2   5  -8 5036.19 326.426   4
   2   5  -8 5004.67 280.102   7
  -2  -5   7 3845.85 226.838   6
  -2  -5   7 3942.88 272.749   5
  -2  -5   7 3554.91 271.675  11
   2   5  -7 4060.40 269.110   3
   2   5  -7 3631.60 271.232   4
   2   5  -7 3706.38 229.501   7
  -2  -5   6 10320.4 361.882   6
  -2  -5   6 10850.1 423.292   5
  -2  -5   6 10241.8 420.401  11
   2   5  -6 10903.7 400.947   3
   2   5  -6 9224.98 188.404  10
   2   5  -6 10272.4 418.358   4
  -2  -5   6 10256.4 348.133   7
   2   5  -6 10451.1 347.970   7
  -2  -5   5 7077.85 304.155   6
   2   5  -5 7818.23 317.980   3
  -2  -5   5 7161.58 332.630   5
  -2  -5   5 7121.29 331.051  11
   2   5  -5 6819.73 169.668  10
   2   5  -5 7123.70 345.701   4
  -2  -5   5 7047.26 266.572   7
   2   5  -5 7407.82 274.276   7
  -2  -5   4 3654.66 223.945   6
  -2  -5   4 3685.83 207.790   3
  -2  -5   4 3695.24 231.636  11
   2   5  -4 3604.36 131.607  10
  -2  -5   4 3281.59 223.535   5
   2   5  -4 3512.11 240.582   4
  -2  -5   4 3611.55 182.164   7
   2   5  -4 3731.33 181.539   7
   2   5  -4 3967.20 213.451   3
  -2  -5   3 15218.3 438.505   6
  -2  -5   3 14883.9 363.082   3
  -2  -5   3 15305.2 412.686  11
  -2  -5   3 15356.6 449.076   5
   2   5  -3 15153.2 281.693  10
   2   5  -3 15655.4 468.239   4
   2   5  -3 15762.8 367.801   3
  -2  -5   3 15460.7 332.259   7
   2   5  -3 14848.1 327.147   7
   2   5  -3 16078.6 440.614   8
  -2  -5   2 585.591 70.5057   7
  -2  -5   2 654.845 99.8952  11
  -2  -5   2 716.827 119.273   6
  -2  -5   2 835.697 128.774   5
  -2  -5   2 754.219 76.0613  10
  -2  -5   2 586.986 76.5789   3
   2   5  -2 687.440 84.3571   3
   2   5  -2 590.471 113.588   8
   2   5  -2 580.308 118.358   4
  -2  -5   1 5293.42 263.515   6
  -2  -5   1 4852.93 152.680   3
   2   5  -1 4719.20 253.922   5
  -2  -5   1 4873.78 200.657  11
  -2  -5   1 4901.66 252.296   5
   2   5  -1 4838.19 153.984   3
  -2  -5   1 5089.49 191.330  10
   2   5  -1 4512.61 251.895   4
  -2  -5   1 4588.77 165.248   7
  -2  -5   0 4028.17 234.968   6
  -2  -5   0 3991.53 101.962   3
   2   5   0 4008.52 182.094   1
   2   5   0 4088.85 232.776   5
  -2  -5   0 4493.98 175.524  11
  -2  -5   0 4549.19 241.772   5
  -2  -5   0 4540.33 193.165  10
   2   5   0 4116.18 236.648   4
  -2  -5   0 4318.18 158.478   7
  -2  -5  -1 4054.29 234.854   6
  -2  -5  -1 3646.63 218.266   5
   2   5   1 3316.88 214.558   5
  -2  -5  -1 3912.29 190.345  10
  -2  -5  -1 3721.65 221.887   4
   2   5   1 3804.77 219.994   4
   2   5   1 3436.03 162.090   1
  -2  -5  -1 3754.93 146.209  11
  -2  -5  -1 3417.64 147.369   7
  -2  -5  -2 1151.71 138.996   6
   2   5   2 1153.60 95.3637   1
   2   5   2 1246.07 84.2526  11
  -2  -5  -2 1059.57 137.484   5
  -2  -5  -2 1225.05 124.691  10
  -2  -5  -2 1119.04 133.985   4
   2   5   2 1162.18 139.295   4
  -2  -5  -3 6407.18 289.116   6
   2   5   3 6631.49 219.101   1
  -2  -5  -3 6651.57 218.896   1
  -2  -5  -3 6514.57 273.467  10
   2   5   3 6255.65 166.178  11
  -2  -5  -3 6620.95 296.685   5
   2   5   3 6682.46 291.700   4
  -2  -5  -4 1921.10 128.712   1
  -2  -5  -4 2183.77 180.844   6
   2   5   4 2368.56 144.723   1
   2   5   4 2233.44 104.596  11
  -2  -5  -4 2295.50 188.419   5
  -2  -5  -4 2270.60 184.488  10
   2   5   4 2089.62 174.772   4
  -2  -5  -5 4412.61 243.132   6
   2   5   5 3891.64 108.793   3
   2   5   5 4732.74 162.127  11
  -2  -5  -5 4267.29 250.766  10
  -2  -5  -5 4482.23 263.343   5
   2   5   5 4370.81 245.174   2
   2   5   5 4655.61 254.726   4
  -2  -5  -5 4281.32 195.097   1
  -2  -5  -6 5417.08 268.279   6
   2   5   6 5440.83 167.686   3
  -2  -5  -6 5813.71 310.807  10
  -2  -5  -6 5538.88 300.503   5
  -2  -5  -6 5749.72 239.987   1
   2   5   6 5486.94 282.036   2
   2   5   6 5913.02 294.059   4
   2   5   7 1769.41 173.938   4
   2   5   7 1601.15 115.662   3
  -2  -5  -7 1899.79 164.620   6
   2   5   7 1624.86 169.068   2
  -2  -5  -7 1685.98 191.541  10
  -2  -5  -7 1607.88 145.064   1
  -2  -5  -7 1746.61 189.374   5
  -2  -5  -7 1773.94 173.955   7
  -2  -5  -8 2100.67 174.599   1
  -2  -5  -8 2139.77 175.807   6
   2   5   8 2150.46 150.605   3
  -2  -5  -8 1828.35 203.867  10
   2   5   8 2235.10 189.450   2
  -2  -5  -8 1854.64 201.476   5
  -2  -5  -8 2160.72 203.182   7
  -2  -5  -9 1780.33 174.484   1
  -2  -5  -9 1643.40 158.847   6
   2   5   9 1381.44 174.057   2
  -2  -5  -9 1675.31 208.670  10
  -2  -5  -9 1317.07 172.192   7
  -2  -5 -10 5273.68 300.939   1
  -2  -5 -10 5044.95 252.853   6
  -2  -5 -10 4645.25 333.561  10
  -2  -5 -10 4896.76 321.898   7
   2   5  10 5529.58 325.125   2
  -2  -5 -11 2441.33 254.974   7
  -2  -5 -11 2487.45 226.355   1
  -2  -5 -11 1992.18 249.697  10
   2   5  11 2583.58 241.632   2
  -2  -5 -12 1864.03 231.242   7
  -2  -5 -12 2529.35 285.832  10
   2   5  12 2557.82 254.480   2
   2   5  12 2485.29 236.117   8
  -2  -5 -12 2221.08 228.638   1
   2   5  13 3507.38 296.963   2
  -2  -5 -13 3571.77 304.333   1
   2   5  14 4566.29 356.720   2
  -2  -5 -14 4368.36 346.812   1
   2   6 -11 299.625 134.145   7
  -2  -6  11 424.756 164.777   5
   2   6 -11 217.944 123.033   4
  -2  -6  10 3337.39 301.388   5
  -2  -6  10 3635.75 338.933  11
   2   6 -10 3300.08 307.394   4
   2   6 -10 3485.39 280.992   7
   2   6  -9 469.639 119.689   7
  -2  -6   9 955.641 201.762  11
  -2  -6   9 621.950 157.788   5
   2   6  -9 542.544 165.281   4
  -2  -6   8 9474.06 368.633   6
   2   6  -8 9894.62 447.122   3
  -2  -6   8 10079.4 471.072   5
  -2  -6   8 8867.78 451.111  11
   2   6  -8 9736.49 460.532   4
   2   6  -8 9745.62 401.487   7
  -2  -6   7 4949.66 276.846   6
  -2  -6   7 5179.10 323.821   5
  -2  -6   7 5065.64 329.196  11
   2   6  -7 4939.01 301.535   3
   2   6  -7 4606.81 308.689   4
   2   6  -7 5369.53 283.146   7
  -2  -6   6 5396.71 294.473   6
  -2  -6   6 5847.91 334.742   5
  -2  -6   6 5420.41 319.635  11
   2   6  -6 5588.69 295.282   3
   2   6  -6 5065.90 316.266   4
   2   6  -6 5019.79 259.786   7
  -2  -6   5 9629.43 378.908   6
  -2  -6   5 10676.1 432.823   5
  -2  -6   5 9973.55 395.845  11
   2   6  -5 10417.8 366.142   3
   2   6  -5 9916.11 418.170   4
  -2  -6   5 9464.65 328.518   7
   2   6  -5 9378.07 326.469   7
  -2  -6   4 20287.0 545.332   6
  -2  -6   4 20412.3 477.771   3
  -2  -6   4 21050.8 581.544   5
  -2  -6   4 20862.4 525.668  11
   2   6  -4 20870.8 582.297   4
  -2  -6   4 21017.3 452.314   7
   2   6  -4 21079.0 452.000   7
  -2  -6   3 1288.80 164.568   6
  -2  -6   3 1364.78 121.066   3
  -2  -6   3 1263.91 137.015  11
  -2  -6   3 1569.06 176.636   5
  -2  -6   3 1347.13 118.373   7
   2   6  -3 1207.56 162.582   4
   2   6  -3 1326.25 122.397   7
  -2  -6   2 39.3125 49.5868   7
  -2  -6   2 197.550 53.4518  10
  -2  -6   2 96.6817 97.9826   6
  -2  -6   2 179.864 73.2047  11
  -2  -6   2 144.970 83.0657   5
  -2  -6   2 194.285 66.4180   3
   2   6  -2-100.759 91.1836   4
  -2  -6   1 7777.02 342.356   6
  -2  -6   1 8044.03 195.224   3
  -2  -6   1 7700.57 337.199   5
  -2  -6   1 7884.68 252.948  11
   2   6  -1 8218.59 272.947   1
  -2  -6   1 7850.76 240.654  10
   2   6  -1 8215.25 348.362   4
  -2  -6   1 7691.08 242.159   7
   2   6   0 10072.2 284.635   1
  -2  -6   0 8282.02 133.690   3
  -2  -6   0 10486.6 389.046   5
  -2  -6   0 10261.8 255.625  11
  -2  -6   0 10660.8 301.285  10
  -2  -6   0 10037.1 387.433   6
   2   6   0 9962.19 376.716   4
  -2  -6   0 10955.2 285.745   7
  -2  -6  -1 16266.0 483.110   6
  -2  -6  -1 16316.7 282.760  11
  -2  -6  -1 15920.6 477.531   5
  -2  -6  -1 16829.4 406.313  10
   2   6   1 16798.8 486.841   4
   2   6   1 16060.8 335.144   1
  -2  -6  -1 16726.2 359.958   7
  -2  -6  -2 6486.71 314.371   6
  -2  -6  -2 6613.01 311.610   5
  -2  -6  -2 6053.34 265.117  10
   2   6   2 6532.40 210.919   1
   2   6   2 6472.08 307.760   4
  -2  -6  -2 6702.07 242.460   7
  -2  -6  -3 10532.6 394.468   6
   2   6   3 10511.9 265.425   1
  -2  -6  -3 11293.7 410.516   5
  -2  -6  -3 10057.1 358.739  10
   2   6   3 10618.7 393.169   4
  -2  -6  -4 3169.54 225.684   6
   2   6   4 3060.34 97.5765  11
  -2  -6  -4 3151.73 220.067  10
  -2  -6  -4 3387.30 161.768   1
  -2  -6  -4 3272.39 235.965   5
   2   6   4 3572.77 235.742   4
  -2  -6  -5 11922.7 308.005   1
  -2  -6  -5 11457.8 412.989   6
  -2  -6  -5 11341.9 421.428  10
  -2  -6  -5 11719.2 434.859   5
   2   6   5 11580.9 206.965  11
   2   6   5 12001.7 430.183   4
   2   6   6 3482.55 113.878   3
  -2  -6  -6 3880.74 247.767   6
   2   6   6 4050.21 143.634  11
  -2  -6  -6 4160.87 274.844   5
  -2  -6  -6 3784.71 262.430  10
   2   6   6 3973.39 246.072   2
   2   6   6 4425.96 274.525   4
  -2  -6  -6 4053.71 197.024   1
  -2  -6  -7 8811.78 360.489   6
   2   6   7 8536.53 224.855   3
   2   6   7 8862.12 237.363  11
  -2  -6  -7 8455.30 400.637  10
  -2  -6  -7 8207.90 296.800   1
   2   6   7 8167.98 356.562   2
  -2  -6  -7 8386.39 393.579   5
   2   6   7 8921.12 391.416   4
  -2  -6  -8 17704.9 509.143   6
  -2  -6  -8 16426.0 581.706  10
  -2  -6  -8 16765.4 569.053   5
  -2  -6  -8 16727.1 448.574   1
   2   6   8 17298.6 530.148   2
  -2  -6  -8 18251.5 561.448   7
   2   6   8 17446.6 557.675   4
  -2  -6  -9 10118.6 463.451   5
  -2  -6  -9 10031.4 386.332   6
  -2  -6  -9 10030.1 477.334  10
  -2  -6  -9 9978.45 374.515   1
  -2  -6  -9 10730.0 457.237   7
   2   6   9 9706.13 417.038   2
  -2  -6 -10 607.025 123.354   1
  -2  -6 -10 909.250 141.341   6
  -2  -6 -10 1041.63 187.062  10
   2   6  10 1024.54 160.643   2
  -2  -6 -10 867.748 174.970   7
  -2  -6 -11 4456.12 286.617   1
  -2  -6 -11 5094.50 383.381  10
  -2  -6 -11 5327.77 374.589   7
   2   6  11 5149.50 338.149   2
  -2  -6 -12 1770.79 233.021   7
  -2  -6 -12 2137.77 223.509   1
   2   6  12 1540.64 212.940   2
   2   6  12 2051.88 237.118   8
   2   6  13 453.056 150.829   2
   2   6  13 571.316 155.966   8
  -2  -7  10 5669.36 400.978   5
  -2  -7  10 5843.17 423.872  11
   2   7 -10 5441.93 386.500   4
   2   7  -9 1282.60 176.039   7
  -2  -7   9 1018.29 219.713   5
  -2  -7   9 1775.97 243.786  11
   2   7  -9 1080.40 205.126   4
   2   7  -8 1684.70 192.136   7
  -2  -7   8 1344.09 161.927   6
  -2  -7   8 1451.29 201.147   5
  -2  -7   8 1668.98 237.692  11
   2   7  -8 1269.11 200.627   4
   2   7  -7 1591.74 176.365   7
  -2  -7   7 1562.07 181.574   6
  -2  -7   7 1470.52 196.038  11
  -2  -7   7 1667.88 209.526   5
   2   7  -7 1565.73 205.700   4
   2   7  -6 1380.14 150.081   7
  -2  -7   6 1324.48 171.711   6
  -2  -7   6 1576.53 192.354  11
  -2  -7   6 1082.94 176.470   5
   2   7  -6 1331.89 180.879   4
  -2  -7   5 5025.09 306.213   6
  -2  -7   5 5383.83 336.326   5
   2   7  -5 5095.98 319.107   4
  -2  -7   5 5439.99 302.482  11
   2   7  -5 4637.35 250.418   7
  -2  -7   4 4253.80 278.468   6
  -2  -7   4 3940.32 222.459   3
  -2  -7   4 4203.83 250.547  11
  -2  -7   4 4431.01 296.584   5
   2   7  -4 4182.59 283.293   4
  -2  -7   4 3611.65 209.381   7
   2   7  -4 4234.96 227.282   7
  -2  -7   3 4240.10 279.339   6
  -2  -7   3 3920.97 197.077   3
  -2  -7   3 3970.09 224.128  11
  -2  -7   3 4401.87 290.726   5
   2   7  -3 4101.51 278.431   4
  -2  -7   3 4125.53 212.618   7
  -2  -7   2 2878.99 235.664   6
  -2  -7   2 2937.12 150.536   3
  -2  -7   2 2722.85 173.036  11
  -2  -7   2 3164.40 241.660   5
  -2  -7   2 3083.85 142.771  10
   2   7  -2 3108.14 241.125   4
  -2  -7   2 2847.35 173.569   7
  -2  -7   1 13010.7 468.304   6
  -2  -7   1 12698.5 245.611   3
   2   7  -1 12921.9 343.124   1
  -2  -7   1 13566.4 329.984  11
  -2  -7   1 13608.0 474.528   5
  -2  -7   1 12984.5 318.718  10
   2   7  -1 13945.0 481.563   4
  -2  -7   1 13130.9 355.620   7
  -2  -7   0 2766.41 236.562   6
  -2  -7   0 2338.85 125.419  11
  -2  -7   0 2427.40 217.628   5
  -2  -7   0 2476.74 162.199  10
  -2  -7   0 2630.12 166.070   7
   2   7   0 2165.19 206.687   4
   2   7   0 2265.88 138.537   1
  -2  -7  -1 15163.3 504.039   6
  -2  -7  -1 14754.2 492.027   5
  -2  -7  -1 14879.3 401.988  10
  -2  -7  -1 14939.1 252.045  11
   2   7   1 15270.5 318.969   1
   2   7   1 15031.8 497.223   4
  -2  -7  -1 15756.9 392.938   7
  -2  -7  -2 6945.61 350.540   6
   2   7   2 7471.43 214.959   1
  -2  -7  -2 7229.09 349.487   5
  -2  -7  -2 6937.05 294.374  10
   2   7   2 8076.73 368.575   4
  -2  -7  -2 7738.77 285.610   7
  -2  -7  -3 332.257 117.848   6
  -2  -7  -3 300.623 99.2295  10
  -2  -7  -3 164.172 97.6948   5
   2   7   3 246.353 60.9287   1
   2   7   3 331.357 117.678   4
  -2  -7  -4 2530.09 220.566   6
  -2  -7  -4 2453.72 219.080   5
  -2  -7  -4 2907.27 219.773  10
   2   7   4 2515.65 219.693   4
  -2  -7  -5 8740.71 391.643   6
  -2  -7  -5 8307.18 243.343   1
  -2  -7  -5 8638.06 398.587   5
  -2  -7  -5 8377.85 377.451  10
   2   7   5 9141.86 403.996   4
  -2  -7  -6 4145.27 188.505   1
  -2  -7  -6 4136.27 274.689   6
  -2  -7  -6 4259.19 293.611  10
  -2  -7  -6 4382.77 297.460   5
   2   7   6 4258.78 270.190   2
   2   7   6 4520.91 297.471   4
   2   7   7 1378.51 185.526   4
  -2  -7  -7 1866.72 190.477   6
  -2  -7  -7 1934.80 214.011   5
   2   7   7 1370.02 173.054   2
  -2  -7  -7 1998.74 225.465  10
  -2  -7  -7 1916.70 142.145   1
  -2  -7  -8 3654.31 258.134   6
  -2  -7  -8 3373.03 290.530  10
  -2  -7  -8 3208.38 272.045   5
  -2  -7  -8 3367.54 199.105   1
   2   7   8 3761.57 264.379   2
   2   7   8 3587.06 280.352   4
  -2  -7  -9 417.706 110.245   6
  -2  -7  -9 616.878 164.242  10
   2   7   9 553.769 137.868   2
  -2  -7  -9 693.134 110.466   1
  -2  -7  -9 451.969 139.240   5
  -2  -7  -9 512.985 135.678   7
  -2  -7 -10 692.272 137.972   6
  -2  -7 -10 665.868 116.081   1
  -2  -7 -10 992.139 199.875  10
  -2  -7 -10 490.617 141.298   5
   2   7  10 497.718 130.147   2
  -2  -7 -10 680.924 172.030   7
  -2  -7 -11 3725.92 343.102  10
  -2  -7 -11 3655.09 318.660   7
   2   7  11 3522.78 283.118   2
   2   7  12 3741.43 325.103   8
   2   7  12 3813.84 303.674   2
  -2  -8   9 733.386 191.442  11
   2   8  -9 684.428 169.453   4
   2   8  -8 518.010 126.758   7
  -2  -8   8 909.248 193.173   5
  -2  -8   8 820.241 156.903   6
  -2  -8   8 575.480 158.847  11
   2   8  -8 634.830 174.633   4
   2   8  -7 437.940 126.639   7
  -2  -8   7 162.146 96.4850   6
  -2  -8   7 488.690 149.048  11
  -2  -8   7 265.895 128.533   5
   2   8  -7 242.602 127.049   4
  -2  -8   6 44.6481 101.405  11
   2   8  -6 1.67461 83.4726   7
  -2  -8   6 132.218 110.112   6
  -2  -8   6 202.885 101.706   5
   2   8  -6-4.98150 111.651   4
  -2  -8   5 1776.83 184.891  11
  -2  -8   5 1925.65 223.998   6
  -2  -8   5 1743.67 214.566   5
   2   8  -5 1582.86 204.896   4
   2   8  -5 1853.83 179.229   7
  -2  -8   4 2466.68 239.215   6
  -2  -8   4 2133.71 186.582  11
  -2  -8   4 2495.58 241.172   5
   2   8  -4 2504.79 243.024   4
  -2  -8   3 151.837 84.9129  11
  -2  -8   3 151.491 111.785   6
  -2  -8   3 67.9881 106.750   5
   2   8  -3 97.8193 121.617   4
  -2  -8   2 2820.27 240.658   6
  -2  -8   2 2786.49 172.908  11
  -2  -8   2 2668.60 132.340  10
   2   8  -2 2758.04 178.247   1
   2   8  -2 3136.27 256.306   4
  -2  -8   2 2655.72 182.333   7
  -2  -8   2 2752.89 241.561   5
  -2  -8   1 4741.10 315.063   6
   2   8  -1 4353.73 201.330   1
  -2  -8   1 5098.67 200.008  11
  -2  -8   1 4678.03 305.117   5
  -2  -8   1 4536.67 197.780  10
   2   8  -1 4912.14 309.759   4
  -2  -8   1 4277.91 227.974   7
  -2  -8   0 7283.57 381.353   6
  -2  -8   0 6614.53 191.082  11
  -2  -8   0 7016.97 369.337   5
  -2  -8   0 6311.40 253.552  10
   2   8   0 7468.99 372.674   4
   2   8   0 6778.70 222.961   1
  -2  -8   0 6387.78 277.424   7
  -2  -8  -1 927.311 122.744   7
  -2  -8  -1 962.669 164.207   6
   2   8   1 787.326 76.3056   1
  -2  -8  -1 906.088 122.452  10
  -2  -8  -1 1140.53 170.086   5
   2   8   1 1313.20 177.047   4
  -2  -8  -2 6995.82 373.902   6
  -2  -8  -2 6970.38 365.334   5
  -2  -8  -2 6733.73 302.917  10
   2   8   2 7621.02 378.308   4
  -2  -8  -3 4163.42 289.472   5
  -2  -8  -3 4624.35 310.554   6
  -2  -8  -3 3990.81 252.274  10
   2   8   3 4554.45 302.994   4
  -2  -8  -4 5149.02 327.348   6
  -2  -8  -4 4774.24 289.121  10
   2   8   4 4262.50 296.189   4
  -2  -8  -4 4192.19 295.296   5
  -2  -8  -5 2385.92 231.542   6
  -2  -8  -5 2696.28 248.927   5
  -2  -8  -5 2298.33 222.042  10
   2   8   5 2807.38 252.077   4
   2   8   6 1999.66 226.294   4
  -2  -8  -6 1851.27 215.187   5
  -2  -8  -6 1685.50 202.304   6
   2   8   6 1504.30 175.100   2
  -2  -8  -6 2054.84 221.090  10
   2   8   7 1063.18 182.375   4
  -2  -8  -7 876.411 156.536   6
   2   8   7 809.537 146.615   2
  -2  -8  -7 990.963 182.772  10
  -2  -8  -7 998.729 188.136   5
  -2  -8  -8 5027.19 320.318   6
  -2  -8  -8 4873.20 351.133  10
  -2  -8  -8 5024.30 348.091   5
   2   8   8 5592.52 328.000   2
   2   8   8 5808.29 373.213   4
  -2  -8  -9 685.454 144.007   6
  -2  -8  -9 821.863 183.976  10
   2   8   9 718.957 142.364   2
  -2  -8  -9 782.665 178.010   5
  -2  -8  -9 1099.84 200.554   7
  -2  -8 -10 688.983 146.082   6
  -2  -8 -10 519.498 163.826  10
  -2  -8 -10 626.548 161.055   5
   2   8  10 693.944 145.194   2
  -2  -8 -10 1172.50 201.671   7
   2   8  11 759.695 163.108   2
  -2  -8 -11 521.390 168.927   7
  -2  -9   9 5809.41 411.872  11
  -2  -9   8 1522.91 226.405  11
   2   9  -8 1273.68 216.147   4
  -2  -9   7 316.305 127.415   6
  -2  -9   7 177.721 126.630  11
  -2  -9   7 298.948 135.769   5
   2   9  -7 319.371 143.648   4
  -2  -9   6 1281.40 196.681   6
  -2  -9   6 1497.88 193.518  11
  -2  -9   6 1537.01 234.362   5
   2   9  -6 1774.03 226.403   4
  -2  -9   5 475.947 167.124   5
  -2  -9   5 624.720 161.129   6
  -2  -9   5 541.985 133.340  11
   2   9  -5 497.227 154.255   4
  -2  -9   4 1878.23 222.548   6
  -2  -9   4 1598.14 174.234  11
  -2  -9   4 1408.18 207.288   5
   2   9  -4 2071.69 233.834   4
  -2  -9   3 5233.99 355.189   6
  -2  -9   3 4740.33 247.052  11
  -2  -9   3 5382.10 362.675   5
   2   9  -3 4567.06 329.278   4
  -2  -9   2 2929.90 274.233   6
  -2  -9   2 2498.73 248.512   5
   2   9  -2 2631.05 253.371   4
  -2  -9   1 3620.12 297.015   6
  -2  -9   1 3449.38 284.927   5
  -2  -9   1 3156.58 171.171  10
   2   9  -1 3939.64 301.736   4
  -2  -9   0 7416.59 415.649   6
  -2  -9   0 7277.58 397.115   5
  -2  -9   0 6831.78 277.622  10
   2   9   0 7895.82 413.776   4
  -2  -9  -1 5067.37 340.315   6
  -2  -9  -1 5553.63 350.352   5
  -2  -9  -1 5265.69 265.264  10
   2   9   1 5237.86 337.444   4
  -2  -9  -2 7815.65 424.362   6
  -2  -9  -2 8626.14 432.334   5
  -2  -9  -2 8277.73 350.729  10
   2   9   2 8507.20 428.204   4
   2   9   3 1716.93 218.748   4
  -2  -9  -3 1403.01 201.434   6
  -2  -9  -3 1289.55 160.146  10
  -2  -9  -3 1473.95 203.498   5
  -2  -9  -4 5443.05 356.630   6
  -2  -9  -4 6233.40 374.191   5
  -2  -9  -4 5229.17 315.963  10
   2   9   4 6168.90 374.082   4
   2   9   5 2737.37 262.074   4
  -2  -9  -5 2344.58 249.686   6
  -2  -9  -5 2037.92 222.475  10
  -2  -9  -5 2335.88 245.246   5
   2   9   6 776.237 181.164   4
  -2  -9  -6 978.948 187.347   6
   2   9   6 665.379 142.396   2
  -2  -9  -6 864.179 174.755  10
  -2  -9  -6 857.916 163.832   5
   2   9   7 280.674 138.973   4
  -2  -9  -7 47.2476 110.991   6
  -2  -9  -7 160.408 122.433  10
   2   9   7 147.368 107.532   2
  -2  -9  -7 170.810 121.597   5
   2   9   8 1406.86 228.506   4
  -2  -9  -8 1260.73 201.375   6
  -2  -9  -8 1329.99 212.867  10
   2   9   8 1758.78 205.780   2
  -2  -9  -8 1184.15 205.703   5
  -2  -9  -9 2334.03 252.056   6
  -2  -9  -9 2267.74 274.283  10
   2   9   9 2531.78 248.175   2
  -2  -9  -9 2442.66 277.522   5
  -2  -9 -10 646.094 187.444   5
  -2  -9 -10 807.568 166.766   7
  -2 -10   7 488.644 139.752   6
  -2 -10   6 1149.09 215.014   6
   2  10  -6 850.410 174.181   4
  -2 -10   5 673.057 166.028   6
  -2 -10   5 353.002 149.235   5
   2  10  -5 481.632 162.790   4
  -2 -10   4 1317.15 224.230   6
  -2 -10   4 812.525 189.473   5
   2  10  -4 1309.18 199.647   4
  -2 -10   3 2168.22 254.870   6
  -2 -10   3 2191.07 254.102   5
   2  10  -3 2199.48 247.710   4
  -2 -10   2 180.048 124.444   6
  -2 -10   2 268.160 143.673   5
   2  10  -2 536.827 166.416   4
  -2 -10   1 1211.47 210.743   6
  -2 -10   1 1321.28 216.750   5
   2  10  -1 937.162 181.397   4
  -2 -10   0 1149.94 201.741   6
  -2 -10   0 985.105 171.782   5
   2  10   0 1118.60 184.718   4
  -2 -10  -1 6425.24 406.198   6
  -2 -10  -1 6396.73 300.214  10
  -2 -10  -1 6062.96 392.684   5
   2  10   1 6796.67 409.697   4
   2  10   2 1025.08 180.437   4
  -2 -10  -2 1389.02 208.878   6
  -2 -10  -2 1159.99 187.442   5
  -2 -10  -2 1225.76 157.515  10
  -2 -10  -3 4514.18 352.628   6
  -2 -10  -3 5307.40 366.742   5
  -2 -10  -3 4409.11 287.771  10
   2  10   3 4786.98 353.241   4
  -2 -10  -4 7040.36 427.205   6
   2  10   4 6401.04 407.846   4
  -2 -10  -4 6501.63 365.765  10
  -2 -10  -4 6564.18 404.796   5
   2  10   5 3132.05 299.308   4
  -2 -10  -5 3206.84 299.909   6
  -2 -10  -5 3315.03 299.260   5
  -2 -10  -5 2668.80 266.889  10
  -2 -10  -6 6422.36 408.968   6
  -2 -10  -6 6816.82 414.568  10
  -2 -10  -6 7268.40 436.608   5
   2  10   6 7017.66 384.861   2
   2  10   6 6888.70 436.223   4
  -2 -10  -7 13808.9 594.077   6
  -2 -10  -7 12969.5 580.379  10
  -2 -10  -7 13410.0 596.201   5
   2  10   7 12713.8 513.999   2
   2  10   7 13089.4 602.835   4
  -2 -10  -8 2540.23 265.748   6
  -2 -10  -8 2589.89 294.579  10
  -2 -10  -8 2889.91 299.141   5
   2  10   8 2594.15 240.593   2
  -2 -10  -9 1285.21 207.459   6
  -2 -11   3 2475.43 295.436   6
   2  11  -3 2739.34 289.106   4
  -2 -11   2 432.664 169.892   6
   2  11  -2 763.787 204.103   4
  -2 -11   1 786.067 191.906   6
  -2 -11   1 991.687 199.532   5
   2  11  -1 721.619 177.249   4
  -2 -11   0 276.697 160.814   6
  -2 -11   0 118.507 126.563   5
   2  11   0 427.367 155.684   4
   2  11   1 1429.16 223.822   4
  -2 -11  -1 1660.06 253.159   6
  -2 -11  -1 1397.65 231.355   5
   2  11   2 240.012 147.076   4
  -2 -11  -2 439.039 158.472   5
   2  11   3 469.527 183.149   4
  -2 -11  -3 446.993 160.265   6
  -2 -11  -3 238.762 117.607  10
  -2 -11  -3 417.877 143.571   5
  -2 -11  -4 1765.57 245.231   6
  -2 -11  -4 1869.53 219.202  10
  -2 -11  -4 1800.21 239.488   5
  -2 -11  -5 321.940 146.732   6
  -2 -11  -5 45.2944 126.614  10
  -2 -11  -5 183.959 115.003   5
  -2 -11  -6 758.442 195.888  10
   2  11   6 531.317 155.137   2
  -2 -11  -7 1385.99 230.420  10
  -2 -12  -5 1510.88 223.585  10
   3 -11  -3 1737.53 241.635   3
   3 -11  -2 531.749 162.163   3
   3 -11  -1 3985.56 337.756   3
  -3  11   1 3478.81 320.944   8
   3 -11   0 1342.14 217.564   3
  -3  11   0 1154.97 204.160   8
   3 -11   1 135.870 126.968   3
  -3  11  -1 240.638 133.794   8
   3 -11   2 726.447 191.175   3
  -3  11  -2 486.639 138.448   8
   3 -11   3 43.9262 123.672   3
   3 -11   4 542.125 162.193   5
   3 -11   5 810.467 175.689   5
   3 -10  -5 3306.52 319.261   3
  -3  10   4 3055.96 314.913   9
   3 -10  -4 3577.20 328.485   3
  -3  10   3 547.030 176.543   9
  -3  10   3 537.354 157.123   8
   3 -10  -3 816.016 175.908   3
   3 -10  -2-111.392 118.790   3
  -3  10   2 10.1015 127.838   9
  -3  10   2-91.1247 127.081   8
   3 -10  -1 225.549 155.580   3
  -3  10   1 376.387 149.112   9
  -3  10   1 180.803 135.063   8
  -3  10   0 1433.03 219.127   9
  -3  10   0 1145.35 184.816   8
   3 -10   0 1605.56 235.885   3
   3 -10   1 886.886 180.313   3
  -3  10  -1 480.905 152.013   9
  -3  10  -1 854.374 167.443   8
   3 -10   2 363.810 143.654   3
   3 -10   2 207.606 94.6140   5
  -3  10  -2 425.149 170.779   9
  -3  10  -2 208.387 110.372   8
  -3  10  -3 2068.20 264.789   9
   3 -10   3 2529.85 246.101   5
  -3  10  -3 2293.12 214.291   8
   3 -10   4 3131.53 284.322   5
  -3  10  -4 2380.10 268.997   9
   3 -10   5 304.840 132.137   5
  -3  10  -5 479.990 165.294   9
   3 -10   6 1939.18 236.500   2
   3 -10   6 1989.49 256.566   5
  -3  10  -6 1962.51 252.860   9
   3 -10   7 164.998 127.198   2
  -3   9   7-0.44144 107.284   9
  -3   9   6 273.984 126.709   9
   3  -9  -6 580.984 163.215   3
   3  -9  -5 599.042 178.572   3
  -3   9   5 632.705 161.987   9
  -3   9   4 1476.46 223.158   9
  -3   9   4 1437.55 227.361   8
   3  -9  -4 1373.82 218.337   3
   3  -9  -3 1361.21 207.271   3
  -3   9   3 1556.19 215.876   9
  -3   9   3 1494.59 218.382   8
   3  -9  -2 4199.14 330.015   3
  -3   9   2 4361.75 338.500   9
  -3   9   2 4345.08 321.931   8
   3  -9  -1 2143.33 245.931   3
  -3   9   1 2258.31 248.514   9
  -3   9   1 2109.36 240.277   8
   3  -9   0 2802.58 270.227   3
  -3   9   0 2538.03 265.108   9
  -3   9   0 2743.63 253.446   8
   3  -9   1 1803.94 173.142   5
   3  -9   1 2098.26 237.053   3
  -3   9  -1 2104.63 245.652   9
  -3   9  -1 1985.71 211.846   8
   3  -9   2 4733.91 341.826   3
   3  -9   2 4845.58 288.307   5
  -3   9  -2 4533.77 287.873   8
  -3   9  -2 4478.04 339.558   9
   3  -9   3 2835.52 235.762   5
  -3   9  -3 2971.91 286.664   9
  -3   9  -3 2462.56 212.995   8
   3  -9   3 2455.40 204.638   2
   3  -9   4 1704.99 186.419   2
   3  -9   4 1662.66 205.005   5
  -3   9  -4 1491.53 217.048   9
  -3   9  -4 1633.62 164.232   8
   3  -9   5 2708.13 247.261   2
   3  -9   5 2506.28 249.106   5
  -3   9  -5 3151.24 295.798   9
   3  -9   6 155.916 122.594   2
   3  -9   6 518.517 162.577   5
  -3   9  -6 366.135 145.811   9
  -3   9  -7 1006.79 202.069   9
   3  -9   7 688.151 169.912   2
  -3   9  -8 1432.13 211.241   9
   3  -9   8 1932.43 269.217   2
  -3   9  -9 538.454 152.940   9
   3  -8  -7 2679.22 296.226   3
  -3   8   7 2614.83 259.345   9
  -3   8   6 1611.98 188.027  11
  -3   8   6 1604.55 228.709   8
   3  -8  -6 1648.16 236.887   3
  -3   8   6 1695.76 217.322   9
   3  -8  -5 2288.36 255.820   3
  -3   8   5 2284.64 242.888   9
  -3   8   5 1847.73 243.333   8
   3  -8  -4 702.640 167.018   3
  -3   8   4 778.539 157.303   9
  -3   8   4 655.478 156.517   8
   3  -8  -3-26.6454 94.1634   3
  -3   8   3 4.64866 107.299   9
  -3   8   3 64.7769 110.344   8
   3  -8  -2 4363.50 316.696   3
  -3   8   2 4471.88 319.745   9
  -3   8   2 4742.29 322.024   8
   3  -8  -1 3335.17 273.530   3
  -3   8   1 2836.06 261.690   9
  -3   8   1 3009.43 255.972   8
   3  -8   0 434.473 94.4865   5
   3  -8   0 226.344 111.291   3
  -3   8   0 424.622 141.873   9
  -3   8   0 237.514 97.5423   8
   3  -8   1 796.239 105.162   2
   3  -8   1 674.147 160.634   3
  -3   8  -1 598.654 140.708   9
   3  -8   1 650.262 111.153   5
  -3   8  -1 613.677 127.906   8
   3  -8   2 2320.91 198.202   5
   3  -8   2 2073.33 171.706   2
  -3   8  -2 1841.90 161.808   1
  -3   8  -2 2066.79 233.285   9
  -3   8  -2 1722.34 183.061   8
   3  -8   3 1708.03 183.828   5
  -3   8  -3 1500.13 202.271   9
  -3   8  -3 1685.53 164.742   1
  -3   8  -3 1690.64 164.347   8
   3  -8   3 1452.60 159.398   2
  -3   8  -4 6601.26 316.651   1
   3  -8   4 6579.56 351.251   5
   3  -8   4 6796.42 342.877   2
  -3   8  -4 6168.16 368.423   9
  -3   8  -4 6285.19 284.392   8
  -3   8  -5 815.045 141.911   1
  -3   8  -5 696.117 166.778   9
   3  -8   5 748.332 156.992   2
  -3   8  -6 1299.45 200.238   7
  -3   8  -6 1765.10 220.941   9
  -3   8  -6 1419.65 185.396   1
   3  -8   6 1936.24 226.589   2
  -3   8  -7 391.310 153.324   7
  -3   8  -7 533.695 144.761   1
  -3   8  -7 697.694 152.667   9
   3  -8   7 350.515 131.540   2
  -3   8  -8 678.489 172.271   7
  -3   8  -8 781.281 155.920   1
  -3   8  -8 769.861 159.552   9
   3  -8   8 1364.06 225.390   2
  -3   8  -9 698.432 171.532   1
  -3   8  -9 837.453 181.806   9
   3  -8   9 813.083 191.468   2
  -3   8 -10 641.202 161.832   1
  -3   7   8 349.541 115.536   9
  -3   7   8 489.381 161.661   8
  -3   7   8 385.409 127.614  11
   3  -7  -7 806.282 192.293   3
  -3   7   7 788.355 156.044  11
  -3   7   7 881.593 183.146   8
  -3   7   7 885.490 160.335   9
  -3   7   6-56.7882 90.3959  11
   3  -7  -6 32.2657 131.048   3
  -3   7   6 86.9953 108.213   9
  -3   7   6 202.815 111.952   8
  -3   7   5 568.232 118.062  11
   3  -7  -5 507.534 152.618   3
  -3   7   5 618.794 141.693   9
  -3   7   5 375.754 137.357   8
   3  -7  -4 1225.45 186.215   3
  -3   7   4 1094.39 170.490   9
  -3   7   4 1206.44 179.695   8
   3  -7  -3 6220.59 364.393   3
  -3   7   3 5740.72 339.255   9
  -3   7   3 6370.92 363.552   8
   3  -7  -2 8951.75 422.356   3
   3  -7  -2 7965.53 211.920   5
  -3   7   2 8425.19 409.656   9
  -3   7   2 8491.63 406.235   8
   3  -7  -1 4295.37 298.986   3
   3  -7  -1 4381.11 185.004   5
   3  -7  -1 4189.93 225.735   1
  -3   7   1 3956.06 284.416   9
  -3   7   1 4727.23 293.209   8
   3  -7   0 17063.6 570.182   3
   3  -7   0 16931.1 442.826   1
   3  -7   0 16612.4 390.378   5
  -3   7   0 16905.8 569.263   9
  -3   7   0 16670.0 522.972   8
   3  -7   0 16270.2 323.708   2
   3  -7   1 6587.18 361.255   3
   3  -7   1 5957.47 273.129   1
   3  -7   1 6788.75 277.248   5
   3  -7   1 6359.34 243.886   2
  -3   7  -1 6734.51 367.603   9
  -3   7  -1 7134.87 332.206   8
   3  -7   1 6278.02 279.328   4
  -3   7  -1 6371.78 238.341   2
   3  -7   2 2587.98 187.014   5
   3  -7   2 2460.47 177.099   2
  -3   7  -2 2349.75 181.092   1
  -3   7  -2 2337.56 224.199   9
  -3   7  -2 2264.73 190.169   8
   3  -7   2 2056.28 158.254   4
  -3   7  -2 2028.12 159.446   2
  -3   7  -3 338.573 100.242   1
  -3   7  -3 372.393 124.387   9
  -3   7  -3 218.470 85.1762   8
   3  -7   3 485.351 113.463   2
  -3   7  -4 1037.86 144.875   1
  -3   7  -4 838.670 148.143   9
  -3   7  -4 996.980 117.892   8
   3  -7   4 913.261 146.518   2
   3  -7   5 2694.03 227.455   2
  -3   7  -5 2158.00 218.367   9
  -3   7  -5 1907.39 141.877   8
  -3   7  -5 2158.97 196.508   1
  -3   7  -5 2345.37 236.723   7
  -3   7  -6 1207.94 181.911   7
  -3   7  -6 1256.25 185.987   9
  -3   7  -6 1083.47 156.198   1
   3  -7   6 1306.99 182.783   2
  -3   7  -7 1633.78 212.241   7
  -3   7  -7 1761.69 201.557   1
  -3   7  -7 2075.08 221.107   9
   3  -7   7 1913.08 233.745   2
  -3   7  -8 1626.11 228.016   7
  -3   7  -8 2060.58 227.003   1
  -3   7  -8 1584.16 192.756   9
   3  -7   8 1870.96 233.085   2
  -3   7  -9 307.416 149.955   7
  -3   7  -9 66.0240 97.8238   1
  -3   7  -9 313.681 126.497   9
   3  -7   9 346.895 161.418   2
  -3   7 -10 475.775 150.040   1
  -3   7 -10 190.068 109.906   9
   3  -7  10 650.328 191.661   2
  -3   6  10-67.4516 128.995  11
  -3   6   9 1489.19 216.552  11
   3  -6  -9 1451.54 234.427   3
  -3   6   9 1806.09 256.017   8
  -3   6   8 393.817 110.360   9
  -3   6   8 575.959 145.770  11
   3  -6  -8 677.523 192.228   3
  -3   6   8 457.570 144.687   8
   3  -6  -7 3442.64 299.049   3
  -3   6   7 2903.55 248.887  11
  -3   6   7 2757.58 275.566   8
  -3   6   7 3154.96 243.936   9
  -3   6   6 788.035 141.380   9
  -3   6   6 847.315 148.893  11
   3  -6  -6 896.922 173.731   3
  -3   6   6 898.011 178.799   8
  -3   6   5 1849.98 187.728  11
   3  -6  -5 1972.87 219.609   3
  -3   6   5 2053.94 208.975   9
  -3   6   5 1582.57 201.360   8
  -3   6   4 1202.07 153.561  11
   3  -6  -4 1158.00 175.434   3
  -3   6   4 1008.53 152.743   9
  -3   6   4 1094.04 174.745   8
   3  -6  -3 25879.9 690.470   3
  -3   6   3 24719.8 596.156  11
  -3   6   3 23169.4 633.033   9
  -3   6   3 23813.0 662.304   8
   3  -6  -2 4810.48 305.649   3
   3  -6  -2 5116.26 251.908   1
   3  -6  -2 4120.44 120.553   5
  -3   6   2 4933.69 298.842   9
  -3   6   2 5274.94 307.034   8
   3  -6  -1 28860.1 707.048   3
   3  -6  -1 29843.4 407.632   5
   3  -6  -1 30671.2 595.531   1
  -3   6   1 30214.9 716.604   9
  -3   6   1 31311.6 703.432   8
   3  -6   0 6554.70 344.151   3
   3  -6   0 6758.84 207.541   2
   3  -6   0 6808.20 229.441   5
   3  -6   0 6215.98 274.849   1
  -3   6   0 6522.20 340.402   9
  -3   6   0 6385.94 312.202   8
   3  -6   0 6445.87 282.707   4
   3  -6   1 798.464 109.294   4
   3  -6   1 542.063 133.249   3
  -3   6  -1 734.707 88.3416   2
   3  -6   1 798.154 103.428   5
  -3   6  -1 772.981 139.198   9
  -3   6  -1 737.170 121.604   8
   3  -6   1 584.083 109.364   1
   3  -6   1 956.899 113.692   2
  -3   6  -2 1245.77 144.051   1
  -3   6  -2 1176.83 120.982   2
  -3   6  -2 1174.67 163.540   9
  -3   6  -2 1107.46 131.163   8
   3  -6   2 1234.50 130.728   2
   3  -6   2 1018.86 103.362   4
  -3   6  -3 3090.03 215.432   1
   3  -6   3 3141.52 207.136   2
  -3   6  -3 3166.32 248.846   9
  -3   6  -3 3021.65 190.914   8
   3  -6   3 2707.51 142.297   4
  -3   6  -3 2776.14 187.201   2
   3  -6   4 8465.71 346.208   2
  -3   6  -4 8646.71 391.093   9
   3  -6   4 7414.54 192.327   4
  -3   6  -4 8350.05 288.538   8
  -3   6  -4 8055.33 339.156   1
  -3   6  -4 7774.62 379.852   7
  -3   6  -5 778.036 150.702   7
  -3   6  -5 751.089 146.104   9
  -3   6  -5 942.282 138.634   1
  -3   6  -5 844.309 96.4104   8
   3  -6   5 693.417 138.869   2
   3  -6   6 5699.48 329.158   2
  -3   6  -6 4948.73 300.278   9
  -3   6  -6 5951.28 325.760   1
  -3   6  -6 4813.49 175.906   8
  -3   6  -6 5492.17 336.915   7
  -3   6  -7 1645.41 208.330   7
  -3   6  -7 1709.36 195.007   1
  -3   6  -7 1412.40 176.573   9
   3  -6   7 1845.07 213.077   2
  -3   6  -8 203.039 116.800   7
  -3   6  -8 244.747 121.913   1
  -3   6  -8 31.9666 91.1981   9
   3  -6   8 369.205 148.736   2
  -3   6  -9 7599.16 366.975   9
   3  -6   9 6700.00 418.167   2
  -3   6  -9 7265.40 409.333   1
  -3   6  -9 6999.78 427.135   7
   3  -6  10 10351.8 533.699   2
  -3   6 -10 9961.91 500.620   1
  -3   6 -10 9726.30 411.051   9
  -3   6 -10 9683.14 518.337   7
  -3   6 -11 1549.82 227.749   1
  -3   5  11 1136.50 197.914  11
  -3   5  10 773.493 173.379  11
  -3   5  10 576.246 161.184   8
   3  -5 -10 692.481 178.149   7
  -3   5   9-49.5028 117.788  11
   3  -5  -9 199.866 143.804   3
  -3   5   9 93.8655 119.500   8
   3  -5  -8 1388.04 215.765   3
  -3   5   8 991.523 143.273   9
  -3   5   8 1456.48 210.271   8
  -3   5   8 1240.75 183.993  11
  -3   5   7 585.925 134.352  11
  -3   5   7 654.483 123.796   9
   3  -5  -7 717.689 175.044   3
  -3   5   7 721.742 155.409   8
  -3   5   6 276.329 117.672  11
   3  -5  -6 231.045 116.230   3
  -3   5   6 232.851 102.398   9
  -3   5   6 311.676 125.253   8
   3  -5  -5 207.505 110.133   3
  -3   5   5 433.351 106.868  11
  -3   5   5 239.311 100.565   9
  -3   5   5 374.324 118.871   8
   3  -5  -4 2811.78 242.138   3
  -3   5   4 3100.80 225.406  11
  -3   5   4 2687.13 215.882   9
  -3   5   4 2988.67 239.057   8
   3  -5  -3 8276.49 381.883   3
  -3   5   3 8504.40 348.139  11
  -3   5   3 8568.88 370.313   9
  -3   5   3 8602.45 386.015   8
   3  -5  -2 2063.80 205.990   3
  -3   5   2 1441.16 164.014  11
  -3   5   2 1885.09 183.996   9
  -3   5   2 1495.93 168.608   8
   3  -5  -2 1688.49 159.555   1
   3  -5  -1 8079.25 365.496   3
   3  -5  -1 6769.98 157.265   2
   3  -5  -1 7172.31 170.199   5
  -3   5   1 7630.91 348.714   9
  -3   5   1 7374.92 329.586   8
   3  -5  -1 7732.30 305.797   1
   3  -5  -1 7567.62 307.998   4
   3  -5   0 1211.96 131.107   4
   3  -5   0 1353.04 102.921   2
   3  -5   0 1123.08 153.412   3
   3  -5   0 1356.32 101.210   5
   3  -5   0 1289.79 132.990   1
  -3   5   0 1447.74 172.975   9
  -3   5   0 1409.57 154.840   8
   3  -5   1 7176.04 340.364   3
   3  -5   1 6944.38 235.178   2
  -3   5  -1 6872.92 291.388   1
  -3   5  -1 7139.85 337.111   9
  -3   5  -1 6997.16 296.580   8
  -3   5  -1 6884.53 230.173   2
   3  -5   1 6591.08 287.587   1
   3  -5   1 6453.49 244.487   4
   3  -5   2 9719.97 304.826   2
  -3   5  -2 9951.25 351.754   1
   3  -5   2 9334.75 345.687   1
  -3   5  -2 9672.73 389.327   9
  -3   5  -2 9259.60 323.666   8
  -3   5  -2 9221.52 292.137   2
   3  -5   2 9314.57 263.680   4
  -3   5  -3 703.805 133.075   9
  -3   5  -3 513.169 108.541   7
  -3   5  -3 698.374 103.401   2
  -3   5  -3 755.724 129.507   1
   3  -5   3 835.253 124.445   2
  -3   5  -3 1084.64 121.285   8
   3  -5   3 923.950 84.8780   4
  -3   5  -4 1565.06 175.978   7
  -3   5  -4 1823.29 181.295   9
   3  -5   4 1140.33 65.1504   4
  -3   5  -4 1554.49 127.430   8
   3  -5   4 1665.04 165.914   2
  -3   5  -4 1965.41 176.111   1
  -3   5  -5 1149.96 155.602   7
  -3   5  -5 1585.63 174.938   9
  -3   5  -5 1232.90 156.049   1
  -3   5  -5 1309.99 108.315   8
   3  -5   5 1288.77 165.681   2
   3  -5   6 6074.68 323.466   2
  -3   5  -6 5770.53 305.039   9
  -3   5  -6 6044.13 318.400   1
  -3   5  -6 5649.26 178.167   8
  -3   5  -6 5853.82 332.031   7
   3  -5   7 12903.7 495.485   2
  -3   5  -7 14637.7 513.237   1
  -3   5  -7 13078.9 452.816   9
  -3   5  -7 13817.3 518.684   7
  -3   5  -8 258.870 96.9424   7
  -3   5  -8 550.156 148.851   1
  -3   5  -8 416.666 100.448   9
   3  -5   8 292.899 133.251   2
   3  -5   9 7481.90 422.911   2
  -3   5  -9 7700.81 418.881   1
  -3   5  -9 7888.55 354.652   9
  -3   5  -9 7628.77 420.461   7
  -3   5 -10 788.963 176.841   7
  -3   5 -10 671.834 168.521   1
  -3   5 -10 614.826 113.335   9
   3  -5  10 669.754 177.371   2
  -3   5 -11 1747.20 245.842   1
  -3   5 -11 2058.74 265.519   7
   3  -5  11 1837.17 270.285   2
  -3   4  11 3877.27 333.810  11
   3  -4 -11 2783.21 297.254   7
  -3   4  10 605.563 160.210  11
   3  -4 -10 632.807 182.351   3
  -3   4  10 710.090 167.836   8
   3  -4 -10 835.681 189.717   7
   3  -4  -9 2404.00 274.900   3
  -3   4   9 2135.15 246.540  11
  -3   4   9 2312.16 255.228   8
   3  -4  -8 4470.48 343.116   3
  -3   4   8 3925.02 297.728  11
  -3   4   8 4288.85 253.586   9
  -3   4   8 4365.81 326.757   8
   3  -4  -7 10728.0 489.845   3
  -3   4   7 10636.8 453.126  11
  -3   4   7 10651.2 391.776   9
  -3   4   7 9892.45 458.642   8
  -3   4   6 1415.75 170.357  11
   3  -4  -6 1775.11 205.601   3
  -3   4   6 1661.40 166.226   9
  -3   4   6 1785.42 207.138   8
   3  -4  -5 2519.96 231.751   3
  -3   4   5 2260.82 203.712  11
  -3   4   5 2463.85 192.232   9
  -3   4   5 2809.01 243.085   8
  -3   4   4 16714.8 497.256  11
   3  -4  -4 17759.3 553.646   3
  -3   4   4 17600.9 498.310   9
  -3   4   4 17413.7 541.916   8
   3  -4  -3 8680.34 380.127   3
  -3   4   3 8179.40 340.905  11
  -3   4   3 8938.11 359.244   9
  -3   4   3 8376.41 365.895   8
   3  -4  -2 39219.1 690.701   1
   3  -4  -2 39981.7 776.439   3
  -3   4   2 40469.8 726.747  11
  -3   4   2 39349.0 738.170   9
  -3   4   2 38489.8 740.496   8
   3  -4  -1 19571.7 282.018   2
   3  -4  -1 18784.2 523.341   3
   3  -4  -1 16376.3 206.186   5
  -3   4   1 18689.1 490.747  11
   3  -4  -1 16856.2 210.778   5
  -3   4   1 18687.4 509.287   9
  -3   4   1 19666.5 511.018   8
   3  -4  -1 20060.6 485.436   1
   3  -4  -1 20067.0 496.255   7
   3  -4   0 7395.26 209.863   2
   3  -4   0 7836.02 341.272   3
  -3   4   0 7165.95 319.345   9
   3  -4   0 7960.34 306.541   1
  -3   4   0 7545.53 308.860   8
   3  -4   0 8109.35 313.566   7
   3  -4   1 838.807 98.5976   4
   3  -4   1 499.961 97.1313   7
  -3   4  -1 897.227 126.173   1
   3  -4   1 692.474 109.101   1
  -3   4  -1 670.336 120.238   9
   3  -4   1 736.394 126.357   3
   3  -4   1 712.439 89.7497   2
   3  -4   1 771.534 120.234   8
  -3   4  -1 485.866 98.1412   8
   3  -4   2 1987.48 143.642   2
  -3   4  -2 1812.42 156.122   1
   3  -4   2 2228.41 179.973   1
  -3   4  -2 1841.07 170.123   9
   3  -4   2 2176.81 165.277   8
  -3   4  -2 2077.20 156.433   8
  -3   4  -2 1910.17 140.828   2
   3  -4   2 1847.57 115.499   4
   3  -4   2 2023.46 169.968   7
   3  -4   3 664.129 62.3603   4
  -3   4  -3 774.259 118.447   7
  -3   4  -3 837.441 123.946   1
  -3   4  -3 854.513 132.374   9
  -3   4  -3 790.902 111.903   2
   3  -4   3 1091.48 127.777   2
   3  -4   3 798.712 107.425   8
  -3   4  -3 778.271 98.9211   8
  -3   4  -4 101.878 79.2206   7
  -3   4  -4 110.210 73.4798   2
  -3   4  -4 176.267 89.0672   9
   3  -4   4 173.630 94.1309   2
   3  -4   4 228.495 71.5434   8
  -3   4  -4 243.930 69.1969   8
   3  -4   4 126.259 20.5937   4
  -3   4  -4 159.458 85.8809   1
   3  -4   4 104.625 19.5556   4
  -3   4  -5 1977.57 187.236   7
   3  -4   5 2249.74 193.666   2
  -3   4  -5 2016.87 187.151   9
  -3   4  -5 1809.01 179.213   1
   3  -4   5 1955.00 125.653   8
  -3   4  -5 2074.10 125.608   8
   3  -4   6 4852.22 284.942   2
  -3   4  -6 4817.77 262.315   9
  -3   4  -6 4822.79 286.822   1
  -3   4  -6 5556.54 306.003   7
   3  -4   7 3518.45 260.618   2
  -3   4  -7 3396.93 224.048   9
  -3   4  -7 3706.45 232.162  10
  -3   4  -7 3377.02 254.251   1
  -3   4  -7 3747.60 265.606   7
  -3   4  -8 702.158 142.471   7
  -3   4  -8 822.946 153.677   1
  -3   4  -8 570.417 113.483  10
  -3   4  -8 843.211 135.934   9
   3  -4   8 758.289 158.224   2
   3  -4   9 10235.8 478.298   2
  -3   4  -9 10787.8 397.160  10
  -3   4  -9 10172.1 378.337   9
  -3   4  -9 10790.5 481.910   1
  -3   4  -9 10309.1 471.599   7
  -3   4 -10 3840.13 315.415   1
  -3   4 -10 3747.25 248.698  10
  -3   4 -10 3243.42 218.320   9
   3  -4  10 3031.00 290.175   2
  -3   4 -10 3494.72 300.626   7
   3  -4  11 3732.42 334.923   2
  -3   4 -11 3498.44 245.034  10
  -3   4 -11 3267.81 304.809   1
  -3   4 -11 3561.26 322.324   7
  -3   4 -12 646.264 177.430   1
  -3   4 -12 269.590 139.347   7
   3  -4  12 593.666 189.893   2
   3  -3 -11 691.771 164.442   7
  -3   3  11 670.888 174.638  11
  -3   3  11 781.235 179.949   8
  -3   3  10 328.879 146.302  11
   3  -3 -10 749.995 195.945   3
  -3   3  10 326.689 125.564   8
   3  -3 -10 402.375 139.944   7
  -3   3   9 369.512 141.785  11
   3  -3  -9 177.323 122.406   3
  -3   3   9 330.078 115.750   8
   3  -3  -9 311.683 122.499   7
  -3   3   8 887.090 169.423  11
  -3   3   8 863.534 121.512   9
   3  -3  -8 1170.96 191.674   3
  -3   3   8 795.183 153.230   8
   3  -3  -7 3723.00 292.644   3
  -3   3   7 2990.84 254.326  11
  -3   3   7 3823.51 230.291   9
  -3   3   7 3431.88 277.324   8
   3  -3  -6 18443.2 593.802   3
  -3   3   6 17808.5 553.589  11
  -3   3   6 17388.4 473.582   9
  -3   3   6 17741.2 569.443   8
   3  -3  -5 13394.8 489.207   3
  -3   3   5 12752.5 408.800   9
  -3   3   5 12901.1 467.540   8
  -3   3   5 13106.7 458.443  11
   3  -3  -5 10475.5 147.252   2
  -3   3   4 100.656 80.0217  11
   3  -3  -4 18.5628 18.0088   2
   3  -3  -4 13.6228 108.154   3
  -3   3   4-49.5566 85.4817   9
   3  -3  -4 76.8185 24.0889   2
  -3   3   4-20.7736 85.3667   8
   3  -3  -3 22556.8 581.705   3
   3  -3  -3 21952.9 257.865   2
  -3   3   3 23800.3 569.146  11
  -3   3   3 23728.8 550.087   9
  -3   3   3 23646.8 583.624   8
   3  -3  -3 21916.1 249.998   2
   3  -3  -2 22748.5 527.472   1
   3  -3  -2 21236.0 547.032   3
  -3   3   2 22075.2 529.898  11
  -3   3   2 21812.4 525.205   9
  -3   3   2 22483.1 549.608   8
   3  -3  -2 22812.3 293.212   2
   3  -3  -2 22519.9 484.446   7
   3  -3  -1 9158.89 357.082   3
  -3   3   1 9427.61 344.955  11
   3  -3  -1 6823.63 112.087   5
  -3   3   1 8916.80 339.394   9
  -3   3   1 8773.71 333.944   8
   3  -3  -1 8796.10 208.716   2
   3  -3  -1 9054.13 327.604   1
   3  -3  -1 8867.49 302.256   7
   3  -3   0 4023.12 240.536   3
   3  -3   0 4334.21 244.281  11
   3  -3   0 4262.74 136.362   5
  -3   3   0 4130.94 237.490   9
   3  -3   0 4340.26 231.011   8
  -3   3   0 4670.65 239.435   8
   3  -3   0 4366.32 229.508   1
   3  -3   0 4254.19 166.176   2
   3  -3   0 4181.11 209.476   7
   3  -3   1 1898.38 169.320   3
   3  -3   1 1664.68 154.957  11
   3  -3   1 1694.29 155.711  10
   3  -3   1 1625.59 148.903   1
   3  -3   1 1777.06 110.717   5
  -3   3  -1 1615.98 155.776   9
   3  -3   1 1867.50 151.052   8
  -3   3  -1 1738.73 143.044   8
  -3   3  -1 1837.27 160.023   1
   3  -3   1 1791.12 143.260   7
   3  -3   1 1713.73 123.215   2
   3  -3   2 44.8138 62.5687   7
  -3   3  -2 87.2430 66.7612   7
   3  -3   2 235.392 83.8055   1
  -3   3  -2 168.476 75.8793   1
  -3   3  -2 100.635 58.9361   2
   3  -3   2 74.3963 73.4520  10
   3  -3   2 53.6552 51.6246   5
  -3   3  -2 51.1507 69.5493   9
   3  -3   2 130.917 65.4504   2
   3  -3   2 43.6680 57.4102   8
  -3   3  -2 82.8928 58.2220   8
   3  -3   3 21780.3 520.873   1
   3  -3   3 21485.9 505.164  10
  -3   3  -3 21685.3 521.009   9
   3  -3   3 21205.4 431.794   8
  -3   3  -3 21777.0 432.838   8
  -3   3  -3 22738.5 475.176   2
   3  -3   3 21319.8 284.791   4
   3  -3   3 21864.4 490.425   7
  -3   3  -3 21863.7 521.264   1
  -3   3  -3 22403.7 497.042   7
   3  -3   3 21089.3 462.841   2
   3  -3   4 424.248 91.5877   7
  -3   3  -4 599.025 104.055   7
  -3   3  -4 477.058 98.3332   2
   3  -3   4 418.439 93.1111  10
  -3   3  -4 658.314 110.108   9
   3  -3   4 674.021 112.363   2
   3  -3   4 605.270 85.1078   8
  -3   3  -4 501.540 77.2417   8
  -3   3  -4 441.629 106.490   1
   3  -3   5 27364.3 602.251   2
  -3   3  -5 26361.7 568.856  10
  -3   3  -5 27372.3 584.668   9
   3  -3   5 27328.2 426.120   8
  -3   3  -5 26371.1 608.869   1
  -3   3  -5 26872.3 419.784   8
  -3   3  -5 27219.0 595.417   7
   3  -3   6 2737.37 220.771   2
  -3   3  -6 2575.94 189.822  10
  -3   3  -6 2797.47 200.604   9
  -3   3  -6 2620.35 217.924   1
   3  -3   6 2832.92 130.696   8
  -3   3  -6 2441.81 201.397   7
   3  -3   7 27657.0 675.331   2
  -3   3  -7 28747.9 616.399  10
  -3   3  -7 29041.5 695.730   1
  -3   3  -7 29242.5 608.732   9
   3  -3   7 26562.6 311.511   8
  -3   3  -7 27867.2 664.327   7
  -3   3  -8 1339.24 172.165   7
  -3   3  -8 1120.38 161.067   1
  -3   3  -8 1305.95 148.665  10
  -3   3  -8 1167.37 136.673   9
   3  -3   8 1151.74 170.939   2
  -3   3  -9 1301.01 180.975   7
  -3   3  -9 1750.00 207.888   1
  -3   3  -9 1435.58 160.871  10
  -3   3  -9 1490.13 149.386   9
   3  -3   9 1992.34 223.283   2
   3  -3  10 4063.48 322.062   2
  -3   3 -10 4095.11 316.349   1
  -3   3 -10 3904.45 258.058  10
  -3   3 -10 3676.97 218.309   9
  -3   3 -10 3889.25 300.515   7
  -3   3 -11 2446.01 263.364   1
  -3   3 -11 2392.53 213.114  10
   3  -3  11 2342.22 276.068   2
  -3   3 -11 2504.43 272.962   7
  -3   3 -12 3473.13 265.413  10
  -3   3 -12 3606.32 325.303   1
   3  -3  12 2876.87 306.785   2
  -3   3 -12 3013.16 299.781   7
   3  -2 -12 680.481 162.500   7
  -3   2  12 711.496 170.854   8
   3  -2 -11 346.949 137.815   7
  -3   2  11 535.391 176.018  11
  -3   2  11 249.544 128.282   8
   3  -2 -10 7337.68 457.463   3
  -3   2  10 6600.01 417.081  11
  -3   2  10 6834.65 401.751   8
   3  -2 -10 6519.23 376.481   7
  -3   2   9 2860.00 275.967  11
   3  -2  -9 2763.05 284.372   3
  -3   2   9 2759.27 256.366   8
   3  -2  -9 2295.49 223.735   7
   3  -2  -8 4450.14 330.284   3
  -3   2   8 4425.97 314.560  11
  -3   2   8 4399.63 309.182   8
   3  -2  -8 4311.36 279.465   7
   3  -2  -7 16980.8 451.280   6
   3  -2  -7 17764.7 604.742   3
  -3   2   7 16220.1 558.894  11
  -3   2   7 17149.6 450.250   9
  -3   2   7 17030.4 561.883   8
   3  -2  -7 17657.4 517.744   7
   3  -2  -6 5861.64 192.173   2
   3  -2  -6 5422.60 262.255   6
   3  -2  -6 5917.79 340.166   3
  -3   2   6 6357.04 337.850  11
   3  -2  -6 6116.24 281.466   9
  -3   2   6 5808.63 271.463   9
  -3   2   6 6409.83 338.770   8
   3  -2  -5 5957.51 186.088   2
   3  -2  -5 5692.16 271.017   6
   3  -2  -5 5666.95 320.954   3
  -3   2   5 5681.41 307.948  11
   3  -2  -5 6241.73 283.611   9
  -3   2   5 5703.93 267.221   9
  -3   2   5 5746.74 307.972   8
   3  -2  -4 3955.17 228.265   6
   3  -2  -4 4094.63 265.730   3
   3  -2  -4 4513.65 158.895   2
  -3   2   4 4122.02 253.529  11
   3  -2  -4 4410.82 239.628   9
  -3   2   4 4125.68 227.607   9
  -3   2   4 4258.78 262.392   8
   3  -2  -3 5207.24 166.705   2
   3  -2  -3 4562.66 261.342   3
   3  -2  -3 4915.98 250.303   6
   3  -2  -3 4945.15 252.722   9
  -3   2   3 4561.76 239.195   9
  -3   2   3 5323.56 277.513   8
  -3   2   3 4972.35 269.326  11
   3  -2  -2 11454.7 389.190   3
   3  -2  -2 11270.2 371.342   6
   3  -2  -2 12144.5 388.968   1
  -3   2   2 11188.1 378.681  11
   3  -2  -2 11782.7 381.666   9
  -3   2   2 11776.9 375.042   9
  -3   2   2 11202.5 376.969   8
   3  -2  -2 11243.6 245.902   2
   3  -2  -1 31967.8 609.475   1
   3  -2  -1 32838.5 630.557   3
   3  -2  -1 32087.7 622.661   6
   3  -2  -1 32326.3 628.410  11
  -3   2   1 32530.7 619.604  11
   3  -2  -1 28391.8 259.078   5
   3  -2  -1 32019.4 615.844   9
  -3   2   1 32155.1 612.240   9
   3  -2  -1 31992.1 619.412   8
  -3   2   1 32167.7 614.973   8
   3  -2  -1 32303.4 436.504   2
   3  -2  -1 31406.5 501.477   7
   3  -2   0 12552.1 388.185   3
  -3   2   0 12896.7 390.294  11
   3  -2   0 12959.6 394.861   6
   3  -2   0 12856.8 394.577  11
   3  -2   0 13480.2 400.000  10
   3  -2   0 12985.1 394.757   9
  -3   2   0 12801.9 388.555   9
   3  -2   0 13116.4 379.226   8
   3  -2   0 12719.6 231.709   5
  -3   2   0 13045.1 377.689   8
   3  -2   0 13035.3 296.209   2
   3  -2   0 13315.7 393.065   1
   3  -2   0 13554.6 325.805   7
   3  -2   1 20991.4 495.533   3
   3  -2   1 21577.1 507.133   6
   3  -2   1 22493.2 516.726  11
  -3   2  -1 22254.8 496.462   1
   3  -2   1 21636.7 358.839   5
   3  -2   1 21884.6 503.368  10
   3  -2   1 22079.1 509.016   9
  -3   2  -1 21325.5 496.882   9
   3  -2   1 21712.6 466.702   8
   3  -2   1 21785.5 496.856   1
  -3   2  -1 21854.7 468.314   8
   3  -2   1 21863.5 406.904   2
   3  -2   1 21411.8 411.529   7
  -3   2  -2 10323.9 349.188   1
   3  -2   2 9916.05 346.728   6
   3  -2   2 10307.2 356.678  11
   3  -2   2 10016.3 273.429   5
   3  -2   2 10183.3 344.374  10
   3  -2   2 10240.3 345.781   1
   3  -2   2 10119.1 350.003   9
  -3   2  -2 10652.2 353.777   9
   3  -2   2 10103.9 309.113   8
  -3   2  -2 10736.8 315.135   8
   3  -2   2 10095.9 298.461   2
   3  -2   2 10814.1 303.391   7
  -3   2  -2 10377.0 298.874   7
  -3   2  -3 1244.70 123.225   7
   3  -2   3 1452.76 149.100   6
  -3   2  -3 1458.40 150.447   1
   3  -2   3 1283.29 140.155  11
   3  -2   3 1290.56 118.918   5
   3  -2   3 1433.50 143.115  10
  -3   2  -3 1277.91 137.967  10
   3  -2   3 1252.24 126.619   2
   3  -2   3 1196.45 128.340   9
   3  -2   3 1277.30 77.1020   4
  -3   2  -3 1178.69 129.927   9
  -3   2  -3 1379.55 116.477   8
   3  -2   3 1251.45 111.992   8
   3  -2   3 1416.86 128.008   7
   3  -2   3 1302.59 144.466   1
   3  -2   4 9719.72 346.215   6
   3  -2   4 9788.95 322.958   5
  -3   2  -4 9463.95 338.460  10
   3  -2   4 9615.24 342.082   9
   3  -2   4 9974.88 348.637  10
  -3   2  -4 10151.5 346.372   9
   3  -2   4 9932.18 279.283   8
   3  -2   4 7734.72 128.052   4
  -3   2  -4 9516.68 330.770   2
  -3   2  -4 9999.20 279.616   8
  -3   2  -4 9601.88 353.183   1
   3  -2   4 9542.58 316.264   7
   3  -2   4 9766.41 335.983   2
  -3   2  -4 9442.67 318.067   7
   3  -2   5 2474.24 186.638   6
   3  -2   5 2663.73 198.887  10
   3  -2   5 2541.41 187.437   5
  -3   2  -5 2259.08 182.396  10
   3  -2   5 2460.01 184.385   9
  -3   2  -5 2542.67 186.307   9
  -3   2  -5 2258.90 191.143   1
   3  -2   5 2357.23 135.100   8
   3  -2   5 2313.54 170.962   7
  -3   2  -5 2348.42 174.658   7
   3  -2   5 2415.69 188.883   2
   3  -2   6 2288.32 174.063   6
  -3   2  -6 2623.27 196.550  10
   3  -2   6 2371.01 182.055   9
  -3   2  -6 2440.13 207.321   1
  -3   2  -6 2432.17 179.740   9
   3  -2   6 2406.21 124.369   8
  -3   2  -6 2640.30 195.759   7
   3  -2   6 2566.19 205.697   2
   3  -2   7 2858.94 235.806   2
   3  -2   7 2720.30 188.761   6
  -3   2  -7 2708.63 202.382  10
  -3   2  -7 3038.33 234.905   1
   3  -2   7 3008.61 202.663   9
  -3   2  -7 2899.98 193.164   9
   3  -2   7 2925.82 123.942   8
  -3   2  -7 2939.25 217.618   7
   3  -2   8 3695.72 271.077   2
   3  -2   8 3185.24 205.848   6
  -3   2  -8 3302.37 229.992  10
  -3   2  -8 3441.23 265.098   1
   3  -2   8 3530.11 216.718   9
  -3   2  -8 3734.82 217.980   9
   3  -2   8 2927.95 99.1997   8
  -3   2  -8 3627.23 254.120   7
   3  -2   9 5691.16 347.535   2
   3  -2   9 5311.25 259.994   6
  -3   2  -9 5886.51 349.557   1
  -3   2  -9 5728.00 305.842  10
  -3   2  -9 5697.32 261.477   9
  -3   2  -9 6009.12 335.318   7
   3  -2  10 3285.09 286.303   2
  -3   2 -10 2777.35 259.628   1
  -3   2 -10 3052.47 266.158   7
  -3   2 -10 2921.54 232.052  10
  -3   2 -11 2588.66 270.497   1
  -3   2 -11 3118.06 250.909  10
   3  -2  11 2669.36 270.880   2
  -3   2 -11 2725.77 264.472   7
   3  -2  12 5570.43 399.798   2
  -3   2 -12 5638.79 399.255   1
  -3   2 -12 5472.23 332.271  10
  -3   2 -12 5708.80 383.913   7
  -3   2 -13 2110.40 261.962   7
  -3   2 -13 1835.03 214.985  10
   3  -1 -12 216.337 136.110   7
  -3   1  12 377.913 137.017   8
  -3   1  11 4143.70 363.589  11
  -3   1  11 4077.02 324.071   8
   3  -1 -11 4211.53 322.700   7
   3  -1 -10 1848.39 208.253   7
  -3   1  10 2063.26 260.039  11
   3  -1 -10 1975.09 259.129   3
  -3   1  10 1374.19 197.916   8
   3  -1  -9 485.650 124.334   7
  -3   1   9 559.025 157.945  11
   3  -1  -9 826.522 185.915   3
  -3   1   9 717.328 154.178   8
   3  -1  -8 1051.69 147.233   7
  -3   1   8 1069.19 181.010  11
   3  -1  -8 819.422 167.322   3
  -3   1   8 1063.71 161.383   8
   3  -1  -7 2386.88 161.103   2
   3  -1  -7 2523.85 179.023   6
   3  -1  -7 2908.06 268.596   3
  -3   1   7 2598.41 110.087   5
  -3   1   7 2678.12 238.379  11
   3  -1  -7 2825.22 188.787   9
  -3   1   7 2885.04 235.469   8
   3  -1  -7 2745.79 203.784   7
   3  -1  -6 2179.75 166.911   6
   3  -1  -6 2127.69 146.093   2
  -3   1   6 1817.54 79.6930   5
  -3   1   6 1981.91 81.0846   5
  -3   1   6 2255.32 213.563  11
   3  -1  -6 2266.55 170.313   9
   3  -1  -6 2074.48 213.549   3
  -3   1   6 1974.51 197.075   8
   3  -1  -6 2291.76 176.375   7
   3  -1  -5 1079.05 127.247   6
  -3   1   5 1347.12 167.068  11
   3  -1  -5 1294.83 177.096   3
   3  -1  -5 1185.12 134.965   9
  -3   1   5 1263.34 135.563   9
  -3   1   5 1207.36 162.260   8
   3  -1  -5 1252.84 116.394   2
   3  -1  -4 9412.72 333.606   6
   3  -1  -4 10120.8 393.011   3
  -3   1   4 9864.84 384.101  11
   3  -1  -4 9666.46 271.315   2
   3  -1  -4 9345.74 332.014   9
  -3   1   4 9605.97 335.010   9
  -3   1   4 9573.19 375.324   8
   3  -1  -3 9812.56 337.028   6
   3  -1  -3 9657.67 359.906   3
  -3   1   3 10023.8 372.569  11
   3  -1  -3 9807.34 262.944   2
   3  -1  -3 10906.6 353.421   9
  -3   1   3 9929.83 337.169   9
  -3   1   3 9690.50 365.530   8
  -3   1   2 2147.71 172.528   3
   3  -1  -2 2192.12 176.948   3
   3  -1  -2 1960.12 161.761   6
   3  -1  -2 2145.40 173.426   1
  -3   1   2 1618.40 157.306  11
   3  -1  -2 2129.51 172.863  10
   3  -1  -2 2105.43 166.461   9
  -3   1   2 2127.29 168.524   9
  -3   1   2 1905.76 165.289   8
  -3   1   1 1600.05 149.661   9
   3  -1  -1 1587.50 148.536   3
   3  -1  -1 1657.77 154.685   1
   3  -1  -1 2052.29 162.847  10
   3  -1  -1 1964.95 159.504   6
   3  -1  -1 1876.69 85.7613   5
  -3   1   1 1730.97 157.084  11
   3  -1  -1 2006.21 162.360   9
   3  -1  -1 1680.28 151.099   8
  -3   1   1 1862.59 161.410   8
   3  -1  -1 1602.65 106.293   7
   3  -1  -1 2141.48 172.717  11
   3  -1   0 9492.99 320.707   3
   3  -1   0 9283.75 328.818   6
   3  -1   0 10046.2 344.747  11
  -3   1   0 10387.3 344.076  11
   3  -1   0 9617.89 217.000   5
   3  -1   0 9799.27 336.601  10
   3  -1   0 9984.55 336.729   9
  -3   1   0 9554.94 329.874   9
   3  -1   0 9510.38 318.156   8
  -3   1   0 9345.08 320.800   8
   3  -1   0 9784.55 273.359   2
   3  -1   0 9565.71 237.203   7
   3  -1   0 9872.32 337.380   1
   3  -1   1 19238.8 446.021   3
  -3   1  -1 18896.3 456.748   1
   3  -1   1 19088.6 464.495   6
   3  -1   1 18918.7 458.867  10
   3  -1   1 19581.8 472.798  11
   3  -1   1 18860.8 459.567   9
   3  -1   1 18478.4 340.110   5
  -3   1  -1 19018.8 460.828   9
   3  -1   1 19860.3 443.109   8
  -3   1  -1 18909.7 434.651   8
   3  -1   1 19142.9 466.162   1
   3  -1   1 19100.8 396.626   2
   3  -1   1 18777.5 337.546   7
  -3   1  -2 11083.4 356.350   1
   3  -1   2 11006.8 355.786   6
   3  -1   2 11796.4 371.576  11
   3  -1   2 11047.0 289.917   5
   3  -1   2 11122.4 354.987  10
  -3   1  -2 11322.6 359.055  10
   3  -1   2 11723.6 367.541   1
   3  -1   2 10837.8 352.460   9
   3  -1   2 11229.3 263.390   4
  -3   1  -2 11512.3 360.195   9
   3  -1   2 11311.0 325.378   8
  -3   1  -2 10688.6 314.931   8
   3  -1   2 11044.4 319.832   2
   3  -1   2 10804.0 268.776   7
  -3   1  -2 10916.3 272.486   7
   3  -1   3 7548.57 295.288   6
   3  -1   3 7501.47 304.197   1
   3  -1   3 8007.08 272.695   5
   3  -1   3 7810.84 301.825  10
   3  -1   3 7751.49 307.282  11
  -3   1  -3 7314.41 295.410  10
   3  -1   3 7682.55 295.268   9
  -3   1  -3 7663.57 297.252   9
   3  -1   3 7707.97 193.714   4
   3  -1   3 7720.81 258.297   8
  -3   1  -3 7390.77 254.538   8
   3  -1   3 7725.65 282.883   2
   3  -1   3 7373.34 238.719   7
  -3   1  -3 7678.80 245.197   7
  -3   1  -3 7778.80 307.248   1
   3  -1   4 3474.99 208.505   6
   3  -1   4 3375.48 212.085  11
   3  -1   4 3463.31 212.359  10
  -3   1  -4 3581.27 212.973  10
   3  -1   4 3457.09 205.912   9
  -3   1  -4 3357.16 203.470   9
   3  -1   4 3799.40 179.219   8
   3  -1   4 3407.38 112.128   4
   3  -1   4 3560.97 199.857   5
  -3   1  -4 3410.88 215.918   1
   3  -1   4 3304.58 177.154   7
   3  -1   4 3685.61 212.267   2
  -3   1  -4 3110.16 172.435   7
   3  -1   5 1135.15 123.231   7
  -3   1  -5 1022.27 118.376   7
   3  -1   5 1039.40 124.791   6
  -3   1  -5 1161.92 139.654  10
   3  -1   5 1232.40 136.022   5
   3  -1   5 1225.22 143.027   2
   3  -1   5 1276.92 132.979   9
  -3   1  -5 980.160 133.545   1
  -3   1  -5 1322.92 138.328   9
   3  -1   5 1155.88 100.295   8
   3  -1   5 989.614 51.6971   4
   3  -1   6 16551.8 440.140   6
  -3   1  -6 16299.0 463.249  10
   3  -1   6 16255.9 433.912   9
  -3   1  -6 15833.2 484.753   1
  -3   1  -6 16348.4 429.858   9
   3  -1   6 15620.7 327.712   8
   3  -1   6 16102.9 442.092   7
  -3   1  -6 15403.2 426.784   7
   3  -1   6 15891.0 476.795   2
   3  -1   7 7285.67 295.701   6
  -3   1  -7 7435.39 327.464  10
  -3   1  -7 7797.07 358.676   1
   3  -1   7 7104.54 289.607   9
  -3   1  -7 7918.04 301.991   9
   3  -1   7 7532.31 217.702   8
  -3   1  -7 7126.92 315.999   7
   3  -1   7 7588.99 354.131   2
  -3   1  -8 570.354 116.687   7
  -3   1  -8 599.579 134.475   1
   3  -1   8 642.979 110.098   6
  -3   1  -8 512.592 118.004  10
   3  -1   8 528.919 104.182   9
   3  -1   8 629.961 135.734   2
   3  -1   8 589.556 68.8380   8
  -3   1  -9 1851.87 197.624   7
  -3   1  -9 2027.07 214.764   1
   3  -1   9 1752.49 154.553   6
  -3   1  -9 1791.88 185.671  10
   3  -1   9 1619.02 153.293   9
   3  -1   9 2156.74 222.463   2
   3  -1  10 3457.30 282.251   2
  -3   1 -10 3655.24 295.449   1
  -3   1 -10 3164.75 242.704  10
  -3   1 -10 2873.08 249.489   7
   3  -1  11 2873.31 276.692   2
  -3   1 -11 2606.63 236.244  10
  -3   1 -11 2792.99 264.475   7
  -3   1 -11 2363.10 256.559   1
  -3   1 -12 1907.10 235.152   7
  -3   1 -12 1736.25 206.154  10
   3  -1  12 2139.39 264.329   2
  -3   1 -12 1619.10 230.934   1
  -3   1 -13 1871.68 242.807   7
  -3   1 -13 1671.09 210.815  10
   3  -1  13 1854.58 259.484   2
  -3   1 -13 1941.75 263.935   1
  -3   1 -14 1079.72 184.409  10
  -3   0  12 3341.75 300.512   8
   3   0 -12 3821.17 315.417   7
   3   0 -11 480.937 143.884   7
  -3   0  11 372.066 159.958  11
  -3   0  11 381.354 130.667   8
   3   0 -10 293.447 106.230   7
  -3   0  10 606.992 155.632  11
   3   0 -10 437.401 158.663   3
  -3   0  10 592.880 147.689   8
   3   0  -9 6431.66 404.485   3
  -3   0   9 5848.61 379.577  11
  -3   0   9 6338.10 364.544   8
   3   0  -9 6802.97 344.951   7
   3   0  -8 4.19128 89.4342   7
  -3   0   8 175.405 62.9292   5
   3   0  -8-14.4046 116.779   3
  -3   0   8-17.1065 90.9340   8
   3   0  -7 5501.56 251.511   6
   3   0  -7 5319.89 262.307   2
   3   0  -7 5605.11 346.158   3
  -3   0   7 5476.81 199.807   5
  -3   0   7 5270.29 325.554  11
   3   0  -7 5029.85 240.118   9
  -3   0   7 5655.62 319.960   8
   3   0  -7 5537.69 267.638   7
   3   0  -6 5990.09 264.594   6
   3   0  -6 6282.00 267.059   2
   3   0  -6 6368.65 340.166   3
  -3   0   6 6091.94 193.534   5
  -3   0   6 6090.27 340.553  11
   3   0  -6 5663.28 254.606   9
  -3   0   6 5866.13 312.266   8
   3   0  -6 6863.23 275.057   7
   3   0  -5 8118.51 307.642   6
   3   0  -5 8226.22 365.511   3
   3   0  -5 8693.43 300.423   2
  -3   0   5 7818.25 202.890   5
   3   0  -5 8442.45 310.440   9
  -3   0   5 8059.07 353.805   8
  -3   0   5 8584.22 375.356  11
   3   0  -5 8811.76 286.902   7
   3   0  -4 11038.1 357.073   6
   3   0  -4 10764.0 391.791   3
  -3   0   4 10964.5 403.485  11
  -3   0   4 11233.5 230.563   5
   3   0  -4 11095.7 352.978   9
   3   0  -4 11298.5 324.726   2
  -3   0   4 10632.5 388.846   8
   3   0  -4 11143.6 295.735   7
  -3   0   3 9144.78 343.640   3
   3   0  -3 8145.73 306.715   6
   3   0  -3 8525.77 332.759   3
  -3   0   3 8431.04 308.014   6
  -3   0   3 8634.20 197.554   5
   3   0  -3 8290.54 323.058  10
   3   0  -3 8761.30 313.424   9
  -3   0   3 8481.97 337.780   8
  -3   0   3 8477.25 344.076  11
  -3   0   2 7582.98 297.709   3
   3   0  -2 7512.77 292.171   6
   3   0  -2 7540.16 296.387   3
  -3   0   2 7262.24 285.789   6
   3   0  -2 7695.77 190.546   5
   3   0  -2 7505.92 312.752  11
  -3   0   2 7367.58 309.603  11
  -3   0   2 7684.13 189.971   5
   3   0  -2 7540.87 310.962   1
   3   0  -2 7569.69 300.478  10
   3   0  -2 7441.69 290.184   9
  -3   0   2 7650.68 294.890   9
   3   0  -2 7710.29 310.383   8
  -3   0   2 7644.74 307.620   8
   3   0  -1 59768.6 781.479   3
   3   0  -1 60092.1 816.720   6
  -3   0   1 59634.3 797.154   6
   3   0  -1 59606.0 832.426   1
   3   0  -1 59553.0 555.044   5
   3   0  -1 58986.1 827.503  11
  -3   0   1 59423.0 823.231  11
  -3   0   1 60181.9 554.263   5
   3   0  -1 59147.3 808.835  10
   3   0  -1 60383.7 807.488   9
  -3   0   1 60802.1 813.021   9
   3   0  -1 59670.8 818.821   8
  -3   0   1 57738.1 808.299   8
   3   0  -1 60460.1 489.397   7
   3   0   0 819.198 110.757   6
  -3   0   0 898.647 116.794   6
   3   0   0 779.527 112.441  11
  -3   0   0 935.715 116.565  11
   3   0   0 880.057 106.838   3
   3   0   0 845.957 115.423  10
   3   0   0 694.531 74.9036   5
   3   0   0 755.359 105.714   9
  -3   0   0 623.375 101.516   9
   3   0   0 766.107 110.374   1
   3   0   0 757.937 107.861   8
  -3   0   0 929.679 84.3935   5
  -3   0   0 809.160 110.287   8
   3   0   0 789.739 102.518   4
   3   0   0 762.484 58.1620   7
   3   0   1 39640.8 601.330   3
   3   0   1 39802.0 664.478   6
  -3   0  -1 38702.9 650.325   6
   3   0   1 40403.0 664.743  11
  -3   0  -1 40212.8 653.515  11
   3   0   1 39078.5 519.314   5
   3   0   1 39739.1 656.377  10
  -3   0  -1 39292.9 520.449   5
  -3   0  -1 40288.2 658.144  10
  -3   0  -1 39490.8 657.018   1
   3   0   1 39372.7 555.689   4
  -3   0  -1 38556.4 646.096   9
   3   0   1 39765.6 632.552   8
   3   0   1 39442.7 596.827   2
  -3   0  -1 39414.9 628.722   8
   3   0   1 39054.0 649.544   9
   3   0   1 40230.6 666.929   1
   3   0   1 40174.6 400.888   7
   3   0   2 9698.24 284.769   5
   3   0   2 10012.7 336.420   6
  -3   0  -2 10057.4 333.540   6
  -3   0  -2 9835.48 335.084   1
   3   0   2 10215.1 336.738  11
   3   0   2 10002.7 335.899  10
  -3   0  -2 9972.54 283.850   5
  -3   0  -2 9361.32 325.868  10
   3   0   2 9965.17 331.289   9
  -3   0  -2 10347.8 336.295   9
   3   0   2 9825.14 335.613   1
   3   0   2 9594.88 258.993   4
   3   0   2 10083.9 310.457   8
   3   0   2 9841.30 310.136   2
   3   0   2 9753.65 220.910   7
  -3   0  -2 9982.21 224.815   7
   3   0   3 1265.77 136.099   1
   3   0   3 1245.13 129.464   6
  -3   0  -3 1253.59 134.533   6
   3   0   3 1093.27 123.180  11
   3   0   3 1168.68 126.166  10
   3   0   3 1231.89 126.127   2
  -3   0  -3 1230.84 133.064  10
   3   0   3 1019.27 106.569   5
   3   0   3 1106.63 121.416   9
  -3   0  -3 1284.98 128.177   9
  -3   0  -3 1093.80 125.167   1
   3   0   3 1127.36 94.2661   4
   3   0   3 1121.31 113.016   8
   3   0   3 1110.69 90.4400   7
  -3   0  -3 1190.41 96.6033   7
   3   0   4 77.6745 47.8440   7
  -3   0  -4 58.0811 49.2481   7
   3   0   4-109.414 71.9847   6
  -3   0  -4-10.5676 68.6877   6
   3   0   4 12.4359 65.7023  11
   3   0   4 52.6862 73.1120  10
  -3   0  -4 65.8982 69.3885  10
   3   0   4 19.3624 66.7238   2
   3   0   4 61.7869 66.4882   5
   3   0   4 32.7630 63.3267   9
  -3   0  -4 36.9747 71.7837   9
   3   0   4 54.4410 55.9168   8
   3   0   4 13.4549 67.2376   1
   3   0   4 13.2639 38.4560   4
  -3   0  -4 91.2275 70.3377   1
   3   0   5 7262.09 293.472   6
  -3   0  -5 6903.81 284.106   6
   3   0   5 7206.74 303.631   5
  -3   0  -5 7486.92 314.481  10
   3   0   5 7131.00 286.132   9
  -3   0  -5 7374.32 314.719   1
   3   0   5 6789.61 243.320   8
   3   0   5 7422.42 186.690   4
   3   0   5 7178.43 261.278   7
   3   0   5 7194.40 309.093   2
  -3   0  -5 7371.89 262.580   7
   3   0   6 304.962 79.5158   7
   3   0   6 365.071 51.9165   4
  -3   0  -6 279.375 79.1094   7
   3   0   6 374.645 75.9592   6
  -3   0  -6 182.023 88.4170  10
   3   0   6 403.278 110.161   2
   3   0   6 242.967 75.4910   9
   3   0   6 368.609 74.6851   8
  -3   0  -6 279.719 45.9059   4
  -3   0  -6 336.804 94.1857   1
  -3   0  -7 9716.81 381.442  10
   3   0   7 9882.25 340.434   6
  -3   0  -7 9870.84 395.042   1
   3   0   7 9076.03 323.196   9
  -3   0  -7 10066.2 209.724   4
   3   0   7 8894.83 267.779   8
  -3   0  -7 9363.53 348.701   7
   3   0   7 8996.45 379.631   2
  -3   0  -8 1627.64 172.294   7
   3   0   8 1645.05 150.642   6
  -3   0  -8 1445.34 176.096   1
   3   0   8 1204.38 131.316   9
   3   0   8 1611.08 190.098   2
  -3   0  -8 1549.79 88.3820   4
  -3   0  -8 1253.58 161.816  10
   3   0   8 1391.09 114.024   8
   3   0   9 3749.14 212.771   6
   3   0   9 3955.25 217.059   9
  -3   0  -9 4187.25 145.764   4
   3   0   9 3869.94 171.559   8
  -3   0  -9 4171.61 276.184  10
  -3   0  -9 4028.48 281.482   1
  -3   0  -9 4292.39 276.007   7
   3   0   9 3909.09 285.715   2
   3   0  10 2619.01 250.199   2
  -3   0 -10 2163.54 233.807   1
  -3   0 -10 2560.21 232.254  10
  -3   0 -10 2591.30 233.417   7
   3   0  11 7420.11 419.870   2
  -3   0 -11 6742.46 405.565   1
  -3   0 -11 7153.90 385.062  10
  -3   0 -11 6684.78 384.156   7
   3   0  12 4256.45 345.448   2
  -3   0 -12 4009.84 329.527   1
  -3   0 -12 3780.95 299.768  10
  -3   0 -12 3831.73 316.685   7
  -3   0 -13 704.509 173.656   7
  -3   0 -13 412.942 137.388  10
   3   0  13 731.342 200.972   2
  -3   0 -13 570.760 162.740   1
  -3   0 -14 1103.02 192.014  10
   3   1 -11 1377.06 183.250   7
  -3  -1  11 1813.90 225.748   8
   3   1 -10 95.2436 103.789   7
  -3  -1  10 108.655 124.847  11
   3   1 -10 112.554 135.622   3
  -3  -1  10-163.417 104.886   8
  -3  -1   9 2673.16 264.787  11
  -3  -1   9 2330.33 174.109   5
   3   1  -9 2162.67 250.520   3
  -3  -1   9 2017.15 212.416   8
   3   1  -9 2760.42 222.522   7
   3   1  -8 5018.04 344.044   3
  -3  -1   8 4716.15 227.679   5
  -3  -1   8 4503.73 323.259  11
  -3  -1   8 4619.41 300.111   8
   3   1  -8 4541.56 254.636   7
   3   1  -7 2230.94 172.476   6
  -3  -1   7 2071.26 147.500   5
  -3  -1   7 2536.04 240.629  11
   3   1  -7 2263.06 167.371   9
   3   1  -7 2208.18 225.666   3
  -3  -1   7 2264.76 206.774   8
   3   1  -7 2200.47 171.429   7
   3   1  -6 17124.5 445.962   6
  -3  -1   6 18034.6 442.530   6
   3   1  -6 17380.8 549.938   3
  -3  -1   6 17736.4 385.965   5
  -3  -1   6 16791.2 548.573  11
   3   1  -6 17763.8 444.018   9
  -3  -1   6 18038.6 536.048   8
   3   1  -6 17935.4 422.912   7
   3   1  -5 8056.17 309.806   6
  -3  -1   5 8381.79 307.017   6
   3   1  -5 8190.19 364.183   3
   3   1  -5 9026.23 332.942   2
  -3  -1   5 8006.97 249.600   5
  -3  -1   5 8195.24 370.918  11
   3   1  -5 7965.65 302.213   9
  -3  -1   5 8046.24 349.101   8
   3   1  -5 8339.95 263.301   7
   3   1  -4 9718.62 337.292   6
  -3  -1   4 9863.78 334.597   6
   3   1  -4 9781.59 368.546   3
  -3  -1   4 10011.3 388.964  11
   3   1  -4 10077.0 338.570   2
  -3  -1   4 10297.8 270.744   5
   3   1  -4 10020.3 349.411  10
   3   1  -4 9773.95 333.887   9
  -3  -1   4 9824.82 375.986   8
   3   1  -4 9948.18 253.015   7
  -3  -1   3 3710.62 216.602   3
   3   1  -3 3856.88 218.326   6
  -3  -1   3 3659.71 209.197   6
   3   1  -3 3615.77 220.998   3
  -3  -1   3 3291.62 223.764  11
  -3  -1   3 3655.62 160.261   5
   3   1  -3 3858.60 202.732   2
   3   1  -3 3654.00 210.040  10
   3   1  -3 3735.73 214.683   9
  -3  -1   3 3446.17 222.962   8
   3   1  -3 3768.50 134.481   7
  -3  -1   2 8634.40 303.759   3
   3   1  -2 8591.09 316.985   6
  -3  -1   2 8325.62 310.143   6
   3   1  -2 8323.16 301.284   3
   3   1  -2 8215.90 237.020   5
   3   1  -2 8462.94 331.933  11
  -3  -1   2 8044.89 322.792  11
  -3  -1   2 7996.20 232.982   5
   3   1  -2 8494.40 308.557  10
   3   1  -2 8556.80 313.157   9
   3   1  -2 8178.95 317.117   4
  -3  -1   2 8068.31 319.491   8
   3   1  -2 8085.77 157.320   7
  -3  -1   1 24096.5 477.726   3
   3   1  -1 25041.1 531.894   6
   3   1  -1 25086.6 484.088   3
  -3  -1   1 25074.6 527.563   6
   3   1  -1 23847.6 532.025   1
   3   1  -1 23770.0 404.623   5
   3   1  -1 25059.6 539.801  11
  -3  -1   1 24845.0 531.421  11
  -3  -1   1 24756.3 412.005   5
   3   1  -1 24778.2 512.370  10
   3   1  -1 24851.4 527.506   9
   3   1  -1 24365.8 512.167   4
   3   1  -1 24580.5 535.513   8
  -3  -1   1 25488.0 542.618   8
   3   1  -1 21878.3 187.405   7
   3   1  -1 20586.2 186.342   7
   3   1   0 18183.2 454.000   1
   3   1   0 18351.7 455.278   6
   3   1   0 18173.4 394.299   3
  -3  -1   0 17915.2 448.764   6
   3   1   0 18534.5 450.486  11
  -3  -1   0 18128.6 441.155  11
  -3  -1   0 18620.4 369.058   5
   3   1   0 18715.6 446.465  10
  -3  -1   0 18446.1 442.305  10
   3   1   0 18224.2 368.147   5
   3   1   0 18816.8 458.824   9
   3   1   0 18568.9 424.643   4
   3   1   0 18544.9 453.206   8
   3   1   1 16691.8 366.544   3
   3   1   1 16501.2 430.486   6
  -3  -1  -1 16699.0 430.668   6
   3   1   1 16664.5 421.105  11
   3   1   1 16444.8 365.090   5
  -3  -1  -1 15931.6 408.503  11
   3   1   1 16380.4 421.007  10
  -3  -1  -1 15991.2 415.116  10
   3   1   1 15928.9 420.627   9
  -3  -1  -1 16455.3 363.859   5
   3   1   1 15909.6 373.708   4
   3   1   1 16368.4 417.822   8
   3   1   1 15585.3 176.759   7
   3   1   1 16607.0 429.191   1
   3   1   2 26508.2 455.395   3
   3   1   2 25533.8 538.258   6
  -3  -1  -2 26490.9 542.473   6
  -3  -1  -2 26398.6 537.711   1
   3   1   2 26859.8 530.472  11
   3   1   2 27053.9 547.033  10
  -3  -1  -2 26100.1 536.679  10
   3   1   2 27136.4 549.162   9
   3   1   2 25963.1 537.490   1
   3   1   2 25737.0 454.594   4
  -3  -1  -2 25593.8 477.424   5
   3   1   2 26724.7 524.717   8
   3   1   2 26445.5 485.908   5
   3   1   2 26030.4 301.607   7
  -3  -1  -2 26974.5 307.889   7
   3   1   3 1745.34 155.696   6
  -3  -1  -3 1742.60 150.957   6
   3   1   3 1736.12 142.580   5
   3   1   3 1512.12 139.229  11
   3   1   3 2115.09 168.544  10
   3   1   3 1485.11 140.675   2
  -3  -1  -3 1670.98 142.322   5
  -3  -1  -3 1596.08 149.658  10
   3   1   3 1544.95 145.651   9
  -3  -1  -3 1663.01 119.777   4
   3   1   3 1622.48 121.137   4
   3   1   3 1477.17 129.105   8
   3   1   3 1751.81 101.491   7
   3   1   3 1670.98 149.612   1
  -3  -1  -3 1496.84 93.7692   7
  -3  -1  -3 1561.12 145.156   1
   3   1   4 11145.7 360.156   6
  -3  -1  -4 10957.4 355.526   6
   3   1   4 10551.9 359.835   1
   3   1   4 11557.4 360.533  11
   3   1   4 11078.8 353.417   5
   3   1   4 11019.9 373.523  10
  -3  -1  -4 10702.2 368.165  10
  -3  -1  -4 11071.7 354.804   5
   3   1   4 10978.2 352.216   9
  -3  -1  -4 11389.6 284.772   4
   3   1   4 10600.4 274.674   4
   3   1   4 11143.0 329.006   8
   3   1   4 11251.6 368.576   2
   3   1   4 10795.8 275.298   7
  -3  -1  -4 10829.6 272.279   7
  -3  -1  -4 10584.9 359.387   1
   3   1   5 4346.60 231.961   6
  -3  -1  -5 4328.66 230.902   6
   3   1   5 4799.18 248.855  11
  -3  -1  -5 4383.85 249.700  10
   3   1   5 4043.56 222.860   9
  -3  -1  -5 4527.68 178.542   4
   3   1   5 4769.75 220.182   8
  -3  -1  -5 4363.09 242.492   1
   3   1   5 4409.78 178.969   4
   3   1   5 4718.40 254.368   2
   3   1   5 4391.76 201.300   7
  -3  -1  -5 4459.06 200.391   7
   3   1   6 1539.00 155.968   6
  -3  -1  -6 1498.48 144.334   6
  -3  -1  -6 1530.00 163.356  10
  -3  -1  -6 1567.48 163.944   1
   3   1   6 1627.89 169.040   2
   3   1   6 1609.65 148.655   9
  -3  -1  -6 1766.39 116.141   4
   3   1   6 1388.49 130.517   3
   3   1   6 1626.84 138.161   8
   3   1   6 1804.20 117.264   4
  -3  -1  -6 1754.25 147.432   7
   3   1   6 1399.75 135.285   7
   3   1   7 13966.1 405.925   6
  -3  -1  -7 14025.3 402.888   6
  -3  -1  -7 13983.4 463.388  10
   3   1   7 13136.0 391.889   9
  -3  -1  -7 13879.5 463.246   1
   3   1   7 14956.8 421.039   3
  -3  -1  -7 13989.6 310.581   4
   3   1   7 14194.2 367.516   8
   3   1   7 14483.2 316.304   4
   3   1   7 14513.4 476.997   2
  -3  -1  -7 13883.6 412.464   7
   3   1   8 36542.2 650.940   6
  -3  -1  -8 36525.8 647.331   6
  -3  -1  -8 37492.6 781.105  10
  -3  -1  -8 37232.1 783.200   1
   3   1   8 37247.8 653.085   9
  -3  -1  -8 38220.2 524.446   4
   3   1   8 36717.4 590.579   8
  -3  -1  -8 37056.2 721.253   7
   3   1   8 37744.8 800.559   2
   3   1   9 3287.59 202.190   6
  -3  -1  -9 3937.58 273.630  10
  -3  -1  -9 4011.18 284.118   1
   3   1   9 3368.80 205.546   9
  -3  -1  -9 3932.15 180.456   4
   3   1   9 3400.37 188.169   8
  -3  -1  -9 3793.97 260.531   7
   3   1   9 3878.18 284.022   2
  -3  -1 -10 6052.97 349.540  10
  -3  -1 -10 6316.50 365.416   1
  -3  -1 -10 5790.18 335.888   7
   3   1  10 6537.68 371.646   2
  -3  -1 -11 255.675 122.536   7
  -3  -1 -11 148.537 115.077   1
  -3  -1 -11 269.201 111.722  10
   3   1  11 233.514 117.147   2
  -3  -1 -12 80.6505 129.853   1
  -3  -1 -12 205.051 124.164   7
  -3  -1 -12 135.999 116.189  10
   3   1  12 241.638 137.048   2
  -3  -1 -13 807.078 172.973   1
  -3  -1 -13 1048.34 195.483   7
  -3  -1 -13 873.412 169.266  10
   3   1  13 992.325 207.047   2
  -3  -1 -14 544.475 164.413  10
  -3  -2  11 3305.21 287.418   8
   3   2 -11 2802.99 308.848   4
   3   2 -10 3221.60 311.914   3
  -3  -2  10 2841.78 301.472  11
  -3  -2  10 2845.33 255.604   8
   3   2 -10 3020.79 291.850   4
   3   2 -10 3337.12 253.101   7
   3   2  -9 1956.70 192.700   7
  -3  -2   9 1794.97 237.925  11
  -3  -2   9 1773.58 169.893   5
   3   2  -9 2033.39 245.678   3
  -3  -2   9 1954.50 210.727   8
   3   2  -9 1552.23 219.243   4
  -3  -2   8 3212.73 211.598   5
   3   2  -8 3115.30 279.214   3
  -3  -2   8 3203.50 290.563  11
   3   2  -8 3386.15 293.173   4
  -3  -2   8 3179.42 249.723   8
   3   2  -8 3380.79 223.366   7
   3   2  -7 1331.98 136.027   7
  -3  -2   7 1576.96 145.334   6
  -3  -2   7 1495.06 199.033  11
   3   2  -7 1346.79 135.670   9
   3   2  -7 1554.59 193.094   3
  -3  -2   7 1252.49 130.545   5
  -3  -2   7 1541.03 181.137   8
   3   2  -7 1388.61 185.804   4
   3   2  -6 42377.2 714.514   6
  -3  -2   6 43196.1 706.081   6
   3   2  -6 43939.1 856.188   3
  -3  -2   6 43560.8 676.274   5
  -3  -2   6 42497.8 873.311  11
   3   2  -6 42745.6 700.752   9
   3   2  -6 40806.1 862.816   4
  -3  -2   6 43082.8 826.034   8
   3   2  -6 43372.8 633.034   7
   3   2  -5 1285.65 146.436   6
  -3  -2   5 936.313 119.378   6
  -3  -2   5 1117.87 160.201  11
  -3  -2   5 1211.51 120.286   5
   3   2  -5 1271.89 139.626  10
   3   2  -5 1160.22 160.597   3
   3   2  -5 1067.88 126.826   9
  -3  -2   5 1048.04 143.828   8
   3   2  -5 1219.99 170.521   4
   3   2  -5 1346.85 107.303   7
   3   2  -4 25553.5 557.115   6
  -3  -2   4 24768.1 537.948   6
   3   2  -4 24723.1 568.445   3
  -3  -2   4 23710.8 593.615  11
  -3  -2   4 25156.7 478.815   5
   3   2  -4 23512.4 513.644  10
   3   2  -4 25211.8 545.397   9
   3   2  -4 23851.3 603.301   4
  -3  -2   4 24389.2 591.065   8
   3   2  -4 24218.1 364.768   7
   3   2  -3 26498.8 564.760   6
  -3  -2   3 27098.1 551.380   3
  -3  -2   3 26782.4 561.147   6
   3   2  -3 27316.3 556.473   3
  -3  -2   3 26760.6 598.863  11
  -3  -2   3 26498.4 480.224   5
   3   2  -3 27334.6 568.001   2
   3   2  -3 26422.8 531.402  10
   3   2  -3 26859.5 561.434   9
   3   2  -3 26435.4 603.886   4
  -3  -2   3 27159.8 604.756   8
   3   2  -3 26090.4 303.615   7
  -3  -2   2 8024.28 283.870   3
   3   2  -2 7581.92 304.066   6
  -3  -2   2 8364.59 317.211   6
   3   2  -2 7681.68 281.604   3
  -3  -2   2 7722.14 260.007   5
   3   2  -2 7824.86 264.372   5
   3   2  -2 8123.41 326.872  11
  -3  -2   2 7824.59 316.497  11
   3   2  -2 8081.92 293.674  10
   3   2  -2 7623.80 318.053   4
   3   2  -2 8111.55 312.800   9
  -3  -2   1 6468.23 239.097   3
   3   2  -1 6642.47 284.879   6
  -3  -2   1 6715.00 283.325   6
   3   2  -1 6661.20 245.287   3
   3   2  -1 6730.60 289.547   1
   3   2  -1 6619.68 243.603   5
   3   2  -1 6541.16 280.397  11
  -3  -2   1 6634.74 279.556  11
  -3  -2   1 6466.27 240.276   5
   3   2  -1 6550.69 265.776  10
   3   2  -1 6334.43 275.605   9
   3   2  -1 6790.44 288.660   4
   3   2  -1 6513.04 288.730   8
   3   2   0 26506.4 552.829   1
   3   2   0 26570.7 560.499   6
  -3  -2   0 26145.8 551.430   6
   3   2   0 26453.3 446.620   3
   3   2   0 25797.1 479.882   5
   3   2   0 26329.1 530.958  11
  -3  -2   0 25120.7 514.887  11
  -3  -2   0 25570.4 476.544   5
   3   2   0 25885.3 520.169  10
  -3  -2   0 25800.6 518.240  10
   3   2   0 26101.4 551.773   9
   3   2   0 26431.4 531.067   4
   3   2   0 26835.3 561.838   8
   3   2   1 298.854 81.3492   1
   3   2   1 358.405 94.3518   6
  -3  -2  -1 335.553 90.3885   6
   3   2   1 306.137 83.7097  11
  -3  -2  -1 509.758 96.0011  11
   3   2   1 344.727 89.8961  10
   3   2   1 312.807 67.9095   3
  -3  -2  -1 359.255 81.3976  10
   3   2   1 329.890 74.2560   5
  -3  -2  -1 285.714 73.3685   5
   3   2   1 316.593 86.7309   9
   3   2   1 367.202 89.1992   8
   3   2   1 282.008 86.0163   4
   3   2   2 7180.27 220.779   3
   3   2   2 7196.24 298.613   6
  -3  -2  -2 6598.96 282.487   6
   3   2   2 7635.83 282.722  11
   3   2   2 7494.66 278.576   5
  -3  -2  -2 7398.72 288.710   1
  -3  -2  -2 7036.59 270.384   5
   3   2   2 7056.19 285.688  10
  -3  -2  -2 7452.80 293.282  10
   3   2   2 7108.91 291.207   9
  -3  -2  -2 6997.05 262.027   4
   3   2   2 7470.82 267.760   4
   3   2   2 7146.83 285.745   1
   3   2   2 7522.95 292.065   8
  -3  -2  -2 6770.87 129.878   7
   3   2   3 3641.69 215.928   6
  -3  -2  -3 3838.08 214.650   1
  -3  -2  -3 4113.00 225.431   6
   3   2   3 4128.50 211.583  11
   3   2   3 3971.74 215.689   5
   3   2   3 3904.05 224.045  10
  -3  -2  -3 3298.90 197.095   5
  -3  -2  -3 4084.19 230.000  10
   3   2   3 4224.94 226.365   1
   3   2   3 4225.87 231.227   9
  -3  -2  -3 4241.37 200.815   4
   3   2   3 3746.95 192.293   4
   3   2   3 3957.42 219.389   2
   3   2   3 3904.56 210.708   8
  -3  -2  -3 3886.47 133.598   7
   3   2   4 3701.11 218.120   6
  -3  -2  -4 3272.05 204.757   6
   3   2   4 3661.95 215.585   1
   3   2   4 3845.12 209.057  11
   3   2   4 3497.58 217.068   5
  -3  -2  -4 3670.71 223.515  10
  -3  -2  -4 3556.95 216.692   5
   3   2   4 3404.79 209.065   9
  -3  -2  -4 3974.74 191.231   4
   3   2   4 3461.32 182.791   4
   3   2   4 3710.77 208.596   8
   3   2   4 3689.73 225.856   2
  -3  -2  -4 3312.01 149.499   7
  -3  -2  -4 3494.73 208.828   1
   3   2   5 55668.4 817.201   6
  -3  -2  -5 54731.3 805.062   6
   3   2   5 56368.7 788.974  11
  -3  -2  -5 53606.4 840.213   5
  -3  -2  -5 55469.8 865.065  10
   3   2   5 55514.3 813.214   9
  -3  -2  -5 57922.5 701.920   4
   3   2   5 55085.0 687.159   4
   3   2   5 56001.7 864.504   2
  -3  -2  -5 56739.8 840.743   1
  -3  -2  -5 56136.2 672.164   7
   3   2   6 7145.31 301.771   6
  -3  -2  -6 7344.96 301.367   6
   3   2   6 7218.55 263.946   3
   3   2   6 7276.76 300.731   9
  -3  -2  -6 7173.93 332.492  10
  -3  -2  -6 7082.98 251.240   4
  -3  -2  -6 6826.31 309.429   1
   3   2   6 7361.39 257.824   4
   3   2   6 7749.93 343.862   2
  -3  -2  -6 7216.06 271.393   7
   3   2   7 16370.8 453.876   6
  -3  -2  -7 15995.2 442.918   6
   3   2   7 15991.9 416.033   3
  -3  -2  -7 16138.0 509.628  10
   3   2   7 15693.1 439.802   9
  -3  -2  -7 16061.9 486.824   1
  -3  -2  -7 16371.0 388.381   4
   3   2   7 16743.4 391.722   4
   3   2   7 16314.2 514.719   2
  -3  -2  -7 16363.4 441.144   7
   3   2   8 17133.2 461.485   6
  -3  -2  -8 18309.9 467.638   6
   3   2   8 17009.3 460.841   3
  -3  -2  -8 17276.4 548.526  10
  -3  -2  -8 17793.8 540.237   1
   3   2   8 17212.0 458.390   9
  -3  -2  -8 17754.5 412.569   4
  -3  -2  -8 17864.4 496.853   7
   3   2   8 17325.4 546.114   2
  -3  -2  -9 7700.26 306.792   6
  -3  -2  -9 8105.12 396.265  10
  -3  -2  -9 7150.35 365.579   1
   3   2   9 7448.93 303.756   9
  -3  -2  -9 7454.62 280.666   4
  -3  -2  -9 6899.44 340.225   7
   3   2   9 7106.58 375.241   2
  -3  -2 -10 5926.67 267.676   6
  -3  -2 -10 5367.61 345.778  10
  -3  -2 -10 5277.63 329.873   1
  -3  -2 -10 5139.81 315.127   7
   3   2  10 5534.34 346.701   2
  -3  -2 -11 2766.10 267.604  10
  -3  -2 -11 3409.25 288.329   1
  -3  -2 -11 2701.62 253.068   7
   3   2  11 3093.48 283.029   2
  -3  -2 -12 1376.64 199.582   7
  -3  -2 -12 932.596 181.316   1
  -3  -2 -12 1232.72 196.993  10
   3   2  12 1126.78 207.411   2
  -3  -2 -13 1524.18 235.055   7
  -3  -2 -13 1676.97 237.488   1
  -3  -2 -13 1451.54 217.240  10
   3   2  13 1619.37 241.842   2
  -3  -3  10 1075.52 159.409   5
  -3  -3  10 953.298 203.498  11
   3   3 -10 1319.35 219.865   3
   3   3 -10 604.549 167.094   4
   3   3  -9 506.918 117.338   7
  -3  -3   9 655.058 169.328  11
  -3  -3   9 627.606 125.979   5
   3   3  -9 510.832 154.228   3
   3   3  -9 806.256 171.379   4
   3   3  -8 262.129 88.6308   7
  -3  -3   8 316.539 82.2804   6
  -3  -3   8 440.760 144.789  11
  -3  -3   8 331.899 94.0778   5
   3   3  -8 324.460 130.332   3
   3   3  -8 345.385 127.822   4
  -3  -3   7 1378.83 140.512   6
  -3  -3   7 1305.81 196.924  11
  -3  -3   7 1567.67 158.793   5
   3   3  -7 1405.70 185.187   3
   3   3  -7 1416.20 195.076   4
   3   3  -7 1778.01 150.844   7
  -3  -3   6 15594.7 443.430   6
   3   3  -6 16037.0 519.044   3
  -3  -3   6 16040.5 454.376   5
  -3  -3   6 15620.7 537.466  11
   3   3  -6 14627.1 412.558  10
   3   3  -6 15663.7 544.750   4
   3   3  -6 15757.1 379.086   7
  -3  -3   5 1619.81 156.186   6
  -3  -3   5 1342.31 177.672  11
   3   3  -5 1372.68 136.156  10
  -3  -3   5 1406.37 145.721   5
   3   3  -5 1558.40 173.374   3
   3   3  -5 1102.30 162.093   4
   3   3  -5 1420.63 110.508   7
   3   3  -4 699.888 68.9886   7
  -3  -3   4 570.597 105.413   6
  -3  -3   4 683.209 141.169  11
   3   3  -4 690.313 97.8504  10
  -3  -3   4 676.812 111.563   5
   3   3  -4 532.629 119.939   3
   3   3  -4 697.156 137.019   4
  -3  -3   3 8178.09 303.402   3
  -3  -3   3 7165.37 306.090   6
   3   3  -3 7976.18 305.755   3
  -3  -3   3 7749.83 330.648  11
  -3  -3   3 7844.78 295.873   5
   3   3  -3 7778.05 286.202  10
   3   3  -3 8216.16 357.492   4
   3   3  -3 7197.17 151.463   7
  -3  -3   2 11774.0 331.905   3
  -3  -3   2 10885.6 377.552   6
   3   3  -2 11594.1 334.961   3
   3   3  -2 11129.7 348.526   5
  -3  -3   2 11436.0 378.322  11
  -3  -3   2 11506.1 348.633   5
   3   3  -2 11681.5 346.447  10
   3   3  -2 11208.6 395.260   4
  -3  -3   1 2986.45 159.925   3
  -3  -3   1 2546.39 183.853   6
   3   3  -1 3051.61 164.609   3
  -3  -3   1 2495.31 178.228  11
   3   3  -1 2493.81 174.085   5
   3   3  -1 2568.02 186.301   1
   3   3  -1 2785.86 194.978  11
  -3  -3   1 2764.28 178.194   5
   3   3  -1 2736.17 172.351  10
  -3  -3   1 2540.98 170.462  10
   3   3  -1 2611.94 196.796   4
   3   3   0 17881.8 458.654   1
  -3  -3   0 17950.3 478.316   6
   3   3   0 16997.7 340.972   3
   3   3   0 17893.0 437.564   5
   3   3   0 17161.7 432.049  11
  -3  -3   0 16849.5 421.589  11
  -3  -3   0 17455.5 428.911   5
   3   3   0 17755.7 438.215  10
  -3  -3   0 17894.0 430.515  10
   3   3   0 17043.8 456.144   4
  -3  -3  -1 7370.11 309.953   6
   3   3   1 7206.22 207.891   3
   3   3   1 7094.39 272.371  11
   3   3   1 7264.01 286.103   5
  -3  -3  -1 7277.72 271.738  11
  -3  -3  -1 7658.31 292.957   5
   3   3   1 7492.59 289.875  10
  -3  -3  -1 7013.17 282.384  10
  -3  -3  -1 7163.48 288.080   4
   3   3   1 7269.74 288.494   4
   3   3   1 7146.17 287.603   1
   3   3   2 6255.42 182.560   3
  -3  -3  -2 6615.38 292.810   6
   3   3   2 6884.79 262.116  11
   3   3   2 6896.52 284.450   5
  -3  -3  -2 6535.16 278.564   5
   3   3   2 6909.28 288.947  10
  -3  -3  -2 6753.30 285.900  10
  -3  -3  -2 7322.35 285.610   4
   3   3   2 7095.72 286.684   1
   3   3   2 6636.52 273.117   4
  -3  -3  -2 6066.56 116.732   7
   3   3   3 25067.5 359.772   3
  -3  -3  -3 24993.8 565.567   6
  -3  -3  -3 25888.9 534.769   1
   3   3   3 24498.3 487.042  11
   3   3   3 25347.8 557.914   5
  -3  -3  -3 24780.3 552.401   5
  -3  -3  -3 24929.7 556.311  10
   3   3   3 24568.6 527.389   1
  -3  -3  -3 26146.0 527.499   4
   3   3   3 25036.5 513.278   4
  -3  -3  -3 25638.5 332.558   7
  -3  -3  -4 20658.5 486.360   1
  -3  -3  -4 20231.6 504.410   6
   3   3   4 20058.0 485.225   1
   3   3   4 20487.2 452.262  11
  -3  -3  -4 20791.1 524.658   5
  -3  -3  -4 20770.6 526.815  10
  -3  -3  -4 21584.6 475.028   4
   3   3   4 20213.6 529.023   2
   3   3   4 20450.4 464.075   4
  -3  -3  -4 20242.5 356.877   7
  -3  -3  -5 248.291 72.7942   7
  -3  -3  -5 73.3915 68.3807   1
  -3  -3  -5 233.922 93.0775   6
   3   3   5 276.579 79.2924  11
   3   3   5 178.802 94.6182   2
  -3  -3  -5 327.001 101.966  10
  -3  -3  -5 302.877 101.806   5
   3   3   5 342.337 65.8546   3
  -3  -3  -5 323.049 85.7532   4
   3   3   5 408.621 97.2076   4
  -3  -3  -6 6479.96 292.026   6
   3   3   6 6310.52 227.799   3
   3   3   6 6576.21 278.708  11
  -3  -3  -6 6458.40 326.229  10
  -3  -3  -6 5811.83 309.173   5
  -3  -3  -6 6492.78 269.586   4
  -3  -3  -6 6047.94 294.134   1
   3   3   6 6620.19 323.033   2
   3   3   6 6464.34 269.950   4
  -3  -3  -6 6349.27 257.803   7
  -3  -3  -7 10525.1 371.687   6
   3   3   7 9888.94 309.864   3
  -3  -3  -7 10122.9 421.051  10
  -3  -3  -7 9288.09 406.074   5
  -3  -3  -7 10467.8 393.053   1
  -3  -3  -7 10157.3 342.039   4
   3   3   7 10271.3 341.085   4
   3   3   7 10463.5 417.786   2
  -3  -3  -7 10658.8 359.448   7
  -3  -3  -8 271.908 91.8518   7
   3   3   8 293.916 88.6923   4
  -3  -3  -8 227.620 84.5330   6
  -3  -3  -8 125.009 87.6808   1
  -3  -3  -8 133.170 94.7302  10
   3   3   8 215.052 93.4056   2
   3   3   8 175.132 76.4859   3
  -3  -3  -8 172.155 79.6015   4
  -3  -3  -9 12167.1 398.551   6
  -3  -3  -9 11975.6 499.228  10
  -3  -3  -9 13016.2 481.742   1
  -3  -3  -9 12993.3 461.191   7
   3   3   9 11671.6 474.897   2
  -3  -3 -10 8723.67 335.187   6
  -3  -3 -10 9175.32 451.379  10
  -3  -3 -10 8494.29 411.233   1
  -3  -3 -10 9037.28 415.727   7
   3   3  10 8566.92 427.197   2
  -3  -3 -11 1858.57 220.844   7
  -3  -3 -11 1662.76 213.977   1
  -3  -3 -11 1692.60 223.814  10
   3   3  11 1615.07 217.866   2
  -3  -3 -12 1935.10 232.855   7
  -3  -3 -12 2046.23 244.331   1
  -3  -3 -12 2469.91 267.736  10
   3   3  12 2313.41 252.146   2
  -3  -3 -13 1661.57 233.454   7
  -3  -3 -13 1472.20 220.560   1
  -3  -3 -13 1739.64 254.782  10
   3   3  13 1382.40 222.027   2
  -3  -4  10 5283.46 337.779   5
  -3  -4  10 4945.39 388.130  11
   3   4 -10 5801.72 404.226   3
   3   4 -10 5433.04 395.235   4
  -3  -4   9 465.691 154.847  11
  -3  -4   9 435.682 116.077   5
   3   4  -9 557.521 146.262   3
   3   4  -9 571.801 158.562   4
   3   4  -8 1327.60 148.048   7
  -3  -4   8 1586.84 157.207   6
  -3  -4   8 1443.36 210.058  11
  -3  -4   8 1447.87 170.810   5
   3   4  -8 990.770 173.895   3
   3   4  -8 1541.03 218.120   4
  -3  -4   7 1613.16 167.244   6
  -3  -4   7 1948.69 191.968   5
  -3  -4   7 1930.86 225.710  11
   3   4  -7 1797.12 199.862   3
   3   4  -7 1520.77 199.828   4
   3   4  -7 1557.48 147.954   7
  -3  -4   6 18126.2 503.700   6
  -3  -4   6 18342.4 526.358   5
  -3  -4   6 17698.0 582.409  11
   3   4  -6 17558.3 541.212   3
   3   4  -6 17633.2 593.458   4
   3   4  -6 17609.5 405.750   7
  -3  -4   5 5840.74 290.089   6
  -3  -4   5 6079.99 298.598   5
  -3  -4   5 6210.57 331.971  11
   3   4  -5 6098.88 304.276   3
   3   4  -5 5752.66 240.458  10
   3   4  -5 5996.30 341.030   4
   3   4  -5 5712.19 207.408   7
  -3  -4   4 9276.78 362.855   6
   3   4  -4 9992.10 360.342   3
  -3  -4   4 9381.61 386.222  11
  -3  -4   4 9187.37 355.419   5
   3   4  -4 9049.92 296.454  10
   3   4  -4 9688.58 412.376   4
   3   4  -4 9406.94 228.751   7
  -3  -4   3 18961.3 448.581   3
  -3  -4   3 17751.6 499.130   6
   3   4  -3 18476.0 449.264   3
  -3  -4   3 18929.0 514.825  11
  -3  -4   3 18446.8 487.482   5
   3   4  -3 18093.2 422.528  10
   3   4  -3 18698.8 544.367   4
   3   4  -3 16274.1 243.134   7
  -3  -4   2 3985.30 190.350   3
  -3  -4   2 4102.86 247.020   6
   3   4  -2 4148.81 202.266   3
  -3  -4   2 4210.86 235.159  11
  -3  -4   2 4147.42 235.193   5
   3   4  -2 4235.15 212.697  10
   3   4  -2 3890.49 253.414   4
  -3  -4   1 11329.8 286.837   3
  -3  -4   1 11198.2 398.611   6
   3   4  -1 11098.4 290.091   3
  -3  -4   1 11511.0 364.708  11
  -3  -4   1 11043.0 374.728   5
   3   4  -1 11074.0 338.266  10
  -3  -4   1 11484.5 344.462  10
   3   4  -1 11209.5 395.527   4
   3   4   0 3310.32 206.457   1
  -3  -4   0 3465.94 228.587   6
   3   4   0 3359.65 144.444   3
   3   4   0 3298.99 198.544  11
  -3  -4   0 3385.76 197.096  11
  -3  -4   0 3457.73 218.686   5
   3   4   0 3357.14 195.911  10
  -3  -4   0 3135.36 189.926  10
   3   4   0 3619.06 230.146   4
  -3  -4  -1 5991.50 293.890   6
   3   4   1 6201.35 169.187   3
   3   4   1 6210.52 254.844  11
  -3  -4  -1 6028.33 244.568  11
  -3  -4  -1 6321.95 288.347   5
   3   4   1 6571.27 277.341  10
  -3  -4  -1 6026.42 265.224  10
   3   4   1 6327.39 293.123   4
   3   4   1 5648.04 257.745   1
  -3  -4  -2 5761.81 291.211   6
   3   4   2 5458.85 140.711   3
   3   4   2 5415.05 230.327  11
  -3  -4  -2 5566.28 273.338   5
   3   4   2 5744.30 270.309  10
  -3  -4  -2 5728.48 270.438  10
   3   4   2 5369.78 250.488   1
   3   4   2 5687.79 274.840   4
  -3  -4  -2 5353.38 129.839   7
  -3  -4  -3 3124.74 221.261   6
   3   4   3 2949.10 100.050   3
   3   4   3 3028.75 173.978  11
  -3  -4  -3 3156.66 217.971   5
  -3  -4  -3 2679.05 179.415   1
  -3  -4  -3 3034.29 210.166  10
   3   4   3 3155.45 195.318   1
   3   4   3 3464.99 216.459   4
  -3  -4  -3 2888.11 121.713   7
  -3  -4  -4 780.260 87.8177   7
  -3  -4  -4 770.652 127.097   6
   3   4   4 807.744 63.6805   3
   3   4   4 866.177 106.624  11
   3   4   4 700.620 57.8897   3
  -3  -4  -4 1028.77 141.794  10
  -3  -4  -4 707.328 126.756   5
  -3  -4  -4 549.672 104.972   1
   3   4   4 612.459 107.358   1
   3   4   4 1015.11 134.083   4
  -3  -4  -5 2147.35 173.702   1
  -3  -4  -5 2257.83 193.893   6
   3   4   5 2339.04 184.134   1
   3   4   5 2410.29 113.960   3
   3   4   5 2229.27 157.072  11
  -3  -4  -5 2324.65 205.550  10
  -3  -4  -5 2307.65 206.388   5
   3   4   5 2314.48 203.903   2
   3   4   5 2422.38 187.389   4
  -3  -4  -5 1924.59 136.096   7
  -3  -4  -6 9404.71 370.464   6
   3   4   6 9255.29 244.035   3
   3   4   6 9317.93 315.544  11
  -3  -4  -6 9266.91 401.458  10
  -3  -4  -6 9413.94 400.322   5
   3   4   6 8941.14 381.286   2
   3   4   6 9513.51 351.939   4
  -3  -4  -6 9451.74 316.941   7
  -3  -4  -6 9065.12 347.556   1
  -3  -4  -7 9248.97 366.764   6
   3   4   7 9275.46 275.074   3
   3   4   7 9253.23 327.804  11
  -3  -4  -7 8703.63 403.726   5
  -3  -4  -7 9364.72 415.030  10
  -3  -4  -7 9543.03 371.429   1
   3   4   7 9064.78 398.008   2
   3   4   7 9391.53 358.499   4
  -3  -4  -7 9017.87 340.071   7
  -3  -4  -8 1714.77 172.303   7
   3   4   8 1845.14 175.581   4
  -3  -4  -8 1879.65 175.225   6
   3   4   8 1819.88 198.780   2
  -3  -4  -8 1747.55 210.396   5
   3   4   8 1549.34 137.036   3
  -3  -4  -8 2214.52 198.629   1
  -3  -4  -8 2066.66 221.901  10
  -3  -4  -9 712.251 138.378   7
  -3  -4  -9 777.380 118.302   6
  -3  -4  -9 860.348 151.894   1
  -3  -4  -9 636.637 153.498  10
   3   4   9 621.152 147.175   2
  -3  -4 -10 1655.69 196.897   7
  -3  -4 -10 1984.78 174.101   6
  -3  -4 -10 1852.33 201.713   1
  -3  -4 -10 1899.47 238.610  10
   3   4  10 1780.92 212.649   2
  -3  -4 -11 97.1634 120.433   7
  -3  -4 -11-49.2517 105.027   1
  -3  -4 -11-132.002 110.799  10
   3   4  11 98.4337 119.336   2
  -3  -4 -12 1862.99 245.953   7
  -3  -4 -12 1696.81 220.475   1
  -3  -4 -12 2056.39 258.864  10
   3   4  12 1888.33 241.542   2
  -3  -4 -13 1239.74 233.824   7
  -3  -4 -13 1112.10 201.239   1
   3   4  13 1200.78 212.362   2
  -3  -5  10 288.753 136.010   5
   3   5 -10 503.751 147.275   3
  -3  -5   9 2755.90 292.990  11
  -3  -5   9 2419.79 251.385   5
   3   5  -9 2406.49 254.445   3
   3   5  -9 2629.24 279.739   4
  -3  -5   8-170.614 123.368  11
  -3  -5   8 127.511 92.1768   6
  -3  -5   8-17.1473 109.815   5
   3   5  -8-49.6628 104.501   3
   3   5  -8 49.7590 109.272   4
  -3  -5   7 2447.80 208.382   6
  -3  -5   7 2555.66 235.801   5
   3   5  -7 2653.02 239.524   3
  -3  -5   7 2275.42 245.144  11
   3   5  -7 2466.87 251.985   4
   3   5  -7 2516.71 179.956   7
  -3  -5   6 7940.44 355.836   6
  -3  -5   6 9270.16 405.959   5
  -3  -5   6 8129.17 406.675  11
   3   5  -6 7912.78 368.244   3
   3   5  -6 7967.30 417.071   4
   3   5  -6 8340.44 290.655   7
  -3  -5   5 3331.38 238.954   6
  -3  -5   5 3468.18 262.155  11
  -3  -5   5 3144.63 237.222   5
   3   5  -5 3445.97 234.610   3
   3   5  -5 3359.29 269.528   4
   3   5  -5 3243.30 167.938   7
  -3  -5   4 5881.06 310.309   6
  -3  -5   4 6559.23 326.736  11
  -3  -5   4 6700.20 327.982   5
   3   5  -4 5966.16 277.611   3
   3   5  -4 6230.68 240.161  10
   3   5  -4 6269.07 349.873   4
   3   5  -4 5936.69 194.544   7
  -3  -5   3 29495.5 677.220   6
  -3  -5   3 29111.6 546.264   3
  -3  -5   3 30025.6 650.095  11
  -3  -5   3 30298.0 673.709   5
   3   5  -3 30717.7 563.628   3
   3   5  -3 28839.0 521.077  10
   3   5  -3 29226.9 713.636   4
  -3  -5   2 31563.4 513.511   3
  -3  -5   2 31035.9 687.127   6
  -3  -5   2 32742.8 642.386  11
   3   5  -2 31878.6 520.053   3
  -3  -5   2 32976.9 689.850   5
   3   5  -2 31401.5 553.104  10
   3   5  -2 32109.6 719.073   4
  -3  -5   2 29471.8 299.410   7
  -3  -5   1 12783.5 288.958   3
  -3  -5   1 12902.5 449.794   6
   3   5  -1 13498.4 300.740   3
  -3  -5   1 13060.9 387.117  11
  -3  -5   1 12632.1 427.582   5
   3   5  -1 13390.5 372.723  10
  -3  -5   1 12999.6 364.807  10
   3   5  -1 13373.0 459.637   4
  -3  -5   1 10983.3 147.877   7
   3   5   0 8147.65 318.760   1
  -3  -5   0 9212.96 380.262   6
   3   5   0 8284.67 197.555   3
  -3  -5   0 8765.94 302.338  11
  -3  -5   0 8851.54 359.786   5
   3   5   0 8720.94 316.546  10
  -3  -5   0 8388.57 308.524  10
   3   5   0 8242.64 361.077   4
  -3  -5   0 7334.40 122.499   7
  -3  -5  -1 17005.7 513.490   6
   3   5   1 17972.9 421.151  11
   3   5   1 15892.4 203.791   3
  -3  -5  -1 17872.6 408.485  11
  -3  -5  -1 17492.6 506.480   5
  -3  -5  -1 17198.5 450.947  10
   3   5   1 18006.9 512.186   4
   3   5   1 17678.0 451.595   1
  -3  -5  -1 17354.8 230.577   7
  -3  -5  -2 14823.2 479.902   6
   3   5   2 14781.1 365.262  11
  -3  -5  -2 15497.7 480.566   5
  -3  -5  -2 14326.5 430.690  10
   3   5   2 14622.3 406.257   1
   3   5   2 14836.5 467.634   4
  -3  -5  -2 15660.6 267.841   7
  -3  -5  -2 14854.1 256.991   7
   3   5   3 250.842 83.8502   1
  -3  -5  -3 305.322 105.893   6
   3   5   3 202.157 71.9722  11
  -3  -5  -3 160.489 91.0855  10
  -3  -5  -3 280.844 100.049   5
   3   5   3 293.859 99.8270   4
  -3  -5  -3 356.321 65.0915   7
  -3  -5  -4 16219.0 503.086   6
   3   5   4 15691.3 423.921   1
   3   5   4 15940.8 371.275  11
  -3  -5  -4 16728.3 435.956   1
  -3  -5  -4 15248.8 496.937   5
  -3  -5  -4 15818.5 487.452  10
   3   5   4 16343.0 485.595   4
  -3  -5  -4 16564.3 361.374   7
  -3  -5  -5 8486.09 364.940   6
  -3  -5  -5 9531.53 341.922   1
   3   5   5 8726.31 331.042   1
   3   5   5 8459.89 278.325  11
  -3  -5  -5 8841.56 393.703   5
  -3  -5  -5 8942.06 389.024  10
   3   5   5 8375.15 382.900   2
   3   5   5 9259.51 372.694   4
  -3  -5  -5 9164.39 295.902   7
  -3  -5  -6 6285.24 319.497   6
   3   5   6 5550.08 150.595   3
   3   5   6 5824.12 239.915  11
  -3  -5  -6 6213.83 341.812  10
  -3  -5  -6 5565.42 326.736   5
   3   5   6 5779.59 321.546   2
   3   5   6 6479.81 318.065   4
  -3  -5  -6 5815.48 260.785   7
  -3  -5  -6 6695.65 297.169   1
  -3  -5  -7 146.716 79.1873   7
  -3  -5  -7 169.741 87.4545   1
   3   5   7 293.613 102.939   4
  -3  -5  -7 168.377 94.3212   6
   3   5   7 164.799 71.2653  11
  -3  -5  -7 143.506 117.311  10
   3   5   7 308.417 115.805   2
  -3  -5  -7 157.111 107.584   5
  -3  -5  -8 4549.99 279.651   6
  -3  -5  -8 4317.68 312.201  10
  -3  -5  -8 4115.37 311.045   5
  -3  -5  -8 4305.02 266.151   1
   3   5   8 4516.41 307.623   2
   3   5   8 4247.54 272.109   4
  -3  -5  -8 4395.49 267.311   7
  -3  -5  -9 1850.20 196.638   7
   3   5   9 1899.40 194.385   4
  -3  -5  -9 1625.26 176.655   6
  -3  -5  -9 1740.21 225.825  10
   3   5   9 1760.06 214.480   2
  -3  -5  -9 1684.12 222.702   5
  -3  -5  -9 1754.81 183.747   1
  -3  -5 -10 6198.26 315.629   6
  -3  -5 -10 5928.79 389.524  10
  -3  -5 -10 5623.50 330.661   1
  -3  -5 -10 6662.04 369.436   7
   3   5  10 6229.34 375.920   2
  -3  -5 -11 2238.61 247.763   7
  -3  -5 -11 1932.89 218.533   1
  -3  -5 -11 2144.16 243.494  10
   3   5  11 1998.55 237.711   2
  -3  -5 -12 371.589 118.082   7
  -3  -5 -12 631.115 164.844   1
   3   5  12 731.213 170.538   2
  -3  -5 -13 7312.95 441.088   1
   3   5  13 7634.46 464.509   2
  -3  -6  10 1665.17 228.312   5
   3   6 -10 1701.32 233.260   3
  -3  -6   9 582.191 171.912  11
  -3  -6   9 416.134 148.005   5
   3   6  -9 747.443 181.266   3
   3   6  -9 364.626 152.776   4
  -3  -6   8 570.110 129.043   6
  -3  -6   8 562.220 158.992  11
  -3  -6   8 588.712 170.623   5
   3   6  -8 763.406 176.635   3
   3   6  -8 496.800 163.925   4
  -3  -6   7 1892.70 195.698   6
  -3  -6   7 1810.30 227.054  11
  -3  -6   7 2069.89 224.211   5
   3   6  -7 1944.57 212.846   3
   3   6  -7 1834.88 229.660   4
  -3  -6   6 228.594 102.903   6
  -3  -6   6 413.719 135.211  11
  -3  -6   6 262.359 114.309   5
   3   6  -6 175.543 107.864   3
   3   6  -6 206.164 128.525   4
  -3  -6   5 2585.75 225.036   6
  -3  -6   5 2751.42 237.161  11
  -3  -6   5 2818.94 246.000   5
   3   6  -5 2560.27 204.938   3
   3   6  -5 2721.98 252.898   4
   3   6  -5 2730.05 165.300   7
  -3  -6   4 5859.28 328.764   6
  -3  -6   4 5023.61 292.568  11
  -3  -6   4 5216.31 313.605   5
   3   6  -4 5415.30 266.101   3
   3   6  -4 5901.76 351.334   4
  -3  -6   3 2795.25 243.923   6
  -3  -6   3 2952.63 182.562   3
  -3  -6   3 3050.26 220.516  11
  -3  -6   3 3361.25 250.242   5
   3   6  -3 2899.23 179.070   3
   3   6  -3 2793.45 166.244  10
   3   6  -3 2530.36 231.781   4
  -3  -6   2 349.790 51.7003   7
  -3  -6   2 229.277 98.4969   6
  -3  -6   2 377.761 72.1552   3
  -3  -6   2 264.797 87.3383  11
  -3  -6   2 246.071 106.418   5
   3   6  -2 298.127 72.4134   3
   3   6  -2 117.604 98.8103   4
  -3  -6   1 2459.60 122.699   3
  -3  -6   1 2857.44 233.263   6
  -3  -6   1 2661.86 180.830  11
  -3  -6   1 2686.63 216.959   5
   3   6  -1 2565.85 126.031   3
  -3  -6   1 2650.17 173.703  10
   3   6  -1 2744.63 232.087   4
  -3  -6   1 2578.33 107.971   7
  -3  -6   0 29.5239 32.9504   7
  -3  -6   0 127.645 106.807   6
  -3  -6   0 37.3119 57.2027  11
  -3  -6   0 83.0593 74.5825  10
  -3  -6   0 18.7150 85.8546   5
   3   6   0 31.5247 70.9310   1
   3   6   0 108.050 106.425   4
  -3  -6  -1 3126.79 243.381   6
  -3  -6  -1 2681.44 166.214  11
  -3  -6  -1 2808.25 233.819   5
  -3  -6  -1 2638.70 191.451  10
   3   6   1 2824.08 236.424   4
   3   6   1 2541.38 179.600   1
  -3  -6  -1 2921.93 124.312   7
  -3  -6  -2 3949.48 271.862   6
  -3  -6  -2 3824.67 234.888  10
   3   6   2 3449.30 202.484   1
   3   6   2 4279.63 277.064   4
  -3  -6  -2 3423.49 249.176   5
  -3  -6  -2 3811.38 155.148   7
  -3  -6  -3 4656.07 296.211   6
   3   6   3 4549.66 194.948  11
  -3  -6  -3 4872.20 298.931   5
   3   6   3 4399.73 224.279   1
  -3  -6  -3 4959.88 277.872  10
   3   6   3 4971.04 294.356   4
  -3  -6  -4 2159.96 211.027   6
   3   6   4 2254.87 168.271   1
   3   6   4 2370.03 139.939  11
  -3  -6  -4 2282.02 207.196  10
  -3  -6  -4 2092.28 208.655   5
   3   6   4 2801.38 225.726   4
   3   6   5 2042.41 202.659   4
   3   6   5 1988.84 168.729   1
  -3  -6  -5 1923.03 195.611   6
   3   6   5 1671.57 118.056  11
  -3  -6  -5 1976.93 162.733   1
  -3  -6  -5 2017.24 209.087  10
  -3  -6  -5 1699.33 198.069   5
  -3  -6  -5 1873.23 155.020   7
   3   6   6 1316.29 170.307   4
  -3  -6  -6 1316.90 173.036   6
  -3  -6  -6 1094.31 128.514   1
   3   6   6 1229.13 174.971   2
  -3  -6  -6 1219.08 176.738  10
  -3  -6  -6 1180.99 178.805   5
  -3  -6  -6 1151.90 131.661   7
  -3  -6  -7 11284.5 447.331   6
  -3  -6  -7 11605.6 489.358  10
  -3  -6  -7 11445.5 498.090   5
   3   6   7 11335.4 465.876   2
   3   6   7 11308.0 449.065   4
  -3  -6  -7 11167.1 403.928   7
  -3  -6  -7 11188.7 389.921   1
  -3  -6  -8 1393.70 170.793   7
   3   6   8 1332.07 180.831   4
  -3  -6  -8 1317.29 155.381   1
  -3  -6  -8 1405.24 175.790   6
  -3  -6  -8 1229.57 193.967  10
   3   6   8 838.926 154.370   2
  -3  -6  -8 1251.48 196.337   5
   3   6   9 2191.02 218.089   4
  -3  -6  -9 2230.12 208.539   6
  -3  -6  -9 1815.23 228.509  10
   3   6   9 2393.63 244.490   2
  -3  -6  -9 2262.65 251.107   5
  -3  -6  -9 2349.69 221.469   7
  -3  -6  -9 1865.40 187.347   1
  -3  -6 -10 1333.39 195.502   7
  -3  -6 -10 1470.75 172.012   6
  -3  -6 -10 1864.51 237.446  10
   3   6  10 2006.47 242.016   2
  -3  -6 -10 1471.21 177.470   1
  -3  -6 -11 1039.96 194.430   7
  -3  -6 -11 902.224 198.289  10
  -3  -6 -11 556.509 138.951   1
   3   6  11 1053.86 195.550   2
  -3  -6 -12 514.328 154.716   7
  -3  -6 -12 1002.08 173.126   1
   3   6  12 699.636 171.366   2
  -3  -7   9 485.401 144.606   5
  -3  -7   8 128.194 132.250  11
  -3  -7   8 230.282 144.342   5
   3   7  -8 194.829 134.592   4
  -3  -7   7 1736.78 200.759   6
  -3  -7   7 1178.79 198.104  11
  -3  -7   7 1269.14 204.265   5
   3   7  -7 1501.32 224.641   4
  -3  -7   6 2058.94 233.862   6
  -3  -7   6 1472.96 198.957  11
  -3  -7   6 1724.18 220.705   5
   3   7  -6 2065.59 243.361   4
  -3  -7   5 3348.82 272.174   6
  -3  -7   5 3211.40 260.384  11
  -3  -7   5 2743.00 257.660   5
   3   7  -5 3079.16 281.774   4
  -3  -7   4 896.124 155.454   6
  -3  -7   4 997.413 151.449  11
  -3  -7   4 877.688 162.368   5
   3   7  -4 894.332 174.526   4
  -3  -7   3 4196.63 301.496   6
  -3  -7   3 4257.30 255.486  11
  -3  -7   3 4639.81 313.040   5
   3   7  -3 4684.57 322.793   4
  -3  -7   2 918.965 163.314   6
  -3  -7   2 1061.78 135.101  11
  -3  -7   2 832.522 105.194  10
  -3  -7   2 906.200 157.234   5
   3   7  -2 897.148 171.547   4
  -3  -7   1 1457.78 188.485   6
  -3  -7   1 1783.03 151.948  11
  -3  -7   1 1651.60 142.916  10
  -3  -7   1 1567.19 191.527   5
   3   7  -1 1692.26 199.609   4
  -3  -7   0 1404.88 187.570   6
   3   7   0 1101.63 132.952   1
  -3  -7   0 1320.37 125.014  11
  -3  -7   0 1026.39 118.830  10
  -3  -7   0 1204.40 170.238   5
  -3  -7   0 1230.77 97.7954   7
   3   7   0 1439.47 183.760   4
  -3  -7  -1 1919.15 205.043   6
  -3  -7  -1 1980.48 139.256  11
  -3  -7  -1 1750.07 161.811  10
  -3  -7  -1 2162.33 215.975   5
   3   7   1 1806.38 155.675   1
   3   7   1 2379.46 228.143   4
  -3  -7  -1 1961.79 123.613   7
  -3  -7  -2 2909.96 253.185   6
  -3  -7  -2 2970.78 254.179   5
  -3  -7  -2 3265.92 225.912  10
   3   7   2 3073.32 188.125   1
   3   7   2 2909.80 243.611   4
  -3  -7  -2 2819.49 152.430   7
  -3  -7  -3 2754.37 244.686   6
   3   7   3 2721.10 174.202   1
  -3  -7  -3 2689.83 236.693   5
  -3  -7  -3 2351.61 210.255  10
   3   7   3 2699.70 233.838   4
  -3  -7  -3 2429.03 153.999   7
  -3  -7  -4 3530.94 272.065   6
   3   7   4 3150.52 193.459   1
  -3  -7  -4 3402.10 273.146   5
  -3  -7  -4 3486.48 256.555  10
   3   7   4 3782.03 277.986   4
  -3  -7  -5 5944.91 348.180   6
  -3  -7  -5 5692.43 350.828   5
  -3  -7  -5 5655.15 332.022  10
   3   7   5 6011.22 342.878   4
   3   7   6 2037.05 223.088   4
  -3  -7  -6 2056.14 216.461   6
  -3  -7  -6 2042.58 166.556   1
   3   7   6 2244.55 222.590   2
  -3  -7  -6 2015.23 222.761  10
  -3  -7  -6 2076.18 231.101   5
  -3  -7  -6 1973.07 174.761   7
  -3  -7  -7 1823.31 165.104   1
  -3  -7  -7 1750.92 207.769   6
   3   7   7 2321.77 242.643   2
  -3  -7  -7 2060.55 237.085  10
  -3  -7  -7 2026.40 235.610   5
   3   7   7 2605.44 245.352   4
  -3  -7  -7 2072.63 191.474   7
   3   7   8 1466.06 198.767   4
  -3  -7  -8 1434.64 190.822   6
  -3  -7  -8 1291.39 198.917  10
   3   7   8 1581.15 207.224   2
  -3  -7  -8 1396.30 211.683   5
  -3  -7  -8 1663.59 163.502   1
  -3  -7  -8 1409.37 171.315   7
  -3  -7  -9 87.0621 108.571   7
   3   7   9 240.977 129.567   4
  -3  -7  -9 98.5315 103.161   6
  -3  -7  -9-88.0454 85.7846   1
  -3  -7  -9-76.4692 140.816  10
   3   7   9 44.6457 116.194   2
  -3  -7  -9 90.0327 119.614   5
  -3  -7 -10 5208.09 329.568   6
  -3  -7 -10 4832.22 384.672  10
  -3  -7 -10 4749.72 374.927   5
  -3  -7 -10 4835.47 332.536   7
   3   7  10 5503.49 373.382   2
  -3  -7 -11 822.163 187.300   7
   3   7  11 879.955 185.239   2
   3   7  12 17.6298 130.738   2
  -3  -8   8 2675.55 295.738  11
  -3  -8   7 7701.33 418.056   6
  -3  -8   7 7507.76 438.527  11
  -3  -8   7 8387.82 477.586   5
   3   8  -7 7707.64 472.779   4
  -3  -8   6 2843.17 269.306   6
  -3  -8   6 2556.27 250.728  11
  -3  -8   6 2888.63 291.112   5
   3   8  -6 2398.24 269.905   4
  -3  -8   5 742.552 174.109   6
  -3  -8   5 1043.95 170.355  11
  -3  -8   5 695.387 163.347   5
   3   8  -5 972.824 189.284   4
  -3  -8   4 1984.41 228.290   6
  -3  -8   4 2433.19 217.927  11
  -3  -8   4 2696.63 266.460   5
   3   8  -4 2304.24 250.134   4
  -3  -8   3 1197.20 191.763   6
  -3  -8   3 1028.19 145.141  11
  -3  -8   3 1039.35 178.491   5
   3   8  -3 1370.13 206.542   4
  -3  -8   2 790.229 162.926   6
  -3  -8   2 1148.69 143.471  11
  -3  -8   2 1109.20 110.488  10
  -3  -8   2 1114.21 179.076   5
   3   8  -2 1395.68 204.541   4
  -3  -8   1 1217.35 190.715   6
  -3  -8   1 1027.04 120.240  11
  -3  -8   1 987.648 117.067  10
  -3  -8   1 1081.90 173.424   5
   3   8  -1 831.358 164.870   4
  -3  -8   0 1064.33 171.875   6
  -3  -8   0 1086.11 116.325  11
  -3  -8   0 864.156 119.194  10
  -3  -8   0 864.325 174.998   5
   3   8   0 1208.56 185.404   4
  -3  -8  -1 5939.08 370.437   6
  -3  -8  -1 6026.23 368.223   5
  -3  -8  -1 5677.34 288.006  10
   3   8   1 6083.31 363.849   4
  -3  -8  -2 4743.44 331.174   6
  -3  -8  -2 5429.83 349.775   5
  -3  -8  -2 4956.33 282.458  10
   3   8   2 5772.97 354.891   4
  -3  -8  -3 4233.55 314.227   6
  -3  -8  -3 4184.34 314.594   5
  -3  -8  -3 3887.29 263.235  10
   3   8   3 4437.62 314.284   4
  -3  -8  -4 11429.0 509.831   6
  -3  -8  -4 12057.7 519.160   5
  -3  -8  -4 12156.8 478.704  10
   3   8   4 11904.4 507.560   4
  -3  -8  -5 3373.55 281.955   6
  -3  -8  -5 2986.89 287.598   5
  -3  -8  -5 3796.39 288.524  10
   3   8   5 3317.60 279.320   4
  -3  -8  -6 6508.79 388.370   6
  -3  -8  -6 5954.55 385.228   5
  -3  -8  -6 6458.46 382.391  10
   3   8   6 5931.14 362.333   2
   3   8   6 6036.93 372.195   4
   3   8   7 1181.25 189.954   4
  -3  -8  -7 1231.54 195.068   6
   3   8   7 844.574 168.923   2
  -3  -8  -7 1302.09 204.719  10
  -3  -8  -7 1194.36 192.679   5
  -3  -8  -7 1147.32 153.626   7
   3   8   8 186.093 129.339   4
  -3  -8  -8 102.940 118.737   6
  -3  -8  -8-10.7588 126.667  10
   3   8   8 40.9831 127.542   2
  -3  -8  -8 38.8275 120.845   5
  -3  -8  -8 168.847 104.606   7
   3   8   9 629.736 173.601   4
  -3  -8  -9 325.960 146.830   6
  -3  -8  -9 237.348 120.207  10
   3   8   9 891.790 198.614   2
  -3  -8  -9 399.023 147.401   5
  -3  -8  -9 520.804 138.656   7
  -3  -8 -10-29.3123 118.334   7
  -3  -8 -10 40.4408 113.660   6
   3   8  10 261.878 161.948   2
  -3  -8 -11-102.388 121.707   7
   3   8  11-0.90751 115.051   2
  -3  -9   7 2547.98 273.652   6
  -3  -9   6 307.704 153.527   6
  -3  -9   5 4049.39 334.528   6
  -3  -9   5 4004.51 347.848   5
   3   9  -5 3505.85 329.173   4
  -3  -9   4 3426.82 305.595   6
  -3  -9   4 3410.42 313.275   5
   3   9  -4 3434.42 318.935   4
  -3  -9   3 2377.73 258.797   6
  -3  -9   3 2314.60 255.151   5
   3   9  -3 3030.35 289.590   4
  -3  -9   2 2642.26 267.148   6
  -3  -9   2 2364.06 260.564   5
   3   9  -2 2532.44 266.210   4
  -3  -9   1-71.6435 104.443   6
  -3  -9   1-69.6709 117.877   5
   3   9  -1-11.6046 114.997   4
  -3  -9   0-104.137 118.925   6
  -3  -9   0 21.4989 66.6595  10
  -3  -9   0-81.5951 116.394   5
   3   9   0-0.84878 112.876   4
  -3  -9  -1 325.308 135.618   6
  -3  -9  -1 304.944 94.5679  10
  -3  -9  -1 539.110 132.548   5
   3   9   1 437.844 156.425   4
  -3  -9  -2 6064.84 391.761   6
  -3  -9  -2 5579.85 373.796   5
  -3  -9  -2 6000.10 318.700  10
   3   9   2 6167.82 390.451   4
  -3  -9  -3 11340.2 529.264   6
  -3  -9  -3 11559.1 534.031   5
  -3  -9  -3 10430.4 439.086  10
   3   9   3 12460.0 545.976   4
   3   9   4 1132.01 196.151   4
  -3  -9  -4 897.539 184.868   6
  -3  -9  -4 1433.81 190.342  10
  -3  -9  -4 1207.13 212.641   5
   3   9   5 2385.69 261.117   4
  -3  -9  -5 2136.75 249.311   6
  -3  -9  -5 2349.84 243.456  10
  -3  -9  -5 2313.49 262.781   5
   3   9   6 1022.82 186.930   4
  -3  -9  -6 1483.72 231.671   6
   3   9   6 1327.74 201.937   2
  -3  -9  -6 1193.28 198.362  10
  -3  -9  -6 1554.50 230.688   5
   3   9   7 548.766 159.111   4
  -3  -9  -7 625.147 178.928   6
   3   9   7 849.633 185.254   2
  -3  -9  -7 681.658 170.693  10
  -3  -9  -7 885.482 196.178   5
  -3  -9  -7 1055.91 168.349   7
   3   9   8 931.207 198.160   4
  -3  -9  -8 677.783 162.087   6
   3   9   8 816.047 188.735   2
  -3  -9  -8 751.594 196.057  10
  -3  -9  -8 868.121 166.736   7
  -3  -9  -9 3380.27 305.289   6
   3   9   9 3494.87 314.192   2
  -3  -9  -9 3895.03 310.962   7
   3   9  10 2114.47 261.841   2
  -3  -9 -10 2103.61 247.447   7
  -3 -10   4 2077.43 261.251   6
  -3 -10   3 104.112 123.881   6
  -3 -10   2 3171.76 313.361   6
  -3 -10   2 2784.49 289.793   5
   3  10  -2 3045.76 307.685   4
  -3 -10   1 2454.30 281.473   6
  -3 -10   1 2131.39 259.002   5
   3  10  -1 2852.00 292.985   4
  -3 -10   0 178.883 131.579   6
  -3 -10   0 437.395 171.380   5
   3  10   0 325.509 161.226   4
  -3 -10  -1 638.232 163.340   6
  -3 -10  -1 574.406 157.642   5
   3  10   1 699.090 176.878   4
  -3 -10  -2 1962.22 259.173   6
  -3 -10  -2 1687.30 182.141  10
  -3 -10  -2 2103.71 258.658   5
   3  10   2 2048.70 256.098   4
   3  10   3 1904.39 255.445   4
  -3 -10  -3 1539.85 234.459   6
  -3 -10  -3 1531.61 184.734  10
  -3 -10  -3 1768.50 236.959   5
   3  10   4 2062.11 265.738   4
  -3 -10  -4 2258.22 272.204   6
  -3 -10  -4 2187.24 234.325  10
  -3 -10  -4 2191.84 266.232   5
  -3 -10  -5 5974.42 411.403   6
  -3 -10  -5 5871.44 412.057   5
  -3 -10  -5 6154.58 389.659  10
   3  10   5 6578.04 434.738   4
  -3 -10  -6 4511.79 371.999   6
  -3 -10  -6 4714.47 358.484  10
  -3 -10  -7 162.396 121.846   6
   3  10   7 521.057 157.592   2
  -3 -10  -7 180.798 154.705  10
   3  10   8 1717.07 226.510   2
  -3 -11  -4 6650.00 395.881  10
  -3 -11  -5 2424.64 259.239  10
  -3 -11  -6-57.4652 116.244  10
  -4  10   0 1222.58 203.686   8
  -4  10  -1 2297.53 258.255   8
   4  -9  -2-22.5970 139.993   3
  -4   9   2 174.476 114.032   8
   4  -9  -1 2219.34 271.497   3
  -4   9   1 2233.78 259.551   8
   4  -9   0 1081.92 210.287   3
  -4   9   0 430.243 157.441   9
  -4   9   0 789.916 165.249   8
   4  -9   1 1990.35 258.541   3
  -4   9  -1 1866.33 250.273   9
  -4   9  -1 1545.09 213.763   8
   4  -9   2 965.682 191.655   3
  -4   9  -2 1144.85 201.941   9
  -4   9  -2 1051.61 170.442   8
   4  -9   3 602.883 169.092   3
  -4   9  -3 765.830 147.682   8
  -4   8   6 465.298 158.979   9
  -4   8   5 7720.00 453.690   9
   4  -8  -4 1468.50 232.381   3
  -4   8   4 1703.78 234.206   9
  -4   8   4 1493.29 229.759   8
   4  -8  -3 71.4260 134.391   3
  -4   8   3 257.645 123.011   9
  -4   8   3 250.488 131.214   8
   4  -8  -2 216.030 163.464   3
  -4   8   2 107.310 125.057   9
  -4   8   2 6.44014 114.399   8
   4  -8  -1 1318.93 206.527   3
  -4   8   1 1742.69 228.718   9
  -4   8   1 1560.41 223.237   8
   4  -8   0 6258.87 412.593   3
  -4   8   0 6096.77 406.161   9
  -4   8   0 6199.23 379.977   8
   4  -8   1 2031.39 248.820   3
  -4   8  -1 1538.47 222.442   9
  -4   8  -1 2019.67 217.729   8
   4  -8   2 3432.26 308.996   3
  -4   8  -2 3506.26 314.394   9
  -4   8  -2 3591.85 268.759   8
   4  -8   3 4304.67 349.222   3
  -4   8  -3 4404.62 292.170   1
  -4   8  -3 3798.89 323.200   9
  -4   8  -3 3734.67 260.760   8
  -4   8  -4 284.024 108.328   1
  -4   8  -4 329.242 133.115   9
  -4   8  -4 414.636 101.245   8
  -4   8  -5 865.503 160.738   1
  -4   8  -5 834.074 176.922   9
   4  -8   5 921.654 162.646   2
  -4   8  -6 4200.68 313.091   1
   4  -8   6 3800.29 303.356   2
  -4   8  -6 3421.26 312.832   9
  -4   8  -7 494.027 134.319   1
  -4   8  -7 777.536 185.134   9
  -4   8  -8 3018.92 293.771   9
   4  -8   8 3147.27 316.904   2
  -4   8  -8 2621.03 274.732   1
  -4   8  -9 1112.39 197.161   9
  -4   8  -9 935.747 192.574   1
  -4   7   8 529.034 166.455  11
  -4   7   7 3544.81 306.415  11
  -4   7   7 3470.35 304.012   9
  -4   7   6 2484.68 255.179  11
  -4   7   6 2147.02 239.105   9
  -4   7   5 833.430 167.050  11
   4  -7  -5 1133.54 211.646   3
  -4   7   5 1069.20 182.927   9
  -4   7   5 863.175 185.401   8
   4  -7  -4 773.586 182.866   3
  -4   7   4 866.314 170.344   9
  -4   7   4 507.699 153.047   8
   4  -7  -3 1169.00 200.302   3
  -4   7   3 1096.38 189.131   9
  -4   7   3 1151.13 194.305   8
   4  -7  -2 71.5444 107.272   3
  -4   7   2 210.769 106.159   9
  -4   7   2 409.741 145.733   8
   4  -7  -1 584.622 156.548   3
  -4   7   1 275.441 122.671   9
  -4   7   1 534.173 131.702   8
   4  -7   0 726.812 169.795   3
  -4   7   0 859.845 168.600   9
  -4   7   0 667.423 154.478   8
   4  -7   1 1999.80 236.800   3
  -4   7  -1 2330.23 254.071   9
  -4   7  -1 2239.87 215.590   8
   4  -7   2 61.7263 113.145   3
   4  -7   2 96.2811 81.0115   5
  -4   7  -2-17.9655 101.422   9
  -4   7  -2-1.52343 87.9508   8
   4  -7   3 4329.47 256.017   2
  -4   7  -3 4797.93 302.319   1
  -4   7  -3 4758.30 343.858   9
  -4   7  -3 4020.24 259.401   8
  -4   7  -4 941.137 183.792   9
  -4   7  -4 818.569 121.024   8
  -4   7  -4 1046.10 162.330   1
   4  -7   4 987.953 154.685   2
  -4   7  -5 4691.55 311.906   1
   4  -7   5 5082.44 315.564   2
  -4   7  -5 5132.41 354.473   9
  -4   7  -6 2646.47 271.681   7
   4  -7   6 2984.83 266.619   2
  -4   7  -6 2386.35 248.380   9
  -4   7  -6 2767.36 256.673   1
  -4   7  -7 226.525 127.043   1
  -4   7  -7 218.993 142.572   7
  -4   7  -7 177.159 135.920   9
   4  -7   7 57.8948 114.107   2
  -4   7  -8 105.710 137.299   7
  -4   7  -8 73.0911 132.617   9
   4  -7   8 135.834 142.015   2
  -4   7  -8 313.257 136.167   1
  -4   7  -9 281.875 141.309   9
  -4   7  -9 437.213 155.548   1
   4  -7   9 302.656 160.900   2
  -4   6   8 85.3195 110.787  11
  -4   6   7 1878.69 239.141  11
  -4   6   7 2276.58 244.540   9
  -4   6   6 577.566 163.389  11
   4  -6  -6 316.176 152.554   3
  -4   6   6 426.559 131.834   9
  -4   6   6 237.616 144.955   8
   4  -6  -5 3572.85 315.231   3
  -4   6   5 3274.22 274.419  11
  -4   6   5 3692.11 295.553   9
  -4   6   5 3455.03 311.923   8
  -4   6   4 937.704 171.398  11
   4  -6  -4 971.682 184.838   3
  -4   6   4 905.250 156.678   9
  -4   6   4 937.032 171.397   8
   4  -6  -3 380.429 131.413   3
  -4   6   3 435.501 132.180   9
  -4   6   3 330.851 127.137   8
   4  -6  -2 249.019 117.855   3
  -4   6   2-63.6567 106.202   9
  -4   6   2 9.24565 102.548   8
   4  -6  -1 3600.35 298.493   3
  -4   6   1 3594.43 292.025   9
  -4   6   1 3537.35 275.888   8
   4  -6   0 1291.42 195.887   3
  -4   6   0 1297.44 191.020   9
  -4   6   0 1363.24 177.754   8
   4  -6   1 4422.28 318.982   3
   4  -6   1 4520.03 214.277   2
   4  -6   1 4409.45 199.403   5
  -4   6  -1 4783.95 326.441   9
  -4   6  -1 4228.94 279.900   8
   4  -6   2 953.857 170.532   3
  -4   6  -2 888.462 167.295   9
  -4   6  -2 1101.95 150.439   8
   4  -6   2 988.133 124.124   2
   4  -6   3 14279.3 438.661   2
  -4   6  -3 13699.4 493.565   1
  -4   6  -3 14812.0 558.485   9
  -4   6  -3 13950.8 451.064   8
  -4   6  -4 8755.99 406.552   1
   4  -6   4 8478.54 365.166   2
  -4   6  -4 7791.82 412.393   9
  -4   6  -4 8611.65 340.867   8
  -4   6  -5 1147.30 175.620   7
  -4   6  -5 960.010 159.893   9
  -4   6  -5 1046.33 162.104   1
  -4   6  -5 887.980 117.198   8
   4  -6   5 961.675 160.919   2
   4  -6   6 2831.85 251.436   2
  -4   6  -6 2271.10 233.936   1
  -4   6  -6 2886.87 268.360   9
  -4   6  -6 2707.24 259.571   7
  -4   6  -7 589.727 152.178   7
  -4   6  -7 360.028 126.340   9
   4  -6   7 804.121 168.705   2
  -4   6  -7 679.366 163.165   1
  -4   6  -8 791.502 181.234   7
  -4   6  -8 818.766 172.628   9
  -4   6  -8 642.742 170.484   1
   4  -6   8 1045.60 199.500   2
  -4   6  -9 458.421 159.193   7
  -4   6  -9 287.770 128.528   9
  -4   6  -9 334.271 136.486   1
   4  -6   9 807.916 188.819   2
  -4   6 -10 517.347 160.978   1
  -4   6 -10 489.304 135.539   9
  -4   5   8 476.379 162.820  11
  -4   5   7 247.096 152.255  11
   4  -5  -7 341.113 158.541   3
  -4   5   7 481.535 132.934   9
  -4   5   7 670.798 182.349   8
  -4   5   6 145.337 129.614  11
   4  -5  -6 289.736 137.130   3
  -4   5   6 150.132 94.1370   9
  -4   5   6 138.309 131.686   8
  -4   5   5 1922.59 222.852  11
   4  -5  -5 1832.74 229.902   3
  -4   5   5 1773.98 199.840   9
  -4   5   5 2202.63 247.114   8
  -4   5   4 696.733 157.943  11
   4  -5  -4 629.017 152.875   3
  -4   5   4 719.500 146.297   9
  -4   5   4 523.990 148.928   8
   4  -5  -3 3739.84 301.646   3
  -4   5   3 3244.66 261.934  11
  -4   5   3 2839.68 247.324   9
  -4   5   3 2559.59 241.387   8
   4  -5  -2 5462.23 352.795   3
  -4   5   2 5244.49 331.756   9
  -4   5   2 5654.79 340.055   8
   4  -5  -1 1046.05 80.0076   2
   4  -5  -1 1178.57 185.318   3
  -4   5   1 1183.38 177.357   9
  -4   5   1 1263.89 177.735   8
   4  -5   0 17757.1 597.380   3
   4  -5   0 16756.4 350.714   2
   4  -5   0 14972.1 275.480   5
  -4   5   0 16689.0 569.098   9
  -4   5   0 16931.0 539.194   8
   4  -5   1 2592.35 162.033   2
   4  -5   1 2273.21 226.858   3
  -4   5  -1 2760.94 241.138   9
  -4   5  -1 2432.06 208.138   8
   4  -5   1 2295.27 166.374   4
   4  -5   2 5503.89 346.837   3
   4  -5   2 5724.17 254.970   2
   4  -5   2 5833.65 243.551   5
  -4   5  -2 5901.96 316.252   1
  -4   5  -2 5244.44 326.050   9
  -4   5  -2 5572.72 294.416   8
   4  -5   3 14457.3 429.564   2
  -4   5  -3 14692.5 499.962   1
  -4   5  -3 14487.0 531.077   9
  -4   5  -3 14397.0 445.662   8
  -4   5  -4 1158.01 162.665   1
  -4   5  -4 1044.60 161.313   9
   4  -5   4 901.229 140.443   2
  -4   5  -4 874.553 122.655   8
  -4   5  -5 827.295 149.800   7
  -4   5  -5 762.538 145.980   1
  -4   5  -5 649.032 139.759   9
   4  -5   5 814.285 154.411   2
  -4   5  -5 821.861 112.068   8
  -4   5  -6 178.548 110.617   7
  -4   5  -6 381.822 128.628   1
  -4   5  -6 237.998 113.176   9
   4  -5   6 297.392 115.206   2
  -4   5  -6 176.118 68.4443   8
  -4   5  -7 107.978 117.844   7
  -4   5  -7 232.275 127.261   9
   4  -5   7 191.451 123.989   2
  -4   5  -7 226.282 113.723   1
  -4   5  -8 2200.64 239.050   7
  -4   5  -8 1972.81 211.840   9
  -4   5  -8 2131.82 242.793   1
   4  -5   8 2280.46 256.353   2
  -4   5  -9 685.478 154.701   7
  -4   5  -9 305.223 117.711   1
  -4   5  -9 595.955 143.479   9
   4  -5   9 972.280 196.347   2
  -4   5 -10 1308.63 213.306   7
  -4   5 -10 1349.99 229.457   1
  -4   5 -10 859.285 147.746   9
   4  -5  10 1227.50 216.605   2
  -4   4   9 21.4250 119.772  11
   4  -4  -9 115.033 110.715   7
  -4   4   8 218.260 125.581  11
   4  -4  -8 222.730 155.049   3
  -4   4   8-76.0895 133.844   8
  -4   4   7 286.806 126.115  11
   4  -4  -7 295.343 158.995   3
  -4   4   7 403.275 123.592   9
  -4   4   7 196.680 128.109   8
  -4   4   6 63.0572 109.067  11
   4  -4  -6 349.218 151.887   3
  -4   4   6 298.749 101.868   9
  -4   4   6 48.0686 99.6982   8
  -4   4   5 124.454 99.5788  11
   4  -4  -5 245.267 130.286   3
  -4   4   5 40.4022 87.2745   9
  -4   4   5 104.500 105.979   8
   4  -4  -4 3140.96 276.816   3
  -4   4   4 3665.02 278.729  11
  -4   4   4 3463.52 260.973   9
  -4   4   4 3338.01 281.700   8
   4  -4  -3 16179.2 578.611   3
  -4   4   3 15459.8 538.552  11
  -4   4   3 15504.0 532.847   9
  -4   4   3 15192.9 547.963   8
   4  -4  -2 4242.80 140.468   2
   4  -4  -2 4878.54 323.063   3
  -4   4   2 4586.39 300.528  11
  -4   4   2 4561.79 292.760   9
  -4   4   2 4089.83 285.982   8
   4  -4  -1 6550.73 358.905   3
  -4   4   1 5637.03 326.895   9
  -4   4   1 5626.79 316.728   8
   4  -4  -1 5843.67 194.900   2
   4  -4   0 38221.3 837.705   3
   4  -4   0 34844.7 401.560   5
  -4   4   0 37262.2 812.573   9
  -4   4   0 38352.0 784.375   8
   4  -4   0 38747.4 550.685   2
   4  -4   1 42459.4 635.526   2
   4  -4   1 44252.0 891.913   3
   4  -4   1 42715.9 550.948   5
  -4   4  -1 43844.9 881.499   9
  -4   4  -1 43081.6 800.911   8
   4  -4   2 837.969 154.326   3
   4  -4   2 891.635 107.174   5
  -4   4  -2 1433.38 179.610   9
   4  -4   2 1211.73 130.502   2
  -4   4  -2 1051.49 143.991   8
  -4   4  -2 1111.00 158.801   1
  -4   4  -3 272.426 109.866   1
   4  -4   3 12.2981 49.1204   4
   4  -4   3 9.57412 57.9991   5
  -4   4  -3 90.1880 91.3787   9
   4  -4   3 97.3990 76.9591   2
  -4   4  -3 77.4687 68.3544   8
  -4   4  -4 1114.17 159.216   1
  -4   4  -4 953.944 136.160   7
  -4   4  -4 841.552 146.129   9
   4  -4   4 728.321 58.0522   4
   4  -4   4 779.173 127.754   2
  -4   4  -4 1001.82 127.658   8
  -4   4  -5 950.589 149.086   7
  -4   4  -5 930.660 154.024   1
  -4   4  -5 770.064 144.181   9
   4  -4   5 1100.01 155.932   2
   4  -4   5 872.542 114.180   8
  -4   4  -5 839.935 112.612   8
   4  -4   6 3733.45 274.643   2
  -4   4  -6 3755.91 269.788   9
  -4   4  -6 3448.86 272.161   1
  -4   4  -6 3215.43 249.638   7
   4  -4   7 4923.06 330.307   2
  -4   4  -7 4728.48 301.837   9
  -4   4  -7 5204.92 340.443   1
  -4   4  -7 5198.42 330.450   7
  -4   4  -8 477.040 129.306   7
  -4   4  -8 399.281 131.109   9
  -4   4  -8 338.170 136.689   1
   4  -4   8 300.734 142.248   2
  -4   4  -9 890.542 178.006   7
  -4   4  -9 1183.92 176.152  10
  -4   4  -9 1101.09 186.608   1
  -4   4  -9 1100.08 162.287   9
   4  -4   9 1078.83 198.789   2
  -4   4 -10 55.9346 124.607   7
  -4   4 -10-30.4665 107.820   1
  -4   4 -10 141.704 115.934  10
  -4   4 -10 204.509 103.405   9
   4  -4  10-16.9943 126.850   2
  -4   4 -11 613.060 180.855   7
  -4   4 -11 524.631 148.839  10
  -4   3   9 1996.41 270.706  11
  -4   3   9 2121.94 265.602   8
   4  -3  -9 1982.66 229.937   7
  -4   3   8 477.363 149.247  11
   4  -3  -8 519.147 173.947   3
  -4   3   8 87.9931 112.331   8
   4  -3  -8 154.011 103.608   7
  -4   3   7 404.031 138.313  11
   4  -3  -7 274.579 151.692   3
  -4   3   7 91.4928 95.0641   9
  -4   3   7 347.614 131.535   8
  -4   3   6 551.024 144.246  11
   4  -3  -6 437.029 149.393   3
  -4   3   6 483.875 123.309   9
  -4   3   6 527.370 154.287   8
   4  -3  -5 4476.88 327.266   3
  -4   3   5 4808.55 324.500  11
  -4   3   5 4872.30 298.545   9
  -4   3   5 4588.45 325.061   8
   4  -3  -4 15493.5 565.789   3
  -4   3   4 15221.1 545.234  11
  -4   3   4 14685.8 506.055   9
  -4   3   4 14106.0 536.829   8
   4  -3  -3 3062.98 259.131   3
  -4   3   3 2930.15 243.073  11
  -4   3   3 3462.90 251.079   9
  -4   3   3 2985.04 245.816   8
   4  -3  -3 2924.02 131.633   2
   4  -3  -2 8029.92 388.763   3
  -4   3   2 8755.01 395.222  11
  -4   3   2 8142.31 377.506   9
  -4   3   2 7601.81 370.929   8
   4  -3  -2 8132.34 232.833   2
   4  -3  -2 7597.13 308.521   7
   4  -3  -1 11031.1 444.114   3
  -4   3   1 11132.3 440.596  11
  -4   3   1 10950.6 431.682   9
  -4   3   1 10142.2 413.101   8
   4  -3  -1 11105.1 290.023   2
   4  -3  -1 10123.8 346.610   7
   4  -3   0 9630.81 409.432   3
   4  -3   0 8658.86 204.265   5
  -4   3   0 9246.68 398.788   9
  -4   3   0 9546.44 390.747   8
   4  -3   0 9865.93 295.770   2
   4  -3   0 9122.06 328.824   7
   4  -3   1 1334.04 139.370   7
   4  -3   1 1241.10 104.235   5
   4  -3   1 1364.90 170.028   3
   4  -3   1 1503.17 135.035   2
  -4   3  -1 1657.04 181.143   9
  -4   3  -1 1211.48 153.319   8
   4  -3   2 3362.93 251.738   3
  -4   3  -2 3582.67 249.293   1
   4  -3   2 3392.08 181.573   5
  -4   3  -2 3555.86 256.837   9
  -4   3  -2 3348.78 221.572   8
   4  -3   2 3461.07 215.845   7
   4  -3   2 3504.81 205.984   2
  -4   3  -3 11592.9 442.545   1
   4  -3   3 10972.7 349.352   5
  -4   3  -3 11861.4 446.513   9
   4  -3   3 11818.1 280.644   4
  -4   3  -3 12339.4 395.578   8
   4  -3   3 11623.4 385.441   2
  -4   3  -4 1326.82 149.000   7
  -4   3  -4 1455.52 166.360   9
   4  -3   4 1525.19 161.917   2
   4  -3   4 1518.73 84.0443   4
  -4   3  -4 1521.86 148.162   8
   4  -3   4 1331.59 141.363   8
   4  -3   4 1335.57 78.5492   4
  -4   3  -4 1402.96 175.310   1
  -4   3  -5 1717.79 169.532   7
  -4   3  -5 1596.00 185.299   1
  -4   3  -5 1286.02 163.644   9
   4  -3   5 1685.30 180.951   2
   4  -3   5 1382.03 135.504   8
  -4   3  -6 504.118 118.711   7
  -4   3  -6 998.885 153.617  10
  -4   3  -6 797.573 137.960   9
   4  -3   6 851.714 150.752   2
   4  -3   6 753.595 99.8599   8
  -4   3  -6 1031.22 166.362   1
  -4   3  -7 1617.03 188.211   7
  -4   3  -7 1523.00 183.679  10
  -4   3  -7 1742.71 187.618   9
   4  -3   7 1772.96 207.622   2
  -4   3  -7 1338.32 187.138   1
   4  -3   8 6138.62 373.970   2
  -4   3  -8 6090.11 340.854  10
  -4   3  -8 5893.36 324.248   9
  -4   3  -8 6136.21 376.100   1
  -4   3  -8 5808.68 344.881   7
   4  -3   9 7876.03 430.155   2
  -4   3  -9 8020.69 399.095  10
  -4   3  -9 7751.40 372.629   9
  -4   3  -9 8109.81 444.079   1
  -4   3  -9 7622.95 408.568   7
   4  -3  10 3584.94 322.496   2
  -4   3 -10 3160.65 263.179  10
  -4   3 -10 3375.29 310.560   1
  -4   3 -10 3129.51 246.355   9
  -4   3 -10 3241.57 285.532   7
  -4   3 -11 588.472 169.481   7
  -4   3 -11 216.254 118.630   1
  -4   3 -11 401.752 136.223  10
   4  -3  11 358.115 176.592   2
  -4   3 -12 158.639 118.877  10
   4  -2  -9 1860.97 206.914   7
  -4   2   9 1749.38 240.217   8
  -4   2   9 1532.76 240.796  11
  -4   2   8 31.8262 114.666  11
   4  -2  -8 408.712 175.781   3
  -4   2   8 271.544 138.572   8
   4  -2  -8 248.409 100.253   7
  -4   2   7 182.144 107.731  11
   4  -2  -7 519.285 158.249   3
  -4   2   7 226.119 121.973   8
   4  -2  -7 219.947 96.6263   7
  -4   2   6 1045.01 184.045  11
   4  -2  -6 1610.51 213.998   3
  -4   2   6 1371.05 163.388   9
  -4   2   6 1081.49 190.244   8
   4  -2  -5 2824.99 260.919   3
  -4   2   5 2292.08 234.959  11
  -4   2   5 2354.92 211.209   9
  -4   2   5 2713.72 257.367   8
  -4   2   4 262.704 113.551  11
   4  -2  -4 43.5165 95.2381   3
  -4   2   4 257.305 101.650   9
  -4   2   4 372.686 122.035   8
   4  -2  -3 3849.92 275.913   3
  -4   2   3 4338.17 295.092  11
   4  -2  -3 3989.35 184.461   2
  -4   2   3 4058.21 268.423   9
  -4   2   3 4121.09 285.106   8
   4  -2  -3 4114.91 184.031   2
   4  -2  -3 3628.51 206.475   7
   4  -2  -2 8879.29 399.335   3
  -4   2   2 8424.84 385.900  11
  -4   2   2 8717.65 380.465   9
  -4   2   2 8896.63 393.082   8
   4  -2  -2 8736.77 270.017   2
   4  -2  -2 8855.23 298.988   7
   4  -2  -1 1711.76 78.1064   5
  -4   2   1 1439.83 174.938  11
   4  -2  -1 1816.16 193.221   3
  -4   2   1 1726.37 184.601   9
   4  -2  -1 1686.79 131.757   2
  -4   2   1 1784.10 190.034   8
   4  -2  -1 1632.30 130.881   7
   4  -2   0 504.585 82.2055   7
  -4   2   0 549.966 127.745  11
   4  -2   0 450.099 116.398   3
   4  -2   0 654.702 98.8429   2
   4  -2   0 556.733 65.8431   5
  -4   2   0 507.945 120.821   9
  -4   2   0 514.091 120.025   8
   4  -2   1 449.964 78.9471   7
   4  -2   1 645.401 125.568   3
   4  -2   1 512.849 101.114   2
   4  -2   1 385.483 73.9553   5
  -4   2  -1 356.990 114.894   9
  -4   2  -1 261.565 93.1344   8
   4  -2   2 5468.35 299.910   3
   4  -2   2 5318.92 226.904   5
  -4   2  -2 5124.10 292.420   1
  -4   2  -2 5040.07 293.685   9
   4  -2   2 5106.74 216.522   4
  -4   2  -2 5373.10 272.039   8
   4  -2   2 5564.79 262.876   2
   4  -2   2 5059.86 228.481   7
   4  -2   3 274.849 80.2118   7
  -4   2  -3 275.282 86.7155   7
   4  -2   3 468.363 94.8024   5
   4  -2   3 255.987 91.8513   2
  -4   2  -3 357.253 110.309   9
  -4   2  -3 445.135 97.1045   8
   4  -2   3 216.843 60.6404   4
  -4   2  -3 337.862 118.683   1
  -4   2  -4 7001.58 349.482   1
  -4   2  -4 6879.97 340.943  10
  -4   2  -4 6853.99 332.603   9
   4  -2   4 6692.96 186.703   4
   4  -2   4 6536.54 279.798   8
   4  -2   4 6636.75 284.389   7
   4  -2   4 7100.72 323.292   2
  -4   2  -4 6780.60 288.074   7
  -4   2  -5 4155.09 275.869  10
  -4   2  -5 4292.46 268.542   9
   4  -2   5 4113.03 215.796   8
   4  -2   5 3070.10 91.0933   4
   4  -2   5 4127.72 264.595   2
  -4   2  -5 4127.75 239.677   7
  -4   2  -5 4242.24 282.687   1
  -4   2  -6 13234.3 477.528  10
  -4   2  -6 13232.5 465.822   9
   4  -2   6 12559.0 357.687   8
  -4   2  -6 13838.4 509.625   1
  -4   2  -6 13534.8 442.173   7
   4  -2   6 13362.0 479.328   2
  -4   2  -7 4217.43 282.248  10
  -4   2  -7 4594.81 282.523   9
  -4   2  -7 4200.63 297.249   1
  -4   2  -7 4746.79 284.474   7
   4  -2   7 4217.34 294.300   2
   4  -2   8 8898.42 435.669   2
  -4   2  -8 8471.59 399.690  10
  -4   2  -8 7852.14 361.195   9
  -4   2  -8 7944.78 417.741   1
  -4   2  -8 8032.12 383.585   7
   4  -2   9 4249.00 326.247   2
  -4   2  -9 4897.48 324.971  10
  -4   2  -9 5134.30 354.324   1
  -4   2  -9 5011.07 322.444   7
  -4   2 -10 460.005 144.938   7
  -4   2 -10 355.460 132.647   1
  -4   2 -10 170.966 110.645  10
   4  -2  10 468.429 164.734   2
  -4   2 -11 1163.27 194.428   7
  -4   2 -11 1002.43 194.417   1
  -4   2 -11 1211.33 187.037  10
   4  -2  11 1082.91 213.067   2
  -4   2 -12 163.408 119.187   7
  -4   2 -12 58.8002 112.860  10
  -4   2 -13 480.500 160.314  10
  -4   1  10 80.6543 128.150   8
  -4   1   9 603.109 190.609  11
   4  -1  -9 493.247 171.370   3
  -4   1   9 849.417 182.877   8
   4  -1  -8 69.5741 97.3799   7
  -4   1   8 67.9052 114.296  11
   4  -1  -8 134.523 149.082   3
  -4   1   8 49.7852 122.862   8
   4  -1  -7 5029.22 361.961   3
  -4   1   7 5290.38 364.209  11
  -4   1   7 4917.49 345.055   8
   4  -1  -7 5287.17 280.062   7
  -4   1   6 164.561 116.655  11
   4  -1  -6 213.648 123.229   3
  -4   1   6 170.342 117.882   8
   4  -1  -6 273.136 94.1990   7
   4  -1  -5 3326.80 283.894   3
  -4   1   5 3111.49 270.762  11
  -4   1   5 3365.37 279.022   8
   4  -1  -5 3406.15 203.535   7
   4  -1  -4 22741.2 649.852   3
   4  -1  -4 22875.5 479.549   2
  -4   1   4 22711.3 655.324  11
  -4   1   4 23095.6 607.055   9
  -4   1   4 23153.7 662.906   8
   4  -1  -3 6562.74 343.099   3
  -4   1   3 5958.53 336.203  11
  -4   1   3 6673.35 330.045   9
  -4   1   3 6521.13 346.577   8
   4  -1  -3 5670.29 231.401   7
   4  -1  -2 349.107 66.6443   7
  -4   1   2 539.575 130.750  11
   4  -1  -2 548.911 125.703   3
  -4   1   2 530.589 121.760   9
  -4   1   2 444.385 117.651   8
   4  -1  -1 735.014 85.9815   7
  -4   1   1 832.505 146.352  11
   4  -1  -1 621.199 104.844   2
   4  -1  -1 757.339 72.8738   5
   4  -1  -1 808.188 153.546   3
  -4   1   1 585.710 123.415   9
  -4   1   1 766.826 143.876   8
   4  -1   0 379.926 66.5411   7
  -4   1   0 502.532 125.995  11
   4  -1   0 642.962 104.566   2
   4  -1   0 360.574 109.519   3
   4  -1   0 436.676 73.4182   5
  -4   1   0 460.430 119.327   9
  -4   1   0 560.289 134.264   8
   4  -1   0 221.902 83.8754   4
   4  -1   1 2602.26 203.186   3
   4  -1   1 2588.12 152.143   5
  -4   1  -1 2797.61 226.491   9
   4  -1   1 2648.69 179.006   4
  -4   1  -1 2689.17 201.384   8
   4  -1   1 2697.03 183.250   2
   4  -1   1 2732.05 144.871   7
   4  -1   2 5491.13 283.193   3
   4  -1   2 5731.77 241.333   5
  -4   1  -2 6079.23 314.877   1
  -4   1  -2 5933.46 309.274   9
   4  -1   2 5647.37 232.868   4
  -4   1  -2 6108.34 289.760   8
   4  -1   2 5731.49 273.262   2
   4  -1   2 5812.62 215.973   7
   4  -1   3 618.003 92.2098   7
  -4   1  -3 563.517 89.8886   7
  -4   1  -3 712.267 137.715   1
  -4   1  -3 840.682 138.691  10
   4  -1   3 822.894 125.342   2
   4  -1   3 432.579 88.3820   5
  -4   1  -3 543.406 119.245   9
   4  -1   3 728.578 91.4995   4
  -4   1  -4 3678.68 257.667   1
  -4   1  -4 3663.19 253.448  10
  -4   1  -4 3953.57 256.288   9
   4  -1   4 3807.02 160.203   4
   4  -1   4 3627.19 216.691   8
   4  -1   4 3512.16 234.221   2
   4  -1   4 3833.38 200.589   7
  -4   1  -4 3882.14 207.420   7
  -4   1  -5 6227.92 326.875  10
  -4   1  -5 6077.43 316.108   9
   4  -1   5 6365.44 274.268   8
   4  -1   5 5908.30 171.996   4
   4  -1   5 5834.24 265.627   7
   4  -1   5 6063.48 317.071   2
  -4   1  -5 6002.56 264.996   7
  -4   1  -5 6445.65 339.442   1
  -4   1  -6 1529.28 181.233   1
  -4   1  -6 1400.92 147.355   7
  -4   1  -6 1769.33 192.408  10
   4  -1   6 1593.05 176.499   2
  -4   1  -6 1705.08 178.149   9
   4  -1   6 1658.71 142.686   8
   4  -1   6 1385.79 69.3140   4
  -4   1  -7 4226.48 286.813  10
   4  -1   7 3830.33 202.492   8
  -4   1  -7 4311.23 297.200   1
  -4   1  -7 3900.92 248.140   7
   4  -1   7 3613.34 275.643   2
  -4   1  -8 6037.34 343.719  10
  -4   1  -8 6026.30 361.764   1
  -4   1  -8 6224.38 325.707   7
   4  -1   8 5862.72 353.542   2
  -4   1  -9 3333.54 271.193  10
  -4   1  -9 3006.44 274.234   1
  -4   1  -9 3054.26 249.553   7
   4  -1   9 3099.57 276.389   2
  -4   1 -10 1335.01 189.566   7
  -4   1 -10 1221.46 204.806   1
  -4   1 -10 1568.60 204.057  10
   4  -1  10 1929.96 243.888   2
  -4   1 -11 1045.03 200.415   7
  -4   1 -11 664.900 158.576   1
  -4   1 -11 882.297 175.641  10
   4  -1  11 932.556 208.431   2
  -4   1 -12 171.850 119.768   7
  -4   1 -12 598.315 162.190  10
  -4   1 -13 897.970 194.442  10
  -4   0  10 2856.98 297.079   8
  -4   0   9 3104.11 320.283  11
   4   0  -9 2903.17 309.482   3
  -4   0   9 2673.42 274.856   8
  -4   0   8 1540.11 225.165  11
   4   0  -8 1723.58 233.213   3
  -4   0   8 1546.80 217.598   8
   4   0  -7 1754.52 168.374   7
  -4   0   7 1736.98 227.035  11
   4   0  -7 2055.57 243.743   3
  -4   0   7 1722.39 220.118   8
   4   0  -6 1647.62 143.986   7
  -4   0   6 1468.91 202.392  11
   4   0  -6 1254.04 190.844   3
  -4   0   6 1653.52 202.775   8
  -4   0   5 1828.16 215.202  11
  -4   0   5 1708.82 91.9454   5
   4   0  -5 2140.67 229.366   3
  -4   0   5 1870.56 215.380   8
   4   0  -5 2080.50 146.386   7
   4   0  -4 22235.1 629.613   3
  -4   0   4 22484.6 654.405  11
   4   0  -4 21707.4 510.277   2
  -4   0   4 21173.0 317.918   5
  -4   0   4 21082.1 625.215   8
   4   0  -4 22575.3 417.895   7
   4   0  -3 2828.50 228.307   3
  -4   0   3 2263.17 215.723  11
  -4   0   3 2720.37 123.102   5
  -4   0   3 2613.25 228.135   8
   4   0  -3 2804.43 139.609   7
   4   0  -3 2524.17 134.010   7
   4   0  -2 1120.73 92.5700   5
  -4   0   2 971.564 153.120  11
  -4   0   2 1154.07 91.7811   5
   4   0  -2 904.132 142.803   3
  -4   0   2 862.904 141.221   8
   4   0  -2 1150.30 152.869   4
   4   0  -2 1055.77 82.2839   7
   4   0  -1 5165.26 281.071   3
  -4   0   1 5588.79 304.097   6
   4   0  -1 5054.53 192.042   5
  -4   0   1 5142.27 295.842  11
  -4   0   1 5282.39 194.332   5
   4   0  -1 5097.78 277.015   4
  -4   0   1 5241.56 294.473   8
   4   0  -1 5233.86 156.654   7
   4   0   0 502.491 55.0914   7
  -4   0   0 521.786 111.796   6
  -4   0   0 388.054 114.097  11
   4   0   0 491.734 109.158   3
   4   0   0 454.494 73.9804   5
  -4   0   0 476.964 76.9812   5
  -4   0   0 420.809 107.941   8
   4   0   0 434.602 103.682   4
   4   0   1 3999.50 239.367   3
  -4   0  -1 3970.65 253.437   6
   4   0   1 3818.37 193.019   5
  -4   0  -1 3993.47 257.704  11
   4   0   1 3596.80 209.839   4
   4   0   1 4219.53 231.033   2
  -4   0  -1 3782.47 239.782   8
   4   0   1 3867.73 137.172   7
  -4   0  -2 1498.49 165.582   6
   4   0   2 1802.76 147.687   5
   4   0   2 1815.42 164.128   3
   4   0   2 1631.81 156.811   2
  -4   0  -2 1587.66 176.167  10
   4   0   2 1629.09 140.191   4
  -4   0  -2 1802.29 186.338   1
   4   0   2 1634.79 101.802   7
   4   0   3 30439.3 619.586   3
  -4   0  -3 29574.0 673.043   6
  -4   0  -3 30232.8 686.845   1
   4   0   3 30896.0 600.194   5
  -4   0  -3 30499.8 686.480  10
   4   0   3 30169.8 515.435   4
   4   0   3 29961.1 637.663   2
   4   0   3 29776.1 454.331   7
  -4   0  -3 32071.5 472.499   7
  -4   0  -4 25559.4 641.311   1
  -4   0  -4 25293.8 622.629   6
  -4   0  -4 24313.0 623.843  10
   4   0   4 24643.6 440.736   4
   4   0   4 25076.6 610.404   2
   4   0   4 24276.9 453.333   7
  -4   0  -4 24833.8 455.907   7
   4   0   5 1463.59 133.903   7
  -4   0  -5 1335.93 126.345   7
  -4   0  -5 1209.82 162.044  10
   4   0   5 1496.85 174.344   2
  -4   0  -5 1229.98 156.633   1
   4   0   5 1376.00 106.390   4
  -4   0  -6 1658.58 190.339   1
  -4   0  -6 1474.56 175.201  10
   4   0   6 1827.21 187.866   2
   4   0   6 1687.39 107.452   4
   4   0   6 1526.96 144.785   8
  -4   0  -6 1555.54 149.627   7
   4   0   6 1547.01 152.233   7
  -4   0  -7 5345.20 322.538  10
   4   0   7 5476.24 254.887   8
  -4   0  -7 5969.92 345.015   1
   4   0   7 5432.98 167.302   4
   4   0   7 5493.32 322.769   2
  -4   0  -7 5803.71 284.633   7
  -4   0  -8 32.6630 73.7429   7
  -4   0  -8 248.594 99.9312  10
   4   0   8-35.9627 97.2967   2
  -4   0  -8 74.6757 95.7942   1
  -4   0  -9 2947.52 259.299  10
  -4   0  -9 2437.34 251.087   1
  -4   0  -9 2440.13 221.144   7
   4   0   9 2755.81 266.862   2
  -4   0 -10 1323.48 190.567   7
  -4   0 -10 1173.41 196.755   1
  -4   0 -10 965.083 165.774  10
   4   0  10 1493.73 214.443   2
  -4   0 -11 866.485 179.491   7
  -4   0 -11 457.341 149.297   1
  -4   0 -11 427.295 149.564  10
   4   0  11 436.930 162.785   2
  -4   0 -12 437.445 153.273   7
  -4   0 -12 204.376 119.713  10
  -4   0 -13-174.784 149.892  10
  -4  -1  10 876.027 198.533   8
   4   1  -9 2913.87 305.894   3
  -4  -1   9 2734.87 289.994   8
   4   1  -9 2362.94 287.710   4
   4   1  -8 538.593 166.051   3
  -4  -1   8 479.224 146.590   8
   4   1  -8 612.444 165.539   4
  -4  -1   8 285.796 154.638  11
   4   1  -7 4565.17 341.797   3
  -4  -1   7 4289.63 334.272  11
   4   1  -7 3959.64 331.333   4
  -4  -1   7 4248.15 320.947   8
   4   1  -6 10075.7 464.425   3
  -4  -1   6 9149.81 460.030  11
  -4  -1   6 10028.7 285.783   5
   4   1  -6 9238.70 463.261   4
  -4  -1   6 10331.6 468.580   8
   4   1  -6 10453.4 319.321   7
  -4  -1   5 1460.85 115.272   5
  -4  -1   5 1713.22 208.203  11
   4   1  -5 1432.72 188.913   3
  -4  -1   5 1627.15 200.316   8
   4   1  -5 1575.96 201.171   4
   4   1  -5 1646.22 119.715   7
  -4  -1   4 6755.21 327.103   6
   4   1  -4 6955.53 355.540   3
  -4  -1   4 6908.23 370.270  11
  -4  -1   4 7262.81 238.490   5
   4   1  -4 6935.31 369.984   4
  -4  -1   4 6713.00 361.813   8
   4   1  -4 7145.67 205.951   7
  -4  -1   3 10636.9 404.832   6
   4   1  -3 10720.1 414.314   3
  -4  -1   3 11034.1 448.440  11
  -4  -1   3 10874.1 294.164   5
   4   1  -3 11360.3 446.436   4
  -4  -1   3 11036.5 446.603   8
   4   1  -3 10675.4 207.785   7
   4   1  -3 10195.5 210.727   7
  -4  -1   2 1976.10 190.900   6
   4   1  -2 2074.18 143.020   5
  -4  -1   2 2311.90 211.055  11
  -4  -1   2 2118.62 138.170   5
   4   1  -2 1822.89 179.872   3
  -4  -1   2 2069.28 201.434   8
   4   1  -2 1614.46 61.5011   7
   4   1  -2 2040.73 194.638   4
   4   1  -2 1630.38 61.4781   7
   4   1  -1 17586.2 481.013   3
  -4  -1   1 17910.4 526.584   6
   4   1  -1 17747.7 398.033   5
  -4  -1   1 17440.1 525.358  11
  -4  -1   1 17959.0 398.982   5
   4   1  -1 17460.2 504.153   4
  -4  -1   1 17454.5 531.737   8
   4   1   0 2616.13 190.286   3
  -4  -1   0 2398.76 210.487   6
   4   1   0 2309.50 154.218   5
  -4  -1   0 2610.58 213.231  11
  -4  -1   0 2443.95 162.487   5
   4   1   0 2505.04 197.339   4
   4   1   1 4151.62 227.909   3
  -4  -1  -1 4496.24 273.968   6
   4   1   1 4053.89 211.331   5
  -4  -1  -1 3797.06 247.204  11
  -4  -1  -1 4236.17 216.557   5
  -4  -1  -1 4370.36 264.891  10
   4   1   1 4516.89 244.385   4
   4   1   2 3240.25 197.965   3
  -4  -1  -2 3445.26 242.786   6
   4   1   2 3152.23 196.374   5
  -4  -1  -2 2778.38 186.507   5
  -4  -1  -2 3344.58 238.314  10
   4   1   2 2932.03 191.606   4
   4   1   2 2735.78 210.895   2
   4   1   2 3204.43 107.668   7
   4   1   3 3727.90 212.103   3
  -4  -1  -3 3311.94 237.719   6
  -4  -1  -3 3572.61 247.213   1
  -4  -1  -3 2985.78 207.110   5
  -4  -1  -3 3080.45 227.803  10
   4   1   3 3434.62 196.359   4
   4   1   3 3650.97 241.149   2
   4   1   3 3248.60 133.466   7
  -4  -1  -3 3094.35 130.374   7
  -4  -1  -4 569.389 75.9741   7
  -4  -1  -4 762.029 140.960   6
   4   1   4 528.543 120.073   2
  -4  -1  -4 533.750 131.884  10
  -4  -1  -4 487.930 112.930   1
   4   1   4 537.413 93.9120   4
   4   1   4 561.027 81.6581   7
  -4  -1  -5 5949.30 323.758   1
  -4  -1  -5 6290.92 324.102   6
  -4  -1  -5 6286.53 331.536  10
   4   1   5 5832.39 232.783   4
   4   1   5 6657.30 335.124   2
   4   1   5 6045.21 235.939   7
  -4  -1  -5 6049.65 233.152   7
  -4  -1  -6 5675.86 306.653   6
  -4  -1  -6 5843.01 330.926  10
   4   1   6 5658.75 220.754   4
   4   1   6 5330.35 248.507   7
   4   1   6 5987.68 332.445   2
  -4  -1  -6 5699.00 251.784   7
  -4  -1  -6 5712.84 323.351   1
  -4  -1  -7 5276.92 299.817   6
  -4  -1  -7 4518.72 298.186  10
  -4  -1  -7 4895.28 203.687   4
   4   1   7 5111.60 205.696   4
  -4  -1  -7 5232.83 320.306   1
   4   1   7 4827.39 310.767   2
  -4  -1  -7 4980.90 255.300   7
  -4  -1  -8 1335.24 158.211   7
  -4  -1  -8 1550.80 193.167  10
   4   1   8 1134.73 186.630   2
  -4  -1  -8 1183.42 175.845   1
  -4  -1  -9 3237.96 275.738  10
  -4  -1  -9 3507.95 289.353   1
  -4  -1  -9 3097.26 240.063   7
   4   1   9 2889.52 266.437   2
  -4  -1 -10 3961.63 315.151  10
  -4  -1 -10 4062.65 323.847   1
  -4  -1 -10 4265.45 294.640   7
   4   1  10 4244.80 336.416   2
  -4  -1 -11 508.902 162.461   7
  -4  -1 -11 452.047 162.363   1
  -4  -1 -11 626.862 155.071  10
   4   1  11 546.683 160.181   2
  -4  -1 -12 2010.58 256.575   7
  -4  -1 -12 1861.59 241.223   1
  -4  -1 -12 2137.96 259.852  10
   4   1  12 1346.74 222.523   2
  -4  -1 -13 1761.39 244.926   7
   4   2  -9 134.921 136.422   3
   4   2  -8 1038.66 206.830   3
  -4  -2   8 1039.41 203.507  11
  -4  -2   8 1143.13 191.093   8
   4   2  -8 1195.37 216.922   4
  -4  -2   7 680.059 169.637  11
   4   2  -7 615.154 173.436   3
  -4  -2   7 460.616 130.428   8
   4   2  -7 897.305 197.470   4
  -4  -2   6 891.733 137.090   6
  -4  -2   6 780.440 171.111  11
  -4  -2   6 935.170 113.557   5
   4   2  -6 931.249 176.785   3
  -4  -2   6 1058.91 180.595   8
   4   2  -6 1109.27 189.286   4
  -4  -2   5 715.503 133.135   6
  -4  -2   5 831.580 161.392  11
  -4  -2   5 736.577 108.757   5
   4   2  -5 914.038 164.964   3
  -4  -2   5 609.035 155.059   8
   4   2  -5 441.100 112.068   4
  -4  -2   4 23131.8 609.443   6
   4   2  -4 23603.0 625.144   3
  -4  -2   4 24617.3 687.411  11
  -4  -2   4 24135.0 497.742   5
   4   2  -4 22864.3 663.953   4
   4   2  -4 20849.1 282.382   7
  -4  -2   3 3896.24 257.428   6
   4   2  -3 4365.85 267.035   3
  -4  -2   3 4081.04 280.074  11
  -4  -2   3 4158.12 212.166   5
   4   2  -3 4196.56 285.740   4
  -4  -2   2 9945.96 402.725   6
   4   2  -2 10197.9 374.345   3
   4   2  -2 9918.87 329.016   5
  -4  -2   2 9894.71 412.586  11
  -4  -2   2 9902.69 322.975   5
   4   2  -2 9870.90 407.436   4
  -4  -2   1 6098.03 318.543   6
   4   2  -1 6424.46 282.938   3
   4   2  -1 6167.34 264.675   5
  -4  -2   1 6711.25 335.121  11
  -4  -2   1 6509.03 266.369   5
   4   2  -1 6454.73 319.928   4
   4   2   0 10165.7 340.276   3
  -4  -2   0 9643.96 396.388   6
   4   2   0 9516.82 330.284   5
  -4  -2   0 9382.99 378.143  11
  -4  -2   0 9839.00 332.265   5
   4   2   0 10288.5 386.742   4
   4   2   1 4438.56 220.071   3
  -4  -2  -1 3624.77 255.929   6
   4   2   1 4172.79 231.043   5
  -4  -2  -1 4081.44 253.143  11
  -4  -2  -1 4280.48 231.932   5
  -4  -2  -1 3894.59 253.109  10
   4   2   1 4215.33 245.224   4
   4   2   2 8740.03 297.558   3
  -4  -2  -2 8592.97 377.635   6
  -4  -2  -2 8345.46 330.595   5
  -4  -2  -2 8981.00 374.410  10
   4   2   2 8174.26 323.621   4
  -4  -2  -3 1052.87 148.716   1
  -4  -2  -3 995.435 145.614   6
   4   2   3 928.011 152.454   2
   4   2   3 1021.42 112.661   3
  -4  -2  -3 1140.33 154.907  10
  -4  -2  -3 1048.08 142.833   5
   4   2   3 1077.40 130.855   4
  -4  -2  -3 897.845 62.5366   7
   4   2   4 3147.81 188.473   3
  -4  -2  -4 2516.95 215.037   6
  -4  -2  -4 2796.79 226.508   1
  -4  -2  -4 3042.90 236.676  10
  -4  -2  -4 2950.92 220.801   5
   4   2   4 2993.29 193.817   4
   4   2   4 2706.52 221.411   2
  -4  -2  -4 2843.62 133.116   7
  -4  -2  -5 25731.3 648.813   1
  -4  -2  -5 25513.5 641.440   6
  -4  -2  -5 25942.8 666.421  10
  -4  -2  -5 24994.5 634.370   5
  -4  -2  -5 26567.0 535.857   4
   4   2   5 25977.1 526.957   4
   4   2   5 26345.8 667.814   2
  -4  -2  -5 25747.5 450.878   7
  -4  -2  -6 1291.05 165.616   6
  -4  -2  -6 1482.09 183.978  10
  -4  -2  -6 1204.41 159.445   1
   4   2   6 1380.20 176.827   2
   4   2   6 1460.90 136.562   4
  -4  -2  -6 1410.95 132.035   4
  -4  -2  -6 1333.19 126.872   7
   4   2   7 668.622 103.289   4
  -4  -2  -7 651.296 109.769   7
  -4  -2  -7 676.505 140.322   1
  -4  -2  -7 556.760 124.944   6
  -4  -2  -7 930.804 160.148  10
   4   2   7 667.300 150.723   2
  -4  -2  -7 756.800 102.470   4
  -4  -2  -8 766.213 125.503   7
   4   2   8 749.050 109.056   4
  -4  -2  -8 1084.17 155.548   6
  -4  -2  -8 684.655 153.612  10
   4   2   8 732.341 145.522   2
  -4  -2  -8 837.628 152.964   1
  -4  -2  -9 18646.0 557.466   6
  -4  -2  -9 18892.8 645.629  10
  -4  -2  -9 18626.7 629.779   1
  -4  -2  -9 18397.3 548.582   7
   4   2   9 18935.8 653.490   2
  -4  -2 -10 1102.97 168.427   7
  -4  -2 -10 986.642 188.633  10
   4   2  10 1194.15 206.893   2
  -4  -2 -10 1133.88 180.535   1
  -4  -2 -11 9756.20 503.941  10
  -4  -2 -11 9198.26 490.279   1
  -4  -2 -11 9619.61 459.016   7
   4   2  11 10041.1 514.266   2
  -4  -2 -12 1223.81 204.066   7
  -4  -2 -12 1255.92 206.137   1
  -4  -2 -12 1436.70 222.032  10
  -4  -2 -13 514.828 151.755   7
   4   3  -9 1396.79 246.185   3
   4   3  -8 4229.19 342.878   3
  -4  -3   8 3944.68 339.236  11
   4   3  -8 3968.32 349.558   4
  -4  -3   7 247.859 92.6109   6
  -4  -3   7 264.148 135.473  11
  -4  -3   7 406.203 101.583   5
   4   3  -7 219.535 137.653   3
   4   3  -7 303.534 131.898   4
  -4  -3   6 1384.04 172.255   6
  -4  -3   6 1365.62 198.760  11
  -4  -3   6 1428.11 153.759   5
   4   3  -6 1645.10 205.489   3
   4   3  -6 1286.88 212.800   4
  -4  -3   5 2288.96 207.669   6
   4   3  -5 2505.43 230.426   3
  -4  -3   5 2460.14 187.905   5
  -4  -3   5 2654.79 253.162  11
   4   3  -5 2359.02 242.861   4
  -4  -3   4 2710.56 225.788   6
  -4  -3   4 2566.17 243.758  11
  -4  -3   4 2289.18 182.891   5
   4   3  -4 2285.18 209.744   3
   4   3  -4 2251.50 234.484   4
  -4  -3   3 14360.1 495.742   6
   4   3  -3 14697.9 465.384   3
  -4  -3   3 14393.8 509.978  11
  -4  -3   3 14571.4 427.542   5
   4   3  -3 14059.8 517.322   4
  -4  -3   2 7832.61 363.992   6
   4   3  -2 8186.93 328.137   3
  -4  -3   2 7879.63 366.728  11
  -4  -3   2 7361.09 306.810   5
   4   3  -2 7823.46 378.562   4
  -4  -3   1 16358.3 526.484   6
   4   3  -1 15861.9 426.728   3
  -4  -3   1 15491.5 494.051  11
  -4  -3   1 16251.6 452.568   5
   4   3  -1 15727.1 507.311   4
  -4  -3   0 3257.36 246.155   6
   4   3   0 3486.76 198.888   3
  -4  -3   0 3532.14 239.779  11
  -4  -3   0 3473.72 220.988   5
  -4  -3   0 3485.45 236.472  10
   4   3   0 3133.27 233.666   4
  -4  -3  -1 918.921 139.851   6
  -4  -3  -1 759.503 126.621  11
  -4  -3  -1 809.205 135.812  10
   4   3   1 629.216 90.6776   3
  -4  -3  -1 720.764 117.500   5
   4   3   1 933.068 147.822   4
  -4  -3  -2 591.364 129.796   6
   4   3   2 601.258 89.7572   3
  -4  -3  -2 862.389 141.057  10
  -4  -3  -2 628.593 118.493   5
   4   3   2 675.099 131.774   4
   4   3   3 5634.38 219.866   3
  -4  -3  -3 5942.00 323.839   6
  -4  -3  -3 5315.61 290.757   5
  -4  -3  -3 5280.25 300.388  10
   4   3   3 5564.55 283.594   4
   4   3   4 8903.05 276.781   3
  -4  -3  -4 9144.56 397.665   6
  -4  -3  -4 8791.53 374.377   1
  -4  -3  -4 8829.00 380.625   5
  -4  -3  -4 8777.57 385.068  10
   4   3   4 8853.26 342.035   4
   4   3   4 9205.98 404.766   2
  -4  -3  -4 8621.21 210.455   7
   4   3   5 1625.19 128.682   3
  -4  -3  -5 1594.85 181.239   6
   4   3   5 1654.14 198.064   2
  -4  -3  -5 1865.93 199.863  10
  -4  -3  -5 1592.57 180.480   5
  -4  -3  -5 1445.73 172.017   1
   4   3   5 1831.04 166.441   4
  -4  -3  -5 1512.36 116.229   7
  -4  -3  -6 4256.39 280.091   1
  -4  -3  -6 3646.18 262.507   6
   4   3   6 3600.02 194.661   3
  -4  -3  -6 4011.92 284.582  10
  -4  -3  -6 3634.32 266.467   5
   4   3   6 4307.84 240.824   4
   4   3   6 3693.64 277.536   2
  -4  -3  -6 3892.27 199.150   7
  -4  -3  -7 2261.44 210.739   6
  -4  -3  -7 1873.16 200.001   1
  -4  -3  -7 1968.04 219.130  10
   4   3   7 1758.39 205.901   2
   4   3   7 1995.45 170.297   4
  -4  -3  -7 1898.46 159.301   7
  -4  -3  -8 8565.93 389.770   6
  -4  -3  -8 9137.10 447.815  10
   4   3   8 8556.06 329.558   4
   4   3   8 8984.00 442.853   2
  -4  -3  -8 8790.72 418.570   1
  -4  -3  -8 8852.73 355.505   7
  -4  -3  -9 2016.87 198.995   6
  -4  -3  -9 2364.73 254.994  10
   4   3   9 1717.95 223.458   2
  -4  -3  -9 2233.88 234.399   1
   4   3   9 2245.94 182.294   4
  -4  -3  -9 2375.20 205.793   7
  -4  -3 -10 2100.82 215.580   7
  -4  -3 -10 2346.59 220.053   6
  -4  -3 -10 2037.03 240.954  10
  -4  -3 -10 2453.18 253.378   1
   4   3  10 2793.36 281.456   2
  -4  -3 -11 12230.7 572.456  10
  -4  -3 -11 12170.5 552.263   1
  -4  -3 -11 11942.5 506.456   7
   4   3  11 11964.2 567.908   2
  -4  -3 -12 1949.61 240.054   7
  -4  -3 -12 2075.60 263.493   1
  -4  -3 -13 627.577 169.456   7
   4   4  -9 1953.23 256.829   3
  -4  -4   8-35.5418 140.866  11
   4   4  -8 121.014 141.818   3
   4   4  -8-77.0305 119.560   4
  -4  -4   7 343.444 110.379   6
  -4  -4   7 379.905 157.104  11
  -4  -4   7 458.766 107.078   5
   4   4  -7 764.042 173.285   3
   4   4  -7 494.987 152.484   4
  -4  -4   6 1602.64 183.253   6
  -4  -4   6 2101.43 245.368  11
  -4  -4   6 1340.13 161.316   5
   4   4  -6 1764.21 206.837   3
   4   4  -6 1603.72 227.233   4
  -4  -4   5 2742.52 236.496   6
   4   4  -5 2773.24 242.266   3
  -4  -4   5 2610.66 252.019  11
  -4  -4   5 2527.32 207.665   5
   4   4  -5 2427.53 254.616   4
  -4  -4   4 798.111 141.788   6
  -4  -4   4 733.039 144.020  11
  -4  -4   4 1059.03 138.880   5
   4   4  -4 791.889 132.551   3
   4   4  -4 931.774 163.041   4
  -4  -4   3 8535.11 398.408   6
   4   4  -3 8012.09 334.063   3
  -4  -4   3 8199.46 391.844  11
  -4  -4   3 8055.32 348.547   5
   4   4  -3 8148.29 415.701   4
  -4  -4   2 16564.9 445.576   3
  -4  -4   2 17454.7 558.967   6
   4   4  -2 17847.6 463.875   3
  -4  -4   2 17091.4 536.927  11
  -4  -4   2 16671.8 494.528   5
   4   4  -2 17150.7 567.503   4
  -4  -4   1 6550.70 348.272   6
   4   4  -1 6678.17 266.544   3
  -4  -4   1 7166.13 338.627  11
  -4  -4   1 7162.06 329.085   5
   4   4  -1 6571.01 348.795   4
  -4  -4   0 7096.52 356.270   6
   4   4   0 7049.76 254.590   3
  -4  -4   0 7375.15 332.804  11
  -4  -4   0 7494.95 337.041   5
  -4  -4   0 7245.09 331.282  10
   4   4   0 7159.00 354.095   4
  -4  -4  -1 19535.2 590.137   6
   4   4   1 21016.6 404.098   3
  -4  -4  -1 21868.5 550.931  11
  -4  -4  -1 20912.4 564.385   5
  -4  -4  -1 21010.9 562.541  10
   4   4   1 21208.3 583.510   4
  -4  -4  -2 20493.9 604.409   6
   4   4   2 20442.7 375.245   3
  -4  -4  -2 20458.4 565.781   5
  -4  -4  -2 20448.4 570.101  10
   4   4   2 20644.1 567.097   4
  -4  -4  -3 27025.6 690.931   6
   4   4   3 27290.7 414.969   3
  -4  -4  -3 27862.1 677.184   5
  -4  -4  -3 27146.9 668.577  10
   4   4   3 26757.9 634.600   4
   4   4   4 2602.33 132.633   3
  -4  -4  -4 2962.17 244.459   6
  -4  -4  -4 2859.39 235.795   5
  -4  -4  -4 2748.44 229.643  10
  -4  -4  -4 2754.69 217.673   1
   4   4   4 2476.41 203.582   4
  -4  -4  -4 2635.42 117.186   7
   4   4   5 15187.9 319.452   3
  -4  -4  -5 15272.0 523.844   6
  -4  -4  -5 15354.2 500.948   1
  -4  -4  -5 16012.7 547.063   5
  -4  -4  -5 15923.0 543.961  10
   4   4   5 15557.7 539.625   2
   4   4   5 15557.6 477.689   4
  -4  -4  -5 15204.2 334.824   7
  -4  -4  -6 8837.47 394.974   1
  -4  -4  -6 7918.77 384.033   6
  -4  -4  -6 8263.56 408.852  10
  -4  -4  -6 8086.02 409.137   5
   4   4   6 8252.96 412.686   2
   4   4   6 8687.32 361.486   4
  -4  -4  -6 8211.36 284.224   7
   4   4   7 1642.39 174.431   4
  -4  -4  -7 1410.49 139.417   7
  -4  -4  -7 1372.15 180.958   6
  -4  -4  -7 1458.78 198.836  10
   4   4   7 1467.38 203.672   2
  -4  -4  -7 1476.86 199.861   5
  -4  -4  -7 1551.18 179.450   1
  -4  -4  -8 1562.15 154.051   7
   4   4   8 1601.01 170.578   4
  -4  -4  -8 1550.39 186.288   6
  -4  -4  -8 1788.41 217.944   1
  -4  -4  -8 1537.39 206.400  10
   4   4   8 1538.93 208.733   2
  -4  -4  -8 1479.59 211.818   5
  -4  -4  -9 3632.98 272.351   6
  -4  -4  -9 3782.33 325.945  10
   4   4   9 3481.06 239.168   4
   4   4   9 3464.45 301.120   2
  -4  -4  -9 3270.43 269.630   1
  -4  -4  -9 3719.39 252.888   7
  -4  -4 -10 1691.49 193.259   7
  -4  -4 -10 1949.30 205.605   6
  -4  -4 -10 2048.82 258.455  10
   4   4  10 1484.88 226.876   2
  -4  -4 -10 1614.27 221.278   1
  -4  -4 -11 886.875 169.470   7
  -4  -4 -11 1218.39 212.288  10
   4   4  11 1314.80 218.740   2
  -4  -4 -11 1218.82 233.715   1
  -4  -4 -12-13.4557 116.888   7
  -4  -4 -12 39.4289 112.806   1
   4   5  -9 961.948 204.670   3
  -4  -5   8 915.996 163.542   5
   4   5  -8 904.082 206.740   3
  -4  -5   7 2539.49 236.428   6
  -4  -5   7 2268.67 261.481  11
  -4  -5   7 1973.50 218.794   5
   4   5  -7 2623.10 257.825   3
   4   5  -7 2324.03 272.543   4
  -4  -5   6 509.087 133.689   6
  -4  -5   6 338.812 127.500  11
  -4  -5   6 444.610 133.371   5
   4   5  -6 760.213 149.107   3
   4   5  -6 718.881 191.495   4
  -4  -5   5 1397.97 185.101   6
  -4  -5   5 966.113 169.988  11
  -4  -5   5 912.271 147.946   5
   4   5  -5 1238.08 172.734   3
   4   5  -5 1153.13 194.334   4
  -4  -5   4 692.045 144.487   6
  -4  -5   4 647.535 150.869  11
  -4  -5   4 767.625 139.711   5
   4   5  -4 617.375 131.582   3
   4   5  -4 665.664 155.261   4
  -4  -5   3 3970.17 287.730   6
   4   5  -3 3704.82 234.008   3
  -4  -5   3 3697.60 269.130  11
  -4  -5   3 3773.47 263.116   5
   4   5  -3 3564.30 292.101   4
  -4  -5   2 2747.40 238.970   6
   4   5  -2 2412.28 175.239   3
  -4  -5   2 2660.19 223.517  11
  -4  -5   2 2700.55 225.318   5
   4   5  -2 2135.09 227.653   4
  -4  -5   1 4164.29 298.428   6
   4   5  -1 4483.13 213.671   3
  -4  -5   1 4889.25 284.017  11
  -4  -5   1 5034.10 297.383   5
   4   5  -1 4568.55 305.202   4
  -4  -5   0 3259.49 258.816   6
   4   5   0 3141.09 161.043   3
  -4  -5   0 3432.33 236.006  11
  -4  -5   0 2966.35 237.240   5
  -4  -5   0 2996.77 220.450  10
   4   5   0 2949.16 247.553   4
  -4  -5  -1 908.872 157.679   6
  -4  -5  -1 826.143 128.427  11
  -4  -5  -1 987.912 148.718  10
  -4  -5  -1 1035.14 160.185   5
   4   5   1 887.451 83.8690   3
   4   5   1 922.117 163.417   4
  -4  -5  -2 355.855 117.566   6
  -4  -5  -2 432.409 120.840  10
  -4  -5  -2 235.671 100.341   5
   4   5   2 329.924 48.9016   3
   4   5   2 406.981 125.810   4
  -4  -5  -3 2007.04 213.016   6
   4   5   3 1973.69 85.4487   3
  -4  -5  -3 2158.39 214.781   5
  -4  -5  -3 2263.18 211.801  10
   4   5   3 2411.67 216.218   4
  -4  -5  -4 14275.8 529.000   6
  -4  -5  -4 15140.0 539.121   5
  -4  -5  -4 13932.4 508.705  10
   4   5   4 15166.2 506.912   4
  -4  -5  -4 14009.8 270.475   7
  -4  -5  -5 2036.50 219.453   6
   4   5   5 1302.17 180.087   2
  -4  -5  -5 1408.43 187.178  10
  -4  -5  -5 1423.11 192.255   5
  -4  -5  -5 1460.38 166.746   1
  -4  -5  -5 1381.87 109.953   7
   4   5   5 1220.06 160.404   4
  -4  -5  -6 2732.11 241.882   6
  -4  -5  -6 2227.46 206.097   1
   4   5   6 2435.27 237.586   2
  -4  -5  -6 2442.17 237.897  10
  -4  -5  -6 2401.80 239.128   5
   4   5   6 2462.34 222.521   4
  -4  -5  -6 2289.13 160.358   7
   4   5   7 813.090 150.332   4
  -4  -5  -7 465.370 97.3999   7
  -4  -5  -7 428.240 126.015   6
  -4  -5  -7 527.698 124.528   1
   4   5   7 557.906 155.582   2
  -4  -5  -7 189.957 102.241  10
  -4  -5  -7 424.292 135.691   5
  -4  -5  -8 321.755 101.376   7
   4   5   8 330.377 126.125   4
  -4  -5  -8 67.2306 92.1926   6
  -4  -5  -8 687.376 171.754  10
   4   5   8 396.663 129.591   2
  -4  -5  -8 303.911 134.414   5
  -4  -5  -8 288.502 116.363   1
  -4  -5  -9 570.213 127.021   7
   4   5   9 399.092 121.868   4
  -4  -5  -9 609.687 140.790   6
  -4  -5  -9 278.197 108.586   1
  -4  -5  -9 815.865 173.622  10
   4   5   9 366.029 148.409   2
  -4  -5 -10-38.7902 88.8587   7
  -4  -5 -10 168.858 120.272   1
  -4  -5 -10-2.81979 89.0653   6
  -4  -5 -10-177.586 151.331  10
   4   5  10 278.302 152.990   2
  -4  -5 -11 3536.65 303.567   1
  -4  -5 -11 3062.74 273.257   7
   4   5  11 3896.76 337.962   2
  -4  -5 -12 1570.73 220.557   7
  -4  -5 -12 1487.05 218.939   1
  -4  -6   8 1048.89 188.808   5
   4   6  -8 651.458 186.823   3
  -4  -6   7 303.798 126.640   6
  -4  -6   7 547.271 166.042  11
  -4  -6   7 138.130 123.009   5
   4   6  -7 342.971 140.559   3
  -4  -6   6 2552.85 252.957   6
  -4  -6   6 3033.69 284.650  11
  -4  -6   6 3419.17 287.111   5
   4   6  -6 2784.08 245.697   3
   4   6  -6 2903.54 302.539   4
  -4  -6   5 1003.90 164.825   6
  -4  -6   5 1236.42 191.892  11
  -4  -6   5 1501.81 195.595   5
   4   6  -5 1272.43 174.452   3
   4   6  -5 913.734 192.759   4
  -4  -6   4 496.721 134.471   6
  -4  -6   4 591.100 146.705  11
  -4  -6   4 440.591 122.810   5
   4   6  -4 757.801 134.279   3
   4   6  -4 478.310 153.653   4
  -4  -6   3 1692.36 211.829   6
  -4  -6   3 2066.17 214.882  11
  -4  -6   3 1991.80 222.606   5
   4   6  -3 1728.35 162.277   3
   4   6  -3 2157.73 240.916   4
  -4  -6   2 1069.87 178.725   6
  -4  -6   2 1056.93 149.628  11
  -4  -6   2 1305.07 185.737   5
   4   6  -2 1250.90 198.637   4
  -4  -6   1 4570.49 320.319   6
  -4  -6   1 4009.47 258.287  11
  -4  -6   1 3921.66 284.632   5
  -4  -6   1 4298.96 257.586  10
   4   6  -1 4261.38 310.444   4
  -4  -6   0 3448.81 284.336   6
  -4  -6   0 3747.74 244.254  11
  -4  -6   0 3502.57 271.663   5
  -4  -6   0 3295.09 234.418  10
   4   6   0 3335.86 278.342   4
  -4  -6  -1 2377.74 239.932   6
  -4  -6  -1 2303.82 186.785  11
  -4  -6  -1 2389.76 232.166   5
  -4  -6  -1 2285.81 204.639  10
   4   6   1 2334.71 235.340   4
  -4  -6  -2 3069.52 273.930   6
  -4  -6  -2 3024.67 257.681   5
  -4  -6  -2 2916.54 232.045  10
   4   6   2 2841.37 249.177   4
  -4  -6  -3 1291.34 186.851   6
  -4  -6  -3 1196.43 163.853  10
  -4  -6  -3 1166.53 171.619   5
   4   6   3 1363.38 191.722   4
  -4  -6  -4 2850.33 260.718   6
  -4  -6  -4 2790.83 259.548   5
  -4  -6  -4 2204.59 229.692  10
   4   6   4 2181.70 218.456   4
  -4  -6  -5 4295.21 313.028   6
  -4  -6  -5 4390.83 323.638   5
  -4  -6  -5 4489.52 313.591  10
   4   6   5 4735.46 323.554   2
   4   6   5 5042.96 316.033   4
  -4  -6  -5 4337.64 194.834   7
   4   6   6 403.017 134.572   4
  -4  -6  -6 184.284 71.8743   7
  -4  -6  -6 341.583 127.829   6
   4   6   6 139.730 100.037   2
  -4  -6  -6 159.748 99.6281  10
  -4  -6  -6 115.117 93.5307   1
  -4  -6  -6 242.824 130.301   5
  -4  -6  -7 825.164 118.416   7
   4   6   7 967.582 162.969   4
  -4  -6  -7 967.537 150.655   1
  -4  -6  -7 901.801 175.006   6
   4   6   7 890.395 181.078   2
  -4  -6  -7 976.011 179.155  10
  -4  -6  -7 864.407 187.290   5
  -4  -6  -8 927.426 141.476   7
   4   6   8 804.805 153.927   4
  -4  -6  -8 831.246 152.394   6
  -4  -6  -8 1007.67 156.217   1
  -4  -6  -8 1151.68 208.698  10
   4   6   8 1095.21 191.323   2
  -4  -6  -8 1062.81 201.429   5
  -4  -6  -9 77.4240 91.7405   7
   4   6   9 146.164 112.308   4
  -4  -6  -9 147.910 103.645   6
  -4  -6  -9 126.621 114.897  10
   4   6   9 374.197 152.965   2
  -4  -6  -9-169.781 132.857   5
  -4  -6  -9 153.495 105.927   1
  -4  -6 -10 160.075 103.824   7
   4   6  10 92.2530 112.842   4
  -4  -6 -10-24.4890 114.841   6
  -4  -6 -10 247.180 126.421   1
   4   6  10 295.947 151.693   2
  -4  -6 -11 2306.60 244.333   7
  -4  -6 -11 1871.50 225.059   1
  -4  -7   7 675.215 155.077   6
  -4  -7   7 1142.35 214.687  11
  -4  -7   7 1030.74 176.549   5
  -4  -7   6 877.108 175.175   6
  -4  -7   6 1252.07 204.327  11
  -4  -7   6 1229.68 201.183   5
  -4  -7   5 249.170 131.678   6
  -4  -7   5 265.122 124.211  11
  -4  -7   5 159.284 128.947   5
   4   7  -5 126.946 148.929   4
  -4  -7   4 1990.28 242.386   6
  -4  -7   4 1903.29 216.978  11
  -4  -7   4 2132.21 242.954   5
   4   7  -4 2272.49 271.637   4
  -4  -7   3 1346.14 196.888   6
  -4  -7   3 1194.75 164.036  11
  -4  -7   3 1209.21 197.942   5
   4   7  -3 1333.04 206.842   4
  -4  -7   2 850.328 177.589   6
  -4  -7   2 1155.12 167.475  11
  -4  -7   2 920.319 171.439   5
   4   7  -2 1173.08 197.851   4
  -4  -7   1 2101.31 232.039   6
  -4  -7   1 2112.91 193.632  11
  -4  -7   1 2362.31 191.090  10
  -4  -7   1 2314.60 234.120   5
   4   7  -1 2385.42 262.918   4
  -4  -7   0 1059.87 182.358   6
  -4  -7   0 814.038 129.546  11
  -4  -7   0 717.538 131.518  10
  -4  -7   0 912.282 168.132   5
   4   7   0 1098.80 187.397   4
  -4  -7  -1 477.026 146.472   6
  -4  -7  -1 626.128 128.273  10
  -4  -7  -1 994.939 167.514   5
   4   7   1 501.492 151.120   4
  -4  -7  -2 829.257 163.548   6
  -4  -7  -2 707.297 132.849  10
  -4  -7  -2 1023.55 174.906   5
   4   7   2 1293.93 186.593   4
  -4  -7  -3 2684.20 270.192   6
  -4  -7  -3 2913.65 267.504   5
  -4  -7  -3 2648.60 231.053  10
   4   7   3 2882.00 267.878   4
  -4  -7  -4 640.064 161.787   6
  -4  -7  -4 382.990 142.811  10
  -4  -7  -4 510.119 141.649   5
   4   7   4 572.988 155.692   4
  -4  -7  -5 973.225 172.437   6
  -4  -7  -5 1504.22 201.301  10
  -4  -7  -5 1666.96 220.158   5
   4   7   5 1522.71 200.132   4
   4   7   6 689.483 155.316   4
  -4  -7  -6 431.455 147.416   6
   4   7   6 216.627 127.612   2
  -4  -7  -6 532.046 159.878  10
  -4  -7  -6 537.962 156.142   5
   4   7   7 867.758 171.326   4
  -4  -7  -7 1134.60 186.693   6
   4   7   7 1122.16 193.574   2
  -4  -7  -7 1274.30 200.545  10
  -4  -7  -7 1293.46 163.048   1
  -4  -7  -7 1222.81 211.377   5
   4   7   8 792.853 169.728   4
  -4  -7  -8 702.290 151.217   6
  -4  -7  -8 644.117 163.613  10
   4   7   8 608.791 170.422   2
  -4  -7  -8 752.045 134.969   1
  -4  -7  -8 711.245 179.905   5
   4   7   9 1125.64 199.823   4
  -4  -7  -9 576.768 148.076   6
   4   7   9 1059.96 201.003   2
   4   7  10 769.172 171.747   4
  -4  -7 -10 1358.37 204.079   6
  -4  -8   6 460.805 158.297   6
  -4  -8   6 435.543 150.127  11
  -4  -8   5 476.275 172.347   6
  -4  -8   5 664.003 173.760  11
  -4  -8   5 1055.94 199.436   5
  -4  -8   4 2273.08 263.652   6
  -4  -8   4 2441.37 244.417  11
  -4  -8   4 2224.61 260.524   5
  -4  -8   3 7041.77 433.306   6
  -4  -8   3 6870.93 365.170  11
  -4  -8   3 6912.17 426.373   5
   4   8  -3 7248.24 458.886   4
  -4  -8   2 13556.8 593.366   6
  -4  -8   2 13810.5 586.769   5
   4   8  -2 13313.6 599.154   4
  -4  -8   1 9066.50 487.464   6
  -4  -8   1 8138.72 448.309   5
   4   8  -1 8500.02 471.660   4
  -4  -8   0 6055.54 405.245   6
  -4  -8   0 6169.58 398.097   5
  -4  -8   0 6015.11 312.305  10
   4   8   0 6694.29 414.163   4
  -4  -8  -1 1223.06 209.989   6
  -4  -8  -1 988.507 151.704  10
  -4  -8  -1 875.921 172.025   5
   4   8   1 1110.64 195.718   4
  -4  -8  -2 2027.37 244.774   6
  -4  -8  -2 2236.25 216.366  10
  -4  -8  -2 2090.24 239.394   5
   4   8   2 2473.84 267.408   4
  -4  -8  -3 356.176 143.374   6
  -4  -8  -3 507.157 141.813  10
  -4  -8  -3 684.709 173.180   5
   4   8   3 542.719 156.237   4
  -4  -8  -4 1840.07 243.637   6
  -4  -8  -4 1071.53 176.418  10
  -4  -8  -4 1454.12 205.803   5
   4   8   4 1290.41 197.302   4
   4   8   5 356.701 145.986   4
  -4  -8  -5 189.190 122.536   6
  -4  -8  -5 376.320 147.887  10
  -4  -8  -5 244.190 116.669   5
   4   8   6 282.976 147.877   4
  -4  -8  -6 180.874 132.844   6
   4   8   6 417.815 140.089   2
  -4  -8  -6 505.609 165.726  10
  -4  -8  -6 225.171 135.831   5
   4   8   7 1512.43 228.643   4
  -4  -8  -7 1134.33 196.131   6
   4   8   7 1818.14 245.463   2
  -4  -8  -7 1528.17 226.361  10
   4   8   8 2705.45 280.534   4
  -4  -8  -8 2430.59 270.725   6
   4   8   8 2503.05 279.844   2
   4   8   9 446.974 153.799   4
  -4  -8  -9 75.0324 117.728   6
  -4  -9   2 3023.95 310.175   6
  -4  -9   2 3138.65 310.269   5
  -4  -9   1 413.551 158.873   6
  -4  -9   1 433.613 174.206   5
  -4  -9   0 1139.22 201.204   6
  -4  -9   0 933.581 185.607   5
   4   9   0 1271.98 216.414   4
  -4  -9  -1 2893.52 305.574   6
  -4  -9  -1 3046.96 302.790   5
  -4  -9  -1 3015.23 241.989  10
   4   9   1 2926.20 302.180   4
  -4  -9  -2 1686.57 246.679   6
  -4  -9  -2 1373.94 184.122  10
  -4  -9  -2 1247.59 213.400   5
   4   9   2 1214.77 217.110   4
  -4  -9  -3 395.399 147.637   6
  -4  -9  -3 657.938 142.773  10
  -4  -9  -3 694.022 169.600   5
   4   9   3 640.697 169.901   4
  -4  -9  -4 888.555 183.790   6
  -4  -9  -4 935.409 177.630  10
  -4  -9  -4 1465.40 233.903   5
   4   9   4 1129.46 208.472   4
  -4  -9  -5 4019.00 355.582   6
  -4  -9  -5 2861.11 282.581  10
   4   9   5 3705.48 335.112   4
  -4  -9  -6 1293.89 223.064  10
  -4 -10  -3 1191.60 178.431  10
  -4 -10  -4 367.312 153.117  10
  -4 -10  -5 2450.65 267.744  10
  -5   9  -1-2.27851 138.754   8
  -5   8   0 1236.26 210.790   8
  -5   8  -1 744.127 170.523   8
  -5   8  -2 2823.52 268.448   8
  -5   8  -5-23.3964 142.908   1
  -5   7   2 963.596 191.101   8
  -5   7   1 222.238 130.226   8
  -5   7   0 223.101 129.205   8
   5  -7   1 1964.26 270.050   3
  -5   7  -1 2349.86 274.781   9
  -5   7  -1 1866.96 228.668   8
   5  -7   2 278.179 148.773   3
  -5   7  -2 420.053 164.504   9
  -5   7  -2 308.997 135.869   8
  -5   7  -3 1549.42 235.054   9
  -5   7  -3 2195.24 220.511   8
  -5   7  -4 1418.92 204.568   1
  -5   7  -5 1018.94 186.759   1
  -5   7  -6 1175.23 198.299   1
  -5   7  -7 543.850 169.203   1
   5  -7   7 485.819 166.666   2
   5  -7   8 1043.05 214.497   2
  -5   6   5-11.0571 131.288  11
  -5   6   5 154.452 134.571   9
  -5   6   4 410.541 156.036   9
  -5   6   3 5319.89 383.775   9
  -5   6   3 5088.73 384.030   8
   5  -6  -2 467.979 177.786   3
  -5   6   2 383.318 125.127   9
  -5   6   2 400.109 140.902   8
   5  -6  -1 739.202 182.428   3
  -5   6   1 582.410 148.997   9
  -5   6   1 494.937 154.161   8
   5  -6   0 48.2258 122.565   3
  -5   6   0-68.1165 136.981   9
  -5   6   0 236.331 138.354   8
   5  -6   1 1029.56 183.436   3
  -5   6  -1 1065.58 193.038   9
  -5   6  -1 476.819 134.776   8
   5  -6   2 2125.81 258.083   3
  -5   6  -2 2075.10 251.370   9
  -5   6  -2 2101.87 224.932   8
   5  -6   3 1544.24 227.569   3
  -5   6  -3 1781.96 239.469   9
  -5   6  -3 1911.91 216.641   8
   5  -6   4 1401.35 218.885   3
  -5   6  -4 1334.81 190.837   1
  -5   6  -4 1479.74 217.277   9
  -5   6  -4 1363.26 167.351   8
   5  -6   5 3051.49 261.572   2
  -5   6  -5 3262.20 294.440   1
  -5   6  -5 3155.74 302.486   9
  -5   6  -6 1105.54 194.718   1
  -5   6  -6 1096.03 204.946   9
   5  -6   6 1391.53 205.131   2
  -5   6  -7 52.2843 130.712   7
  -5   6  -7 181.509 136.356   9
   5  -6   7 192.204 136.574   2
  -5   6  -7 230.989 161.903   1
   5  -6   8 3727.52 333.637   2
  -5   6  -8 4259.31 345.724   9
  -5   6  -8 3829.00 339.459   7
  -5   5   6 1409.73 219.517   9
  -5   5   5 1260.27 213.095  11
  -5   5   5 1089.89 202.694   9
  -5   5   4 1957.48 249.333  11
   5  -5  -4 1249.53 221.622   3
  -5   5   4 1885.36 242.494   9
  -5   5   4 1647.76 237.695   8
   5  -5  -3 140.099 130.346   3
  -5   5   3 503.714 153.495   9
  -5   5   3 341.071 145.966   8
   5  -5  -2 105.884 127.203   3
  -5   5   2 7.40155 101.816   9
  -5   5   2 19.5104 109.336   8
   5  -5  -1 2943.65 299.493   3
  -5   5   1 2963.18 282.721   9
  -5   5   1 2647.14 262.309   8
   5  -5   0 4412.20 346.417   3
  -5   5   0 4373.92 337.421   9
  -5   5   0 4445.35 324.692   8
   5  -5   1 6671.62 419.448   3
  -5   5  -1 6315.58 403.360   9
  -5   5  -1 6613.78 376.588   8
   5  -5   2 14555.5 599.233   3
  -5   5  -2 14624.9 594.924   9
  -5   5  -2 15126.4 541.198   8
   5  -5   3 7253.28 336.516   2
   5  -5   3 7241.61 429.025   3
  -5   5  -3 6612.91 409.672   9
  -5   5  -3 6954.10 360.497   8
   5  -5   4 1351.27 213.336   3
  -5   5  -4 1516.79 218.884   9
   5  -5   4 1210.60 166.865   2
  -5   5  -4 1289.23 201.854   1
  -5   5  -4 1034.80 151.766   8
   5  -5   5 7287.09 379.864   2
  -5   5  -5 7967.60 439.277   1
  -5   5  -5 7696.64 439.754   9
  -5   5  -5 7365.21 340.409   8
   5  -5   6 11723.6 502.348   2
  -5   5  -6 12961.4 567.949   1
  -5   5  -6 11573.4 538.346   9
  -5   5  -6 11834.1 519.613   7
  -5   5  -7 2134.48 249.907   7
  -5   5  -7 1871.47 236.344   9
   5  -5   7 2359.70 264.364   2
  -5   5  -7 2291.14 276.932   1
  -5   5  -8 344.847 150.873   7
  -5   5  -8 327.508 159.156   1
  -5   5  -8 569.609 169.351   9
   5  -5   8 352.827 155.406   2
  -5   5  -9 35.5546 121.885   7
  -5   5  -9 119.874 136.860   9
   5  -5   9 312.065 179.003   2
  -5   5 -10 439.607 149.353   9
  -5   4   6 1152.50 195.873   9
  -5   4   5 239.485 135.337  11
   5  -4  -5 129.090 163.507   3
  -5   4   5 304.337 134.877   9
  -5   4   5 86.0480 122.064   8
  -5   4   4-1.34261 110.763  11
   5  -4  -4 37.3837 116.959   3
  -5   4   4 9.13541 99.6866   9
  -5   4   4 34.4143 113.195   8
  -5   4   3 3156.28 290.028  11
   5  -4  -3 2539.58 278.936   3
  -5   4   3 2679.37 269.537   9
  -5   4   3 2518.55 273.096   8
   5  -4  -2 2818.74 280.409   3
  -5   4   2 2784.03 277.768   9
  -5   4   2 3025.18 283.996   8
   5  -4  -1 55.4006 116.173   3
  -5   4   1 56.2018 99.9967   9
  -5   4   1-29.6122 103.652   8
   5  -4   0 1851.55 229.349   3
  -5   4   0 1839.05 235.745   9
  -5   4   0 1616.39 206.204   8
   5  -4   1 921.874 176.678   3
  -5   4  -1 1274.19 198.147   9
   5  -4   1 1268.08 149.560   2
  -5   4  -1 960.887 161.237   8
   5  -4   2 4279.09 327.513   3
  -5   4  -2 4007.62 311.647   9
   5  -4   2 3875.71 218.994   4
  -5   4  -2 4168.83 292.935   8
   5  -4   2 4392.60 254.605   2
   5  -4   3 9412.48 382.844   2
   5  -4   3 9063.65 463.922   3
  -5   4  -3 10532.3 481.293   1
  -5   4  -3 8314.96 442.131   9
  -5   4  -3 8765.53 395.793   8
   5  -4   4 4971.83 298.312   2
   5  -4   4 5120.24 356.394   3
  -5   4  -4 4586.01 330.278   1
  -5   4  -4 4862.17 343.296   9
  -5   4  -4 4888.43 290.532   8
   5  -4   5 18952.4 591.777   2
  -5   4  -5 20055.1 677.752   1
  -5   4  -5 18150.0 646.040   9
  -5   4  -6 925.624 166.176   7
  -5   4  -6 874.467 180.628   1
  -5   4  -6 1279.73 198.524   9
   5  -4   6 1214.49 186.126   2
  -5   4  -7 878.062 164.545   7
  -5   4  -7 928.139 175.728   9
  -5   4  -7 919.319 181.979   1
   5  -4   7 1004.30 188.340   2
  -5   4  -8 70.0087 123.860   7
  -5   4  -8 15.1248 137.652   1
  -5   4  -8-61.2723 124.156   9
   5  -4   8 187.352 134.017   2
  -5   4  -9-189.896 137.000   7
  -5   4  -9-48.1353 114.208   9
   5  -4   9 60.1534 147.490   2
  -5   4 -10 105.662 125.196   7
  -5   4 -10-186.616 128.502   9
  -5   3   6 830.504 180.582  11
  -5   3   6 655.726 153.677   9
  -5   3   5 63.6926 113.068  11
   5  -3  -5 187.084 145.211   3
  -5   3   5 53.8048 107.680   9
  -5   3   5 128.899 135.434   8
  -5   3   4 891.140 190.199  11
   5  -3  -4 938.232 186.535   3
  -5   3   4 1133.40 184.301   9
  -5   3   4 764.601 167.307   8
  -5   3   3 1099.16 193.846  11
   5  -3  -3 810.883 173.122   3
  -5   3   3 1014.24 178.962   9
  -5   3   3 729.281 169.106   8
  -5   3   2 132.521 118.619  11
   5  -3  -2 223.489 122.184   3
  -5   3   2 265.100 118.656   9
  -5   3   2 409.619 127.238   8
   5  -3  -1 675.518 161.464   3
  -5   3   1 598.865 152.189   9
  -5   3   1 343.574 114.794   8
   5  -3   0 214.693 104.350   3
   5  -3   0 537.627 100.765   2
  -5   3   0 388.051 132.842   9
  -5   3   0 312.642 119.768   8
   5  -3   1 3370.58 283.164   3
  -5   3  -1 3040.41 273.283   9
   5  -3   1 3001.14 212.363   4
  -5   3  -1 3025.15 254.163   8
   5  -3   1 3496.62 221.411   2
   5  -3   2 1008.46 173.380   3
   5  -3   2 1045.79 145.198   2
  -5   3  -2 1030.44 176.970   9
  -5   3  -2 904.683 166.391   8
   5  -3   2 943.861 118.324   4
   5  -3   3 10303.0 473.654   3
  -5   3  -3 10296.4 474.757   1
  -5   3  -3 11001.4 492.369   9
   5  -3   3 10492.9 316.490   4
  -5   3  -3 10165.5 421.597   8
   5  -3   3 10582.9 408.943   2
   5  -3   4 8515.39 429.220   3
  -5   3  -4 8906.78 443.931   1
  -5   3  -4 8448.41 437.793   9
  -5   3  -4 8764.00 379.961   8
   5  -3   4 8616.55 389.015   2
  -5   3  -5 3785.97 312.239   1
  -5   3  -5 4221.59 319.017   9
   5  -3   5 3805.73 276.535   2
  -5   3  -5 3907.40 259.311   7
  -5   3  -6 1725.27 224.023   1
  -5   3  -6 1641.39 192.122   7
  -5   3  -6 1573.42 208.240   9
   5  -3   6 1810.10 214.986   2
  -5   3  -7 1243.24 181.635   7
  -5   3  -7 1373.09 201.497   1
  -5   3  -7 1259.51 195.568   9
   5  -3   7 1638.75 218.189   2
  -5   3  -8 1298.51 186.070   7
  -5   3  -8 1147.06 204.280   1
  -5   3  -8 1530.47 209.738  10
  -5   3  -8 1513.43 209.114   9
   5  -3   8 1871.23 243.521   2
  -5   3  -9 997.251 205.733   1
  -5   3  -9 1302.52 198.500   7
  -5   3  -9 925.992 185.618  10
  -5   3  -9 1259.89 190.731   9
   5  -3   9 1179.83 216.086   2
  -5   3 -10 1607.91 240.319   7
  -5   3 -10 1585.38 232.075  10
  -5   3 -11 2216.30 267.150   7
  -5   3 -11 2103.13 263.620  10
  -5   2   6 3271.81 320.647  11
   5  -2  -6 3285.80 322.361   3
  -5   2   6 2908.82 301.741   8
  -5   2   5 1437.41 210.126  11
   5  -2  -5 1873.73 244.489   3
  -5   2   5 1784.84 240.301   8
  -5   2   4 214.388 133.780  11
   5  -2  -4 166.092 136.816   3
  -5   2   4-21.8435 118.989   9
  -5   2   4 144.301 122.620   8
  -5   2   3 223.660 111.065  11
   5  -2  -3 168.939 129.121   3
  -5   2   3 455.141 132.776   9
  -5   2   3 409.069 139.354   8
   5  -2  -2 5351.03 350.738   3
  -5   2   2 4735.52 337.513  11
  -5   2   2 4938.86 331.585   9
  -5   2   2 5018.31 348.024   8
   5  -2  -2 5032.52 243.042   2
   5  -2  -1 4737.09 325.652   3
  -5   2   1 3796.23 302.811  11
  -5   2   1 4634.84 327.601   9
   5  -2  -1 4377.45 286.079   4
  -5   2   1 4531.16 316.016   8
   5  -2  -1 4610.71 238.919   2
   5  -2   0 1011.93 178.125   3
   5  -2   0 773.410 119.832   2
  -5   2   0 1097.05 178.774   9
  -5   2   0 781.861 157.481   8
   5  -2   0 659.167 126.822   4
   5  -2   1-21.5702 107.893   3
   5  -2   1 122.139 82.2058   2
  -5   2  -1-20.5779 103.648   9
  -5   2  -1 149.751 104.075   8
   5  -2   1 32.0108 65.8113   4
   5  -2   2 700.322 147.591   3
   5  -2   2 884.618 139.347   2
  -5   2  -2 724.924 159.847   9
  -5   2  -2 948.306 161.691   8
   5  -2   2 817.268 119.208   4
   5  -2   3 2946.52 255.249   3
  -5   2  -3 3086.10 271.538   1
  -5   2  -3 2805.32 258.520   9
   5  -2   3 2647.65 173.219   4
  -5   2  -3 2741.45 227.730   8
   5  -2   3 2793.79 223.746   2
   5  -2   4 646.022 141.341   3
   5  -2   4 479.686 117.887   2
  -5   2  -4 431.128 142.918   1
  -5   2  -4 660.484 152.958   9
  -5   2  -5 2780.59 267.215   1
  -5   2  -5 2995.13 267.971   9
   5  -2   5 3149.78 255.470   2
  -5   2  -5 2852.94 208.486   7
  -5   2  -6 800.977 126.938   7
  -5   2  -6 1145.88 187.920   1
  -5   2  -6 1210.92 195.995  10
   5  -2   6 1077.78 177.286   2
  -5   2  -6 984.490 168.101   9
  -5   2  -7 1774.46 186.863   7
  -5   2  -7 1912.21 231.368  10
  -5   2  -7 1815.45 219.119   9
   5  -2   7 2026.92 234.785   2
  -5   2  -7 1942.88 239.100   1
  -5   2  -8 187.293 107.569   7
  -5   2  -8 320.147 142.341   1
  -5   2  -8 158.493 104.646  10
   5  -2   8 24.3102 115.983   2
  -5   2  -9 100.197 145.889   1
  -5   2  -9 157.679 123.756   7
  -5   2  -9 69.7689 126.273  10
   5  -2   9-50.8056 138.604   2
  -5   2 -10 722.133 183.346   7
  -5   2 -10 707.292 171.860  10
   5  -2  10 898.767 207.530   2
  -5   2 -11 320.141 162.300   7
  -5   2 -11-35.0455 121.267  10
  -5   1   6-121.983 138.803  11
   5  -1  -6-57.3813 130.102   3
  -5   1   6-259.136 147.786   8
  -5   1   5 247.090 144.215  11
   5  -1  -5 494.731 153.414   3
  -5   1   5 400.571 155.918   8
  -5   1   4 159.543 124.570  11
   5  -1  -4 207.934 133.129   3
  -5   1   4 190.653 123.275   8
  -5   1   3 559.047 146.325  11
   5  -1  -3 532.064 104.135   2
   5  -1  -3 356.042 125.833   3
  -5   1   3 380.607 118.321   8
   5  -1  -3 531.856 126.326   4
   5  -1  -2 2551.25 250.331   3
  -5   1   2 2428.80 257.532  11
   5  -1  -2 2391.34 189.796   2
  -5   1   2 2366.69 246.068   8
   5  -1  -2 2267.84 215.318   4
  -5   1   1 2084.29 230.072  11
   5  -1  -1 1855.88 212.076   3
   5  -1  -1 1862.65 169.250   2
  -5   1   1 1894.43 221.895   8
   5  -1  -1 2026.50 208.319   4
   5  -1   0 20224.4 619.138   3
  -5   1   0 19844.6 641.631   9
   5  -1   0 19781.9 557.457   4
  -5   1   0 18731.6 608.161   8
   5  -1   0 20651.8 536.634   2
   5  -1   1 17587.1 570.939   3
  -5   1  -1 16339.9 581.171   9
   5  -1   1 17090.2 491.950   4
  -5   1  -1 16780.0 566.767   8
   5  -1   1 17327.4 507.236   2
   5  -1   2 1469.87 179.685   3
   5  -1   2 1236.57 152.581   2
   5  -1   2 1817.28 164.629   4
  -5   1  -2 1501.31 195.509   9
   5  -1   3 1252.03 166.164   3
   5  -1   3 1234.45 164.010   2
  -5   1  -3 1012.94 170.943   9
   5  -1   3 1199.38 127.314   4
   5  -1   4 1137.29 167.766   3
   5  -1   4 1559.11 187.088   2
   5  -1   4 1492.51 130.773   4
  -5   1  -4 1309.62 188.669   1
  -5   1  -5 164.082 78.5127   7
  -5   1  -5 34.1339 97.1302  10
   5  -1   5 317.681 118.508   2
  -5   1  -5 41.6154 115.755   1
  -5   1  -6 2730.75 270.978   1
  -5   1  -6 3197.94 280.661  10
   5  -1   6 3488.98 280.211   2
  -5   1  -6 3203.30 220.187   7
  -5   1  -7 136.983 95.2098   7
   5  -1   7 35.0906 105.283   2
  -5   1  -7 316.810 131.394   1
  -5   1  -8 946.591 157.440   7
  -5   1  -8 960.788 179.700   1
  -5   1  -8 770.687 163.161  10
   5  -1   8 803.041 172.893   2
  -5   1  -9 722.528 146.787   7
  -5   1  -9 930.063 190.135   1
  -5   1  -9 630.039 175.217  10
   5  -1   9 450.465 156.649   2
  -5   1 -10 435.355 142.648   7
  -5   1 -10 256.406 141.306  10
   5  -1  10 483.562 175.521   2
  -5   1 -11 4676.52 370.475  10
  -5   1 -11 4302.94 339.138   7
  -5   1 -12-55.6968 121.231   7
   5   0  -7 560.855 189.273   3
  -5   0   6 990.581 206.367  11
   5   0  -6 1137.48 203.314   3
  -5   0   6 908.039 191.911   8
   5   0  -6 858.132 182.491   4
  -5   0   5 2257.00 261.180  11
   5   0  -5 2574.46 271.954   3
  -5   0   5 2108.20 247.298   8
   5   0  -5 2462.86 274.969   4
   5   0  -4 4517.00 336.903   3
  -5   0   4 3820.45 317.652  11
   5   0  -4 4055.05 317.239   4
  -5   0   4 4173.63 333.136   8
  -5   0   3 868.249 179.133  11
   5   0  -3 1009.31 173.785   3
  -5   0   3 990.997 175.434   8
   5   0  -3 857.257 154.425   4
   5   0  -2 3454.64 271.306   3
  -5   0   2 3251.47 281.483  11
   5   0  -2 3252.59 265.775   4
  -5   0   2 3123.07 274.488   8
   5   0  -1 8757.52 409.605   3
  -5   0   1 8806.46 434.988  11
   5   0  -1 8746.82 398.508   4
   5   0  -1 8990.47 376.639   2
  -5   0   1 9075.98 438.415   8
  -5   0   0 699.541 167.345  11
   5   0   0 588.865 124.838   2
   5   0   0 623.848 136.201   3
   5   0   0 481.025 111.225   4
   5   0   1 5188.23 303.655   3
   5   0   1 5113.34 282.436   4
   5   0   1 5983.59 313.673   2
   5   0   2 4511.72 281.825   3
   5   0   2 4286.84 250.647   4
   5   0   2 4616.27 281.611   2
   5   0   3 421.540 107.780   3
   5   0   3 177.932 91.1134   2
   5   0   3 440.483 98.2023   4
   5   0   4 500.402 114.924   3
  -5   0  -4 442.256 136.705  10
   5   0   4 608.625 131.830   2
  -5   0  -4 401.579 137.875   1
   5   0   4 447.368 87.0184   4
   5   0   5 11037.9 439.631   3
  -5   0  -5 10746.4 484.470   1
  -5   0  -5 11269.7 496.404  10
   5   0   5 10582.8 319.790   4
   5   0   5 10723.9 460.885   2
  -5   0  -5 11241.6 344.034   7
  -5   0  -6 3049.29 272.914   1
  -5   0  -6 3066.09 277.319  10
   5   0   6 3024.09 267.569   2
  -5   0  -6 3103.48 203.546   7
  -5   0  -7 5133.48 359.279   1
  -5   0  -7 5075.62 353.544  10
   5   0   7 5204.04 349.222   2
  -5   0  -7 4954.84 271.018   7
  -5   0  -8 361.203 110.642   7
  -5   0  -8 239.361 147.157   1
  -5   0  -8 135.099 108.880  10
   5   0   8 299.495 144.185   2
  -5   0  -9 1369.91 174.730   7
  -5   0  -9 1258.46 203.151   1
  -5   0  -9 1086.60 189.118  10
   5   0   9 1253.65 205.816   2
  -5   0 -10 3258.66 306.017  10
   5   0  10 3384.60 319.619   2
  -5   0 -10 3643.85 334.517   1
  -5   0 -10 3971.24 291.917   7
  -5   0 -11 1460.33 207.384   7
  -5   0 -12 559.107 164.983   7
   5   1  -7 726.021 188.242   3
  -5  -1   6 450.298 166.012  11
   5   1  -6 493.764 172.821   3
  -5  -1   6 719.960 179.239   8
   5   1  -6 393.148 153.820   4
  -5  -1   5 192.455 141.485  11
   5   1  -5 345.023 142.189   3
  -5  -1   5 5.38642 125.525   8
   5   1  -5 112.176 118.419   4
  -5  -1   4 1193.93 198.747  11
   5   1  -4 912.281 181.493   3
  -5  -1   4 927.101 179.627   8
   5   1  -4 1098.26 190.460   4
  -5  -1   3 2554.23 269.625  11
   5   1  -3 1815.72 216.406   3
  -5  -1   3 2193.06 245.230   8
   5   1  -3 2063.57 226.063   4
   5   1  -2 2713.09 240.607   3
  -5  -1   2 2588.70 238.203   6
  -5  -1   2 2222.44 240.653  11
  -5  -1   2 2494.58 162.279   5
   5   1  -2 2526.10 244.957   4
   5   1  -1 5078.63 306.207   3
  -5  -1   1 4700.75 323.059   6
  -5  -1   1 5237.27 341.126  11
  -5  -1   1 4566.66 226.451   5
   5   1  -1 4569.72 304.467   4
  -5  -1   0 738.741 157.545   6
  -5  -1   0 720.386 150.180  11
   5   1   0 583.372 124.856   3
  -5  -1   0 396.734 97.6446   5
   5   1   0 769.134 135.508   4
   5   1   1 3807.96 254.641   3
  -5  -1  -1 3646.64 284.664   6
  -5  -1  -1 3544.27 219.248   5
   5   1   1 3804.94 252.971   4
   5   1   1 3049.80 237.631   2
  -5  -1  -2 1103.21 178.496   6
   5   1   2 1047.17 155.708   2
   5   1   2 1101.37 146.392   3
  -5  -1  -2 1273.79 151.665   5
   5   1   2 1141.23 144.476   4
  -5  -1  -3 1061.28 173.087   6
   5   1   3 1182.88 149.480   3
   5   1   3 908.484 142.586   2
  -5  -1  -3 1259.94 183.689  10
   5   1   3 966.248 130.933   4
   5   1   4 4976.45 281.085   3
  -5  -1  -4 5203.47 339.269   6
  -5  -1  -4 4943.09 331.593   1
  -5  -1  -4 4592.27 321.417  10
   5   1   4 5180.16 260.212   4
   5   1   4 4945.40 318.526   2
   5   1   5 2217.43 196.729   3
  -5  -1  -5 2029.63 223.932   6
  -5  -1  -5 1728.81 207.041   1
  -5  -1  -5 2249.55 234.800  10
   5   1   5 1959.81 216.936   2
   5   1   5 2105.03 167.397   4
  -5  -1  -5 1925.87 138.468   7
  -5  -1  -6 2012.11 227.818   6
  -5  -1  -6 2187.92 235.353  10
   5   1   6 2236.15 236.479   2
  -5  -1  -6 2360.59 244.434   1
   5   1   6 2111.11 160.273   4
  -5  -1  -6 2045.73 157.392   7
  -5  -1  -7 3752.74 307.324   1
  -5  -1  -7 4090.01 321.567  10
   5   1   7 3636.84 303.209   2
  -5  -1  -7 3492.42 218.432   7
  -5  -1  -8 1448.88 165.267   7
  -5  -1  -8 1212.55 190.850  10
   5   1   8 1205.37 202.687   2
  -5  -1  -8 1328.92 209.188   1
  -5  -1  -9 3486.33 317.085  10
   5   1   9 3561.24 312.024   2
  -5  -1  -9 3400.51 254.562   7
  -5  -1  -9 3435.07 311.998   1
  -5  -1 -10 926.663 161.937   7
  -5  -1 -10 1116.40 207.248   1
  -5  -1 -10 1159.48 207.652  10
   5   1  10 1022.52 215.454   2
  -5  -1 -11-189.699 121.121   7
  -5  -1 -12 237.561 114.491   7
   5   2  -7 202.545 136.538   3
   5   2  -6 6331.72 403.104   3
  -5  -2   6 5406.82 402.228  11
   5   2  -6 5839.42 422.118   4
  -5  -2   5 4967.87 339.282   6
   5   2  -5 5091.18 351.952   3
  -5  -2   5 5250.85 383.353  11
   5   2  -5 5075.88 378.026   4
  -5  -2   4 317.188 127.538   6
  -5  -2   4 488.994 152.649  11
   5   2  -4 517.358 151.646   3
   5   2  -4 402.738 136.947   4
  -5  -2   3 1503.12 197.436   6
  -5  -2   3 1973.89 236.230  11
  -5  -2   3 1703.11 145.498   5
   5   2  -3 1889.48 205.935   3
   5   2  -3 1543.12 204.725   4
  -5  -2   2 3313.71 274.382   6
   5   2  -2 3835.09 269.319   3
  -5  -2   2 3321.66 283.335  11
  -5  -2   2 3219.49 207.743   5
   5   2  -2 3248.01 278.709   4
  -5  -2   1 4396.37 321.020   6
   5   2  -1 4162.59 270.190   3
  -5  -2   1 4479.44 316.412  11
  -5  -2   1 4265.01 242.895   5
   5   2  -1 4550.78 312.752   4
   5   2   0 8024.14 354.370   3
  -5  -2   0 7721.05 406.190   6
  -5  -2   0 7804.68 402.287  11
  -5  -2   0 8699.08 344.156   5
   5   2   0 7848.14 386.585   4
   5   2   1 6560.07 309.125   3
  -5  -2  -1 5862.06 360.857   6
  -5  -2  -1 6280.60 306.562   5
   5   2   1 6449.91 338.390   4
   5   2   2 4505.20 253.900   3
  -5  -2  -2 5043.37 335.512   6
  -5  -2  -2 4354.85 266.993   5
  -5  -2  -2 4841.42 324.772  10
   5   2   2 4964.90 293.040   4
   5   2   2 4940.59 304.056   2
   5   2   3 1907.58 175.511   3
  -5  -2  -3 1677.91 206.177   6
   5   2   3 1679.52 186.824   2
  -5  -2  -3 1951.14 224.165  10
  -5  -2  -3 1680.69 182.760   5
   5   2   3 2057.88 196.016   4
  -5  -2  -4 960.993 171.328   6
   5   2   4 679.544 124.426   3
   5   2   4 873.096 157.135   2
  -5  -2  -4 761.114 164.861  10
  -5  -2  -4 837.010 146.264   5
   5   2   4 1158.96 151.430   4
  -5  -2  -4 852.354 163.339   1
   5   2   5 6763.99 311.505   3
  -5  -2  -5 6672.03 383.065   6
  -5  -2  -5 6772.89 384.613   1
  -5  -2  -5 7186.41 404.730  10
   5   2   5 6379.75 298.416   4
   5   2   5 6599.08 380.661   2
  -5  -2  -6 1249.89 189.783   1
  -5  -2  -6 1675.45 207.891   6
   5   2   6 1714.39 173.143   3
  -5  -2  -6 1115.18 184.425  10
   5   2   6 1242.68 195.119   2
   5   2   6 1181.56 142.075   4
  -5  -2  -7 1238.71 131.930   7
  -5  -2  -7 1784.03 224.548   1
  -5  -2  -7 1419.47 191.689   6
  -5  -2  -7 1313.10 205.207  10
   5   2   7 1173.69 190.489   2
  -5  -2  -8 74.8552 67.5197   7
  -5  -2  -8 196.163 119.767   6
  -5  -2  -8 203.812 122.608  10
   5   2   8-29.7373 114.225   2
  -5  -2  -8 181.189 136.577   1
  -5  -2  -9 1722.75 174.950   7
  -5  -2  -9 1636.68 226.009   1
  -5  -2  -9 1905.00 252.622  10
   5   2   9 1592.41 231.115   2
  -5  -2 -10 1257.04 166.929   7
  -5  -2 -10 1748.00 245.654   1
  -5  -2 -10 1591.61 245.013  10
   5   3  -7 1882.12 252.090   3
  -5  -3   6 507.394 148.409   6
  -5  -3   6 383.718 159.843  11
   5   3  -6 333.764 144.614   3
  -5  -3   5 1317.88 198.525   6
  -5  -3   5 1389.07 227.731  11
   5   3  -5 1276.44 199.617   3
   5   3  -5 1170.91 215.445   4
  -5  -3   4 547.958 144.774   6
  -5  -3   4 349.446 138.060  11
   5   3  -4 762.040 159.616   3
   5   3  -4 755.256 179.667   4
  -5  -3   3 473.975 150.118   6
  -5  -3   3 474.809 130.125  11
  -5  -3   3 387.073 95.4576   5
   5   3  -3 656.159 143.700   3
   5   3  -3 663.140 161.521   4
   5   3  -2 3116.23 250.358   3
  -5  -3   2 2385.77 249.175   6
  -5  -3   2 3034.61 271.023  11
  -5  -3   2 2749.69 207.777   5
   5   3  -2 3260.74 290.819   4
  -5  -3   1 5849.36 359.779   6
   5   3  -1 6407.46 316.363   3
  -5  -3   1 6485.73 372.944  11
  -5  -3   1 6425.92 315.930   5
   5   3  -1 6247.42 366.375   4
  -5  -3   0 695.505 150.127   6
  -5  -3   0 750.403 149.913  11
   5   3   0 749.600 130.937   3
  -5  -3   0 782.204 134.802   5
   5   3   0 687.912 148.015   4
  -5  -3  -1 3723.06 295.853   6
   5   3   1 3434.17 222.384   3
  -5  -3  -1 3697.79 255.942   5
   5   3   1 3496.80 265.932   4
   5   3   2 6607.89 291.385   3
  -5  -3  -2 6212.92 376.339   6
  -5  -3  -2 6663.20 344.851   5
  -5  -3  -2 6738.27 377.278  10
   5   3   2 7182.08 362.125   4
   5   3   3 14426.6 411.946   3
  -5  -3  -3 13990.9 556.679   6
  -5  -3  -3 13644.2 496.519   5
  -5  -3  -3 14130.8 543.813  10
   5   3   3 14835.9 497.269   4
   5   3   3 14610.3 548.150   2
   5   3   4 13803.1 401.027   3
  -5  -3  -4 14045.2 555.660   6
  -5  -3  -4 14317.9 525.240   5
  -5  -3  -4 13208.6 535.709  10
   5   3   4 13811.2 472.901   4
   5   3   4 14223.5 552.752   2
   5   3   5 13928.7 405.674   3
  -5  -3  -5 13991.4 558.987   6
  -5  -3  -5 13785.3 543.896   1
  -5  -3  -5 13948.9 563.694  10
  -5  -3  -5 13819.6 530.042   5
   5   3   5 13842.8 463.452   4
   5   3   5 13778.9 556.061   2
   5   3   6 5639.05 269.976   3
  -5  -3  -6 5771.19 368.280   6
  -5  -3  -6 5845.62 365.282   1
  -5  -3  -6 5875.88 375.287  10
  -5  -3  -6 5387.69 355.322   5
   5   3   6 6345.66 316.831   4
   5   3   6 6089.48 385.318   2
  -5  -3  -7 9146.79 462.028   1
  -5  -3  -7 8819.83 452.420   6
  -5  -3  -7 8874.52 469.449  10
   5   3   7 9254.90 372.856   4
   5   3   7 8994.38 473.453   2
  -5  -3  -8 2585.96 262.040   1
  -5  -3  -8 3113.66 274.392   6
  -5  -3  -8 2940.30 291.041  10
   5   3   8 3090.09 301.756   2
  -5  -3  -9 640.491 160.868   6
  -5  -3  -9 768.603 183.630  10
   5   3   9 753.414 190.611   2
  -5  -3  -9 561.284 157.950   1
  -5  -3 -10 866.830 174.910   6
  -5  -3 -10 511.390 152.778   1
   5   4  -7 585.994 181.438   3
  -5  -4   6 2170.81 256.492   6
   5   4  -6 2910.27 285.601   3
  -5  -4   5 606.249 162.225   6
  -5  -4   5 1122.36 192.730  11
   5   4  -5 1267.01 207.829   3
   5   4  -5 959.261 196.874   4
  -5  -4   4 1461.06 202.211   6
  -5  -4   4 2194.04 246.680  11
  -5  -4   4 1551.30 170.903   5
   5   4  -4 1343.73 186.468   3
   5   4  -4 1520.81 234.216   4
  -5  -4   3 681.644 148.280   6
  -5  -4   3 611.962 150.057  11
  -5  -4   3 810.110 132.243   5
   5   4  -3 531.973 165.718   4
  -5  -4   2 370.110 144.191   6
  -5  -4   2 259.971 110.989  11
  -5  -4   2 333.941 98.4125   5
   5   4  -2 315.594 111.797   3
   5   4  -2 413.712 157.831   4
  -5  -4   1 603.533 146.480   6
  -5  -4   1 561.156 140.523  11
  -5  -4   1 801.069 147.115   5
   5   4  -1 590.408 123.008   3
   5   4  -1 449.208 159.212   4
  -5  -4   0 17515.6 631.687   6
   5   4   0 18053.6 475.142   3
  -5  -4   0 17602.8 587.596  11
  -5  -4   0 17431.8 551.083   5
   5   4   0 17251.3 603.102   4
  -5  -4  -1 1350.79 197.109   6
  -5  -4  -1 1002.60 165.875  10
   5   4   1 1107.50 129.017   3
  -5  -4  -1 1166.82 172.233   5
   5   4   1 1216.12 179.071   4
  -5  -4  -2 2043.57 230.202   6
  -5  -4  -2 2055.01 225.391  10
  -5  -4  -2 1841.93 205.113   5
   5   4   2 2240.36 232.332   4
  -5  -4  -3-23.8641 103.350   6
  -5  -4  -3 265.206 117.541  10
  -5  -4  -3 96.6896 106.010   5
   5   4   3 228.323 118.327   4
  -5  -4  -4 500.432 156.011   6
   5   4   4 164.922 118.502   2
  -5  -4  -4 84.9992 101.167  10
  -5  -4  -4 240.044 109.561   5
   5   4   4 136.031 105.462   4
  -5  -4  -5 2512.02 251.338   6
  -5  -4  -5 2587.29 256.208   5
   5   4   5 2437.67 254.957   2
  -5  -4  -5 2467.30 251.121  10
   5   4   5 2654.96 231.596   4
  -5  -4  -6 1864.59 231.060   6
  -5  -4  -6 2801.31 265.472   1
   5   4   6 2664.60 272.735   2
  -5  -4  -6 2069.46 239.312  10
  -5  -4  -6 2331.57 250.087   5
   5   4   6 2588.98 225.969   4
   5   4   7 507.502 122.930   4
  -5  -4  -7 717.892 151.623   6
  -5  -4  -7 241.927 145.304   1
  -5  -4  -7 442.361 156.284  10
   5   4   7 467.034 149.690   2
  -5  -4  -7 343.215 143.274   5
  -5  -4  -8 1055.96 191.742   6
  -5  -4  -8 856.331 181.841  10
   5   4   8 1106.00 201.255   2
  -5  -4  -8 986.155 178.522   1
  -5  -4  -9 728.258 168.752   1
  -5  -4  -9 507.657 138.719   6
  -5  -4 -10 1768.66 225.665   6
  -5  -4 -10 2013.45 255.531   1
  -5  -5   6 1609.16 217.503   6
  -5  -5   5 2471.78 266.225   6
  -5  -5   5 1808.11 237.298  11
  -5  -5   4 446.304 136.410   6
  -5  -5   4 623.823 158.134  11
  -5  -5   4 322.455 116.271   5
   5   5  -4 590.956 194.432   4
  -5  -5   3 635.680 155.463   6
  -5  -5   3 836.102 165.337  11
  -5  -5   3 836.374 151.535   5
   5   5  -3 648.519 181.293   4
  -5  -5   2 608.995 158.437   6
  -5  -5   2 772.239 152.872  11
  -5  -5   2 550.034 123.191   5
   5   5  -2 756.883 172.229   4
  -5  -5   1 481.224 138.770   6
  -5  -5   1 496.221 131.685  11
  -5  -5   1 720.731 146.809   5
   5   5  -1 335.849 134.343   4
  -5  -5   0 1299.08 199.936   6
  -5  -5   0 1326.74 185.074  11
  -5  -5   0 1329.77 187.950   5
   5   5   0 1693.28 220.779   4
  -5  -5  -1 5688.19 379.306   6
  -5  -5  -1 5755.45 346.380   5
  -5  -5  -1 6361.17 370.482  10
   5   5   1 5842.28 363.245   4
  -5  -5  -2 2146.64 246.906   6
  -5  -5  -2 2395.32 240.572  10
  -5  -5  -2 2171.22 227.519   5
   5   5   2 2280.85 240.996   4
  -5  -5  -3-1.28303 109.979   6
  -5  -5  -3 116.994 123.536  10
  -5  -5  -3-61.4740 105.136   5
   5   5   3-55.5488 100.480   4
  -5  -5  -4 828.049 171.827   6
   5   5   4 794.645 168.406   2
  -5  -5  -4 917.753 172.709  10
  -5  -5  -4 972.293 179.759   5
   5   5   4 966.755 168.612   4
  -5  -5  -5 837.909 169.162   6
   5   5   5 907.059 184.233   2
  -5  -5  -5 645.020 162.381  10
  -5  -5  -5 662.923 168.417   5
   5   5   5 757.806 147.395   4
  -5  -5  -6 193.414 114.809   6
   5   5   6 307.578 142.035   2
  -5  -5  -6 491.958 150.491  10
  -5  -5  -6 59.6453 117.242   5
   5   5   6 180.353 116.971   4
   5   5   7 1384.32 183.736   4
  -5  -5  -7 1043.75 191.732   6
   5   5   7 1002.22 195.184   2
  -5  -5  -7 1110.14 206.670  10
  -5  -5  -7 700.231 177.057   5
  -5  -5  -7 1122.02 188.431   1
  -5  -5  -8 3146.28 295.097   6
  -5  -5  -8 3678.85 309.869   1
  -5  -5  -8 3951.18 349.629  10
  -5  -5  -8 3528.03 327.866   5
   5   5   8 3928.00 292.126   4
   5   5   8 3364.29 322.142   2
  -5  -5  -9 1763.76 235.751   6
  -5  -5  -9 1655.84 236.340   1
  -5  -5 -10 158.505 119.837   1
  -5  -5 -10 275.494 137.992   6
  -5  -6   6 3016.14 297.234   6
  -5  -6   5 212.263 128.809   6
  -5  -6   5-62.2927 134.264  11
  -5  -6   5 217.114 125.869   5
  -5  -6   4 2188.07 258.128   6
  -5  -6   4 2159.23 259.610  11
  -5  -6   4 2531.93 256.736   5
  -5  -6   3 827.538 183.181   6
  -5  -6   3 631.833 173.279  11
  -5  -6   3 288.019 128.808   5
  -5  -6   2 661.256 171.206   6
  -5  -6   2 290.535 141.011  11
  -5  -6   2 410.778 139.290   5
   5   6  -2 299.371 145.371   4
  -5  -6   1 461.669 173.260   6
  -5  -6   1 578.165 141.794  11
  -5  -6   1 655.577 168.922   5
   5   6  -1 531.018 173.213   4
  -5  -6   0 2835.07 286.753   6
  -5  -6   0 3033.17 264.081  11
  -5  -6   0 2957.35 277.735   5
   5   6   0 2976.68 290.531   4
  -5  -6  -1 139.398 125.382   6
  -5  -6  -1 179.662 125.460  10
  -5  -6  -1 443.485 153.453   5
   5   6   1 483.191 151.742   4
  -5  -6  -2 1976.95 241.377   6
  -5  -6  -2 2286.86 246.395  10
  -5  -6  -2 1979.19 231.412   5
   5   6   2 1623.00 219.025   4
  -5  -6  -3 484.753 151.349   6
  -5  -6  -3 844.061 176.130  10
  -5  -6  -3 848.909 176.296   5
   5   6   3 1014.59 186.973   4
  -5  -6  -4-35.6855 113.666   6
  -5  -6  -4 5.40943 115.097  10
  -5  -6  -4-92.9858 122.719   5
   5   6   4 37.9319 116.201   4
  -5  -6  -5 400.683 146.163   6
   5   6   5 297.302 123.121   2
  -5  -6  -5 389.675 151.962  10
  -5  -6  -5 221.406 121.104   5
   5   6   5 427.680 146.114   4
  -5  -6  -6 1897.05 238.523   6
   5   6   6 1626.82 240.580   2
  -5  -6  -6 1500.45 220.905  10
  -5  -6  -6 1610.62 249.395   5
   5   6   6 1520.31 206.913   4
   5   6   7 986.030 172.631   4
  -5  -6  -7 906.226 179.175   6
  -5  -6  -7 1069.77 213.400  10
  -5  -6  -7 950.321 197.906   5
   5   6   8 749.299 165.867   4
  -5  -6  -8 773.447 174.339   6
  -5  -6  -8 686.442 171.781   1
  -5  -6  -9 438.217 149.216   6
  -5  -6  -9 393.500 139.153   1
  -5  -6 -10 331.388 140.040   1
  -5  -7   4 1071.83 204.654  11
  -5  -7   4 923.164 189.070   5
  -5  -7   3 350.807 136.287  11
  -5  -7   3 749.472 165.972   5
  -5  -7   2 1394.75 210.499  11
  -5  -7   2 1017.04 190.240   5
  -5  -7   1 3553.46 333.031   6
  -5  -7   1 3411.29 275.505  11
  -5  -7   1 3957.97 328.462   5
  -5  -7   0 7183.69 452.521   6
  -5  -7   0 7450.50 440.464   5
   5   7   0 7466.16 458.552   4
  -5  -7  -1 1627.45 233.514   6
  -5  -7  -1 2109.73 233.467  10
  -5  -7  -1 2034.57 249.453   5
   5   7   1 1767.05 242.592   4
  -5  -7  -2 4867.95 378.126   6
  -5  -7  -2 6094.43 398.767   5
  -5  -7  -2 6192.31 372.038  10
   5   7   2 6357.66 411.653   4
  -5  -7  -3 7726.83 473.423   6
  -5  -7  -3 7743.40 455.674   5
  -5  -7  -3 7483.85 423.390  10
   5   7   3 6906.65 424.928   4
  -5  -7  -4 7402.18 464.093   6
  -5  -7  -4 7702.02 463.611   5
  -5  -7  -4 7031.78 424.423  10
   5   7   4 6956.31 418.076   4
  -5  -7  -5 4554.02 373.007   6
  -5  -7  -5 4559.98 369.035   5
  -5  -7  -5 4972.12 365.513  10
   5   7   5 5258.97 373.271   4
  -5  -7  -6 1636.66 255.882  10
   5   7   6 1975.83 245.564   4
   5   7   7 367.051 152.822   4
   5   7   8 2132.95 253.875   4
  -5  -8   0 596.871 167.823   5
  -5  -8  -1 624.926 139.190  10
  -5  -8  -2 3200.35 287.062  10
  -5  -8  -3 2748.66 271.230  10
  -5  -8  -4 173.440 127.497  10
  -5  -8  -5 1136.25 196.710  10
  -5  -9  -3 2892.30 284.833  10
  -5  -9  -4 831.825 185.005  10
  -6   6  -2 302.128 135.880   8
  -6   6  -3 1283.56 201.521   8
  -6   5  -1 164.911 117.832   8
  -6   5  -2 900.820 189.782   8
  -6   5  -3 798.385 178.779   8
  -6   4   0 657.098 177.114   8
  -6   4  -1 782.944 176.307   8
   6  -4   2 512.551 178.610   3
  -6   4  -2 440.794 151.701   8
   6  -4   3 127.568 124.314   3
  -6   4  -3 106.902 114.150   8
   6  -4   5 2694.77 262.184   2
   6  -4   6 1512.45 221.061   2
   6  -4   7 1526.66 246.296   2
   6  -3  -3 2380.31 271.695   4
   6  -3  -2 527.030 150.183   4
   6  -3  -1 419.358 150.313   3
  -6   3   1 493.887 163.453   9
  -6   3   1 415.931 166.078   8
   6  -3  -1 398.765 125.997   4
   6  -3   0 977.216 188.165   3
  -6   3   0 1006.85 205.385   9
  -6   3   0 1295.09 211.276   8
  -6   3  -1 401.672 141.759   9
  -6   3  -1 668.932 167.948   8
   6  -3   2 2393.80 273.557   3
  -6   3  -2 2253.71 273.543   9
  -6   3  -2 2328.73 261.649   8
   6  -3   3 872.031 190.722   3
   6  -3   3 622.106 145.014   2
  -6   3  -3 717.719 184.281   9
   6  -3   4-46.9803 128.978   3
   6  -3   4 95.7273 104.239   2
  -6   3  -4 183.037 142.327   9
   6  -3   5 1162.85 204.085   3
   6  -3   5 747.548 173.357   2
   6  -3   6 8633.60 493.693   3
   6  -3   6 7723.88 438.339   2
   6  -3   7 760.735 179.807   2
   6  -2  -3 2409.47 268.069   4
   6  -2  -2 486.442 152.553   3
   6  -2  -2 438.952 140.373   4
   6  -2  -1 277.464 122.422   3
  -6   2   1 21.3930 117.694   8
   6  -2  -1 325.535 146.006   4
   6  -2   0 236.429 132.640   3
  -6   2   0 230.009 140.917   8
   6  -2   0 186.734 114.909   4
   6  -2   1 941.643 184.682   3
  -6   2  -1 1105.15 191.090   8
   6  -2   2 3371.01 307.756   3
  -6   2  -2 3447.27 315.904   9
   6  -2   2 3220.53 256.930   2
   6  -2   3 5772.36 381.761   3
   6  -2   3 5535.20 336.150   2
   6  -2   4 2189.43 247.818   3
   6  -2   4 2224.23 229.352   2
   6  -2   5 94.8121 112.705   3
   6  -2   5 44.8799 105.817   2
  -6   2  -5 81.7236 118.680   1
   6  -2   6 3164.88 293.102   3
   6  -2   6 2841.14 279.474   2
   6  -2   7 5513.28 384.879   2
   6  -1  -3 362.121 149.794   3
   6  -1  -3 235.002 136.599   4
   6  -1  -2 258.405 152.552   3
   6  -1  -2 255.100 119.040   4
   6  -1  -1 1231.39 196.948   3
  -6   1   1 1177.60 210.946   8
   6  -1  -1 1261.77 196.992   4
   6  -1   0 482.469 160.904   3
   6  -1   0 370.869 117.898   2
   6  -1   0 162.517 125.324   4
   6  -1   1 3552.30 308.972   3
   6  -1   1 3635.01 269.437   4
   6  -1   1 3474.97 265.980   2
   6  -1   2 5052.50 351.433   3
   6  -1   2 4874.80 317.825   2
   6  -1   3 160.229 122.028   3
   6  -1   3 142.888 97.5649   2
   6  -1   4 1155.16 182.420   3
   6  -1   4 1391.61 197.587   2
   6  -1   5 2920.72 280.167   3
  -6   1  -5 3592.99 331.375   1
   6  -1   5 3456.22 298.510   2
   6  -1   6 2874.10 287.913   3
   6  -1   6 3370.75 303.833   2
   6  -1   7 853.704 175.428   3
   6  -1   7 843.449 184.058   2
   6   0  -4 1705.11 246.900   3
   6   0  -3 1080.74 202.715   3
   6   0  -3 1036.66 193.777   4
  -6   0   2 1477.44 234.341  11
   6   0  -2 1019.73 202.622   3
   6   0  -2 1126.02 192.277   4
  -6   0   1 232.723 133.631  11
   6   0  -1 368.428 133.437   2
   6   0  -1 433.151 140.687   3
   6   0  -1 371.743 138.426   4
   6   0   0 1178.81 174.599   2
   6   0   0 1179.85 195.873   3
   6   0   0 1294.45 188.408   4
   6   0   1 1132.86 177.972   2
   6   0   1 1389.25 200.380   3
   6   0   1 1058.66 156.987   4
   6   0   2 671.287 157.537   3
   6   0   2 524.639 138.280   2
   6   0   2 498.818 119.767   4
   6   0   3 2669.19 245.333   3
   6   0   3 2940.87 270.141   2
   6   0   4 1953.30 222.494   3
   6   0   4 1940.48 231.843   2
   6   0   5 3086.59 264.738   3
   6   0   5 3380.09 305.818   2
  -6   0  -6 2920.18 299.471   1
   6   0   6 2294.42 241.354   3
  -6   0  -6 2957.73 311.847  10
   6   0   6 2759.85 284.834   2
   6   0   7 667.879 147.379   3
   6   0   7 542.359 178.901   2
   6   1  -4 3277.04 316.005   3
   6   1  -3 2961.01 289.194   3
   6   1  -3 2492.79 285.807   4
  -6  -1   2-122.808 131.876  11
   6   1  -2 39.2610 121.950   3
   6   1  -2-134.448 122.872   4
  -6  -1   1 1262.15 215.493  11
   6   1  -1 1399.21 190.604   2
   6   1  -1 1459.14 207.773   3
   6   1  -1 1565.75 226.348   4
   6   1   0 983.479 168.437   2
   6   1   0 946.941 162.687   3
   6   1   0 1071.07 177.992   4
   6   1   1 244.667 113.602   2
   6   1   1 174.780 108.437   3
   6   1   1 81.4576 91.7913   4
   6   1   2 1677.32 205.862   2
   6   1   2 1892.77 213.012   3
   6   1   2 1568.81 187.069   4
   6   1   3 1196.76 173.034   3
   6   1   3 1425.05 200.469   2
   6   1   3 1253.14 162.230   4
   6   1   4-3.39388 91.4420   3
   6   1   4 41.9547 123.174   2
   6   1   5 100.439 96.0464   3
  -6  -1  -5 180.529 138.227  10
   6   1   5 153.189 124.828   2
  -6  -1  -6 375.507 169.873   1
   6   1   6 177.690 120.963   3
  -6  -1  -6 396.003 160.932  10
   6   1   6 233.801 139.020   2
   6   1   7 1142.55 218.271   2
   6   2  -5 972.016 216.648   3
   6   2  -4 4654.67 361.292   3
   6   2  -3 637.477 179.568   3
  -6  -2   2 285.366 142.220   6
  -6  -2   2-234.420 157.674  11
   6   2  -2 76.3783 121.770   3
   6   2  -2 169.035 133.010   4
  -6  -2   1 507.847 177.863   6
  -6  -2   1 417.971 155.250  11
   6   2  -1 486.255 136.388   3
   6   2  -1 294.585 126.035   4
   6   2   0 2531.00 240.092   3
  -6  -2   0 2639.99 293.858   6
   6   2   0 2690.59 256.316   2
   6   2   0 2294.66 248.495   4
  -6  -2  -1 613.768 173.044   6
   6   2   1 855.816 159.148   2
   6   2   1 557.918 124.267   3
  -6  -2  -1 651.774 131.825   5
   6   2   1 619.742 152.695   4
   6   2   2 4383.71 289.950   3
  -6  -2  -2 4527.22 356.846   6
   6   2   2 4198.78 299.390   4
   6   2   2 4280.44 322.828   2
  -6  -2  -3 1241.41 207.282   6
   6   2   3 1065.07 177.369   2
   6   2   3 1838.34 205.239   4
  -6  -2  -4 1371.90 213.020   6
   6   2   4 1168.24 195.183   2
  -6  -2  -4 1465.72 231.690  10
   6   2   4 1508.80 185.284   4
  -6  -2  -5 3821.85 339.775   6
  -6  -2  -5 3738.31 339.430  10
   6   2   5 3551.09 316.475   2
  -6  -2  -6 3248.02 316.595   6
  -6  -2  -6 3885.82 340.776   1
   6   2   6 3076.14 308.509   2
  -6  -3   2-91.3925 121.007  11
   6   3  -2 88.9779 130.952   4
  -6  -3   1 1050.29 195.006   6
  -6  -3   1 932.914 184.955  11
   6   3  -1 1205.23 205.758   4
  -6  -3   0 524.103 147.460   6
   6   3   0 566.712 159.774   4
  -6  -3  -1 1695.31 243.259   6
   6   3   1 1141.19 203.218   2
  -6  -3  -1 1737.36 200.219   5
   6   3   1 1496.36 202.444   4
  -6  -3  -2 1746.33 245.254   6
   6   3   2 2065.53 245.336   2
  -6  -3  -2 2088.84 226.553   5
   6   3   2 1873.50 220.945   4
  -6  -3  -3 3518.88 329.446   6
  -6  -3  -3 3753.69 293.884   5
  -6  -3  -3 3600.73 331.829  10
   6   3   3 3834.86 295.352   4
   6   3   3 3661.87 317.733   2
  -6  -3  -4 1228.56 219.262   6
   6   3   4 1386.89 210.054   2
  -6  -3  -4 1854.36 248.363  10
  -6  -3  -4 1402.09 223.432   5
   6   3   4 1142.06 172.975   4
  -6  -3  -5 2487.67 285.449   6
   6   3   5 2917.22 306.905   2
  -6  -3  -5 2597.72 283.625  10
  -6  -3  -6 328.424 148.091   6
  -6  -4   1 316.462 152.165  11
   6   4  -1 254.026 142.873   4
  -6  -4   0 284.547 115.210   5
   6   4   0 385.291 151.495   4
  -6  -4  -1 2268.68 237.508   5
   6   4   1 2420.13 259.645   4
   6   4   2 3073.69 294.945   2
  -6  -4  -2 3350.64 283.251   5
   6   4   2 3095.61 290.568   4
   6   4   3-2.84105 116.442   2
  -6  -4  -3 94.9522 131.834  10
  -6  -4  -3-119.491 111.480   5
   6   4   3 317.719 155.449   4
  -6  -4  -4 5879.22 395.947   5
  -6  -4  -4 5584.16 408.809  10
   6   4   4 6494.50 385.298   4
   6   4   4 6519.89 436.959   2
  -6  -4  -5 494.871 149.194   5
   6   4   5 514.861 144.828   4
  -6  -5   1 1446.50 225.465  11
  -6  -5   0 50.5642 118.141   5
  -6  -5  -1 1226.89 202.910   5
   6   5   1 1349.28 221.484   4
  -6  -5  -2 399.086 143.156   5
   6   5   2 322.830 151.283   4
  -6  -5  -3 4630.20 355.099   5
  -6  -5  -3 4388.39 357.182  10
   6   5   3 4245.95 340.362   4
  -6  -5  -4 2728.99 290.962   5
   6   5   4 2694.57 275.349   4
  -6  -5  -5-34.0738 115.614   5
   6   5   5-96.8067 140.385   4
  -6  -6   1 72.5504 119.666   5
  -6  -6   0 832.020 173.754   5
  -6  -6  -1 44.5713 128.633   5
  -6  -6  -2 247.330 142.324  10
  -6  -6  -2 277.004 128.555   5
   6   6   4 10796.4 539.225   4
   6   6   5 4737.38 367.155   4
   0   0   0    0.00    0.00   0

TITL exp_100K in P-1
REM P-1 (#2 in standard setting)
CELL 0.71073   5.012064   9.441307  11.048459  88.2423  80.5181  89.2552
ZERR    2.00   0.000105   0.000218   0.000250   0.0019   0.0018   0.0018
LATT  1
SFAC C B N O F
UNIT 12.00 2.00 4.00 4.00 8.00
TREF
HKLF 4
END
;
_shelx_hkl_checksum              61556
loop_
_space_group_symop_operation_xyz
'x, y, z'
loop_
_atom_site_label
_atom_site_type_symbol
_atom_site_fract_x
_atom_site_fract_y
_atom_site_fract_z
_atom_site_U_iso_or_equiv
_atom_site_adp_type
_atom_site_occupancy
_atom_site_site_symmetry_order
_atom_site_calc_flag
_atom_site_refinement_flags_posn
_atom_site_refinement_flags_adp
_atom_site_refinement_flags_occupancy
_atom_site_disorder_assembly
_atom_site_disorder_group
N28 N -0.1245(8) 0.1297(4) 0.7243(3) 0.0180(8) Uani 1 1 d . . . . .
H28 H -0.0282 0.1879 0.6744 0.022 Uiso 1 1 calc R U . . .
N27 N 1.1061(8) 0.5480(4) 0.1791(3) 0.0185(8) Uani 1 1 d . . . . .
H27 H 1.0390 0.6324 0.1808 0.022 Uiso 1 1 calc R U . . .
C26 C 1.0863(10) 0.3126(5) 0.2523(4) 0.0199(10) Uani 1 1 d . . . . .
H26 H 1.0018 0.2406 0.3034 0.024 Uiso 1 1 calc R U . . .
C25 C 1.3213(10) 0.2840(6) 0.1694(5) 0.0273(12) Uani 1 1 d . . . . .
H25 H 1.3949 0.1930 0.1657 0.033 Uiso 1 1 calc R U . . .
C21 C 0.9802(9) 0.4484(5) 0.2578(4) 0.0149(9) Uani 1 1 d . . . . .
C20 C 0.7282(9) 0.4875(5) 0.3450(4) 0.0166(9) Uani 1 1 d . . . . .
H20A H 0.5978 0.4118 0.3488 0.020 Uiso 1 1 calc R U . . .
H20B H 0.6489 0.5724 0.3136 0.020 Uiso 1 1 calc R U . . .
C19 C 0.7846(8) 0.5138(4) 0.4754(4) 0.0125(8) Uani 1 1 d . . . . .
H19 H 0.908(10) 0.437(6) 0.490(5) 0.015 Uiso 1 1 d . U . . .
C18 C 0.9177(8) 0.6591(4) 0.4790(4) 0.0128(8) Uani 1 1 d . . . . .
O17 O 1.1665(6) 0.6620(3) 0.4329(3) 0.0149(7) Uani 1 1 d . . . . .
O16 O 0.7782(6) 0.7593(3) 0.5235(3) 0.0163(7) Uani 1 1 d . . . . .
N15 N 0.5230(7) 0.5117(4) 0.5603(3) 0.0141(7) Uani 1 1 d . . . . .
H15A H 0.5492 0.5356 0.6347 0.021 Uiso 1 1 calc R U . . .
H15B H 0.4536 0.4251 0.5642 0.021 Uiso 1 1 calc R U . . .
H15C H 0.4089 0.5732 0.5330 0.021 Uiso 1 1 calc R U . . .
N14 N 0.3983(7) -0.0764(4) 0.4210(3) 0.0135(7) Uani 1 1 d . . . . .
H14A H 0.4249 -0.0349 0.3466 0.020 Uiso 1 1 calc R U . . .
H14B H 0.3089 -0.1569 0.4191 0.020 Uiso 1 1 calc R U . . .
H14C H 0.5573 -0.0949 0.4442 0.020 Uiso 1 1 calc R U . . .
O13 O 0.6264(6) 0.1671(3) 0.4566(3) 0.0245(8) Uani 1 1 d . . . . .
O12 O 0.2591(6) 0.2577(3) 0.5698(3) 0.0210(7) Uani 1 1 d . . . . .
C11 C -0.2006(10) -0.1011(5) 0.8084(4) 0.0213(10) Uani 1 1 d . . . . .
H11 H -0.1523 -0.1964 0.8117 0.026 Uiso 1 1 calc R U . . .
C10 C -0.4241(10) -0.0504(6) 0.8870(4) 0.0239(11) Uani 1 1 d . . . . .
H10 H -0.5249 -0.1117 0.9438 0.029 Uiso 1 1 calc R U . . .
C9 C -0.4967(10) 0.0908(5) 0.8811(4) 0.0220(10) Uani 1 1 d . . . . .
H9 H -0.6482 0.1251 0.9323 0.026 Uiso 1 1 calc R U . . .
C8 C -0.3415(10) 0.1797(5) 0.7982(4) 0.0204(10) Uani 1 1 d . . . . .
H8 H -0.3873 0.2753 0.7935 0.025 Uiso 1 1 calc R U . . .
C6 C -0.0501(9) -0.0084(5) 0.7247(4) 0.0164(9) Uani 1 1 d . . . . .
C5 C 0.1930(8) -0.0554(4) 0.6372(4) 0.0142(9) Uani 1 1 d . . . . .
H5A H 0.1783 -0.1564 0.6260 0.017 Uiso 1 1 calc R U . . .
H5B H 0.3521 -0.0413 0.6748 0.017 Uiso 1 1 calc R U . . .
C23 C 1.3289(10) 0.5221(6) 0.0990(4) 0.0253(11) Uani 1 1 d . . . . .
H23 H 1.4066 0.5946 0.0464 0.030 Uiso 1 1 calc R U . . .
C24 C 1.4442(10) 0.3910(6) 0.0931(4) 0.0272(12) Uani 1 1 d . . . . .
H24 H 1.6028 0.3736 0.0386 0.033 Uiso 1 1 calc R U . . .
C4 C 0.2380(8) 0.0196(4) 0.5096(4) 0.0127(8) Uani 1 1 d . . . . .
H1 H 0.062(10) 0.042(5) 0.482(4) 0.010(11) Uiso 1 1 d . . . . .
C2 C 0.3924(9) 0.1583(4) 0.5102(4) 0.0147(9) Uani 1 1 d . . . . .
B1 B -0.0892(11) 0.9256(6) 0.1695(5) 0.0225(11) Uani 1 1 d D . . . .
F1 F 0.0406(9) 0.9721(4) 0.2590(4) 0.0568(12) Uani 1 1 d D . . . .
F2 F -0.3050(11) 1.0154(5) 0.1647(5) 0.0759(15) Uani 1 1 d D . . . .
F3 F -0.2177(12) 0.8014(5) 0.2156(6) 0.0924(19) Uani 1 1 d D . . . .
F4A F -0.053(3) 1.0304(17) 0.0772(12) 0.038(5) Uani 0.216(11) 1 d D U P . .
F4B F 0.0525(12) 0.8966(11) 0.0605(6) 0.050(3) Uani 0.586(17) 1 d D U P . .
F4C F 0.111(3) 0.8332(18) 0.1085(18) 0.029(6) Uani 0.199(16) 1 d D U P . .
F21 F 0.8861(6) 0.5718(3) 0.9234(3) 0.0312(7) Uani 1 1 d . . . . .
B2 B 1.0544(11) 0.5097(6) 0.8279(5) 0.0207(11) Uani 1 1 d . . . . .
F22 F 1.2758(17) 0.6047(15) 0.7968(8) 0.034(2) Uani 0.71(3) 1 d . U P . .
F22A F 1.312(4) 0.550(3) 0.8090(16) 0.023(4) Uani 0.29(3) 1 d . U P . .
F23 F 0.9288(6) 0.5067(3) 0.7243(3) 0.0322(7) Uani 1 1 d . . . . .
F24 F 1.164(3) 0.3820(14) 0.8485(13) 0.025(3) Uani 0.44(3) 1 d . U P . .
F24A F 1.070(4) 0.3672(13) 0.8758(13) 0.042(3) Uani 0.56(3) 1 d . U P . .
loop_
_atom_site_aniso_label
_atom_site_aniso_U_11
_atom_site_aniso_U_22
_atom_site_aniso_U_33
_atom_site_aniso_U_23
_atom_site_aniso_U_13
_atom_site_aniso_U_12
N28 0.020(2) 0.016(2) 0.018(2) -0.0009(16) -0.0026(16) -0.0026(15)
N27 0.024(2) 0.0162(19) 0.0161(19) 0.0000(14) -0.0041(15) -0.0029(15)
C26 0.029(3) 0.015(2) 0.015(2) 0.0005(18) -0.0034(19) -0.0045(19)
C25 0.030(3) 0.028(3) 0.026(3) -0.013(2) -0.010(2) 0.008(2)
C21 0.018(2) 0.017(2) 0.011(2) -0.0023(16) -0.0045(16) -0.0048(17)
C20 0.016(2) 0.018(2) 0.016(2) -0.0035(17) -0.0034(17) -0.0041(17)
C19 0.0116(19) 0.012(2) 0.014(2) 0.0000(15) -0.0024(15) -0.0012(16)
C18 0.015(2) 0.0112(19) 0.012(2) -0.0006(16) -0.0039(16) -0.0026(16)
O17 0.0100(15) 0.0140(15) 0.0197(16) -0.0003(12) 0.0009(12) -0.0024(11)
O16 0.0160(15) 0.0113(15) 0.0221(16) -0.0032(12) -0.0043(12) 0.0004(12)
N15 0.0127(17) 0.0128(17) 0.0169(19) -0.0013(14) -0.0020(14) -0.0028(13)
N14 0.0132(17) 0.0111(17) 0.0161(18) -0.0010(13) -0.0016(14) -0.0008(13)
O13 0.0165(17) 0.0164(17) 0.038(2) -0.0026(15) 0.0039(15) -0.0046(13)
O12 0.0215(17) 0.0137(16) 0.0266(17) -0.0050(13) 0.0009(13) -0.0036(12)
C11 0.027(3) 0.019(2) 0.019(2) 0.0023(18) -0.0063(19) -0.0017(19)
C10 0.023(3) 0.031(3) 0.016(2) 0.0030(19) 0.0027(18) -0.003(2)
C9 0.023(2) 0.030(3) 0.013(2) -0.0015(19) -0.0033(18) -0.002(2)
C8 0.023(2) 0.020(2) 0.019(2) -0.0049(18) -0.0034(19) 0.0021(18)
C6 0.017(2) 0.020(2) 0.014(2) -0.0022(17) -0.0069(17) -0.0004(18)
C5 0.015(2) 0.012(2) 0.017(2) -0.0002(16) -0.0051(16) -0.0005(16)
C23 0.028(3) 0.037(3) 0.011(2) -0.001(2) -0.0021(19) -0.014(2)
C24 0.021(2) 0.042(3) 0.018(3) -0.010(2) -0.001(2) 0.000(2)
C4 0.0101(19) 0.012(2) 0.016(2) -0.0003(15) -0.0019(15) -0.0011(15)
C2 0.017(2) 0.012(2) 0.015(2) 0.0006(16) -0.0041(16) -0.0006(16)
B1 0.023(3) 0.024(3) 0.021(3) 0.000(2) -0.003(2) 0.000(2)
F1 0.083(3) 0.040(2) 0.061(3) -0.0171(18) -0.051(2) 0.019(2)
F2 0.080(3) 0.071(3) 0.085(4) 0.003(3) -0.041(3) 0.023(3)
F3 0.104(4) 0.048(3) 0.111(4) -0.005(3) 0.028(3) -0.026(3)
F4A 0.049(8) 0.050(8) 0.023(7) 0.006(5) -0.025(5) -0.004(5)
F4B 0.026(3) 0.102(6) 0.020(3) -0.011(3) 0.005(2) 0.001(3)
F4C 0.030(6) 0.028(6) 0.029(6) -0.0025(15) -0.0029(17) 0.0011(15)
F21 0.0273(16) 0.0414(18) 0.0225(15) -0.0052(13) 0.0035(12) 0.0018(13)
B2 0.016(2) 0.027(3) 0.020(3) -0.007(2) -0.004(2) 0.003(2)
F22 0.029(3) 0.037(5) 0.031(3) -0.010(3) 0.010(2) -0.009(3)
F22A 0.022(6) 0.024(7) 0.021(5) -0.006(5) 0.004(4) -0.009(5)
F23 0.0336(16) 0.0441(19) 0.0215(14) -0.0030(13) -0.0124(12) 0.0079(14)
F24 0.027(6) 0.020(4) 0.030(5) -0.001(3) -0.015(4) 0.009(4)
F24A 0.048(6) 0.034(4) 0.046(5) -0.004(3) -0.015(4) 0.007(4)
loop_
_atom_type_symbol
_atom_type_description
_atom_type_scat_dispersion_real
_atom_type_scat_dispersion_imag
_atom_type_scat_source
C C 0.0033 0.0016 'International Tables Vol C Tables 4.2.6.8 and 6.1.1.4'
H H 0.0000 0.0000 'International Tables Vol C Tables 4.2.6.8 and 6.1.1.4'
B B 0.0013 0.0007 'International Tables Vol C Tables 4.2.6.8 and 6.1.1.4'
N N 0.0061 0.0033 'International Tables Vol C Tables 4.2.6.8 and 6.1.1.4'
O O 0.0106 0.0060 'International Tables Vol C Tables 4.2.6.8 and 6.1.1.4'
F F 0.0171 0.0103 'International Tables Vol C Tables 4.2.6.8 and 6.1.1.4'
loop_
_geom_angle_atom_site_label_1
_geom_angle_atom_site_label_2
_geom_angle_atom_site_label_3
_geom_angle
_geom_angle_site_symmetry_1
_geom_angle_site_symmetry_3
C8 N28 C6 122.8(4) . .
C8 N28 H28 118.6 . .
C6 N28 H28 118.6 . .
C23 N27 C21 123.2(4) . .
C23 N27 H27 118.4 . .
C21 N27 H27 118.4 . .
C21 C26 C25 119.5(4) . .
C21 C26 H26 120.2 . .
C25 C26 H26 120.2 . .
C24 C25 C26 119.9(5) . .
C24 C25 H25 120.0 . .
C26 C25 H25 120.0 . .
N27 C21 C26 117.9(4) . .
N27 C21 C20 119.5(4) . .
C26 C21 C20 122.6(4) . .
C21 C20 C19 112.5(3) . .
C21 C20 H20A 109.1 . .
C19 C20 H20A 109.1 . .
C21 C20 H20B 109.1 . .
C19 C20 H20B 109.1 . .
H20A C20 H20B 107.8 . .
N15 C19 C18 109.3(3) . .
N15 C19 C20 108.1(3) . .
C18 C19 C20 110.1(3) . .
N15 C19 H19 114(3) . .
C18 C19 H19 111(3) . .
C20 C19 H19 103(3) . .
O16 C18 O17 126.8(4) . .
O16 C18 C19 118.9(4) . .
O17 C18 C19 114.3(3) . .
C19 N15 H15A 109.5 . .
C19 N15 H15B 109.5 . .
H15A N15 H15B 109.5 . .
C19 N15 H15C 109.5 . .
H15A N15 H15C 109.5 . .
H15B N15 H15C 109.5 . .
C4 N14 H14A 109.5 . .
C4 N14 H14B 109.5 . .
H14A N14 H14B 109.5 . .
C4 N14 H14C 109.5 . .
H14A N14 H14C 109.5 . .
H14B N14 H14C 109.5 . .
C6 C11 C10 119.5(5) . .
C6 C11 H11 120.3 . .
C10 C11 H11 120.3 . .
C9 C10 C11 120.1(4) . .
C9 C10 H10 119.9 . .
C11 C10 H10 119.9 . .
C8 C9 C10 118.8(5) . .
C8 C9 H9 120.6 . .
C10 C9 H9 120.6 . .
N28 C8 C9 120.3(5) . .
N28 C8 H8 119.8 . .
C9 C8 H8 119.8 . .
N28 C6 C11 118.4(4) . .
N28 C6 C5 119.2(4) . .
C11 C6 C5 122.4(4) . .
C6 C5 C4 116.0(4) . .
C6 C5 H5A 108.3 . .
C4 C5 H5A 108.3 . .
C6 C5 H5B 108.3 . .
C4 C5 H5B 108.3 . .
H5A C5 H5B 107.4 . .
N27 C23 C24 120.8(5) . .
N27 C23 H23 119.6 . .
C24 C23 H23 119.6 . .
C23 C24 C25 118.6(5) . .
C23 C24 H24 120.7 . .
C25 C24 H24 120.7 . .
N14 C4 C2 108.8(3) . .
N14 C4 C5 108.3(3) . .
C2 C4 C5 111.6(3) . .
N14 C4 H1 109(3) . .
C2 C4 H1 108(3) . .
C5 C4 H1 111(3) . .
O13 C2 O12 125.3(4) . .
O13 C2 C4 119.9(4) . .
O12 C2 C4 114.9(4) . .
F4B B1 F1 119.4(5) . .
F4B B1 F2 114.2(6) . .
F1 B1 F2 106.8(5) . .
F4B B1 F3 106.8(6) . .
F1 B1 F3 106.1(5) . .
F2 B1 F3 101.6(5) . .
F1 B1 F4A 105.7(7) . .
F3 B1 F4A 147.8(8) . .
F1 B1 F4C 100.3(9) . .
F4B F4A F2 106.3(10) . .
F4C F4B F4A 134.0(13) . .
F22A B2 F21 116.5(9) . .
F24 B2 F21 118.4(8) . .
F22A B2 F23 116.3(9) . .
F24 B2 F23 110.2(6) . .
F21 B2 F23 110.4(4) . .
F24 B2 F22 106.0(11) . .
F21 B2 F22 105.1(6) . .
F23 B2 F22 105.9(6) . .
F22A B2 F24A 102.7(15) . .
F22 B2 F24A 125.9(10) . .
F22 F22A F24 137(3) . .
F24A F24 F22A 131(3) . .
loop_
_geom_bond_atom_site_label_1
_geom_bond_atom_site_label_2
_geom_bond_distance
_geom_bond_site_symmetry_2
N28 C8 1.338(6) .
N28 C6 1.351(6) .
N28 H28 0.8600 .
N27 C23 1.331(6) .
N27 C21 1.351(6) .
N27 H27 0.8600 .
C26 C21 1.381(6) .
C26 C25 1.396(7) .
C26 H26 0.9300 .
C25 C24 1.380(8) .
C25 H25 0.9300 .
C21 C20 1.506(6) .
C20 C19 1.541(6) .
C20 H20A 0.9700 .
C20 H20B 0.9700 .
C19 N15 1.481(5) .
C19 C18 1.538(5) .
C19 H19 0.98(5) .
C18 O16 1.234(5) .
C18 O17 1.268(5) .
N15 H15A 0.8900 .
N15 H15B 0.8900 .
N15 H15C 0.8900 .
N14 C4 1.484(5) .
N14 H14A 0.8900 .
N14 H14B 0.8900 .
N14 H14C 0.8900 .
O13 C2 1.226(5) .
O12 C2 1.279(6) .
C11 C6 1.388(6) .
C11 C10 1.389(7) .
C11 H11 0.9300 .
C10 C9 1.379(7) .
C10 H10 0.9300 .
C9 C8 1.372(7) .
C9 H9 0.9300 .
C8 H8 0.9300 .
C6 C5 1.497(6) .
C5 C4 1.543(6) .
C5 H5A 0.9700 .
C5 H5B 0.9700 .
C23 C24 1.358(8) .
C23 H23 0.9300 .
C24 H24 0.9300 .
C4 C2 1.531(5) .
C4 H1 1.00(5) .
B1 F4B 1.328(8) .
B1 F1 1.356(6) .
B1 F2 1.373(7) .
B1 F3 1.387(7) .
B1 F4A 1.390(14) .
B1 F4C 1.417(15) .
F21 B2 1.378(6) .
B2 F22A 1.331(17) .
B2 F24 1.348(13) .
B2 F23 1.395(6) .
B2 F22 1.426(10) .
B2 F24A 1.437(14) .
loop_
_geom_hbond_atom_site_label_D
_geom_hbond_atom_site_label_H
_geom_hbond_atom_site_label_A
_geom_hbond_distance_DH
_geom_hbond_distance_HA
_geom_hbond_distance_DA
_geom_hbond_angle_DHA
_geom_hbond_site_symmetry_A
N28 H28 O12 0.86 1.81 2.631(5) 159.3 .
N27 H27 F3 0.86 2.04 2.874(7) 162.6 1_655
N27 H27 F4C 0.86 2.05 2.780(19) 142.5 1_655
C26 H26 O13 0.93 2.41 3.236(5) 148.3 .
C20 H20A O13 0.97 2.58 3.246(6) 126.0 .
C20 H20B F3 0.97 2.44 3.245(7) 140.4 1_655
N15 H15A F22 0.89 2.18 2.860(8) 132.8 1_455
N15 H15A F22A 0.89 2.10 2.809(17) 136.4 1_455
N15 H15A F23 0.89 2.29 2.938(4) 129.1 .
N15 H15B O12 0.89 1.86 2.745(5) 171.3 .
N15 H15C O17 0.89 1.94 2.797(5) 161.4 1_455
N14 H14A F1 0.89 2.29 2.759(5) 112.5 1_545
N14 H14A F2 0.89 2.27 3.078(7) 150.7 1_645
N14 H14B O17 0.89 1.85 2.734(5) 169.5 1_445
N14 H14C O16 0.89 2.02 2.800(5) 145.1 1_545
C11 H11 F21 0.93 2.50 3.354(6) 152.7 1_445
C9 H9 F4A 0.93 2.52 3.281(17) 138.9 1_446
C8 H8 F24 0.93 2.44 3.096(15) 127.3 1_355
C4 H1 O13 1.00(5) 2.52(5) 3.479(5) 161(4) 1_455
