#------------------------------------------------------------------------------
#$Date: 2019-10-09 09:35:19 +0300 (Wed, 09 Oct 2019) $
#$Revision: 219189 $
#$URL: file:///home/coder/svn-repositories/cod/cif/7/23/44/7234480.cif $
#------------------------------------------------------------------------------
#
# This file is available in the Crystallography Open Database (COD),
# http://www.crystallography.net/
#
# All data on this site have been placed in the public domain by the
# contributors.
#
data_7234480
loop_
_publ_author_name
'Yongkwan Dong'
'Lukasz Wojtas'
'Joshua Martin'
'George S. Nolas'
_publ_section_title
;
 Synthesis, Crystal Structure, and Transport Properties of Quaternary
 Tetrahedral Chalcogenides
;
_journal_issue                   40
_journal_name_full               'Journal of Materials Chemistry C'
_journal_page_first              10436
_journal_page_last               10441
_journal_paper_doi               10.1039/C5TC01606A
_journal_volume                  3
_journal_year                    2015
_chemical_formula_moiety         'Cu2.2 Fe0.8 Sn Se4'
_chemical_formula_sum            'Cu2.2 Fe0.8 Se4 Sn'
_chemical_formula_weight         619.027
_space_group_IT_number           121
_space_group_name_Hall           'I -4 2'
_space_group_name_H-M_alt        'I -4 2 m'
_symmetry_cell_setting           tetragonal
_symmetry_Int_Tables_number      121
_symmetry_space_group_name_H-M   'I -4 2 m'
_cell_angle_alpha                90
_cell_angle_beta                 90
_cell_angle_gamma                90
_cell_formula_units_Z            2
_cell_length_a                   5.692729(42)
_cell_length_b                   5.692729(42)
_cell_length_c                   11.29822(12)
_cell_measurement_temperature    298
_cell_volume                     366.143(5)
_computing_structure_refinement  'TOPAS 4.2'
_diffrn_ambient_temperature      298
_diffrn_detector                 'Bruker Lynxeye PSD'
_diffrn_detector_type            Lynxeye
_diffrn_measurement_method       'reflection, flat sample, Bragg-Brentano'
_diffrn_radiation_monochromator  none
_diffrn_radiation_polarisn_ratio 1
_diffrn_radiation_probe          x-ray
_diffrn_radiation_source         'fine-focus sealed tube'
_diffrn_radiation_type           'Cu K\a'
_diffrn_source_type              'Bruker D8 Advance with DaVinci'
_exptl_absorpt_process_details
;   
 ?
;
_exptl_crystal_colour            black
_exptl_crystal_density_diffrn    5.6148
_exptl_crystal_description
;
microcrystalline powder
;
_pd_calc_method                  'Rietveld Refinement'
_pd_meas_2theta_range_inc        0.01
_pd_meas_2theta_range_max        100
_pd_meas_2theta_range_min        15
_pd_meas_scan_method             step
_pd_proc_ls_background_function
;   
'Chebyshev polynomial, 1/X background function '
;
_pd_proc_ls_profile_function
;
 Fundamental parameters
;
_pd_proc_ls_prof_R_factor        0.03520
_pd_proc_ls_prof_wR_expected     0.02847
_pd_proc_ls_prof_wR_factor       0.04572
_pd_spec_mount_mode              reflection
_pd_spec_shape                   flat_sheet
_refine_ls_goodness_of_fit_all   1.606
_refine_ls_number_parameters     15
_refine_ls_R_Fsqd_factor         0.01945
_cod_data_source_file            J-Mater-Chem-C-2015-3-10436.cif
_cod_data_source_block           2
_cod_original_cell_volume        366.1431(66)
_cod_original_sg_symbol_H-M      I-42m
_cod_original_formula_sum        'Cu2.2 Fe0.8 Sn Se4'
_cod_database_code               7234480
loop_
_symmetry_equiv_pos_as_xyz
'-x, -y, z'
'-x, y, -z'
'-x+1/2, -y+1/2, z+1/2'
'-x+1/2, y+1/2, -z+1/2'
'-y, -x, z'
'-y, x, -z'
'-y+1/2, -x+1/2, z+1/2'
'-y+1/2, x+1/2, -z+1/2'
'y, -x, -z'
'y, x, z'
'y+1/2, -x+1/2, -z+1/2'
'y+1/2, x+1/2, z+1/2'
'x, -y, -z'
'x, y, z'
'x+1/2, -y+1/2, -z+1/2'
'x+1/2, y+1/2, z+1/2'
loop_
_atom_site_label
_atom_site_type_symbol
_atom_site_symmetry_multiplicity
_atom_site_fract_x
_atom_site_fract_y
_atom_site_fract_z
_atom_site_occupancy
_atom_site_B_iso_or_equiv
Cu1 Cu 4 0 0.5 0.25 1 3.93(15)
Cu2 Cu 2 0 0 0 0.2 0.87(15)
Fe Fe 2 0 0 0 0.8 0.87(15)
Sn Sn 2 0 0 0.5 1 3.95(10)
Se Se 8 0.23814(20) 0.23814(20) 0.12805(20) 1 2.092(67)
loop_
_diffrn_radiation_wavelength
1.534753
1.540596
1.541058
1.544410
1.544721
loop_
_pd_meas_2theta_scan
_pd_proc_intensity_total
_pd_calc_intensity_total
15.00010 1293.45496 1351.00000
15.01034 1293.11659 1318.00000
15.02058 1292.77977 1374.00000
15.03082 1292.44464 1318.00000
15.04107 1292.11138 1315.00000
15.05131 1291.78023 1312.00000
15.06155 1291.45150 1330.00000
15.07179 1291.12567 1370.00000
15.08203 1290.80342 1341.00000
15.09227 1290.48592 1366.00000
15.10251 1290.17520 1331.00000
15.11276 1289.87452 1337.00000
15.12300 1289.58711 1420.00000
15.13324 1289.31183 1350.00000
15.14348 1289.03612 1357.00000
15.15372 1288.74595 1284.00000
15.16396 1288.45067 1357.00000
15.17421 1288.15818 1337.00000
15.18445 1287.87118 1395.00000
15.19469 1287.59113 1355.00000
15.20493 1287.31996 1374.00000
15.21517 1287.05970 1371.00000
15.22541 1286.81038 1336.00000
15.23565 1286.56668 1411.00000
15.24590 1286.32254 1302.00000
15.25614 1286.08289 1357.00000
15.26638 1285.85215 1322.00000
15.27662 1285.63234 1417.00000
15.28686 1285.42491 1368.00000
15.29710 1285.23146 1406.00000
15.30734 1285.05390 1386.00000
15.31759 1284.89448 1375.00000
15.32783 1284.75592 1391.00000
15.33807 1284.64149 1313.00000
15.34831 1284.55518 1324.00000
15.35855 1284.50191 1323.00000
15.36879 1284.48783 1364.00000
15.37903 1284.52071 1394.00000
15.38928 1284.61050 1341.00000
15.39952 1284.77020 1377.00000
15.40976 1285.01714 1381.00000
15.42000 1285.37522 1385.00000
15.43024 1285.87853 1348.00000
15.44048 1286.57684 1403.00000
15.45072 1287.54262 1385.00000
15.46097 1288.87878 1416.00000
15.47121 1290.72766 1280.00000
15.48145 1293.28342 1360.00000
15.49169 1296.80886 1312.00000
15.50193 1301.65820 1350.00000
15.51217 1308.30766 1320.00000
15.52242 1317.39366 1349.00000
15.53266 1329.76045 1445.00000
15.54290 1346.53151 1398.00000
15.55314 1369.25575 1450.00000
15.56338 1400.23222 1513.00000
15.57362 1443.08630 1533.00000
15.58386 1503.23595 1568.00000
15.59411 1586.57052 1667.00000
15.60435 1693.14676 1626.00000
15.61459 1804.72938 1764.00000
15.62483 1875.63244 1827.00000
15.63507 1856.79244 1778.00000
15.64531 1764.92197 1817.00000
15.65555 1679.58833 1685.00000
15.66580 1616.67740 1634.00000
15.67604 1541.94773 1583.00000
15.68628 1452.45866 1503.00000
15.69652 1381.46658 1426.00000
15.70676 1339.36507 1386.00000
15.71700 1316.61953 1441.00000
15.72724 1303.58033 1299.00000
15.73749 1295.31367 1375.00000
15.74773 1289.62818 1342.00000
15.75797 1285.47855 1357.00000
15.76821 1282.31133 1293.00000
15.77845 1279.80740 1302.00000
15.78869 1277.77037 1292.00000
15.79893 1276.07303 1280.00000
15.80918 1274.62963 1311.00000
15.81942 1273.38038 1307.00000
15.82966 1272.28249 1379.00000
15.83990 1271.30455 1316.00000
15.85014 1270.42314 1270.00000
15.86038 1269.62048 1349.00000
15.87063 1268.88290 1377.00000
15.88087 1268.19979 1299.00000
15.89111 1267.56324 1287.00000
15.90135 1266.96911 1350.00000
15.91159 1266.41888 1318.00000
15.92183 1265.91765 1232.00000
15.93207 1265.45461 1279.00000
15.94232 1264.98976 1355.00000
15.95256 1264.52306 1262.00000
15.96280 1264.06634 1319.00000
15.97304 1263.62284 1351.00000
15.98328 1263.19166 1297.00000
15.99352 1262.77147 1361.00000
16.00376 1262.36109 1245.00000
16.01401 1261.95951 1257.00000
16.02425 1261.56582 1349.00000
16.03449 1261.17924 1291.00000
16.04473 1260.79905 1243.00000
16.05497 1260.42461 1314.00000
16.06521 1260.05529 1305.00000
16.07545 1259.69048 1320.00000
16.08570 1259.32952 1354.00000
16.09594 1258.97159 1295.00000
16.10618 1258.61553 1289.00000
16.11642 1258.25970 1249.00000
16.12666 1257.90260 1278.00000
16.13690 1257.54496 1308.00000
16.14714 1257.19292 1331.00000
16.15739 1256.85270 1300.00000
16.16763 1256.51868 1369.00000
16.17787 1256.18602 1314.00000
16.18811 1255.85231 1313.00000
16.19835 1255.51615 1287.00000
16.20859 1255.17850 1231.00000
16.21884 1254.84585 1287.00000
16.22908 1254.52482 1334.00000
16.23932 1254.21032 1333.00000
16.24956 1253.89837 1342.00000
16.25980 1253.58796 1344.00000
16.27004 1253.27895 1248.00000
16.28028 1252.97132 1288.00000
16.29053 1252.66501 1331.00000
16.30077 1252.36000 1283.00000
16.31101 1252.05626 1273.00000
16.32125 1251.75378 1255.00000
16.33149 1251.45257 1304.00000
16.34173 1251.15264 1292.00000
16.35197 1250.85404 1287.00000
16.36222 1250.55686 1271.00000
16.37246 1250.26124 1332.00000
16.38270 1249.96741 1353.00000
16.39294 1249.67573 1268.00000
16.40318 1249.38681 1343.00000
16.41342 1249.10164 1311.00000
16.42366 1248.82213 1338.00000
16.43391 1248.55210 1283.00000
16.44415 1248.29744 1298.00000
16.45439 1248.06168 1256.00000
16.46463 1247.83198 1317.00000
16.47487 1247.57710 1287.00000
16.48511 1247.30277 1218.00000
16.49535 1247.02324 1293.00000
16.50560 1246.74315 1286.00000
16.51584 1246.46233 1298.00000
16.52608 1246.17946 1263.00000
16.53632 1245.89333 1387.00000
16.54656 1245.60498 1272.00000
16.55680 1245.32103 1302.00000
16.56705 1245.04830 1328.00000
16.57729 1244.78192 1242.00000
16.58753 1244.51810 1283.00000
16.59777 1244.25590 1267.00000
16.60801 1243.99532 1307.00000
16.61825 1243.73641 1266.00000
16.62849 1243.47923 1279.00000
16.63874 1243.22386 1261.00000
16.64898 1242.97035 1276.00000
16.65922 1242.71880 1317.00000
16.66946 1242.46928 1267.00000
16.67970 1242.22190 1248.00000
16.68994 1241.97675 1298.00000
16.70018 1241.73399 1205.00000
16.71043 1241.49379 1308.00000
16.72067 1241.25635 1242.00000
16.73091 1241.02194 1330.00000
16.74115 1240.79094 1273.00000
16.75139 1240.56381 1277.00000
16.76163 1240.34124 1258.00000
16.77187 1240.12418 1255.00000
16.78212 1239.91411 1321.00000
16.79236 1239.71336 1315.00000
16.80260 1239.52613 1250.00000
16.81284 1239.36053 1319.00000
16.82308 1239.22910 1263.00000
16.83332 1239.13987 1272.00000
16.84356 1239.06832 1360.00000
16.85381 1238.95280 1241.00000
16.86405 1238.80479 1265.00000
16.87429 1238.65369 1258.00000
16.88453 1238.51059 1277.00000
16.89477 1238.37828 1269.00000
16.90501 1238.25902 1272.00000
16.91526 1238.15662 1321.00000
16.92550 1238.07659 1251.00000
16.93574 1238.02263 1362.00000
16.94598 1237.98545 1259.00000
16.95622 1237.94369 1243.00000
16.96646 1237.91074 1284.00000
16.97670 1237.89673 1256.00000
16.98695 1237.90447 1256.00000
16.99719 1237.93593 1308.00000
17.00743 1237.99379 1283.00000
17.01767 1238.08113 1234.00000
17.02791 1238.20151 1298.00000
17.03815 1238.35908 1235.00000
17.04839 1238.55869 1243.00000
17.05864 1238.80600 1305.00000
17.06888 1239.10773 1223.00000
17.07912 1239.47183 1255.00000
17.08936 1239.90785 1219.00000
17.09960 1240.42729 1327.00000
17.10984 1241.04419 1271.00000
17.12008 1241.77580 1317.00000
17.13033 1242.64357 1300.00000
17.14057 1243.67452 1260.00000
17.15081 1244.90303 1304.00000
17.16105 1246.37342 1307.00000
17.17129 1248.14365 1271.00000
17.18153 1250.29090 1292.00000
17.19177 1252.92072 1299.00000
17.20202 1256.18208 1281.00000
17.21226 1260.29133 1299.00000
17.22250 1265.56524 1316.00000
17.23274 1272.46029 1328.00000
17.24298 1281.61660 1304.00000
17.25322 1293.91232 1322.00000
17.26347 1310.53567 1388.00000
17.27371 1333.07480 1395.00000
17.28395 1363.62505 1424.00000
17.29419 1404.95646 1459.00000
17.30443 1460.91035 1604.00000
17.31467 1537.34117 1633.00000
17.32491 1643.76770 1735.00000
17.33516 1795.08763 2002.00000
17.34540 2010.95074 2138.00000
17.35564 2305.62476 2490.00000
17.36588 2655.58926 2692.00000
17.37612 2951.20833 2799.00000
17.38636 3013.83680 2911.00000
17.39660 2796.38768 2793.00000
17.40685 2525.81621 2638.00000
17.41709 2358.11275 2327.00000
17.42733 2221.56716 2310.00000
17.43757 2006.20999 1990.00000
17.44781 1752.02943 1805.00000
17.45805 1554.93402 1552.00000
17.46829 1436.42696 1497.00000
17.47854 1370.03550 1400.00000
17.48878 1330.88422 1289.00000
17.49902 1305.79674 1306.00000
17.50926 1288.55691 1344.00000
17.51950 1276.07365 1294.00000
17.52974 1266.66930 1366.00000
17.53998 1259.36121 1416.00000
17.55023 1253.53786 1309.00000
17.56047 1248.80003 1224.00000
17.57071 1244.87674 1307.00000
17.58095 1241.57809 1253.00000
17.59119 1238.76733 1330.00000
17.60143 1236.34374 1300.00000
17.61168 1234.23160 1215.00000
17.62192 1232.37295 1273.00000
17.63216 1230.72271 1231.00000
17.64240 1229.24515 1264.00000
17.65264 1227.91144 1270.00000
17.66288 1226.69747 1279.00000
17.67312 1225.58173 1253.00000
17.68337 1224.54436 1231.00000
17.69361 1223.57058 1227.00000
17.70385 1222.66264 1288.00000
17.71409 1221.84025 1233.00000
17.72433 1221.08926 1246.00000
17.73457 1220.38887 1212.00000
17.74481 1219.72878 1264.00000
17.75506 1219.10384 1269.00000
17.76530 1218.51017 1293.00000
17.77554 1217.94445 1199.00000
17.78578 1217.40378 1249.00000
17.79602 1216.88564 1171.00000
17.80626 1216.38781 1235.00000
17.81650 1215.90832 1213.00000
17.82675 1215.44542 1224.00000
17.83699 1214.99755 1215.00000
17.84723 1214.56327 1234.00000
17.85747 1214.14125 1178.00000
17.86771 1213.73021 1230.00000
17.87795 1213.32886 1185.00000
17.88819 1212.93579 1239.00000
17.89844 1212.54931 1176.00000
17.90868 1212.16698 1293.00000
17.91892 1211.78463 1299.00000
17.92916 1211.39632 1220.00000
17.93940 1210.99863 1192.00000
17.94964 1210.60408 1216.00000
17.95989 1210.24216 1216.00000
17.97013 1209.90516 1213.00000
17.98037 1209.57653 1252.00000
17.99061 1209.24890 1245.00000
18.00085 1208.91780 1264.00000
18.01109 1208.57759 1255.00000
18.02133 1208.22529 1200.00000
18.03158 1207.87383 1201.00000
18.04182 1207.55334 1204.00000
18.05206 1207.25694 1191.00000
18.06230 1206.96918 1266.00000
18.07254 1206.68458 1154.00000
18.08278 1206.40228 1256.00000
18.09302 1206.12216 1223.00000
18.10327 1205.84408 1243.00000
18.11351 1205.56797 1242.00000
18.12375 1205.29372 1224.00000
18.13399 1205.02124 1227.00000
18.14423 1204.75047 1284.00000
18.15447 1204.48131 1211.00000
18.16471 1204.21370 1190.00000
18.17496 1203.94758 1166.00000
18.18520 1203.68288 1180.00000
18.19544 1203.41955 1134.00000
18.20568 1203.15753 1224.00000
18.21592 1202.89676 1203.00000
18.22616 1202.63721 1247.00000
18.23640 1202.37882 1183.00000
18.24665 1202.12154 1178.00000
18.25689 1201.86532 1190.00000
18.26713 1201.61009 1221.00000
18.27737 1201.35577 1213.00000
18.28761 1201.10228 1197.00000
18.29785 1200.84948 1200.00000
18.30810 1200.59719 1221.00000
18.31834 1200.34517 1235.00000
18.32858 1200.09304 1245.00000
18.33882 1199.84023 1223.00000
18.34906 1199.58576 1161.00000
18.35930 1199.32783 1196.00000
18.36954 1199.06283 1188.00000
18.37979 1198.78525 1219.00000
18.39003 1198.49207 1238.00000
18.40027 1198.19642 1225.00000
18.41051 1197.92905 1220.00000
18.42075 1197.68361 1204.00000
18.43099 1197.44485 1264.00000
18.44123 1197.20736 1247.00000
18.45148 1196.97042 1239.00000
18.46172 1196.73398 1189.00000
18.47196 1196.49803 1183.00000
18.48220 1196.26256 1256.00000
18.49244 1196.02757 1243.00000
18.50268 1195.79305 1199.00000
18.51292 1195.55899 1192.00000
18.52317 1195.32538 1242.00000
18.53341 1195.09222 1191.00000
18.54365 1194.85949 1255.00000
18.55389 1194.62720 1166.00000
18.56413 1194.39534 1219.00000
18.57437 1194.16390 1182.00000
18.58461 1193.93288 1245.00000
18.59486 1193.70227 1250.00000
18.60510 1193.47206 1143.00000
18.61534 1193.24225 1243.00000
18.62558 1193.01284 1239.00000
18.63582 1192.78383 1158.00000
18.64606 1192.55519 1157.00000
18.65631 1192.32695 1201.00000
18.66655 1192.09908 1223.00000
18.67679 1191.87158 1184.00000
18.68703 1191.64445 1153.00000
18.69727 1191.41768 1248.00000
18.70751 1191.19124 1215.00000
18.71775 1190.96511 1146.00000
18.72800 1190.73923 1198.00000
18.73824 1190.51355 1231.00000
18.74848 1190.28796 1139.00000
18.75872 1190.06230 1224.00000
18.76896 1189.83635 1218.00000
18.77920 1189.60974 1230.00000
18.78944 1189.38190 1175.00000
18.79969 1189.15186 1215.00000
18.80993 1188.91779 1158.00000
18.82017 1188.67601 1182.00000
18.83041 1188.42087 1206.00000
18.84065 1188.14921 1175.00000
18.85089 1187.87426 1128.00000
18.86113 1187.62729 1202.00000
18.87138 1187.40223 1145.00000
18.88162 1187.18368 1170.00000
18.89186 1186.96616 1223.00000
18.90210 1186.74892 1187.00000
18.91234 1186.53195 1127.00000
18.92258 1186.31523 1209.00000
18.93283 1186.09877 1206.00000
18.94307 1185.88256 1181.00000
18.95331 1185.66661 1197.00000
18.96355 1185.45092 1209.00000
18.97379 1185.23547 1230.00000
18.98403 1185.02029 1186.00000
18.99427 1184.80535 1164.00000
19.00452 1184.59067 1214.00000
19.01476 1184.37624 1137.00000
19.02500 1184.16206 1146.00000
19.03524 1183.94813 1200.00000
19.04548 1183.73446 1156.00000
19.05572 1183.52103 1128.00000
19.06596 1183.30786 1243.00000
19.07621 1183.09494 1125.00000
19.08645 1182.88226 1211.00000
19.09669 1182.66984 1194.00000
19.10693 1182.45766 1234.00000
19.11717 1182.24574 1151.00000
19.12741 1182.03406 1195.00000
19.13765 1181.82262 1168.00000
19.14790 1181.61144 1176.00000
19.15814 1181.40050 1150.00000
19.16838 1181.18981 1162.00000
19.17862 1180.97937 1210.00000
19.18886 1180.76917 1180.00000
19.19910 1180.55921 1145.00000
19.20934 1180.34951 1135.00000
19.21959 1180.14004 1133.00000
19.22983 1179.93082 1145.00000
19.24007 1179.72184 1160.00000
19.25031 1179.51311 1186.00000
19.26055 1179.30462 1115.00000
19.27079 1179.09637 1150.00000
19.28104 1178.88837 1155.00000
19.29128 1178.68060 1222.00000
19.30152 1178.47308 1127.00000
19.31176 1178.26580 1192.00000
19.32200 1178.05876 1160.00000
19.33224 1177.85196 1166.00000
19.34248 1177.64540 1129.00000
19.35273 1177.43908 1121.00000
19.36297 1177.23299 1181.00000
19.37321 1177.02715 1110.00000
19.38345 1176.82155 1214.00000
19.39369 1176.61618 1162.00000
19.40393 1176.41105 1120.00000
19.41417 1176.20616 1209.00000
19.42442 1176.00150 1195.00000
19.43466 1175.79708 1186.00000
19.44490 1175.59290 1173.00000
19.45514 1175.38896 1147.00000
19.46538 1175.18524 1133.00000
19.47562 1174.98177 1158.00000
19.48586 1174.77853 1151.00000
19.49611 1174.57552 1207.00000
19.50635 1174.37274 1189.00000
19.51659 1174.17020 1098.00000
19.52683 1173.96790 1220.00000
19.53707 1173.76582 1176.00000
19.54731 1173.56398 1167.00000
19.55755 1173.36237 1160.00000
19.56780 1173.16099 1166.00000
19.57804 1172.95985 1149.00000
19.58828 1172.75893 1144.00000
19.59852 1172.55824 1138.00000
19.60876 1172.35779 1185.00000
19.61900 1172.15756 1170.00000
19.62925 1171.95757 1179.00000
19.63949 1171.75780 1123.00000
19.64973 1171.55826 1147.00000
19.65997 1171.35895 1084.00000
19.67021 1171.15987 1131.00000
19.68045 1170.96102 1154.00000
19.69069 1170.76239 1160.00000
19.70094 1170.56399 1165.00000
19.71118 1170.36582 1149.00000
19.72142 1170.16788 1165.00000
19.73166 1169.97016 1163.00000
19.74190 1169.77266 1125.00000
19.75214 1169.57539 1159.00000
19.76238 1169.37835 1178.00000
19.77263 1169.18153 1101.00000
19.78287 1168.98493 1166.00000
19.79311 1168.78856 1172.00000
19.80335 1168.59241 1145.00000
19.81359 1168.39649 1073.00000
19.82383 1168.20078 1169.00000
19.83407 1168.00530 1199.00000
19.84432 1167.81005 1113.00000
19.85456 1167.61501 1172.00000
19.86480 1167.42020 1176.00000
19.87504 1167.22560 1143.00000
19.88528 1167.03123 1103.00000
19.89552 1166.83708 1103.00000
19.90576 1166.64315 1205.00000
19.91601 1166.44943 1208.00000
19.92625 1166.25594 1180.00000
19.93649 1166.06267 1189.00000
19.94673 1165.86961 1134.00000
19.95697 1165.67677 1127.00000
19.96721 1165.48415 1109.00000
19.97746 1165.29175 1212.00000
19.98770 1165.09957 1117.00000
19.99794 1164.90760 1225.00000
20.00818 1164.71585 1109.00000
20.01842 1164.52432 1134.00000
20.02866 1164.33300 1170.00000
20.03890 1164.14190 1129.00000
20.04915 1163.95102 1124.00000
20.05939 1163.76036 1177.00000
20.06963 1163.56995 1083.00000
20.07987 1163.37980 1134.00000
20.09011 1163.18999 1160.00000
20.10035 1163.00058 1123.00000
20.11059 1162.81176 1161.00000
20.12084 1162.62377 1119.00000
20.13108 1162.43714 1098.00000
20.14132 1162.25290 1151.00000
20.15156 1162.07330 1201.00000
20.16180 1161.90205 1100.00000
20.17204 1161.73976 1128.00000
20.18228 1161.57518 1159.00000
20.19253 1161.39524 1148.00000
20.20277 1161.20926 1112.00000
20.21301 1161.02289 1144.00000
20.22325 1160.83673 1145.00000
20.23349 1160.65079 1178.00000
20.24373 1160.46509 1178.00000
20.25397 1160.27962 1130.00000
20.26422 1160.09438 1107.00000
20.27446 1159.90936 1174.00000
20.28470 1159.72458 1148.00000
20.29494 1159.54002 1075.00000
20.30518 1159.35570 1117.00000
20.31542 1159.17161 1091.00000
20.32567 1158.98774 1071.00000
20.33591 1158.80411 1130.00000
20.34615 1158.62071 1118.00000
20.35639 1158.43754 1260.00000
20.36663 1158.25460 1107.00000
20.37687 1158.07189 1130.00000
20.38711 1157.88942 1129.00000
20.39736 1157.70718 1163.00000
20.40760 1157.52517 1164.00000
20.41784 1157.34340 1108.00000
20.42808 1157.16186 1110.00000
20.43832 1156.98056 1116.00000
20.44856 1156.79949 1161.00000
20.45880 1156.61865 1067.00000
20.46905 1156.43806 1091.00000
20.47929 1156.25770 1140.00000
20.48953 1156.07758 1203.00000
20.49977 1155.89769 1138.00000
20.51001 1155.71805 1141.00000
20.52025 1155.53864 1148.00000
20.53049 1155.35948 1145.00000
20.54074 1155.18056 1115.00000
20.55098 1155.00188 1101.00000
20.56122 1154.82344 1130.00000
20.57146 1154.64525 1121.00000
20.58170 1154.46730 1135.00000
20.59194 1154.28959 1157.00000
20.60218 1154.11214 1197.00000
20.61243 1153.93493 1164.00000
20.62267 1153.75798 1131.00000
20.63291 1153.58127 1174.00000
20.64315 1153.40482 1121.00000
20.65339 1153.22862 1159.00000
20.66363 1153.05267 1107.00000
20.67388 1152.87698 1078.00000
20.68412 1152.70155 1130.00000
20.69436 1152.52638 1105.00000
20.70460 1152.35147 1114.00000
20.71484 1152.17682 1085.00000
20.72508 1152.00244 1092.00000
20.73532 1151.82832 1133.00000
20.74557 1151.65449 1150.00000
20.75581 1151.48096 1060.00000
20.76605 1151.30776 1122.00000
20.77629 1151.13494 1131.00000
20.78653 1150.96261 1092.00000
20.79677 1150.79092 1124.00000
20.80701 1150.62015 1102.00000
20.81726 1150.45081 1140.00000
20.82750 1150.28394 1178.00000
20.83774 1150.12183 1116.00000
20.84798 1149.96819 1126.00000
20.85822 1149.82364 1108.00000
20.86846 1149.67700 1122.00000
20.87870 1149.51533 1141.00000
20.88895 1149.34783 1170.00000
20.89919 1149.18008 1078.00000
20.90943 1149.01268 1105.00000
20.91967 1148.84566 1164.00000
20.92991 1148.67901 1187.00000
20.94015 1148.51274 1131.00000
20.95039 1148.34687 1094.00000
20.96064 1148.18139 1135.00000
20.97088 1148.01633 1074.00000
20.98112 1147.85168 1102.00000
20.99136 1147.68745 1094.00000
21.00160 1147.52366 1048.00000
21.01184 1147.36031 1136.00000
21.02209 1147.19742 1118.00000
21.03233 1147.03499 1104.00000
21.04257 1146.87304 1149.00000
21.05281 1146.71158 1108.00000
21.06305 1146.55062 1096.00000
21.07329 1146.39017 1135.00000
21.08353 1146.23025 1139.00000
21.09378 1146.07088 1081.00000
21.10402 1145.91206 1107.00000
21.11426 1145.75382 1055.00000
21.12450 1145.59618 1089.00000
21.13474 1145.43914 1067.00000
21.14498 1145.28274 1094.00000
21.15522 1145.12699 1125.00000
21.16547 1144.97192 1092.00000
21.17571 1144.81755 1125.00000
21.18595 1144.66390 1116.00000
21.19619 1144.51101 1126.00000
21.20643 1144.35890 1089.00000
21.21667 1144.20763 1101.00000
21.22691 1144.05725 1151.00000
21.23716 1143.90786 1074.00000
21.24740 1143.75961 1101.00000
21.25764 1143.61272 1114.00000
21.26788 1143.46756 1130.00000
21.27812 1143.32472 1120.00000
21.28836 1143.18528 1106.00000
21.29860 1143.05138 1113.00000
21.30885 1142.92766 1095.00000
21.31909 1142.82165 1235.00000
21.32933 1142.73481 1184.00000
21.33957 1142.64517 1107.00000
21.34981 1142.52731 1074.00000
21.36005 1142.39920 1129.00000
21.37030 1142.27185 1092.00000
21.38054 1142.14659 1135.00000
21.39078 1142.02367 1084.00000
21.40102 1141.90336 1188.00000
21.41126 1141.78610 1125.00000
21.42150 1141.67253 1032.00000
21.43174 1141.56389 1132.00000
21.44199 1141.46261 1134.00000
21.45223 1141.37262 1118.00000
21.46247 1141.29496 1103.00000
21.47271 1141.21924 1060.00000
21.48295 1141.13329 1131.00000
21.49319 1141.04593 1084.00000
21.50343 1140.96275 1115.00000
21.51368 1140.88466 1031.00000
21.52392 1140.81212 1073.00000
21.53416 1140.74557 1083.00000
21.54440 1140.68553 1065.00000
21.55464 1140.63258 1108.00000
21.56488 1140.58736 1096.00000
21.57512 1140.55058 1073.00000
21.58537 1140.52305 1088.00000
21.59561 1140.50567 1137.00000
21.60585 1140.49946 1056.00000
21.61609 1140.50559 1145.00000
21.62633 1140.52538 1120.00000
21.63657 1140.56032 1178.00000
21.64681 1140.61213 1132.00000
21.65706 1140.68281 1102.00000
21.66730 1140.77463 1128.00000
21.67754 1140.89026 1086.00000
21.68778 1141.03278 1113.00000
21.69802 1141.20584 1126.00000
21.70826 1141.41372 1095.00000
21.71851 1141.66151 1101.00000
21.72875 1141.95529 1197.00000
21.73899 1142.30241 1150.00000
21.74923 1142.71176 1084.00000
21.75947 1143.19427 1122.00000
21.76971 1143.76346 1101.00000
21.77995 1144.43620 1094.00000
21.79020 1145.23384 1105.00000
21.80044 1146.18355 1095.00000
21.81068 1147.32029 1169.00000
21.82092 1148.68931 1134.00000
21.83116 1150.34967 1133.00000
21.84140 1152.37892 1082.00000
21.85164 1154.87982 1068.00000
21.86189 1157.98982 1082.00000
21.87213 1161.89469 1130.00000
21.88237 1166.84732 1103.00000
21.89261 1173.19105 1107.00000
21.90285 1181.38762 1160.00000
21.91309 1192.06765 1198.00000
21.92333 1206.16126 1112.00000
21.93358 1225.18717 1165.00000
21.94382 1251.70763 1215.00000
21.95406 1289.82446 1233.00000
21.96430 1345.57838 1334.00000
21.97454 1427.05413 1278.00000
21.98478 1542.81454 1431.00000
21.99502 1693.94852 1470.00000
22.00527 1854.47835 1551.00000
22.01551 1955.84829 1574.00000
22.02575 1928.62687 1622.00000
22.03599 1799.29670 1603.00000
22.04623 1681.48547 1506.00000
22.05647 1631.72848 1446.00000
22.06672 1618.15903 1412.00000
22.07696 1580.25264 1434.00000
22.08720 1490.66843 1383.00000
22.09744 1382.23589 1272.00000
22.10768 1297.67106 1341.00000
22.11792 1244.61592 1183.00000
22.12816 1212.68084 1147.00000
22.13841 1192.57658 1158.00000
22.14865 1179.11660 1154.00000
22.15889 1169.60693 1149.00000
22.16913 1162.59219 1094.00000
22.17937 1157.23670 1078.00000
22.18961 1153.03236 1157.00000
22.19985 1149.65478 1130.00000
22.21010 1146.88824 1134.00000
22.22034 1144.58423 1101.00000
22.23058 1142.63755 1087.00000
22.24082 1140.97177 1054.00000
22.25106 1139.53020 1085.00000
22.26130 1138.26995 1093.00000
22.27154 1137.15811 1095.00000
22.28179 1136.16897 1080.00000
22.29203 1135.28225 1114.00000
22.30227 1134.48174 1155.00000
22.31251 1133.75432 1157.00000
22.32275 1133.08930 1192.00000
22.33299 1132.47782 1101.00000
22.34323 1131.91248 1075.00000
22.35348 1131.38698 1088.00000
22.36372 1130.89578 1068.00000
22.37396 1130.43364 1067.00000
22.38420 1129.99485 1081.00000
22.39444 1129.57301 1089.00000
22.40468 1129.16536 1106.00000
22.41493 1128.78068 1084.00000
22.42517 1128.42878 1068.00000
22.43541 1128.09832 1129.00000
22.44565 1127.78220 1029.00000
22.45589 1127.47850 1055.00000
22.46613 1127.18603 1095.00000
22.47637 1126.90377 1154.00000
22.48662 1126.63078 1156.00000
22.49686 1126.36627 1141.00000
22.50710 1126.10950 1109.00000
22.51734 1125.85984 1055.00000
22.52758 1125.61670 1101.00000
22.53782 1125.37956 1134.00000
22.54806 1125.14796 1072.00000
22.55831 1124.92147 1009.00000
22.56855 1124.69972 1108.00000
22.57879 1124.48235 1039.00000
22.58903 1124.26905 1065.00000
22.59927 1124.05955 1056.00000
22.60951 1123.85357 1097.00000
22.61975 1123.65087 1086.00000
22.63000 1123.45123 1079.00000
22.64024 1123.25441 1078.00000
22.65048 1123.06019 1090.00000
22.66072 1122.86831 1092.00000
22.67096 1122.67849 1101.00000
22.68120 1122.49033 1095.00000
22.69145 1122.30324 1011.00000
22.70169 1122.11616 1112.00000
22.71193 1121.92689 1059.00000
22.72217 1121.73200 1083.00000
22.73241 1121.53123 1105.00000
22.74265 1121.33553 1121.00000
22.75289 1121.15658 1051.00000
22.76314 1120.98486 1058.00000
22.77338 1120.81469 999.00000
22.78362 1120.64516 1111.00000
22.79386 1120.47574 1082.00000
22.80410 1120.30542 1067.00000
22.81434 1120.13205 1071.00000
22.82458 1119.95222 1068.00000
22.83483 1119.76575 1135.00000
22.84507 1119.58371 1112.00000
22.85531 1119.41798 1092.00000
22.86555 1119.25911 1095.00000
22.87579 1119.10158 1057.00000
22.88603 1118.94476 1075.00000
22.89627 1118.78861 1084.00000
22.90652 1118.63311 1091.00000
22.91676 1118.47823 1095.00000
22.92700 1118.32395 1065.00000
22.93724 1118.17026 1118.00000
22.94748 1118.01713 989.00000
22.95772 1117.86453 1038.00000
22.96796 1117.71247 1073.00000
22.97821 1117.56091 1103.00000
22.98845 1117.40984 1096.00000
22.99869 1117.25926 1104.00000
23.00893 1117.10913 1111.00000
23.01917 1116.95946 1065.00000
23.02941 1116.81022 1054.00000
23.03966 1116.66141 998.00000
23.04990 1116.51301 1100.00000
23.06014 1116.36502 1006.00000
23.07038 1116.21741 1030.00000
23.08062 1116.07019 1096.00000
23.09086 1115.92334 1112.00000
23.10110 1115.77686 1008.00000
23.11135 1115.63073 1097.00000
23.12159 1115.48495 1050.00000
23.13183 1115.33951 1049.00000
23.14207 1115.19440 1064.00000
23.15231 1115.04961 1036.00000
23.16255 1114.90514 1055.00000
23.17279 1114.76098 1121.00000
23.18304 1114.61711 1028.00000
23.19328 1114.47351 1030.00000
23.20352 1114.33016 1079.00000
23.21376 1114.18698 1047.00000
23.22400 1114.04389 1035.00000
23.23424 1113.90073 1132.00000
23.24448 1113.75725 1053.00000
23.25473 1113.61294 1004.00000
23.26497 1113.46682 1090.00000
23.27521 1113.31670 1036.00000
23.28545 1113.15908 1065.00000
23.29569 1112.99375 1104.00000
23.30593 1112.83212 1154.00000
23.31617 1112.68637 1072.00000
23.32642 1112.54703 1058.00000
23.33666 1112.40851 1047.00000
23.34690 1112.27020 1101.00000
23.35714 1112.13208 1081.00000
23.36738 1111.99417 1027.00000
23.37762 1111.85645 1078.00000
23.38787 1111.71892 1029.00000
23.39811 1111.58158 982.00000
23.40835 1111.44443 1054.00000
23.41859 1111.30747 1143.00000
23.42883 1111.17069 1097.00000
23.43907 1111.03410 1073.00000
23.44931 1110.89769 1047.00000
23.45956 1110.76145 1007.00000
23.46980 1110.62540 1103.00000
23.48004 1110.48953 1057.00000
23.49028 1110.35383 1075.00000
23.50052 1110.21831 1030.00000
23.51076 1110.08296 1078.00000
23.52100 1109.94778 1111.00000
23.53125 1109.81278 1044.00000
23.54149 1109.67794 1095.00000
23.55173 1109.54328 1060.00000
23.56197 1109.40878 1125.00000
23.57221 1109.27445 1055.00000
23.58245 1109.14028 1035.00000
23.59269 1109.00628 1098.00000
23.60294 1108.87244 1062.00000
23.61318 1108.73877 1093.00000
23.62342 1108.60525 1015.00000
23.63366 1108.47190 1065.00000
23.64390 1108.33870 1044.00000
23.65414 1108.20567 1050.00000
23.66438 1108.07279 1042.00000
23.67463 1107.94007 1017.00000
23.68487 1107.80751 1111.00000
23.69511 1107.67510 1041.00000
23.70535 1107.54285 1084.00000
23.71559 1107.41075 1084.00000
23.72583 1107.27881 1109.00000
23.73608 1107.14702 1074.00000
23.74632 1107.01537 1008.00000
23.75656 1106.88387 1079.00000
23.76680 1106.75249 1059.00000
23.77704 1106.62120 1062.00000
23.78728 1106.48995 1034.00000
23.79752 1106.35866 1038.00000
23.80777 1106.22716 1063.00000
23.81801 1106.09519 1058.00000
23.82825 1105.96226 1033.00000
23.83849 1105.82736 1061.00000
23.84873 1105.68825 1064.00000
23.85897 1105.54138 1057.00000
23.86921 1105.38655 1005.00000
23.87946 1105.23530 1121.00000
23.88970 1105.09996 1092.00000
23.89994 1104.97087 1051.00000
23.91018 1104.84229 1065.00000
23.92042 1104.71405 1127.00000
23.93066 1104.58596 1043.00000
23.94090 1104.45799 1058.00000
23.95115 1104.33015 1062.00000
23.96139 1104.20243 1087.00000
23.97163 1104.07484 1027.00000
23.98187 1103.94738 1125.00000
23.99211 1103.82004 1084.00000
24.00235 1103.69283 1070.00000
24.01259 1103.56574 1048.00000
24.02284 1103.43878 1049.00000
24.03308 1103.31194 1070.00000
24.04332 1103.18523 1035.00000
24.05356 1103.05864 1048.00000
24.06380 1102.93218 1084.00000
24.07404 1102.80584 1060.00000
24.08429 1102.67963 1053.00000
24.09453 1102.55354 1052.00000
24.10477 1102.42757 1033.00000
24.11501 1102.30173 1056.00000
24.12525 1102.17601 1076.00000
24.13549 1102.05041 1056.00000
24.14573 1101.92494 1025.00000
24.15598 1101.79959 1080.00000
24.16622 1101.67436 1050.00000
24.17646 1101.54926 1018.00000
24.18670 1101.42428 1062.00000
24.19694 1101.29942 1105.00000
24.20718 1101.17469 1027.00000
24.21742 1101.05007 1086.00000
24.22767 1100.92558 1044.00000
24.23791 1100.80121 1059.00000
24.24815 1100.67696 1114.00000
24.25839 1100.55284 1061.00000
24.26863 1100.42883 1051.00000
24.27887 1100.30495 1060.00000
24.28911 1100.18118 1072.00000
24.29936 1100.05754 1070.00000
24.30960 1099.93402 1097.00000
24.31984 1099.81062 1064.00000
24.33008 1099.68734 1117.00000
24.34032 1099.56418 1068.00000
24.35056 1099.44114 1059.00000
24.36080 1099.31822 1075.00000
24.37105 1099.19542 1097.00000
24.38129 1099.07274 1044.00000
24.39153 1098.95018 1063.00000
24.40177 1098.82774 1126.00000
24.41201 1098.70542 1087.00000
24.42225 1098.58322 1137.00000
24.43250 1098.46113 1242.00000
24.44274 1098.33917 1129.00000
24.45298 1098.21732 1177.00000
24.46322 1098.09560 1130.00000
24.47346 1097.97399 1215.00000
24.48370 1097.85250 1150.00000
24.49394 1097.73112 1194.00000
24.50419 1097.60987 1131.00000
24.51443 1097.48873 1122.00000
24.52467 1097.36771 1058.00000
24.53491 1097.24681 1015.00000
24.54515 1097.12603 1068.00000
24.55539 1097.00536 1010.00000
24.56563 1096.88481 1057.00000
24.57588 1096.76438 1038.00000
24.58612 1096.64406 1081.00000
24.59636 1096.52386 1018.00000
24.60660 1096.40378 1069.00000
24.61684 1096.28381 1008.00000
24.62708 1096.16396 1026.00000
24.63732 1096.04422 1100.00000
24.64757 1095.92461 1038.00000
24.65781 1095.80510 1056.00000
24.66805 1095.68572 1080.00000
24.67829 1095.56644 1044.00000
24.68853 1095.44729 1059.00000
24.69877 1095.32824 1056.00000
24.70901 1095.20932 1071.00000
24.71926 1095.09051 1102.00000
24.72950 1094.97181 1014.00000
24.73974 1094.85323 1132.00000
24.74998 1094.73482 1075.00000
24.76022 1094.61683 1079.00000
24.77046 1094.50019 1066.00000
24.78071 1094.38716 1028.00000
24.79095 1094.28243 1011.00000
24.80119 1094.19521 1069.00000
24.81143 1094.14342 1037.00000
24.82167 1094.16357 1033.00000
24.83191 1094.33958 1087.00000
24.84215 1094.88532 1108.00000
24.85240 1096.13570 1049.00000
24.86264 1097.80775 984.00000
24.87288 1098.62626 1004.00000
24.88312 1098.73157 1064.00000
24.89336 1098.67586 1046.00000
24.90360 1098.61072 1076.00000
24.91384 1098.54632 1036.00000
24.92409 1098.48275 1055.00000
24.93433 1098.42004 1110.00000
24.94457 1098.35820 1044.00000
24.95481 1098.29725 1056.00000
24.96505 1098.23719 1051.00000
24.97529 1098.17804 990.00000
24.98553 1098.11982 1108.00000
24.99578 1098.06254 1112.00000
25.00602 1098.00622 1092.00000
25.01626 1097.95088 1039.00000
25.02650 1097.89653 1050.00000
25.03674 1097.84319 1074.00000
25.04698 1097.79088 1080.00000
25.05722 1097.73961 1033.00000
25.06747 1097.68941 1067.00000
25.07771 1097.64028 994.00000
25.08795 1097.59226 1013.00000
25.09819 1097.54536 1003.00000
25.10843 1097.49961 1025.00000
25.11867 1097.45502 1099.00000
25.12892 1097.41161 1054.00000
25.13916 1097.36941 1068.00000
25.14940 1097.32843 1095.00000
25.15964 1097.28871 1034.00000
25.16988 1097.25027 1034.00000
25.18012 1097.21313 1078.00000
25.19036 1097.17731 1027.00000
25.20061 1097.14285 1041.00000
25.21085 1097.10976 1018.00000
25.22109 1097.07808 1080.00000
25.23133 1097.04783 1069.00000
25.24157 1097.01905 1023.00000
25.25181 1096.99176 1058.00000
25.26205 1096.96599 1035.00000
25.27230 1096.94177 1036.00000
25.28254 1096.91913 1027.00000
25.29278 1096.89812 1073.00000
25.30302 1096.87876 1042.00000
25.31326 1096.86108 1009.00000
25.32350 1096.84513 1048.00000
25.33374 1096.83093 995.00000
25.34399 1096.81853 1031.00000
25.35423 1096.80797 1077.00000
25.36447 1096.79929 1045.00000
25.37471 1096.79252 1060.00000
25.38495 1096.78772 1037.00000
25.39519 1096.78491 1069.00000
25.40543 1096.78416 1068.00000
25.41568 1096.78550 1107.00000
25.42592 1096.78899 1048.00000
25.43616 1096.79466 1063.00000
25.44640 1096.80259 1049.00000
25.45664 1096.81280 1059.00000
25.46688 1096.82537 1029.00000
25.47713 1096.84034 1056.00000
25.48737 1096.85778 1002.00000
25.49761 1096.87774 1068.00000
25.50785 1096.90028 1099.00000
25.51809 1096.92547 1045.00000
25.52833 1096.95337 1079.00000
25.53857 1096.98405 1071.00000
25.54882 1097.01758 1078.00000
25.55906 1097.05403 1067.00000
25.56930 1097.09347 1012.00000
25.57954 1097.13598 1075.00000
25.58978 1097.18165 990.00000
25.60002 1097.23060 1027.00000
25.61026 1097.28317 1021.00000
25.62051 1097.34038 1022.00000
25.63075 1097.40457 1067.00000
25.64099 1097.48054 1009.00000
25.65123 1097.57761 1084.00000
25.66147 1097.71384 1082.00000
25.67171 1097.92593 996.00000
25.68195 1098.29801 1037.00000
25.69220 1099.04412 1109.00000
25.70244 1100.50079 1079.00000
25.71268 1102.39346 1069.00000
25.72292 1103.45389 1090.00000
25.73316 1103.80546 1053.00000
25.74340 1103.99976 1045.00000
25.75364 1104.19022 1033.00000
25.76389 1104.38733 1076.00000
25.77413 1104.59139 1041.00000
25.78437 1104.80260 1074.00000
25.79461 1105.02118 1026.00000
25.80485 1105.24736 1078.00000
25.81509 1105.48135 1053.00000
25.82534 1105.72341 1016.00000
25.83558 1105.97378 1072.00000
25.84582 1106.23272 1080.00000
25.85606 1106.50050 1069.00000
25.86630 1106.77741 1049.00000
25.87654 1107.06374 1110.00000
25.88678 1107.35983 1143.00000
25.89703 1107.66607 1042.00000
25.90727 1107.98293 1049.00000
25.91751 1108.31107 1059.00000
25.92775 1108.65145 1055.00000
25.93799 1109.00584 1075.00000
25.94823 1109.37808 1135.00000
25.95847 1109.77577 1066.00000
25.96872 1110.20243 1056.00000
25.97896 1110.63813 1094.00000
25.98920 1111.06125 1093.00000
25.99944 1111.49006 1041.00000
26.00968 1111.93286 1035.00000
26.01992 1112.39074 1011.00000
26.03016 1112.86428 1044.00000
26.04041 1113.35404 1066.00000
26.05065 1113.86063 1073.00000
26.06089 1114.38469 1117.00000
26.07113 1114.92688 1075.00000
26.08137 1115.48790 1151.00000
26.09161 1116.06847 1067.00000
26.10185 1116.66937 1059.00000
26.11210 1117.29139 1091.00000
26.12234 1117.93539 1078.00000
26.13258 1118.60226 1130.00000
26.14282 1119.29292 1136.00000
26.15306 1120.00837 1076.00000
26.16330 1120.74963 1181.00000
26.17355 1121.51785 1115.00000
26.18379 1122.31448 1151.00000
26.19403 1123.14188 1196.00000
26.20427 1124.00448 1232.00000
26.21451 1124.91051 1301.00000
26.22475 1125.87524 1276.00000
26.23499 1126.92718 1231.00000
26.24524 1128.12218 1242.00000
26.25548 1129.58165 1251.00000
26.26572 1131.60265 1226.00000
26.27596 1134.73491 1279.00000
26.28620 1139.06006 1268.00000
26.29644 1143.08030 1286.00000
26.30668 1145.64614 1240.00000
26.31693 1147.40296 1200.00000
26.32717 1149.04926 1174.00000
26.33741 1150.75131 1230.00000
26.34765 1152.52295 1259.00000
26.35789 1154.36819 1230.00000
26.36813 1156.29180 1295.00000
26.37837 1158.30018 1198.00000
26.38862 1160.40245 1240.00000
26.39886 1162.61260 1216.00000
26.40910 1164.95383 1286.00000
26.41934 1167.46846 1233.00000
26.42958 1170.24684 1287.00000
26.43982 1173.50978 1263.00000
26.45007 1177.60496 1279.00000
26.46031 1182.28904 1228.00000
26.47055 1186.33174 1369.00000
26.48079 1189.83598 1361.00000
26.49103 1193.34400 1409.00000
26.50127 1197.01659 1396.00000
26.51151 1200.87542 1360.00000
26.52176 1204.93312 1411.00000
26.53200 1209.20331 1412.00000
26.54224 1213.70077 1511.00000
26.55248 1218.44164 1503.00000
26.56272 1223.44351 1449.00000
26.57296 1228.72558 1390.00000
26.58320 1234.30888 1384.00000
26.59345 1240.21648 1410.00000
26.60369 1246.47370 1390.00000
26.61393 1253.10840 1420.00000
26.62417 1260.15130 1470.00000
26.63441 1267.63635 1359.00000
26.64465 1275.60112 1337.00000
26.65489 1284.08731 1297.00000
26.66514 1293.14129 1339.00000
26.67538 1302.81477 1317.00000
26.68562 1313.16554 1350.00000
26.69586 1324.25839 1356.00000
26.70610 1336.16612 1355.00000
26.71634 1348.97083 1368.00000
26.72658 1362.76537 1482.00000
26.73683 1377.65509 1406.00000
26.74707 1393.75999 1414.00000
26.75731 1411.21724 1439.00000
26.76755 1430.18429 1463.00000
26.77779 1450.84264 1422.00000
26.78803 1473.40254 1596.00000
26.79828 1498.10868 1588.00000
26.80852 1525.24749 1577.00000
26.81876 1555.15615 1638.00000
26.82900 1588.23445 1582.00000
26.83924 1624.96049 1744.00000
26.84948 1665.91088 1732.00000
26.85972 1711.77669 1885.00000
26.86997 1763.37535 1969.00000
26.88021 1821.71391 1974.00000
26.89045 1888.08304 2121.00000
26.90069 1964.07698 2060.00000
26.91093 2051.68479 2141.00000
26.92117 2153.40658 2197.00000
26.93141 2272.38330 2332.00000
26.94166 2412.53783 2483.00000
26.95190 2578.70787 2633.00000
26.96214 2776.73252 2874.00000
26.97238 3013.43595 3004.00000
26.98262 3296.47288 3274.00000
26.99286 3634.17895 3442.00000
27.00310 4036.12058 3911.00000
27.01335 4516.04715 4422.00000
27.02359 5099.64698 4858.00000
27.03383 5838.03567 5504.00000
27.04407 6824.09843 6523.00000
27.05431 8207.68900 7903.00000
27.06455 10211.18735 9914.00000
27.07479 13151.16405 12803.00000
27.08504 17460.74624 17183.00000
27.09528 23662.64675 23315.00000
27.10552 32119.96462 32003.00000
27.11576 42215.43435 41983.00000
27.12600 51048.85359 52610.00000
27.13624 53889.01196 57050.00000
27.14649 48851.14346 51826.00000
27.15673 40200.01661 40530.00000
27.16697 33498.71874 32072.00000
27.17721 30823.33199 28968.00000
27.18745 31116.10812 30088.00000
27.19769 31706.71662 31606.00000
27.20793 29766.26445 30735.00000
27.21818 24679.25256 25310.00000
27.22842 18539.38039 18256.00000
27.23866 13450.45301 12560.00000
27.24890 9952.09050 8976.00000
27.25914 7678.93589 7094.00000
27.26938 6178.65651 5795.00000
27.27962 5148.27940 4943.00000
27.28987 4410.91514 4344.00000
27.30011 3863.98127 4031.00000
27.31035 3445.98741 3525.00000
27.32059 3118.52184 3281.00000
27.33083 2856.62103 3144.00000
27.34107 2643.47785 2949.00000
27.35131 2467.42206 2690.00000
27.36156 2320.13018 2572.00000
27.37180 2195.52558 2349.00000
27.38204 2089.08064 2212.00000
27.39228 1997.36089 2106.00000
27.40252 1917.71958 2042.00000
27.41276 1848.08837 1996.00000
27.42300 1786.83116 1911.00000
27.43325 1732.64124 1833.00000
27.44349 1684.46825 1704.00000
27.45373 1641.45603 1657.00000
27.46397 1602.87409 1659.00000
27.47421 1568.08902 1608.00000
27.48445 1536.60141 1637.00000
27.49470 1508.01923 1595.00000
27.50494 1481.99771 1492.00000
27.51518 1458.23677 1514.00000
27.52542 1436.47841 1435.00000
27.53566 1416.49931 1415.00000
27.54590 1398.10404 1376.00000
27.55614 1381.11838 1442.00000
27.56639 1365.38173 1388.00000
27.57663 1350.73509 1398.00000
27.58687 1336.99251 1364.00000
27.59711 1323.86453 1403.00000
27.60735 1310.96749 1349.00000
27.61759 1298.50537 1322.00000
27.62783 1287.61217 1352.00000
27.63808 1278.10293 1339.00000
27.64832 1269.34768 1282.00000
27.65856 1261.12050 1350.00000
27.66880 1253.38435 1309.00000
27.67904 1246.10755 1311.00000
27.68928 1239.25549 1252.00000
27.69952 1232.79642 1289.00000
27.70977 1226.70161 1280.00000
27.72001 1220.94500 1262.00000
27.73025 1215.50296 1220.00000
27.74049 1210.35398 1279.00000
27.75073 1205.47848 1252.00000
27.76097 1200.85864 1236.00000
27.77121 1196.47818 1254.00000
27.78146 1192.32226 1219.00000
27.79170 1188.37731 1204.00000
27.80194 1184.63096 1239.00000
27.81218 1181.07190 1197.00000
27.82242 1177.68979 1250.00000
27.83266 1174.47523 1202.00000
27.84291 1171.41964 1157.00000
27.85315 1168.51523 1212.00000
27.86339 1165.75495 1281.00000
27.87363 1163.13244 1186.00000
27.88387 1160.64200 1169.00000
27.89411 1158.27851 1176.00000
27.90435 1156.03729 1261.00000
27.91460 1153.91362 1180.00000
27.92484 1151.90213 1171.00000
27.93508 1149.99576 1187.00000
27.94532 1148.18392 1216.00000
27.95556 1146.44852 1198.00000
27.96580 1144.75485 1171.00000
27.97604 1143.02463 1146.00000
27.98629 1141.05840 1213.00000
27.99653 1138.54527 1157.00000
28.00677 1135.76665 1170.00000
28.01701 1133.95981 1159.00000
28.02725 1133.01414 1143.00000
28.03749 1132.36744 1214.00000
28.04773 1131.86654 1219.00000
28.05798 1131.50997 1178.00000
28.06822 1131.30767 1191.00000
28.07846 1131.26921 1218.00000
28.08870 1131.40064 1235.00000
28.09894 1131.69663 1155.00000
28.10918 1132.11519 1205.00000
28.11942 1132.50269 1125.00000
28.12967 1132.60538 1171.00000
28.13991 1132.76847 1173.00000
28.15015 1134.30069 1186.00000
28.16039 1137.19785 1186.00000
28.17063 1141.02393 1222.00000
28.18087 1145.76334 1211.00000
28.19112 1151.56129 1155.00000
28.20136 1158.57996 1230.00000
28.21160 1166.99923 1246.00000
28.22184 1177.08000 1273.00000
28.23208 1189.32557 1270.00000
28.24232 1204.75753 1282.00000
28.25256 1225.25456 1266.00000
28.26281 1253.88149 1314.00000
28.27305 1295.23124 1348.00000
28.28329 1355.89742 1496.00000
28.29353 1445.03863 1527.00000
28.30377 1574.29213 1659.00000
28.31401 1754.33367 1774.00000
28.32425 1981.80861 2067.00000
28.33450 2212.89150 2303.00000
28.34474 2350.49315 2520.00000
28.35498 2307.94931 2462.00000
28.36522 2119.92831 2219.00000
28.37546 1922.24270 2103.00000
28.38570 1807.66956 1872.00000
28.39594 1782.66328 1804.00000
28.40619 1805.70567 1836.00000
28.41643 1812.74820 1813.00000
28.42667 1749.32667 1705.00000
28.43691 1618.61488 1737.00000
28.44715 1475.68546 1546.00000
28.45739 1363.01880 1404.00000
28.46763 1286.42394 1375.00000
28.47788 1235.94265 1302.00000
28.48812 1201.85567 1245.00000
28.49836 1177.90792 1245.00000
28.50860 1160.41573 1135.00000
28.51884 1147.19781 1201.00000
28.52908 1136.91911 1237.00000
28.53933 1128.73061 1180.00000
28.54957 1122.07234 1118.00000
28.55981 1116.56268 1192.00000
28.57005 1111.93392 1154.00000
28.58029 1107.99350 1188.00000
28.59053 1104.59979 1123.00000
28.60077 1101.64653 1142.00000
28.61102 1099.05245 1114.00000
28.62126 1096.75390 1117.00000
28.63150 1094.69943 1140.00000
28.64174 1092.84538 1154.00000
28.65198 1091.15155 1161.00000
28.66222 1089.57541 1107.00000
28.67246 1088.06156 1047.00000
28.68271 1086.51346 1103.00000
28.69295 1084.71456 1081.00000
28.70319 1082.33546 1125.00000
28.71343 1079.63575 1144.00000
28.72367 1077.83912 1082.00000
28.73391 1076.84101 1091.00000
28.74415 1076.06804 1126.00000
28.75440 1075.35265 1132.00000
28.76464 1074.67925 1155.00000
28.77488 1074.04353 1105.00000
28.78512 1073.44172 1159.00000
28.79536 1072.87039 1092.00000
28.80560 1072.32617 1058.00000
28.81584 1071.80530 1101.00000
28.82609 1071.30234 1144.00000
28.83633 1070.80873 1112.00000
28.84657 1070.32077 1178.00000
28.85681 1069.85727 1126.00000
28.86705 1069.43611 1084.00000
28.87729 1069.03844 1072.00000
28.88754 1068.65567 1035.00000
28.89778 1068.28622 1085.00000
28.90802 1067.92919 1043.00000
28.91826 1067.58375 1037.00000
28.92850 1067.24915 1091.00000
28.93874 1066.92476 1153.00000
28.94898 1066.61007 1112.00000
28.95923 1066.30449 1109.00000
28.96947 1066.00711 1085.00000
28.97971 1065.71728 1129.00000
28.98995 1065.43479 1075.00000
29.00019 1065.15931 1132.00000
29.01043 1064.89045 1093.00000
29.02067 1064.62787 1051.00000
29.03092 1064.37122 1095.00000
29.04116 1064.12021 1136.00000
29.05140 1063.87456 1155.00000
29.06164 1063.63399 1090.00000
29.07188 1063.39827 1080.00000
29.08212 1063.16716 1043.00000
29.09236 1062.94045 1082.00000
29.10261 1062.71794 1088.00000
29.11285 1062.49945 1086.00000
29.12309 1062.28479 1103.00000
29.13333 1062.07381 1036.00000
29.14357 1061.86634 1097.00000
29.15381 1061.66225 1054.00000
29.16405 1061.46138 1065.00000
29.17430 1061.26357 1020.00000
29.18454 1061.06865 1041.00000
29.19478 1060.87634 1082.00000
29.20502 1060.68624 1154.00000
29.21526 1060.49766 1099.00000
29.22550 1060.30917 1118.00000
29.23575 1060.11729 1075.00000
29.24599 1059.91506 1095.00000
29.25623 1059.70034 1088.00000
29.26647 1059.49393 1174.00000
29.27671 1059.31551 1080.00000
29.28695 1059.14720 1085.00000
29.29719 1058.98136 1048.00000
29.30744 1058.81730 1086.00000
29.31768 1058.65464 1027.00000
29.32792 1058.49228 1088.00000
29.33816 1058.32773 1111.00000
29.34840 1058.15579 1155.00000
29.35864 1057.96629 1116.00000
29.36888 1057.73860 1052.00000
29.37913 1057.43087 1138.00000
29.38937 1056.96078 1066.00000
29.39961 1056.14476 1084.00000
29.40985 1054.68024 1076.00000
29.42009 1052.81526 1077.00000
29.43033 1051.78368 1092.00000
29.44057 1051.50188 1027.00000
29.45082 1051.39338 1071.00000
29.46106 1051.29778 1070.00000
29.47130 1051.20384 1074.00000
29.48154 1051.11076 1071.00000
29.49178 1051.01818 1013.00000
29.50202 1050.92608 1100.00000
29.51226 1050.83444 990.00000
29.52251 1050.74324 1029.00000
29.53275 1050.65248 1104.00000
29.54299 1050.56214 1042.00000
29.55323 1050.47221 1074.00000
29.56347 1050.38268 1046.00000
29.57371 1050.29353 1083.00000
29.58396 1050.20476 1082.00000
29.59420 1050.11635 1110.00000
29.60444 1050.02830 1107.00000
29.61468 1049.94060 1074.00000
29.62492 1049.85323 1088.00000
29.63516 1049.76619 1067.00000
29.64540 1049.67948 1076.00000
29.65565 1049.59309 1045.00000
29.66589 1049.50702 1038.00000
29.67613 1049.42131 1096.00000
29.68637 1049.33602 1055.00000
29.69661 1049.25134 1108.00000
29.70685 1049.16734 1081.00000
29.71709 1049.08352 1007.00000
29.72734 1048.99933 1047.00000
29.73758 1048.91522 1052.00000
29.74782 1048.83134 1058.00000
29.75806 1048.74772 1055.00000
29.76830 1048.66433 1025.00000
29.77854 1048.58119 1011.00000
29.78878 1048.49827 1049.00000
29.79903 1048.41559 1048.00000
29.80927 1048.33313 1086.00000
29.81951 1048.25088 1017.00000
29.82975 1048.16886 1087.00000
29.83999 1048.08704 1076.00000
29.85023 1048.00543 1051.00000
29.86048 1047.92403 1083.00000
29.87072 1047.84283 999.00000
29.88096 1047.76182 1125.00000
29.89120 1047.68100 1026.00000
29.90144 1047.60033 1018.00000
29.91168 1047.51977 1113.00000
29.92192 1047.43917 991.00000
29.93217 1047.35833 1099.00000
29.94241 1047.27678 1021.00000
29.95265 1047.19298 1058.00000
29.96289 1047.10284 1040.00000
29.97313 1046.99954 1064.00000
29.98337 1046.88113 1038.00000
29.99361 1046.76899 1021.00000
30.00386 1046.68301 1022.00000
30.01410 1046.60532 1049.00000
30.02434 1046.52833 987.00000
30.03458 1046.45146 1056.00000
30.04482 1046.37473 1055.00000
30.05506 1046.29812 1063.00000
30.06530 1046.22163 1040.00000
30.07555 1046.14526 1015.00000
30.08579 1046.06902 1056.00000
30.09603 1045.99290 1092.00000
30.10627 1045.91691 1043.00000
30.11651 1045.84103 1045.00000
30.12675 1045.76527 1034.00000
30.13699 1045.68962 951.00000
30.14724 1045.61410 1055.00000
30.15748 1045.53869 1064.00000
30.16772 1045.46340 1031.00000
30.17796 1045.38822 1013.00000
30.18820 1045.31315 996.00000
30.19844 1045.23821 1022.00000
30.20869 1045.16337 1058.00000
30.21893 1045.08865 1076.00000
30.22917 1045.01404 1049.00000
30.23941 1044.93954 1086.00000
30.24965 1044.86515 1042.00000
30.25989 1044.79088 1039.00000
30.27013 1044.71671 985.00000
30.28038 1044.64266 1035.00000
30.29062 1044.56872 1056.00000
30.30086 1044.49489 1033.00000
30.31110 1044.42118 1069.00000
30.32134 1044.34759 1064.00000
30.33158 1044.27414 1042.00000
30.34182 1044.20089 1072.00000
30.35207 1044.12793 993.00000
30.36231 1044.05554 1070.00000
30.37255 1043.98399 1038.00000
30.38279 1043.91288 1019.00000
30.39303 1043.84117 998.00000
30.40327 1043.76877 1071.00000
30.41351 1043.69630 1015.00000
30.42376 1043.62394 1058.00000
30.43400 1043.55169 1037.00000
30.44424 1043.47956 1074.00000
30.45448 1043.40755 1023.00000
30.46472 1043.33566 1094.00000
30.47496 1043.26389 1036.00000
30.48520 1043.19224 1065.00000
30.49545 1043.12072 1016.00000
30.50569 1043.04933 1022.00000
30.51593 1042.97808 1077.00000
30.52617 1042.90698 1102.00000
30.53641 1042.83606 1093.00000
30.54665 1042.76541 1001.00000
30.55690 1042.69522 1017.00000
30.56714 1042.62559 1026.00000
30.57738 1042.55603 952.00000
30.58762 1042.48609 1038.00000
30.59786 1042.41626 1053.00000
30.60810 1042.34690 1037.00000
30.61834 1042.27814 1013.00000
30.62859 1042.20952 1063.00000
30.63883 1042.14056 1076.00000
30.64907 1042.07138 1052.00000
30.65931 1042.00218 1075.00000
30.66955 1041.93290 1038.00000
30.67979 1041.86323 1035.00000
30.69003 1041.79256 1085.00000
30.70028 1041.71951 1048.00000
30.71052 1041.64055 1055.00000
30.72076 1041.54854 988.00000
30.73100 1041.44146 1054.00000
30.74124 1041.34079 1030.00000
30.75148 1041.26612 1088.00000
30.76172 1041.19973 1004.00000
30.77197 1041.13411 1055.00000
30.78221 1041.06883 1062.00000
30.79245 1041.00394 1026.00000
30.80269 1040.93956 1044.00000
30.81293 1040.87571 1019.00000
30.82317 1040.81206 1023.00000
30.83341 1040.74845 999.00000
30.84366 1040.68513 1101.00000
30.85390 1040.62222 1011.00000
30.86414 1040.55973 1019.00000
30.87438 1040.49771 1025.00000
30.88462 1040.43618 995.00000
30.89486 1040.37519 1028.00000
30.90511 1040.31477 1051.00000
30.91535 1040.25498 1010.00000
30.92559 1040.19587 1090.00000
30.93583 1040.13749 1083.00000
30.94607 1040.07992 1077.00000
30.95631 1040.02323 1035.00000
30.96655 1039.96750 1016.00000
30.97680 1039.91284 1003.00000
30.98704 1039.85936 1045.00000
30.99728 1039.80719 1002.00000
31.00752 1039.75647 1028.00000
31.01776 1039.70739 1026.00000
31.02800 1039.66014 1007.00000
31.03824 1039.61496 967.00000
31.04849 1039.57213 1027.00000
31.05873 1039.53199 1038.00000
31.06897 1039.49493 1001.00000
31.07921 1039.46143 1039.00000
31.08945 1039.43206 1063.00000
31.09969 1039.40752 1046.00000
31.10993 1039.38868 1027.00000
31.12018 1039.37657 1050.00000
31.13042 1039.37249 1055.00000
31.14066 1039.37797 1071.00000
31.15090 1039.39489 1090.00000
31.16114 1039.42541 1071.00000
31.17138 1039.47196 987.00000
31.18162 1039.53712 946.00000
31.19187 1039.62338 1003.00000
31.20211 1039.73311 1019.00000
31.21235 1039.86876 1059.00000
31.22259 1040.03418 1063.00000
31.23283 1040.23743 1085.00000
31.24307 1040.49495 1054.00000
31.25332 1040.83638 1044.00000
31.26356 1041.30949 1071.00000
31.27380 1041.98645 1053.00000
31.28404 1042.97336 978.00000
31.29428 1044.42334 1049.00000
31.30452 1046.54837 1063.00000
31.31476 1049.60929 1035.00000
31.32501 1053.82085 991.00000
31.33525 1059.04409 1050.00000
31.34549 1064.23346 1034.00000
31.35573 1067.26339 1034.00000
31.36597 1066.33098 1140.00000
31.37621 1062.13294 1074.00000
31.38645 1057.42339 1048.00000
31.39670 1054.27101 1009.00000
31.40694 1053.11425 1042.00000
31.41718 1053.46259 1028.00000
31.42742 1054.32200 1068.00000
31.43766 1054.38470 1000.00000
31.44790 1052.76625 1059.00000
31.45814 1049.84220 1017.00000
31.46839 1046.79688 1021.00000
31.47863 1044.41398 1006.00000
31.48887 1042.79773 1026.00000
31.49911 1041.77720 1052.00000
31.50935 1041.18761 1044.00000
31.51959 1040.93739 1021.00000
31.52983 1041.00203 1045.00000
31.54008 1041.41306 1046.00000
31.55032 1042.25363 1089.00000
31.56056 1043.65285 1027.00000
31.57080 1045.75164 1038.00000
31.58104 1048.57429 1047.00000
31.59128 1051.72181 1040.00000
31.60153 1054.04744 1021.00000
31.61177 1054.11091 1085.00000
31.62201 1051.76314 1024.00000
31.63225 1048.63110 1053.00000
31.64249 1046.26913 1100.00000
31.65273 1045.14465 1057.00000
31.66297 1045.06721 1027.00000
31.67322 1045.54628 1087.00000
31.68346 1045.80505 1049.00000
31.69370 1045.08146 1010.00000
31.70394 1043.34001 1063.00000
31.71418 1041.30532 1022.00000
31.72442 1039.59483 1060.00000
31.73466 1038.35183 997.00000
31.74491 1037.47987 1012.00000
31.75515 1036.85628 1010.00000
31.76539 1036.39293 1032.00000
31.77563 1036.03436 1035.00000
31.78587 1035.74639 957.00000
31.79611 1035.50753 1056.00000
31.80635 1035.30394 994.00000
31.81660 1035.12634 1012.00000
31.82684 1034.96840 1036.00000
31.83708 1034.82563 1055.00000
31.84732 1034.69478 1023.00000
31.85756 1034.57345 1015.00000
31.86780 1034.45983 1013.00000
31.87804 1034.35251 1050.00000
31.88829 1034.25033 1041.00000
31.89853 1034.15228 988.00000
31.90877 1034.05762 982.00000
31.91901 1033.96630 998.00000
31.92925 1033.87837 1000.00000
31.93949 1033.79301 1034.00000
31.94974 1033.70974 1057.00000
31.95998 1033.62831 1025.00000
31.97022 1033.54849 1002.00000
31.98046 1033.47010 996.00000
31.99070 1033.39299 991.00000
32.00094 1033.31703 984.00000
32.01118 1033.24209 1013.00000
32.02143 1033.16809 1029.00000
32.03167 1033.09493 1023.00000
32.04191 1033.02254 1078.00000
32.05215 1032.95084 1027.00000
32.06239 1032.87979 1068.00000
32.07263 1032.80932 1040.00000
32.08287 1032.73940 1008.00000
32.09312 1032.66998 995.00000
32.10336 1032.60102 1009.00000
32.11360 1032.53248 1048.00000
32.12384 1032.46433 1010.00000
32.13408 1032.39650 1023.00000
32.14432 1032.32892 1033.00000
32.15456 1032.26144 1022.00000
32.16481 1032.19411 997.00000
32.17505 1032.12739 1075.00000
32.18529 1032.06118 1049.00000
32.19553 1031.99530 955.00000
32.20577 1031.92972 1001.00000
32.21601 1031.86455 1030.00000
32.22625 1031.80004 1051.00000
32.23650 1031.73688 986.00000
32.24674 1031.67721 999.00000
32.25698 1031.62572 996.00000
32.26722 1031.58091 1001.00000
32.27746 1031.52641 1064.00000
32.28770 1031.46429 1025.00000
32.29795 1031.40081 1013.00000
32.30819 1031.33741 1050.00000
32.31843 1031.27415 1008.00000
32.32867 1031.21101 1050.00000
32.33891 1031.14796 1008.00000
32.34915 1031.08492 1021.00000
32.35939 1031.02171 1043.00000
32.36964 1030.95825 1024.00000
32.37988 1030.89506 1001.00000
32.39012 1030.83261 937.00000
32.40036 1030.77046 1004.00000
32.41060 1030.70844 997.00000
32.42084 1030.64652 1001.00000
32.43108 1030.58472 1015.00000
32.44133 1030.52302 1001.00000
32.45157 1030.46142 987.00000
32.46181 1030.39991 963.00000
32.47205 1030.33848 960.00000
32.48229 1030.27709 981.00000
32.49253 1030.21567 992.00000
32.50277 1030.15403 1070.00000
32.51302 1030.09210 1094.00000
32.52326 1030.03042 1045.00000
32.53350 1029.96944 1083.00000
32.54374 1029.90874 988.00000
32.55398 1029.84813 1017.00000
32.56422 1029.78760 1071.00000
32.57446 1029.72715 995.00000
32.58471 1029.66677 995.00000
32.59495 1029.60643 971.00000
32.60519 1029.54608 1032.00000
32.61543 1029.48562 1009.00000
32.62567 1029.42503 994.00000
32.63591 1029.36468 1038.00000
32.64616 1029.30474 1046.00000
32.65640 1029.24495 1009.00000
32.66664 1029.18525 1020.00000
32.67688 1029.12562 1031.00000
32.68712 1029.06607 985.00000
32.69736 1029.00658 978.00000
32.70760 1028.94717 1062.00000
32.71785 1028.88782 1030.00000
32.72809 1028.82853 973.00000
32.73833 1028.76928 1036.00000
32.74857 1028.71001 977.00000
32.75881 1028.65062 999.00000
32.76905 1028.59109 996.00000
32.77929 1028.53175 1014.00000
32.78954 1028.47282 956.00000
32.79978 1028.41407 1007.00000
32.81002 1028.35539 1060.00000
32.82026 1028.29678 1038.00000
32.83050 1028.23823 996.00000
32.84074 1028.17975 981.00000
32.85098 1028.12134 995.00000
32.86123 1028.06300 965.00000
32.87147 1028.00472 1023.00000
32.88171 1027.94651 996.00000
32.89195 1027.88836 1012.00000
32.90219 1027.83028 991.00000
32.91243 1027.77227 1011.00000
32.92267 1027.71432 995.00000
32.93292 1027.65644 992.00000
32.94316 1027.59862 1001.00000
32.95340 1027.54087 1056.00000
32.96364 1027.48319 993.00000
32.97388 1027.42557 995.00000
32.98412 1027.36802 978.00000
32.99437 1027.31058 1027.00000
33.00461 1027.25334 1041.00000
33.01485 1027.19656 1066.00000
33.02509 1027.14087 1034.00000
33.03533 1027.08781 1019.00000
33.04557 1027.04214 1007.00000
33.05581 1027.01397 1021.00000
33.06606 1026.99972 1023.00000
33.07630 1026.96491 995.00000
33.08654 1026.91277 1022.00000
33.09678 1026.85696 1020.00000
33.10702 1026.80100 1040.00000
33.11726 1026.74511 1007.00000
33.12750 1026.68929 1027.00000
33.13775 1026.63352 1051.00000
33.14799 1026.57777 993.00000
33.15823 1026.52197 920.00000
33.16847 1026.46592 994.00000
33.17871 1026.40956 1019.00000
33.18895 1026.35342 1014.00000
33.19919 1026.29799 970.00000
33.20944 1026.24281 998.00000
33.21968 1026.18772 991.00000
33.22992 1026.13271 1009.00000
33.24016 1026.07778 1011.00000
33.25040 1026.02292 928.00000
33.26064 1025.96815 1060.00000
33.27088 1025.91345 948.00000
33.28113 1025.85883 970.00000
33.29137 1025.80429 1000.00000
33.30161 1025.74985 1031.00000
33.31185 1025.69555 996.00000
33.32209 1025.64150 1050.00000
33.33233 1025.58797 975.00000
33.34258 1025.53566 1010.00000
33.35282 1025.48671 1010.00000
33.36306 1025.44579 1016.00000
33.37330 1025.41149 974.00000
33.38354 1025.36762 1005.00000
33.39378 1025.31606 1067.00000
33.40402 1025.26305 990.00000
33.41427 1025.20999 1038.00000
33.42451 1025.15689 951.00000
33.43475 1025.10360 994.00000
33.44499 1025.05031 1040.00000
33.45523 1024.99759 981.00000
33.46547 1024.94513 987.00000
33.47571 1024.89277 1001.00000
33.48596 1024.84052 989.00000
33.49620 1024.78838 1020.00000
33.50644 1024.73634 1010.00000
33.51668 1024.68440 1005.00000
33.52692 1024.63257 966.00000
33.53716 1024.58085 1002.00000
33.54740 1024.52924 995.00000
33.55765 1024.47774 989.00000
33.56789 1024.42635 1024.00000
33.57813 1024.37507 1025.00000
33.58837 1024.32391 1022.00000
33.59861 1024.27287 1000.00000
33.60885 1024.22195 968.00000
33.61910 1024.17114 994.00000
33.62934 1024.12046 1028.00000
33.63958 1024.06989 1038.00000
33.64982 1024.01946 1007.00000
33.66006 1023.96915 954.00000
33.67030 1023.91896 976.00000
33.68054 1023.86891 1041.00000
33.69079 1023.81899 984.00000
33.70103 1023.76921 990.00000
33.71127 1023.71956 1042.00000
33.72151 1023.67005 939.00000
33.73175 1023.62068 1042.00000
33.74199 1023.57145 997.00000
33.75223 1023.52237 1048.00000
33.76248 1023.47343 1037.00000
33.77272 1023.42465 1069.00000
33.78296 1023.37602 1014.00000
33.79320 1023.32754 1065.00000
33.80344 1023.27923 1037.00000
33.81368 1023.23107 1039.00000
33.82392 1023.18308 1084.00000
33.83417 1023.13526 1129.00000
33.84441 1023.08761 1065.00000
33.85465 1023.04013 1053.00000
33.86489 1022.99283 1061.00000
33.87513 1022.94572 1135.00000
33.88537 1022.89878 1068.00000
33.89561 1022.85204 1115.00000
33.90586 1022.80549 1082.00000
33.91610 1022.75914 1150.00000
33.92634 1022.71298 1062.00000
33.93658 1022.66703 1012.00000
33.94682 1022.62128 1032.00000
33.95706 1022.57572 978.00000
33.96731 1022.53032 1031.00000
33.97755 1022.48501 1041.00000
33.98779 1022.43962 1052.00000
33.99803 1022.39406 1006.00000
34.00827 1022.34891 996.00000
34.01851 1022.30463 995.00000
34.02875 1022.26077 1005.00000
34.03900 1022.21720 1002.00000
34.04924 1022.17389 1015.00000
34.05948 1022.13089 1006.00000
34.06972 1022.08829 1076.00000
34.07996 1022.04631 977.00000
34.09020 1022.00551 999.00000
34.10044 1021.96727 1022.00000
34.11069 1021.93585 978.00000
34.12093 1021.92055 986.00000
34.13117 1021.91890 1064.00000
34.14141 1021.89928 986.00000
34.15165 1021.86566 980.00000
34.16189 1021.83178 961.00000
34.17213 1021.80484 1019.00000
34.18238 1021.79443 1042.00000
34.19262 1021.79936 1018.00000
34.20286 1021.78944 986.00000
34.21310 1021.76012 978.00000
34.22334 1021.72655 958.00000
34.23358 1021.69319 932.00000
34.24382 1021.66030 975.00000
34.25407 1021.62777 1013.00000
34.26431 1021.59564 1041.00000
34.27455 1021.56439 1069.00000
34.28479 1021.53413 996.00000
34.29503 1021.50479 1008.00000
34.30527 1021.47659 984.00000
34.31552 1021.45024 942.00000
34.32576 1021.42786 1016.00000
34.33600 1021.41411 1008.00000
34.34624 1021.40781 1002.00000
34.35648 1021.39334 1064.00000
34.36672 1021.37232 1014.00000
34.37696 1021.35079 964.00000
34.38721 1021.33021 1044.00000
34.39745 1021.31069 1017.00000
34.40769 1021.29230 933.00000
34.41793 1021.27507 977.00000
34.42817 1021.25907 999.00000
34.43841 1021.24435 1001.00000
34.44865 1021.23098 979.00000
34.45890 1021.21901 1018.00000
34.46914 1021.20852 957.00000
34.47938 1021.19958 1022.00000
34.48962 1021.19228 1024.00000
34.49986 1021.18668 965.00000
34.51010 1021.18289 997.00000
34.52034 1021.18101 977.00000
34.53059 1021.18113 990.00000
34.54083 1021.18337 972.00000
34.55107 1021.18784 1021.00000
34.56131 1021.19468 964.00000
34.57155 1021.20402 985.00000
34.58179 1021.21601 1026.00000
34.59203 1021.23081 1006.00000
34.60228 1021.24860 968.00000
34.61252 1021.26956 958.00000
34.62276 1021.29389 980.00000
34.63300 1021.32182 959.00000
34.64324 1021.35359 985.00000
34.65348 1021.38945 966.00000
34.66373 1021.42970 1017.00000
34.67397 1021.47464 1023.00000
34.68421 1021.52462 989.00000
34.69445 1021.58000 987.00000
34.70469 1021.64120 968.00000
34.71493 1021.70866 1032.00000
34.72517 1021.78288 976.00000
34.73542 1021.86441 1002.00000
34.74566 1021.95386 992.00000
34.75590 1022.05190 1041.00000
34.76614 1022.15928 996.00000
34.77638 1022.27684 984.00000
34.78662 1022.40551 1002.00000
34.79686 1022.54634 1021.00000
34.80711 1022.70051 945.00000
34.81735 1022.86936 984.00000
34.82759 1023.05439 1003.00000
34.83783 1023.25733 997.00000
34.84807 1023.48013 942.00000
34.85831 1023.72503 987.00000
34.86855 1023.99461 1060.00000
34.87880 1024.29185 998.00000
34.88904 1024.62026 963.00000
34.89928 1024.98396 996.00000
34.90952 1025.38800 992.00000
34.91976 1025.83870 1012.00000
34.93000 1026.34450 1006.00000
34.94024 1026.91831 996.00000
34.95049 1027.58273 1039.00000
34.96073 1028.36524 1031.00000
34.97097 1029.25226 1067.00000
34.98121 1030.18949 1054.00000
34.99145 1031.23839 1061.00000
35.00169 1032.43834 1064.00000
35.01194 1033.81679 1037.00000
35.02218 1035.40320 1055.00000
35.03242 1037.22886 1044.00000
35.04266 1039.32452 1017.00000
35.05290 1041.71748 1005.00000
35.06314 1044.42982 1021.00000
35.07338 1047.48233 1073.00000
35.08363 1050.90979 1061.00000
35.09387 1054.79154 1051.00000
35.10411 1059.29358 1011.00000
35.11435 1064.71164 1088.00000
35.12459 1071.50963 1000.00000
35.13483 1080.36713 1136.00000
35.14507 1092.26605 1030.00000
35.15532 1108.64500 1169.00000
35.16556 1131.62508 1083.00000
35.17580 1164.25090 1175.00000
35.18604 1210.52897 1303.00000
35.19628 1274.69763 1340.00000
35.20652 1358.37958 1382.00000
35.21676 1453.57931 1508.00000
35.22701 1534.53927 1600.00000
35.23725 1564.26194 1518.00000
35.24749 1526.61545 1507.00000
35.25773 1447.57580 1515.00000
35.26797 1368.91070 1431.00000
35.27821 1315.56689 1412.00000
35.28845 1292.64764 1348.00000
35.29870 1295.34777 1301.00000
35.30894 1313.11012 1310.00000
35.31918 1328.67455 1384.00000
35.32942 1322.70083 1346.00000
35.33966 1288.10545 1253.00000
35.34990 1236.70201 1321.00000
35.36015 1185.99390 1181.00000
35.37039 1145.45752 1128.00000
35.38063 1116.01954 1133.00000
35.39087 1095.19365 1041.00000
35.40111 1080.32497 1136.00000
35.41135 1069.46785 1083.00000
35.42159 1061.33804 1069.00000
35.43184 1055.10497 1029.00000
35.44208 1050.22565 1038.00000
35.45232 1046.33734 1013.00000
35.46256 1043.19173 1011.00000
35.47280 1040.61467 1090.00000
35.48304 1038.48131 1045.00000
35.49328 1036.70028 1066.00000
35.50353 1035.20355 1052.00000
35.51377 1033.93960 1039.00000
35.52401 1032.86891 1078.00000
35.53425 1031.96082 1049.00000
35.54449 1031.19132 1043.00000
35.55473 1030.54156 1007.00000
35.56497 1029.99702 1006.00000
35.57522 1029.54739 1000.00000
35.58546 1029.18577 996.00000
35.59570 1028.90067 1020.00000
35.60594 1028.67609 998.00000
35.61618 1028.51341 1034.00000
35.62642 1028.41113 979.00000
35.63666 1028.36684 1010.00000
35.64691 1028.37887 1010.00000
35.65715 1028.44637 945.00000
35.66739 1028.56926 1014.00000
35.67763 1028.74825 990.00000
35.68787 1028.98476 978.00000
35.69811 1029.28102 1044.00000
35.70836 1029.64007 1051.00000
35.71860 1030.06587 935.00000
35.72884 1030.56337 979.00000
35.73908 1031.13867 989.00000
35.74932 1031.79916 1007.00000
35.75956 1032.55380 1057.00000
35.76980 1033.41335 1050.00000
35.78005 1034.39073 1001.00000
35.79029 1035.50148 989.00000
35.80053 1036.76424 1000.00000
35.81077 1038.20142 997.00000
35.82101 1039.83984 1054.00000
35.83125 1041.71135 1000.00000
35.84149 1043.85284 1010.00000
35.85174 1046.30589 994.00000
35.86198 1049.12528 1024.00000
35.87222 1052.38652 1077.00000
35.88246 1056.15237 975.00000
35.89270 1060.48149 1073.00000
35.90294 1065.43204 1050.00000
35.91318 1071.05362 1069.00000
35.92343 1077.38930 1065.00000
35.93367 1084.49732 1054.00000
35.94391 1092.50104 1059.00000
35.95415 1101.66627 1041.00000
35.96439 1112.49008 1095.00000
35.97463 1125.78276 1078.00000
35.98487 1142.74995 1109.00000
35.99512 1165.12089 1137.00000
36.00536 1195.38489 1172.00000
36.01560 1237.17225 1218.00000
36.02584 1295.74176 1242.00000
36.03608 1378.37674 1279.00000
36.04632 1494.07880 1473.00000
36.05657 1650.91567 1472.00000
36.06681 1847.66875 1685.00000
36.07705 2057.13473 1882.00000
36.08729 2212.13570 1889.00000
36.09753 2232.50926 1939.00000
36.10777 2105.37960 1850.00000
36.11801 1913.62811 1750.00000
36.12826 1749.66632 1579.00000
36.13850 1650.56919 1535.00000
36.14874 1616.58143 1529.00000
36.15898 1633.92946 1502.00000
36.16922 1677.74130 1545.00000
36.17946 1708.42303 1622.00000
36.18970 1685.41061 1546.00000
36.19995 1600.39813 1453.00000
36.21019 1484.76550 1429.00000
36.22043 1375.23457 1322.00000
36.23067 1288.84132 1254.00000
36.24091 1225.98191 1199.00000
36.25115 1181.14421 1180.00000
36.26139 1148.81697 1140.00000
36.27164 1124.98157 1101.00000
36.28188 1106.96571 1090.00000
36.29212 1093.02418 1113.00000
36.30236 1082.00540 1024.00000
36.31260 1073.13365 1043.00000
36.32284 1065.87390 1041.00000
36.33308 1059.84837 1074.00000
36.34333 1054.78401 1044.00000
36.35357 1050.47836 1007.00000
36.36381 1046.77672 1037.00000
36.37405 1043.56610 1007.00000
36.38429 1040.77381 1066.00000
36.39453 1038.32875 998.00000
36.40478 1036.16949 1060.00000
36.41502 1034.25038 1014.00000
36.42526 1032.53556 995.00000
36.43550 1030.99579 1086.00000
36.44574 1029.60696 1011.00000
36.45598 1028.34904 1026.00000
36.46622 1027.20524 983.00000
36.47647 1026.16143 966.00000
36.48671 1025.20558 996.00000
36.49695 1024.32738 980.00000
36.50719 1023.51782 984.00000
36.51743 1022.76870 975.00000
36.52767 1022.07147 1003.00000
36.53791 1021.41607 969.00000
36.54816 1020.79896 1025.00000
36.55840 1020.23149 1024.00000
36.56864 1019.70816 947.00000
36.57888 1019.21928 929.00000
36.58912 1018.76035 1027.00000
36.59936 1018.32864 1043.00000
36.60960 1017.92180 1052.00000
36.61985 1017.53774 994.00000
36.63009 1017.17456 1050.00000
36.64033 1016.83058 1006.00000
36.65057 1016.50437 987.00000
36.66081 1016.19463 1010.00000
36.67105 1015.89977 983.00000
36.68129 1015.61840 1049.00000
36.69154 1015.34890 989.00000
36.70178 1015.08875 951.00000
36.71202 1014.83214 932.00000
36.72226 1014.56814 968.00000
36.73250 1014.30285 1015.00000
36.74274 1014.07367 931.00000
36.75299 1013.86667 982.00000
36.76323 1013.66992 968.00000
36.77347 1013.48091 1005.00000
36.78371 1013.29969 1003.00000
36.79395 1013.12762 968.00000
36.80419 1012.96680 995.00000
36.81443 1012.81309 920.00000
36.82468 1012.65662 948.00000
36.83492 1012.50302 950.00000
36.84516 1012.35407 1025.00000
36.85540 1012.20963 1005.00000
36.86564 1012.06945 998.00000
36.87588 1011.93331 994.00000
36.88612 1011.80099 1006.00000
36.89637 1011.67228 923.00000
36.90661 1011.54701 1006.00000
36.91685 1011.42500 984.00000
36.92709 1011.30609 1000.00000
36.93733 1011.19012 1043.00000
36.94757 1011.07695 991.00000
36.95781 1010.96645 1001.00000
36.96806 1010.85849 995.00000
36.97830 1010.75296 940.00000
36.98854 1010.64973 946.00000
36.99878 1010.54871 950.00000
37.00902 1010.44980 1005.00000
37.01926 1010.35290 1001.00000
37.02950 1010.25794 965.00000
37.03975 1010.16481 962.00000
37.04999 1010.07345 954.00000
37.06023 1009.98379 979.00000
37.07047 1009.89575 967.00000
37.08071 1009.80926 942.00000
37.09095 1009.72427 976.00000
37.10120 1009.64071 1019.00000
37.11144 1009.55854 944.00000
37.12168 1009.47769 1040.00000
37.13192 1009.39811 987.00000
37.14216 1009.31977 1012.00000
37.15240 1009.24261 1030.00000
37.16264 1009.16658 926.00000
37.17289 1009.09165 986.00000
37.18313 1009.01774 981.00000
37.19337 1008.94471 948.00000
37.20361 1008.87224 1001.00000
37.21385 1008.79962 947.00000
37.22409 1008.72511 952.00000
37.23433 1008.64335 987.00000
37.24458 1008.54343 983.00000
37.25482 1008.43195 980.00000
37.26506 1008.34663 1026.00000
37.27530 1008.26780 990.00000
37.28554 1008.18552 972.00000
37.29578 1008.11371 978.00000
37.30602 1008.05069 1002.00000
37.31627 1007.98994 991.00000
37.32651 1007.92992 1067.00000
37.33675 1007.87050 947.00000
37.34699 1007.81167 1013.00000
37.35723 1007.75338 949.00000
37.36747 1007.69554 984.00000
37.37772 1007.63791 1008.00000
37.38796 1007.57996 981.00000
37.39820 1007.52038 986.00000
37.40844 1007.45524 986.00000
37.41868 1007.37590 988.00000
37.42892 1007.28275 988.00000
37.43916 1007.20344 1016.00000
37.44941 1007.14591 916.00000
37.45965 1007.09410 993.00000
37.46989 1007.04302 996.00000
37.48013 1006.99233 936.00000
37.49037 1006.94204 996.00000
37.50061 1006.89214 923.00000
37.51085 1006.84261 972.00000
37.52110 1006.79345 985.00000
37.53134 1006.74466 958.00000
37.54158 1006.69623 926.00000
37.55182 1006.64816 1000.00000
37.56206 1006.60044 1006.00000
37.57230 1006.55308 1007.00000
37.58254 1006.50606 927.00000
37.59279 1006.45943 979.00000
37.60303 1006.41328 985.00000
37.61327 1006.36788 944.00000
37.62351 1006.32405 946.00000
37.63375 1006.28422 961.00000
37.64399 1006.25264 953.00000
37.65423 1006.22800 997.00000
37.66448 1006.19713 1057.00000
37.67472 1006.15645 928.00000
37.68496 1006.11385 1011.00000
37.69520 1006.07146 1014.00000
37.70544 1006.02943 982.00000
37.71568 1005.98775 1003.00000
37.72593 1005.94643 984.00000
37.73617 1005.90546 921.00000
37.74641 1005.86485 941.00000
37.75665 1005.82461 980.00000
37.76689 1005.78472 999.00000
37.77713 1005.74521 1029.00000
37.78737 1005.70607 987.00000
37.79762 1005.66730 1006.00000
37.80786 1005.62892 982.00000
37.81810 1005.59092 958.00000
37.82834 1005.55332 994.00000
37.83858 1005.51616 986.00000
37.84882 1005.47951 1009.00000
37.85906 1005.44359 1018.00000
37.86931 1005.40902 1009.00000
37.87955 1005.37763 997.00000
37.88979 1005.35189 955.00000
37.90003 1005.32807 1045.00000
37.91027 1005.29685 994.00000
37.92051 1005.26402 961.00000
37.93075 1005.23158 1015.00000
37.94100 1005.19967 1037.00000
37.95124 1005.16830 1002.00000
37.96148 1005.13749 1014.00000
37.97172 1005.10726 1034.00000
37.98196 1005.07763 1006.00000
37.99220 1005.04862 1010.00000
38.00244 1005.02025 939.00000
38.01269 1004.99254 936.00000
38.02293 1004.96552 1043.00000
38.03317 1004.93922 1013.00000
38.04341 1004.91365 1039.00000
38.05365 1004.88886 998.00000
38.06389 1004.86487 989.00000
38.07414 1004.84172 936.00000
38.08438 1004.81944 971.00000
38.09462 1004.79808 1013.00000
38.10486 1004.77765 993.00000
38.11510 1004.75815 957.00000
38.12534 1004.73948 1012.00000
38.13558 1004.72131 951.00000
38.14583 1004.70279 1003.00000
38.15607 1004.68150 978.00000
38.16631 1004.65095 924.00000
38.17655 1004.60267 986.00000
38.18679 1004.54954 992.00000
38.19703 1004.52641 1006.00000
38.20727 1004.50651 998.00000
38.21752 1004.48247 960.00000
38.22776 1004.46971 996.00000
38.23800 1004.46696 963.00000
38.24824 1004.46785 967.00000
38.25848 1004.47094 987.00000
38.26872 1004.47628 951.00000
38.27896 1004.48402 996.00000
38.28921 1004.49433 967.00000
38.29945 1004.50738 984.00000
38.30969 1004.52338 988.00000
38.31993 1004.54253 987.00000
38.33017 1004.56507 960.00000
38.34041 1004.59126 982.00000
38.35065 1004.62139 998.00000
38.36090 1004.65577 982.00000
38.37114 1004.69475 985.00000
38.38138 1004.73872 952.00000
38.39162 1004.78810 906.00000
38.40186 1004.84336 950.00000
38.41210 1004.90506 972.00000
38.42235 1004.97376 989.00000
38.43259 1005.05016 984.00000
38.44283 1005.13499 1003.00000
38.45307 1005.22910 1001.00000
38.46331 1005.33347 973.00000
38.47355 1005.44918 1027.00000
38.48379 1005.57748 954.00000
38.49404 1005.71979 1008.00000
38.50428 1005.87776 969.00000
38.51452 1006.05329 998.00000
38.52476 1006.24856 991.00000
38.53500 1006.46613 1011.00000
38.54524 1006.70898 1038.00000
38.55548 1006.98061 934.00000
38.56573 1007.28513 963.00000
38.57597 1007.62739 980.00000
38.58621 1008.01311 982.00000
38.59645 1008.44905 982.00000
38.60669 1008.94314 924.00000
38.61693 1009.50464 1063.00000
38.62717 1010.14413 975.00000
38.63742 1010.87347 999.00000
38.64766 1011.70535 1009.00000
38.65790 1012.65261 1007.00000
38.66814 1013.72703 1024.00000
38.67838 1014.93820 1036.00000
38.68862 1016.29307 966.00000
38.69886 1017.79798 988.00000
38.70911 1019.46493 994.00000
38.71935 1021.32294 1018.00000
38.72959 1023.43281 1012.00000
38.73983 1025.90123 1035.00000
38.75007 1028.89177 989.00000
38.76031 1032.63581 970.00000
38.77056 1037.45211 1081.00000
38.78080 1043.78597 1055.00000
38.79104 1052.27759 990.00000
38.80128 1063.86324 1104.00000
38.81152 1079.89528 1130.00000
38.82176 1102.21322 1182.00000
38.83200 1132.96243 1221.00000
38.84225 1173.67835 1231.00000
38.85249 1222.87521 1251.00000
38.86273 1272.21432 1355.00000
38.87297 1305.22223 1352.00000
38.88321 1305.99719 1459.00000
38.89345 1274.79742 1417.00000
38.90369 1229.57326 1309.00000
38.91394 1189.09401 1218.00000
38.92418 1162.12299 1160.00000
38.93442 1149.73638 1162.00000
38.94466 1149.94054 1163.00000
38.95490 1159.04232 1171.00000
38.96514 1170.63924 1196.00000
38.97538 1175.61117 1196.00000
38.98563 1166.55831 1269.00000
38.99587 1144.10119 1197.00000
39.00611 1116.19185 1100.00000
39.01635 1090.53432 1093.00000
39.02659 1070.29606 1072.00000
39.03683 1055.32960 1132.00000
39.04707 1044.41574 1060.00000
39.05732 1036.37516 1047.00000
39.06756 1030.33444 1040.00000
39.07780 1025.69629 994.00000
39.08804 1022.05919 1006.00000
39.09828 1019.15063 940.00000
39.10852 1016.78070 992.00000
39.11877 1014.81072 999.00000
39.12901 1013.14374 940.00000
39.13925 1011.73423 1016.00000
39.14949 1010.55430 975.00000
39.15973 1009.54324 984.00000
39.16997 1008.65849 994.00000
39.18021 1007.88094 1004.00000
39.19046 1007.19383 920.00000
39.20070 1006.58279 1021.00000
39.21094 1006.03622 986.00000
39.22118 1005.54466 972.00000
39.23142 1005.10034 996.00000
39.24166 1004.69686 982.00000
39.25190 1004.32886 1024.00000
39.26215 1003.99187 961.00000
39.27239 1003.68209 984.00000
39.28263 1003.39635 1008.00000
39.29287 1003.13199 930.00000
39.30311 1002.88700 976.00000
39.31335 1002.66047 997.00000
39.32359 1002.45298 983.00000
39.33384 1002.26151 950.00000
39.34408 1002.07549 980.00000
39.35432 1001.89870 1020.00000
39.36456 1001.73177 987.00000
39.37480 1001.57391 1013.00000
39.38504 1001.42429 985.00000
39.39528 1001.28220 1000.00000
39.40553 1001.14699 962.00000
39.41577 1001.01809 1006.00000
39.42601 1000.89497 900.00000
39.43625 1000.77719 966.00000
39.44649 1000.66431 1005.00000
39.45673 1000.55596 940.00000
39.46698 1000.45181 938.00000
39.47722 1000.35153 945.00000
39.48746 1000.25486 982.00000
39.49770 1000.16153 1011.00000
39.50794 1000.07129 1036.00000
39.51818 999.98383 984.00000
39.52842 999.89879 991.00000
39.53867 999.81536 972.00000
39.54891 999.73165 1007.00000
39.55915 999.64529 983.00000
39.56939 999.56016 990.00000
39.57963 999.48506 919.00000
39.58987 999.41392 1028.00000
39.60011 999.34461 987.00000
39.61036 999.27690 990.00000
39.62060 999.21071 944.00000
39.63084 999.14594 929.00000
39.64108 999.08251 1004.00000
39.65132 999.02036 946.00000
39.66156 998.95941 1001.00000
39.67180 998.89960 1034.00000
39.68205 998.84087 926.00000
39.69229 998.78316 930.00000
39.70253 998.72642 1006.00000
39.71277 998.67061 949.00000
39.72301 998.61568 998.00000
39.73325 998.56158 1000.00000
39.74349 998.50828 1013.00000
39.75374 998.45573 992.00000
39.76398 998.40391 961.00000
39.77422 998.35278 1010.00000
39.78446 998.30230 943.00000
39.79470 998.25246 962.00000
39.80494 998.20321 960.00000
39.81519 998.15454 971.00000
39.82543 998.10642 1005.00000
39.83567 998.05883 960.00000
39.84591 998.01175 953.00000
39.85615 997.96515 1000.00000
39.86639 997.91901 998.00000
39.87663 997.87332 954.00000
39.88688 997.82806 979.00000
39.89712 997.78322 930.00000
39.90736 997.73877 980.00000
39.91760 997.69470 977.00000
39.92784 997.65100 982.00000
39.93808 997.60766 1010.00000
39.94832 997.56466 927.00000
39.95857 997.52198 967.00000
39.96881 997.47963 944.00000
39.97905 997.43758 955.00000
39.98929 997.39583 961.00000
39.99953 997.35436 968.00000
40.00977 997.31318 963.00000
40.02001 997.27226 1025.00000
40.03026 997.23160 969.00000
40.04050 997.19119 986.00000
40.05074 997.15102 979.00000
40.06098 997.11109 951.00000
40.07122 997.07138 930.00000
40.08146 997.03186 1006.00000
40.09170 996.99245 922.00000
40.10195 996.95293 952.00000
40.11219 996.91270 967.00000
40.12243 996.86994 924.00000
40.13267 996.82243 1017.00000
40.14291 996.77424 964.00000
40.15315 996.73431 978.00000
40.16340 996.69670 1014.00000
40.17364 996.65938 1004.00000
40.18388 996.62221 966.00000
40.19412 996.58520 998.00000
40.20436 996.54833 957.00000
40.21460 996.51162 994.00000
40.22484 996.47505 941.00000
40.23509 996.43861 943.00000
40.24533 996.40231 978.00000
40.25557 996.36614 953.00000
40.26581 996.33007 970.00000
40.27605 996.29401 947.00000
40.28629 996.25777 1023.00000
40.29653 996.22072 1037.00000
40.30678 996.18105 958.00000
40.31702 996.13653 999.00000
40.32726 996.09125 990.00000
40.33750 996.05420 948.00000
40.34774 996.01939 941.00000
40.35798 995.98482 955.00000
40.36822 995.95034 1050.00000
40.37847 995.91596 993.00000
40.38871 995.88167 987.00000
40.39895 995.84748 978.00000
40.40919 995.81338 961.00000
40.41943 995.77936 1015.00000
40.42967 995.74544 1003.00000
40.43991 995.71161 1032.00000
40.45016 995.67787 978.00000
40.46040 995.64428 984.00000
40.47064 995.61098 1020.00000
40.48088 995.57842 1047.00000
40.49112 995.54803 960.00000
40.50136 995.52149 969.00000
40.51161 995.49546 983.00000
40.52185 995.46393 998.00000
40.53209 995.43108 1009.00000
40.54233 995.39824 946.00000
40.55257 995.36547 963.00000
40.56281 995.33278 1045.00000
40.57305 995.30017 991.00000
40.58330 995.26764 988.00000
40.59354 995.23518 1029.00000
40.60378 995.20280 989.00000
40.61402 995.17049 1054.00000
40.62426 995.13826 945.00000
40.63450 995.10612 952.00000
40.64474 995.07415 988.00000
40.65499 995.04252 1033.00000
40.66523 995.01192 973.00000
40.67547 994.98422 952.00000
40.68571 994.96015 975.00000
40.69595 994.93381 958.00000
40.70619 994.90331 990.00000
40.71643 994.87196 989.00000
40.72668 994.84062 1009.00000
40.73692 994.80935 1016.00000
40.74716 994.77815 949.00000
40.75740 994.74703 965.00000
40.76764 994.71598 935.00000
40.77788 994.68499 941.00000
40.78812 994.65409 1012.00000
40.79837 994.62325 971.00000
40.80861 994.59248 1012.00000
40.81885 994.56179 980.00000
40.82909 994.53116 1013.00000
40.83933 994.50061 956.00000
40.84957 994.47013 984.00000
40.85982 994.43972 1000.00000
40.87006 994.40939 916.00000
40.88030 994.37912 962.00000
40.89054 994.34893 980.00000
40.90078 994.31881 976.00000
40.91102 994.28876 974.00000
40.92126 994.25878 965.00000
40.93151 994.22888 975.00000
40.94175 994.19905 1015.00000
40.95199 994.16930 944.00000
40.96223 994.13961 984.00000
40.97247 994.11001 965.00000
40.98271 994.08047 978.00000
40.99295 994.05101 908.00000
41.00320 994.02163 1016.00000
41.01344 993.99233 1042.00000
41.02368 993.96309 963.00000
41.03392 993.93394 961.00000
41.04416 993.90488 952.00000
41.05440 993.87606 961.00000
41.06464 993.84839 1014.00000
41.07489 993.82514 975.00000
41.08513 993.81705 1027.00000
41.09537 993.86360 984.00000
41.10561 994.06167 1008.00000
41.11585 994.37574 975.00000
41.12609 994.42323 980.00000
41.13634 994.39886 945.00000
41.14658 994.36543 985.00000
41.15682 994.33126 987.00000
41.16706 994.30531 1024.00000
41.17730 994.28162 1006.00000
41.18754 994.25817 969.00000
41.19778 994.23484 995.00000
41.20803 994.21164 937.00000
41.21827 994.18874 953.00000
41.22851 994.16719 954.00000
41.23875 994.15118 1004.00000
41.24899 994.15442 997.00000
41.25923 994.22753 963.00000
41.26947 994.51736 946.00000
41.27972 995.08378 909.00000
41.28996 995.45024 951.00000
41.30020 995.50570 1005.00000
41.31044 995.49553 1005.00000
41.32068 995.48188 920.00000
41.33092 995.46844 1009.00000
41.34116 995.45522 976.00000
41.35141 995.44221 981.00000
41.36165 995.42942 969.00000
41.37189 995.41686 968.00000
41.38213 995.40454 1000.00000
41.39237 995.39252 963.00000
41.40261 995.38100 927.00000
41.41285 995.37059 975.00000
41.42310 995.36320 971.00000
41.43334 995.36193 992.00000
41.44358 995.36505 912.00000
41.45382 995.36335 967.00000
41.46406 995.35508 985.00000
41.47430 995.34564 962.00000
41.48455 995.33639 975.00000
41.49479 995.32744 987.00000
41.50503 995.31877 1078.00000
41.51527 995.31040 998.00000
41.52551 995.30233 965.00000
41.53575 995.29457 969.00000
41.54599 995.28713 978.00000
41.55624 995.28001 1017.00000
41.56648 995.27322 1062.00000
41.57672 995.26683 957.00000
41.58696 995.26101 927.00000
41.59720 995.25630 971.00000
41.60744 995.25440 971.00000
41.61768 995.25857 1050.00000
41.62793 995.26841 965.00000
41.63817 995.27408 1002.00000
41.64841 995.27253 972.00000
41.65865 995.26977 988.00000
41.66889 995.26753 975.00000
41.67913 995.26639 1019.00000
41.68937 995.26779 958.00000
41.69962 995.27336 1026.00000
41.70986 995.27980 982.00000
41.72010 995.28138 985.00000
41.73034 995.28213 960.00000
41.74058 995.28332 1005.00000
41.75082 995.28504 1027.00000
41.76106 995.28729 961.00000
41.77131 995.29010 1029.00000
41.78155 995.29347 1004.00000
41.79179 995.29744 956.00000
41.80203 995.30200 970.00000
41.81227 995.30718 971.00000
41.82251 995.31301 967.00000
41.83276 995.31950 966.00000
41.84300 995.32671 944.00000
41.85324 995.33477 1034.00000
41.86348 995.34402 959.00000
41.87372 995.35561 949.00000
41.88396 995.37186 952.00000
41.89420 995.39142 979.00000
41.90445 995.40539 951.00000
41.91469 995.41851 959.00000
41.92493 995.43243 936.00000
41.93517 995.44728 987.00000
41.94541 995.46308 958.00000
41.95565 995.47989 1003.00000
41.96589 995.49773 959.00000
41.97614 995.51664 928.00000
41.98638 995.53667 946.00000
41.99662 995.55786 974.00000
42.00686 995.58026 1027.00000
42.01710 995.60392 1002.00000
42.02734 995.62889 1004.00000
42.03758 995.65523 1006.00000
42.04783 995.68299 963.00000
42.05807 995.71225 938.00000
42.06831 995.74306 986.00000
42.07855 995.77550 995.00000
42.08879 995.80965 993.00000
42.09903 995.84559 996.00000
42.10927 995.88339 989.00000
42.11952 995.92313 942.00000
42.12976 995.96483 988.00000
42.14000 996.00839 990.00000
42.15024 996.05327 953.00000
42.16048 996.09773 1009.00000
42.17072 996.13967 985.00000
42.18097 996.18352 942.00000
42.19121 996.23829 891.00000
42.20145 996.29822 942.00000
42.21169 996.36147 1019.00000
42.22193 996.42814 1000.00000
42.23217 996.49842 981.00000
42.24241 996.57256 960.00000
42.25266 996.65082 961.00000
42.26290 996.73347 999.00000
42.27314 996.82082 967.00000
42.28338 996.91322 992.00000
42.29362 997.01103 1053.00000
42.30386 997.11465 989.00000
42.31410 997.22456 1034.00000
42.32435 997.34124 1058.00000
42.33459 997.46525 958.00000
42.34483 997.59722 966.00000
42.35507 997.73783 1034.00000
42.36531 997.88786 986.00000
42.37555 998.04819 1003.00000
42.38579 998.21980 1011.00000
42.39604 998.40379 936.00000
42.40628 998.60143 966.00000
42.41652 998.81415 1034.00000
42.42676 999.04360 915.00000
42.43700 999.29165 989.00000
42.44724 999.56046 966.00000
42.45748 999.85253 973.00000
42.46773 1000.17074 1007.00000
42.47797 1000.51842 986.00000
42.48821 1000.89959 999.00000
42.49845 1001.31960 981.00000
42.50869 1001.78686 986.00000
42.51893 1002.31808 967.00000
42.52918 1002.95959 989.00000
42.53942 1003.81406 1005.00000
42.54966 1004.85093 1054.00000
42.55990 1005.70248 1030.00000
42.57014 1006.56900 1023.00000
42.58038 1007.51981 1047.00000
42.59062 1008.56289 1022.00000
42.60087 1009.70181 1007.00000
42.61111 1010.94265 1002.00000
42.62135 1012.29892 952.00000
42.63159 1013.79792 994.00000
42.64183 1015.48691 1002.00000
42.65207 1017.43784 1008.00000
42.66231 1019.75107 1041.00000
42.67256 1022.56138 1005.00000
42.68280 1026.05105 1016.00000
42.69304 1030.47862 1063.00000
42.70328 1036.25135 1040.00000
42.71352 1044.02813 1057.00000
42.72376 1054.41533 1024.00000
42.73400 1067.59261 1061.00000
42.74425 1085.14861 1109.00000
42.75449 1108.46902 1135.00000
42.76473 1138.12263 1198.00000
42.77497 1172.34395 1178.00000
42.78521 1205.01474 1244.00000
42.79545 1225.92257 1378.00000
42.80569 1226.52419 1284.00000
42.81594 1207.74863 1269.00000
42.82618 1179.78130 1276.00000
42.83642 1153.49931 1159.00000
42.84666 1134.74810 1113.00000
42.85690 1125.00731 1150.00000
42.86714 1123.84810 1141.00000
42.87739 1130.17735 1242.00000
42.88763 1142.06452 1176.00000
42.89787 1156.02261 1185.00000
42.90811 1167.31233 1251.00000
42.91835 1172.58296 1313.00000
42.92859 1173.10862 1288.00000
42.93883 1174.44824 1229.00000
42.94908 1182.38249 1239.00000
42.95932 1199.28156 1297.00000
42.96956 1222.31385 1284.00000
42.97980 1242.90903 1343.00000
42.99004 1249.74302 1367.00000
43.00028 1236.68316 1314.00000
43.01052 1208.35018 1304.00000
43.02077 1175.65170 1249.00000
43.03101 1147.50805 1219.00000
43.04125 1127.78982 1195.00000
43.05149 1116.95115 1097.00000
43.06173 1114.10055 1169.00000
43.07197 1117.68472 1191.00000
43.08221 1124.97680 1175.00000
43.09246 1131.45339 1156.00000
43.10270 1131.80537 1147.00000
43.11294 1123.13043 1124.00000
43.12318 1107.21328 1230.00000
43.13342 1088.74968 1081.00000
43.14366 1071.74252 1067.00000
43.15390 1057.91157 1087.00000
43.16415 1047.29697 1107.00000
43.17439 1039.29302 1040.00000
43.18463 1033.23543 1031.00000
43.19487 1028.59061 1012.00000
43.20511 1024.97125 1048.00000
43.21535 1022.10510 1018.00000
43.22560 1019.80140 953.00000
43.23584 1017.92524 1036.00000
43.24608 1016.37979 1027.00000
43.25632 1015.09441 973.00000
43.26656 1014.01669 1024.00000
43.27680 1013.10714 1026.00000
43.28704 1012.33553 1006.00000
43.29729 1011.67842 987.00000
43.30753 1011.11736 1063.00000
43.31777 1010.63772 992.00000
43.32801 1010.22771 997.00000
43.33825 1009.87778 1003.00000
43.34849 1009.58008 1020.00000
43.35873 1009.32817 1017.00000
43.36898 1009.11666 1070.00000
43.37922 1008.94104 1055.00000
43.38946 1008.79753 1016.00000
43.39970 1008.68291 1022.00000
43.40994 1008.59445 1016.00000
43.42018 1008.52979 1019.00000
43.43042 1008.48694 1117.00000
43.44067 1008.46415 997.00000
43.45091 1008.45993 1044.00000
43.46115 1008.47299 1035.00000
43.47139 1008.50240 996.00000
43.48163 1008.54823 1056.00000
43.49187 1008.61393 1058.00000
43.50211 1008.71315 1071.00000
43.51236 1008.89646 1047.00000
43.52260 1009.29835 1049.00000
43.53284 1009.97422 1084.00000
43.54308 1010.51394 1017.00000
43.55332 1010.73559 1056.00000
43.56356 1010.89717 1014.00000
43.57381 1011.07117 1091.00000
43.58405 1011.25725 1071.00000
43.59429 1011.45397 1012.00000
43.60453 1011.66111 1122.00000
43.61477 1011.87859 986.00000
43.62501 1012.10631 997.00000
43.63525 1012.34425 1045.00000
43.64550 1012.59259 1029.00000
43.65574 1012.85267 1010.00000
43.66598 1013.13023 1115.00000
43.67622 1013.44467 1106.00000
43.68646 1013.86592 1064.00000
43.69670 1014.60652 1031.00000
43.70694 1015.86424 1117.00000
43.71719 1017.14363 1112.00000
43.72743 1017.90139 1016.00000
43.73767 1018.34245 1088.00000
43.74791 1018.73570 1071.00000
43.75815 1019.14051 1069.00000
43.76839 1019.56933 1100.00000
43.77863 1020.02909 1079.00000
43.78888 1020.55384 1103.00000
43.79912 1021.23964 1060.00000
43.80936 1022.04977 1097.00000
43.81960 1022.62366 1069.00000
43.82984 1023.14719 1077.00000
43.84008 1023.68214 1100.00000
43.85032 1024.23285 1054.00000
43.86057 1024.79978 1049.00000
43.87081 1025.38341 1084.00000
43.88105 1025.98423 1082.00000
43.89129 1026.60278 1042.00000
43.90153 1027.23962 1057.00000
43.91177 1027.89534 1054.00000
43.92202 1028.57072 1105.00000
43.93226 1029.26741 1058.00000
43.94250 1029.99013 1020.00000
43.95274 1030.75282 1080.00000
43.96298 1031.60499 1060.00000
43.97322 1032.68955 1063.00000
43.98346 1034.07258 1084.00000
43.99371 1035.30688 1086.00000
44.00395 1036.26457 1088.00000
44.01419 1037.18492 1101.00000
44.02443 1038.13036 1068.00000
44.03467 1039.10570 1010.00000
44.04491 1040.11212 1040.00000
44.05515 1041.15087 1053.00000
44.06540 1042.22336 1041.00000
44.07564 1043.33128 1088.00000
44.08588 1044.47705 1112.00000
44.09612 1045.66229 1067.00000
44.10636 1046.88501 1082.00000
44.11660 1048.14805 1077.00000
44.12684 1049.45411 1086.00000
44.13709 1050.80525 1120.00000
44.14733 1052.20347 1079.00000
44.15757 1053.65080 1096.00000
44.16781 1055.14902 1091.00000
44.17805 1056.69913 1129.00000
44.18829 1058.30223 1133.00000
44.19853 1059.96475 1074.00000
44.20878 1061.69502 1074.00000
44.21902 1063.49198 1132.00000
44.22926 1065.35768 1079.00000
44.23950 1067.29555 1087.00000
44.24974 1069.30935 1158.00000
44.25998 1071.40310 1139.00000
44.27023 1073.58109 1097.00000
44.28047 1075.84792 1090.00000
44.29071 1078.20850 1135.00000
44.30095 1080.66811 1064.00000
44.31119 1083.23243 1098.00000
44.32143 1085.90753 1104.00000
44.33167 1088.69999 1104.00000
44.34192 1091.61686 1092.00000
44.35216 1094.66580 1144.00000
44.36240 1097.85525 1139.00000
44.37264 1101.19474 1160.00000
44.38288 1104.69395 1151.00000
44.39312 1108.35990 1126.00000
44.40336 1112.20131 1112.00000
44.41361 1116.23567 1152.00000
44.42385 1120.48214 1129.00000
44.43409 1124.95143 1063.00000
44.44433 1129.65851 1198.00000
44.45457 1134.62109 1161.00000
44.46481 1139.85872 1205.00000
44.47505 1145.39298 1223.00000
44.48530 1151.24765 1152.00000
44.49554 1157.44912 1182.00000
44.50578 1164.02663 1210.00000
44.51602 1171.01276 1175.00000
44.52626 1178.44386 1239.00000
44.53650 1186.36061 1248.00000
44.54674 1194.80866 1237.00000
44.55699 1203.83939 1282.00000
44.56723 1213.51075 1220.00000
44.57747 1223.88819 1232.00000
44.58771 1235.04538 1246.00000
44.59795 1247.06490 1291.00000
44.60819 1260.04476 1299.00000
44.61844 1274.10582 1317.00000
44.62868 1289.36991 1296.00000
44.63892 1305.98050 1281.00000
44.64916 1324.10311 1378.00000
44.65940 1343.92570 1439.00000
44.66964 1365.65950 1396.00000
44.67988 1389.53835 1380.00000
44.69013 1415.81510 1377.00000
44.70037 1444.75395 1456.00000
44.71061 1476.61756 1492.00000
44.72085 1511.64987 1541.00000
44.73109 1550.05893 1658.00000
44.74133 1592.01103 1560.00000
44.75157 1637.65427 1674.00000
44.76182 1687.19333 1724.00000
44.77206 1741.02690 1752.00000
44.78230 1799.93448 1804.00000
44.79254 1865.26926 1860.00000
44.80278 1939.10897 1979.00000
44.81302 2024.35262 1973.00000
44.82326 2124.81220 2035.00000
44.83351 2245.39226 2209.00000
44.84375 2392.45883 2320.00000
44.85399 2574.48973 2562.00000
44.86423 2803.10119 2670.00000
44.87447 3094.55146 2981.00000
44.88471 3471.74850 3319.00000
44.89496 3966.39615 3693.00000
44.90520 4619.67038 4378.00000
44.91544 5476.85263 5267.00000
44.92568 6566.18981 6401.00000
44.93592 7848.95053 7712.00000
44.94616 9145.38976 9130.00000
44.95640 10109.17180 9633.00000
44.96665 10383.26562 9697.00000
44.97689 9901.02053 9178.00000
44.98713 8973.04053 8519.00000
44.99737 8014.26387 7912.00000
45.00761 7289.76455 7255.00000
45.01785 6894.93577 6953.00000
45.02809 6839.46646 6864.00000
45.03834 7109.64703 7204.00000
45.04858 7683.58415 7750.00000
45.05882 8512.80226 8725.00000
45.06906 9498.29149 9682.00000
45.07930 10513.35151 10385.00000
45.08954 11507.81705 11590.00000
45.09978 12601.70707 12852.00000
45.11003 14004.63175 14309.00000
45.12027 15779.01015 16377.00000
45.13051 17625.97119 18425.00000
45.14075 18872.62715 19891.00000
45.15099 18833.00551 20232.00000
45.16123 17393.31143 18106.00000
45.17147 15147.84832 15358.00000
45.18172 12869.75226 12584.00000
45.19196 11037.76205 10594.00000
45.20220 9805.24552 9291.00000
45.21244 9159.54929 8668.00000
45.22268 9036.56016 8701.00000
45.23292 9343.53839 9304.00000
45.24317 9916.56899 9952.00000
45.25341 10468.02535 10576.00000
45.26365 10626.46890 11132.00000
45.27389 10138.77392 10516.00000
45.28413 9073.87245 9281.00000
45.29437 7752.92527 7632.00000
45.30461 6486.37060 6249.00000
45.31486 5427.38971 5116.00000
45.32510 4598.27881 4317.00000
45.33534 3964.02959 3810.00000
45.34558 3478.94222 3330.00000
45.35582 3103.94087 3108.00000
45.36606 2809.65782 2780.00000
45.37630 2574.99073 2583.00000
45.38655 2384.93949 2451.00000
45.39679 2228.79426 2322.00000
45.40703 2098.82156 2151.00000
45.41727 1989.35773 2090.00000
45.42751 1896.19232 1890.00000
45.43775 1816.14846 1845.00000
45.44799 1746.79479 1889.00000
45.45824 1686.24547 1856.00000
45.46848 1633.01938 1769.00000
45.47872 1585.94766 1662.00000
45.48896 1544.08428 1605.00000
45.49920 1506.65056 1592.00000
45.50944 1473.01848 1511.00000
45.51968 1442.67093 1477.00000
45.52993 1415.18497 1500.00000
45.54017 1390.20037 1445.00000
45.55041 1367.41018 1387.00000
45.56065 1346.55570 1387.00000
45.57089 1327.41657 1321.00000
45.58113 1309.80369 1356.00000
45.59138 1293.55392 1370.00000
45.60162 1278.52585 1326.00000
45.61186 1264.59641 1306.00000
45.62210 1251.65823 1244.00000
45.63234 1239.61769 1261.00000
45.64258 1228.39172 1288.00000
45.65282 1217.90348 1315.00000
45.66307 1208.08822 1251.00000
45.67331 1198.88888 1274.00000
45.68355 1190.25379 1241.00000
45.69379 1182.13655 1219.00000
45.70403 1174.49537 1178.00000
45.71427 1167.29187 1256.00000
45.72451 1160.48895 1228.00000
45.73476 1154.04505 1258.00000
45.74500 1147.89293 1155.00000
45.75524 1141.91793 1210.00000
45.76548 1136.14516 1182.00000
45.77572 1130.91134 1186.00000
45.78596 1126.00342 1187.00000
45.79620 1121.34079 1156.00000
45.80645 1116.90355 1173.00000
45.81669 1112.67709 1206.00000
45.82693 1108.64800 1114.00000
45.83717 1104.80392 1217.00000
45.84741 1101.13347 1149.00000
45.85765 1097.62615 1211.00000
45.86789 1094.27223 1148.00000
45.87814 1091.06270 1138.00000
45.88838 1087.98904 1135.00000
45.89862 1085.04219 1115.00000
45.90886 1082.21002 1142.00000
45.91910 1079.47005 1120.00000
45.92934 1076.75626 1101.00000
45.93959 1073.89489 1118.00000
45.94983 1070.88439 1101.00000
45.96007 1068.35902 1122.00000
45.97031 1066.13068 1142.00000
45.98055 1064.01700 1110.00000
45.99079 1061.98279 1088.00000
46.00103 1060.02261 1050.00000
46.01128 1058.13284 1096.00000
46.02152 1056.31008 1156.00000
46.03176 1054.55115 1112.00000
46.04200 1052.85305 1064.00000
46.05224 1051.21294 1076.00000
46.06248 1049.62817 1140.00000
46.07272 1048.09623 1060.00000
46.08297 1046.61475 1079.00000
46.09321 1045.18149 1060.00000
46.10345 1043.79436 1096.00000
46.11369 1042.45134 1108.00000
46.12393 1041.15055 1082.00000
46.13417 1039.89022 1030.00000
46.14441 1038.66863 1052.00000
46.15466 1037.48419 1097.00000
46.16490 1036.33538 1085.00000
46.17514 1035.22076 1076.00000
46.18538 1034.13896 1071.00000
46.19562 1033.08869 1112.00000
46.20586 1032.06882 1095.00000
46.21610 1031.07855 1116.00000
46.22635 1030.11802 1111.00000
46.23659 1029.18629 1068.00000
46.24683 1028.27725 1061.00000
46.25707 1027.39218 1003.00000
46.26731 1026.53104 1057.00000
46.27755 1025.69303 1068.00000
46.28780 1024.87732 1075.00000
46.29804 1024.08310 998.00000
46.30828 1023.30962 1071.00000
46.31852 1022.55614 1017.00000
46.32876 1021.82200 1016.00000
46.33900 1021.10670 1089.00000
46.34924 1020.41015 1087.00000
46.35949 1019.73333 1082.00000
46.36973 1019.07649 1093.00000
46.37997 1018.43409 1087.00000
46.39021 1017.80241 1032.00000
46.40045 1017.18059 1107.00000
46.41069 1016.55767 1097.00000
46.42093 1015.89301 1005.00000
46.43118 1015.09590 1034.00000
46.44142 1014.21300 1076.00000
46.45166 1013.59825 1070.00000
46.46190 1013.06282 1074.00000
46.47214 1012.54869 1024.00000
46.48238 1012.04744 1082.00000
46.49262 1011.55747 995.00000
46.50287 1011.07838 1031.00000
46.51311 1010.60984 1027.00000
46.52335 1010.15154 1040.00000
46.53359 1009.70318 1047.00000
46.54383 1009.26447 1050.00000
46.55407 1008.83512 1069.00000
46.56431 1008.41471 1042.00000
46.57456 1008.00196 1025.00000
46.58480 1007.59259 1053.00000
46.59504 1007.17304 1028.00000
46.60528 1006.69361 1063.00000
46.61552 1006.00987 1112.00000
46.62576 1005.05404 1068.00000
46.63601 1004.24845 1043.00000
46.64625 1003.61544 1065.00000
46.65649 1002.95633 1081.00000
46.66673 1002.56794 975.00000
46.67697 1002.25596 1038.00000
46.68721 1001.95539 1000.00000
46.69745 1001.66272 1058.00000
46.70770 1001.37867 985.00000
46.71794 1001.09889 1028.00000
46.72818 1000.82108 1091.00000
46.73842 1000.54781 1048.00000
46.74866 1000.27967 1072.00000
46.75890 1000.01658 1084.00000
46.76914 999.75841 978.00000
46.77939 999.50491 947.00000
46.78963 999.25505 1036.00000
46.79987 999.00502 1062.00000
46.81011 998.74253 1012.00000
46.82035 998.42290 1024.00000
46.83059 997.91442 1001.00000
46.84083 997.14081 1002.00000
46.85108 996.50748 1095.00000
46.86132 996.22531 1024.00000
46.87156 996.02435 1046.00000
46.88180 995.83134 1102.00000
46.89204 995.64178 1057.00000
46.90228 995.45559 1040.00000
46.91252 995.27271 1033.00000
46.92277 995.09309 970.00000
46.93301 994.91666 1006.00000
46.94325 994.74337 1028.00000
46.95349 994.57316 1016.00000
46.96373 994.40602 1010.00000
46.97397 994.24208 1009.00000
46.98422 994.08190 1055.00000
46.99446 993.92763 1035.00000
47.00470 993.78350 1027.00000
47.01494 993.64998 1116.00000
47.02518 993.51778 1022.00000
47.03542 993.37802 1028.00000
47.04566 993.23532 1016.00000
47.05591 993.09434 1050.00000
47.06615 992.95596 1073.00000
47.07639 992.82019 1003.00000
47.08663 992.68703 986.00000
47.09687 992.55643 1016.00000
47.10711 992.42839 1076.00000
47.11735 992.30289 1027.00000
47.12760 992.17991 1015.00000
47.13784 992.05943 1013.00000
47.14808 991.94146 985.00000
47.15832 991.82597 1006.00000
47.16856 991.71298 1041.00000
47.17880 991.60247 1063.00000
47.18904 991.49444 1029.00000
47.19929 991.38892 1029.00000
47.20953 991.28590 1061.00000
47.21977 991.18539 942.00000
47.23001 991.08742 1043.00000
47.24025 990.99201 1007.00000
47.25049 990.89917 1031.00000
47.26073 990.80897 1081.00000
47.27098 990.72146 1035.00000
47.28122 990.63687 982.00000
47.29146 990.55587 976.00000
47.30170 990.48057 989.00000
47.31194 990.41342 1014.00000
47.32218 990.34977 998.00000
47.33243 990.28167 1048.00000
47.34267 990.21489 1000.00000
47.35291 990.15122 979.00000
47.36315 990.09089 1071.00000
47.37339 990.03403 1066.00000
47.38363 989.98078 1003.00000
47.39387 989.93130 1054.00000
47.40412 989.88578 1067.00000
47.41436 989.84442 991.00000
47.42460 989.80745 1042.00000
47.43484 989.77512 1046.00000
47.44508 989.74773 983.00000
47.45532 989.72561 1022.00000
47.46556 989.70912 1029.00000
47.47581 989.69868 1017.00000
47.48605 989.69477 988.00000
47.49629 989.69793 1009.00000
47.50653 989.70876 1025.00000
47.51677 989.72798 1052.00000
47.52701 989.75637 1060.00000
47.53725 989.79486 1047.00000
47.54750 989.84448 1008.00000
47.55774 989.90641 1063.00000
47.56798 989.98181 1049.00000
47.57822 990.07124 1040.00000
47.58846 990.17292 1017.00000
47.59870 990.27716 1031.00000
47.60894 990.34480 1005.00000
47.61919 990.28744 1000.00000
47.62943 990.15809 1044.00000
47.63967 990.31452 1060.00000
47.64991 990.56570 1102.00000
47.66015 990.84987 1013.00000
47.67039 991.16363 997.00000
47.68064 991.50757 1022.00000
47.69088 991.88306 1000.00000
47.70112 992.29368 1012.00000
47.71136 992.74671 1014.00000
47.72160 993.25467 1006.00000
47.73184 993.83631 1036.00000
47.74208 994.51726 1017.00000
47.75233 995.33058 1004.00000
47.76257 996.31784 1054.00000
47.77281 997.53049 1055.00000
47.78305 999.03111 1010.00000
47.79329 1000.88835 1028.00000
47.80353 1003.14462 1090.00000
47.81377 1005.81387 1048.00000
47.82402 1009.27831 1033.00000
47.83426 1014.52766 1053.00000
47.84450 1021.61811 971.00000
47.85474 1030.86839 1092.00000
47.86498 1042.48273 1084.00000
47.87522 1055.92765 1096.00000
47.88546 1069.22695 1096.00000
47.89571 1078.83874 1091.00000
47.90595 1081.21716 1096.00000
47.91619 1075.60057 1058.00000
47.92643 1064.83899 1065.00000
47.93667 1052.99203 1065.00000
47.94691 1042.86896 1040.00000
47.95715 1035.59936 1057.00000
47.96740 1031.31792 1034.00000
47.97764 1029.80608 1046.00000
47.98788 1030.75097 1079.00000
47.99812 1033.67273 1046.00000
48.00836 1037.65015 1012.00000
48.01860 1041.11644 1088.00000
48.02885 1042.20919 1047.00000
48.03909 1039.83828 1113.00000
48.04933 1034.52959 1081.00000
48.05957 1027.93666 1069.00000
48.06981 1021.61674 1053.00000
48.08005 1016.38493 1086.00000
48.09029 1012.42505 987.00000
48.10054 1009.62285 1110.00000
48.11078 1007.79516 1141.00000
48.12102 1006.78789 1071.00000
48.13126 1006.50407 1073.00000
48.14150 1006.90758 1086.00000
48.15174 1008.02331 1063.00000
48.16198 1009.94619 1114.00000
48.17223 1012.84126 1065.00000
48.18247 1016.96118 1125.00000
48.19271 1022.64407 1085.00000
48.20295 1030.25739 1119.00000
48.21319 1040.00896 1150.00000
48.22343 1051.52433 1163.00000
48.23367 1063.24112 1150.00000
48.24392 1072.19452 1170.00000
48.25416 1075.21592 1210.00000
48.26440 1071.32502 1198.00000
48.27464 1062.68132 1187.00000
48.28488 1052.73787 1180.00000
48.29512 1044.07201 1130.00000
48.30536 1037.83438 1163.00000
48.31561 1034.24280 1156.00000
48.32585 1033.14692 1101.00000
48.33609 1034.29414 1094.00000
48.34633 1037.31017 1146.00000
48.35657 1041.48842 1094.00000
48.36681 1045.58994 1126.00000
48.37706 1048.04564 1115.00000
48.38730 1047.78111 1094.00000
48.39754 1045.01832 1101.00000
48.40778 1041.07747 1127.00000
48.41802 1037.42428 1151.00000
48.42826 1035.01007 1089.00000
48.43850 1034.24611 1082.00000
48.44875 1035.26577 1138.00000
48.45899 1038.16022 1086.00000
48.46923 1043.11532 1060.00000
48.47947 1050.48835 1056.00000
48.48971 1060.86582 1080.00000
48.49995 1075.11396 1136.00000
48.51019 1094.38840 1091.00000
48.52044 1119.99006 1109.00000
48.53068 1152.82656 1175.00000
48.54092 1192.15231 1145.00000
48.55116 1233.62189 1142.00000
48.56140 1268.13637 1198.00000
48.57164 1284.57359 1261.00000
48.58188 1276.93838 1281.00000
48.59213 1249.37545 1175.00000
48.60237 1212.84323 1251.00000
48.61261 1177.69132 1202.00000
48.62285 1149.71984 1162.00000
48.63309 1130.75626 1065.00000
48.64333 1120.65192 1156.00000
48.65358 1118.63260 1170.00000
48.66382 1123.63189 1110.00000
48.67406 1133.62380 1146.00000
48.68430 1144.47862 1152.00000
48.69454 1151.14802 1207.00000
48.70478 1148.92299 1134.00000
48.71502 1136.45296 1135.00000
48.72527 1116.71405 1114.00000
48.73551 1094.65294 1123.00000
48.74575 1074.17052 1081.00000
48.75599 1057.02274 1068.00000
48.76623 1043.38849 1015.00000
48.77647 1032.75817 1068.00000
48.78671 1024.47335 1088.00000
48.79696 1017.94863 1072.00000
48.80720 1012.69730 1032.00000
48.81744 1008.29958 1008.00000
48.82768 1004.56873 1031.00000
48.83792 1001.68366 1070.00000
48.84816 999.32296 1065.00000
48.85840 997.32803 1046.00000
48.86865 995.62264 1013.00000
48.87889 994.15167 1027.00000
48.88913 992.87257 1053.00000
48.89937 991.75210 1010.00000
48.90961 990.76400 984.00000
48.91985 989.88762 1051.00000
48.93009 989.10767 987.00000
48.94034 988.41791 1036.00000
48.95058 987.83505 1049.00000
48.96082 987.38855 1046.00000
48.97106 987.00484 1064.00000
48.98130 986.55404 982.00000
48.99154 986.10119 1021.00000
49.00179 985.60520 1015.00000
49.01203 984.90370 997.00000
49.02227 983.96150 1038.00000
49.03251 983.32329 1019.00000
49.04275 982.98394 1049.00000
49.05299 982.71870 1044.00000
49.06323 982.47448 1094.00000
49.07348 982.24664 1022.00000
49.08372 982.03360 1060.00000
49.09396 981.83388 992.00000
49.10420 981.64572 1002.00000
49.11444 981.46745 1012.00000
49.12468 981.29951 1010.00000
49.13492 981.14320 1112.00000
49.14517 980.99615 1063.00000
49.15541 980.85720 994.00000
49.16565 980.72571 1007.00000
49.17589 980.60113 994.00000
49.18613 980.48295 1006.00000
49.19637 980.37072 972.00000
49.20661 980.26403 1008.00000
49.21686 980.16249 992.00000
49.22710 980.06578 1002.00000
49.23734 979.97356 967.00000
49.24758 979.88556 1000.00000
49.25782 979.80150 989.00000
49.26806 979.72116 1033.00000
49.27830 979.64434 996.00000
49.28855 979.57092 933.00000
49.29879 979.50116 998.00000
49.30903 979.43615 935.00000
49.31927 979.37571 1024.00000
49.32951 979.31462 1018.00000
49.33975 979.25510 1035.00000
49.35000 979.19786 998.00000
49.36024 979.14285 987.00000
49.37048 979.08995 1043.00000
49.38072 979.03906 984.00000
49.39096 978.99007 1004.00000
49.40120 978.94284 1011.00000
49.41144 978.89711 964.00000
49.42169 978.85212 1005.00000
49.43193 978.80573 992.00000
49.44217 978.75710 980.00000
49.45241 978.71350 1039.00000
49.46265 978.67562 1007.00000
49.47289 978.63740 1078.00000
49.48313 978.59900 996.00000
49.49338 978.56491 961.00000
49.50362 978.53278 975.00000
49.51386 978.50185 1022.00000
49.52410 978.47203 967.00000
49.53434 978.44329 985.00000
49.54458 978.41560 983.00000
49.55482 978.38891 1035.00000
49.56507 978.36322 954.00000
49.57531 978.33847 1005.00000
49.58555 978.31467 985.00000
49.59579 978.29177 976.00000
49.60603 978.26976 1056.00000
49.61627 978.24861 961.00000
49.62651 978.22832 986.00000
49.63676 978.20887 996.00000
49.64700 978.19023 974.00000
49.65724 978.17240 1001.00000
49.66748 978.15536 994.00000
49.67772 978.13906 976.00000
49.68796 978.12338 986.00000
49.69821 978.10785 991.00000
49.70845 978.09139 1026.00000
49.71869 978.07442 1020.00000
49.72893 978.06128 975.00000
49.73917 978.04966 963.00000
49.74941 978.03883 989.00000
49.75965 978.02875 998.00000
49.76990 978.01943 933.00000
49.78014 978.01086 1021.00000
49.79038 978.00305 998.00000
49.80062 977.99598 954.00000
49.81086 977.98958 1039.00000
49.82110 977.98357 987.00000
49.83134 977.97705 1030.00000
49.84159 977.96993 1012.00000
49.85183 977.96569 989.00000
49.86207 977.96339 999.00000
49.87231 977.96212 997.00000
49.88255 977.96173 1004.00000
49.89279 977.96224 989.00000
49.90303 977.96368 1100.00000
49.91328 977.96608 1007.00000
49.92352 977.96946 940.00000
49.93376 977.97386 1063.00000
49.94400 977.97932 1042.00000
49.95424 977.98588 948.00000
49.96448 977.99359 1019.00000
49.97472 978.00249 1027.00000
49.98497 978.01264 921.00000
49.99521 978.02410 1004.00000
50.00545 978.03693 995.00000
50.01569 978.05120 981.00000
50.02593 978.06699 984.00000
50.03617 978.08437 1004.00000
50.04642 978.10337 967.00000
50.05666 978.12382 1042.00000
50.06690 978.14507 966.00000
50.07714 978.16694 1056.00000
50.08738 978.19234 1028.00000
50.09762 978.22154 978.00000
50.10786 978.25352 924.00000
50.11811 978.28820 999.00000
50.12835 978.32573 1010.00000
50.13859 978.36612 980.00000
50.14883 978.40887 927.00000
50.15907 978.45181 1012.00000
50.16931 978.49367 1013.00000
50.17955 978.54222 988.00000
50.18980 978.60209 1011.00000
50.20004 978.66869 1023.00000
50.21028 978.74118 963.00000
50.22052 978.82008 1061.00000
50.23076 978.90606 974.00000
50.24100 978.99991 960.00000
50.25124 979.10248 981.00000
50.26149 979.21479 978.00000
50.27173 979.33793 1023.00000
50.28197 979.47317 1031.00000
50.29221 979.62188 1016.00000
50.30245 979.78558 921.00000
50.31269 979.96591 996.00000
50.32293 980.16454 966.00000
50.33318 980.38315 1045.00000
50.34342 980.62331 941.00000
50.35366 980.88635 962.00000
50.36390 981.17337 973.00000
50.37414 981.48624 1044.00000
50.38438 981.83149 970.00000
50.39463 982.23902 965.00000
50.40487 982.81297 1041.00000
50.41511 983.58422 1041.00000
50.42535 984.12669 947.00000
50.43559 984.63913 966.00000
50.44583 985.20833 979.00000
50.45607 985.86186 972.00000
50.46632 986.62702 1008.00000
50.47656 987.53761 953.00000
50.48680 988.63600 1022.00000
50.49704 989.97630 977.00000
50.50728 991.62938 1011.00000
50.51752 993.69013 991.00000
50.52776 996.28773 1017.00000
50.53801 999.59935 1018.00000
50.54825 1003.86650 991.00000
50.55849 1009.40848 1076.00000
50.56873 1016.61502 1003.00000
50.57897 1025.87306 1044.00000
50.58921 1037.34335 1041.00000
50.59945 1050.49801 1061.00000
50.60970 1063.51610 1032.00000
50.61994 1073.16471 1043.00000
50.63018 1076.13251 1071.00000
50.64042 1071.44942 1136.00000
50.65066 1061.38887 1058.00000
50.66090 1049.60399 1076.00000
50.67114 1038.90205 1057.00000
50.68139 1030.61019 1047.00000
50.69163 1025.04247 998.00000
50.70187 1022.10006 1027.00000
50.71211 1021.59758 1030.00000
50.72235 1023.21488 1047.00000
50.73259 1026.32137 1036.00000
50.74284 1030.07005 1030.00000
50.75308 1032.97756 1053.00000
50.76332 1033.39540 1056.00000
50.77356 1030.49241 1028.00000
50.78380 1024.86786 1008.00000
50.79404 1018.02221 1045.00000
50.80428 1011.33552 1006.00000
50.81453 1005.55052 1067.00000
50.82477 1000.85420 1020.00000
50.83501 997.14758 982.00000
50.84525 994.24400 1065.00000
50.85549 991.96135 946.00000
50.86573 990.15077 1015.00000
50.87597 988.69864 1024.00000
50.88622 987.52048 943.00000
50.89646 986.55386 1040.00000
50.90670 985.75254 1053.00000
50.91694 985.08193 1032.00000
50.92718 984.51596 1029.00000
50.93742 984.03467 952.00000
50.94766 983.62268 940.00000
50.95791 983.26796 991.00000
50.96815 982.96102 1017.00000
50.97839 982.69428 978.00000
50.98863 982.46165 1055.00000
50.99887 982.25817 950.00000
51.00911 982.07978 984.00000
51.01935 981.92314 1001.00000
51.02960 981.78545 992.00000
51.03984 981.66440 1048.00000
51.05008 981.55803 1021.00000
51.06032 981.46474 938.00000
51.07056 981.38336 961.00000
51.08080 981.31287 1012.00000
51.09105 981.25165 1000.00000
51.10129 981.19755 1012.00000
51.11153 981.14948 969.00000
51.12177 981.10692 987.00000
51.13201 981.07323 939.00000
51.14225 981.04626 1003.00000
51.15249 981.02478 960.00000
51.16274 981.00829 1017.00000
51.17298 980.99641 1012.00000
51.18322 980.98885 1004.00000
51.19346 980.98540 987.00000
51.20370 980.98609 1004.00000
51.21394 980.99171 965.00000
51.22418 981.00247 984.00000
51.23443 981.01439 1006.00000
51.24467 981.02800 1007.00000
51.25491 981.04424 1019.00000
51.26515 981.06323 931.00000
51.27539 981.08485 1049.00000
51.28563 981.10900 1022.00000
51.29587 981.13560 921.00000
51.30612 981.16456 992.00000
51.31636 981.19581 965.00000
51.32660 981.22928 970.00000
51.33684 981.26492 1051.00000
51.34708 981.30268 1018.00000
51.35732 981.34252 1019.00000
51.36756 981.38438 968.00000
51.37781 981.42825 1052.00000
51.38805 981.47410 1041.00000
51.39829 981.52189 1015.00000
51.40853 981.57158 1002.00000
51.41877 981.62310 1026.00000
51.42901 981.67615 1035.00000
51.43926 981.72967 1013.00000
51.44950 981.78050 1015.00000
51.45974 981.82806 1058.00000
51.46998 981.88397 1038.00000
51.48022 981.94624 992.00000
51.49046 982.01118 998.00000
51.50070 982.07801 1008.00000
51.51095 982.14663 1002.00000
51.52119 982.21664 1011.00000
51.53143 982.28684 1070.00000
51.54167 982.35720 956.00000
51.55191 982.43308 1035.00000
51.56215 982.51364 1011.00000
51.57239 982.60630 947.00000
51.58264 982.74904 998.00000
51.59288 983.07932 1100.00000
51.60312 983.72828 1074.00000
51.61336 984.27545 1031.00000
51.62360 984.47235 1056.00000
51.63384 984.58834 1004.00000
51.64408 984.70066 1111.00000
51.65433 984.81538 1073.00000
51.66457 984.93266 1079.00000
51.67481 985.05255 1064.00000
51.68505 985.17509 1098.00000
51.69529 985.30032 1067.00000
51.70553 985.42832 1121.00000
51.71577 985.55912 1176.00000
51.72602 985.69279 1150.00000
51.73626 985.82939 1143.00000
51.74650 985.96898 1178.00000
51.75674 986.11161 1144.00000
51.76698 986.25737 1117.00000
51.77722 986.40632 1150.00000
51.78747 986.55852 1088.00000
51.79771 986.71406 1060.00000
51.80795 986.87301 1033.00000
51.81819 987.03545 1083.00000
51.82843 987.20146 1090.00000
51.83867 987.37114 1017.00000
51.84891 987.54456 1083.00000
51.85916 987.72188 1132.00000
51.86940 987.90366 1121.00000
51.87964 988.09248 1106.00000
51.88988 988.30011 1096.00000
51.90012 988.57130 1114.00000
51.91036 988.97887 1127.00000
51.92060 989.48545 1074.00000
51.93085 990.02912 1113.00000
51.94109 990.63669 1041.00000
51.95133 990.95681 1064.00000
51.96157 991.20554 1005.00000
51.97181 991.45409 1076.00000
51.98205 991.70829 1063.00000
51.99229 991.96840 1046.00000
52.00254 992.23456 1045.00000
52.01278 992.50682 1049.00000
52.02302 992.78488 1090.00000
52.03326 993.06786 1060.00000
52.04350 993.35645 1037.00000
52.05374 993.65515 1048.00000
52.06398 993.96187 1081.00000
52.07423 994.27613 1011.00000
52.08447 994.59810 1081.00000
52.09471 994.92804 1013.00000
52.10495 995.26618 1046.00000
52.11519 995.61280 1051.00000
52.12543 995.96816 1067.00000
52.13568 996.33255 1008.00000
52.14592 996.70626 1036.00000
52.15616 997.08960 1058.00000
52.16640 997.48290 1020.00000
52.17664 997.88649 1051.00000
52.18688 998.30073 1022.00000
52.19712 998.72600 998.00000
52.20737 999.16297 1011.00000
52.21761 999.61352 1048.00000
52.22785 1000.08485 990.00000
52.23809 1000.60306 1039.00000
52.24833 1001.20988 990.00000
52.25857 1001.85574 1006.00000
52.26881 1002.40386 1034.00000
52.27906 1002.94040 944.00000
52.28930 1003.49021 1049.00000
52.29954 1004.05405 994.00000
52.30978 1004.63256 1013.00000
52.32002 1005.23162 1045.00000
52.33026 1005.84936 1050.00000
52.34050 1006.48569 1024.00000
52.35075 1007.14130 1064.00000
52.36099 1007.81696 1010.00000
52.37123 1008.51349 1102.00000
52.38147 1009.23174 1012.00000
52.39171 1009.97254 1013.00000
52.40195 1010.73656 1052.00000
52.41220 1011.52418 1042.00000
52.42244 1012.33784 1059.00000
52.43268 1013.18429 1070.00000
52.44292 1014.05932 1138.00000
52.45316 1014.96047 1053.00000
52.46340 1015.89065 1043.00000
52.47364 1016.85262 1072.00000
52.48389 1017.84813 1013.00000
52.49413 1018.87878 1038.00000
52.50437 1019.94626 988.00000
52.51461 1021.05234 1080.00000
52.52485 1022.19884 1039.00000
52.53509 1023.38739 1046.00000
52.54533 1024.61891 1096.00000
52.55558 1025.89563 1116.00000
52.56582 1027.22527 1007.00000
52.57606 1028.60789 1073.00000
52.58630 1030.04548 1041.00000
52.59654 1031.54100 1052.00000
52.60678 1033.09769 1006.00000
52.61702 1034.71903 1073.00000
52.62727 1036.40866 1056.00000
52.63751 1038.17048 1049.00000
52.64775 1040.00885 1038.00000
52.65799 1041.92839 1030.00000
52.66823 1043.93407 1106.00000
52.67847 1046.03130 1085.00000
52.68871 1048.22591 1115.00000
52.69896 1050.52415 1095.00000
52.70920 1052.93286 1082.00000
52.71944 1055.45945 1073.00000
52.72968 1058.11189 1091.00000
52.73992 1060.89868 1113.00000
52.75016 1063.82828 1020.00000
52.76041 1066.90811 1153.00000
52.77065 1070.15086 1131.00000
52.78089 1073.58375 1177.00000
52.79113 1077.20958 1055.00000
52.80137 1081.04325 1085.00000
52.81161 1085.10207 1067.00000
52.82185 1089.40480 1136.00000
52.83210 1093.97217 1145.00000
52.84234 1098.82722 1143.00000
52.85258 1103.99562 1103.00000
52.86282 1109.50598 1141.00000
52.87306 1115.39028 1147.00000
52.88330 1121.68432 1162.00000
52.89354 1128.42829 1211.00000
52.90379 1135.66732 1221.00000
52.91403 1143.45227 1237.00000
52.92427 1151.84042 1158.00000
52.93451 1160.89532 1163.00000
52.94475 1170.68770 1309.00000
52.95499 1181.29837 1202.00000
52.96523 1192.81659 1237.00000
52.97548 1205.34052 1245.00000
52.98572 1218.97701 1264.00000
52.99596 1233.84023 1273.00000
53.00620 1250.04916 1260.00000
53.01644 1267.72329 1270.00000
53.02668 1286.97656 1280.00000
53.03692 1307.90955 1345.00000
53.04717 1330.60154 1349.00000
53.05741 1355.10499 1395.00000
53.06765 1381.44768 1422.00000
53.07789 1409.64866 1365.00000
53.08813 1439.75418 1466.00000
53.09837 1471.89524 1492.00000
53.10862 1506.36097 1575.00000
53.11886 1543.67403 1554.00000
53.12910 1584.65167 1509.00000
53.13934 1630.44353 1588.00000
53.14958 1682.55199 1647.00000
53.15982 1742.85513 1731.00000
53.17006 1813.65925 1724.00000
53.18031 1897.80672 1868.00000
53.19055 1998.86063 1989.00000
53.20079 2121.38785 2008.00000
53.21103 2271.36765 2152.00000
53.22127 2456.76201 2359.00000
53.23151 2688.28650 2563.00000
53.24175 2980.38959 2903.00000
53.25200 3352.31613 3213.00000
53.26224 3828.73337 3689.00000
53.27248 4438.42133 4353.00000
53.28272 5207.60764 4979.00000
53.29296 6142.09854 5838.00000
53.30320 7193.30790 6876.00000
53.31344 8218.01198 7661.00000
53.32369 8976.72203 8209.00000
53.33393 9230.79801 8107.00000
53.34417 8906.21863 7840.00000
53.35441 8155.99256 6933.00000
53.36465 7241.18108 6486.00000
53.37489 6377.11416 5872.00000
53.38513 5677.45691 5298.00000
53.39538 5177.44546 5025.00000
53.40562 4874.03652 4754.00000
53.41586 4752.74036 4711.00000
53.42610 4797.39721 4824.00000
53.43634 4986.26047 4942.00000
53.44658 5277.68565 5099.00000
53.45683 5593.02809 5299.00000
53.46707 5816.64572 5679.00000
53.47731 5836.21899 5485.00000
53.48755 5609.53236 5266.00000
53.49779 5193.12669 4796.00000
53.50803 4698.25322 4502.00000
53.51827 4224.36262 4174.00000
53.52852 3827.66653 3810.00000
53.53876 3526.88420 3828.00000
53.54900 3321.08585 3548.00000
53.55924 3203.62809 3545.00000
53.56948 3169.44810 3630.00000
53.57972 3217.91535 3726.00000
53.58996 3353.13437 3812.00000
53.60021 3581.88019 4018.00000
53.61045 3907.58854 4262.00000
53.62069 4318.00916 4782.00000
53.63093 4767.23122 5184.00000
53.64117 5163.77679 5736.00000
53.65141 5389.15334 6115.00000
53.66165 5357.65095 6344.00000
53.67190 5076.00635 5961.00000
53.68214 4639.03527 5523.00000
53.69238 4165.22054 4968.00000
53.70262 3740.26353 4313.00000
53.71286 3404.66614 3866.00000
53.72310 3168.18496 3488.00000
53.73334 3026.89867 3295.00000
53.74359 2973.15043 3192.00000
53.75383 2997.88883 3158.00000
53.76407 3087.03283 3212.00000
53.77431 3214.09049 3520.00000
53.78455 3334.54757 3502.00000
53.79479 3392.01176 3801.00000
53.80504 3341.66441 3858.00000
53.81528 3176.95557 3723.00000
53.82552 2932.89875 3399.00000
53.83576 2661.40570 2914.00000
53.84600 2403.88674 2759.00000
53.85624 2181.13682 2376.00000
53.86648 1997.71855 2112.00000
53.87673 1849.93777 1981.00000
53.88697 1731.49368 1766.00000
53.89721 1636.19117 1698.00000
53.90745 1558.85434 1595.00000
53.91769 1495.43759 1517.00000
53.92793 1442.86467 1453.00000
53.93817 1398.81720 1416.00000
53.94842 1361.54748 1432.00000
53.95866 1329.73189 1451.00000
53.96890 1302.36134 1357.00000
53.97914 1278.65999 1337.00000
53.98938 1258.02266 1366.00000
53.99962 1239.96333 1294.00000
54.00986 1224.07142 1260.00000
54.02011 1209.98326 1310.00000
54.03035 1197.38423 1241.00000
54.04059 1186.04274 1260.00000
54.05083 1175.83952 1262.00000
54.06107 1166.75179 1229.00000
54.07131 1158.80518 1249.00000
54.08155 1152.03953 1204.00000
54.09180 1146.50757 1136.00000
54.10204 1142.29640 1201.00000
54.11228 1139.55431 1220.00000
54.12252 1138.47271 1231.00000
54.13276 1139.29989 1177.00000
54.14300 1142.25912 1179.00000
54.15325 1147.35971 1239.00000
54.16349 1154.04878 1246.00000
54.17373 1160.80985 1254.00000
54.18397 1165.14506 1259.00000
54.19421 1164.51467 1221.00000
54.20445 1157.94480 1374.00000
54.21469 1146.74963 1286.00000
54.22494 1133.52331 1189.00000
54.23518 1120.61584 1169.00000
54.24542 1109.41207 1146.00000
54.25566 1100.43416 1190.00000
54.26590 1093.72057 1185.00000
54.27614 1089.12563 1155.00000
54.28638 1086.43955 1139.00000
54.29663 1085.33417 1133.00000
54.30687 1085.40208 1123.00000
54.31711 1086.36694 1112.00000
54.32735 1086.91656 1201.00000
54.33759 1085.77202 1102.00000
54.34783 1082.19589 1130.00000
54.35807 1076.36650 1146.00000
54.36832 1069.20686 1115.00000
54.37856 1061.79624 1097.00000
54.38880 1054.89815 1054.00000
54.39904 1048.85280 1051.00000
54.40928 1043.70138 1121.00000
54.41952 1039.34350 1039.00000
54.42976 1035.63968 1094.00000
54.44001 1032.45839 1079.00000
54.45025 1029.69089 1030.00000
54.46049 1027.25208 1032.00000
54.47073 1025.07678 1016.00000
54.48097 1023.11534 1062.00000
54.49121 1021.32980 1055.00000
54.50146 1019.69090 1042.00000
54.51170 1018.17587 1024.00000
54.52194 1016.76679 1076.00000
54.53218 1015.44956 1101.00000
54.54242 1014.21294 1001.00000
54.55266 1013.04712 1065.00000
54.56290 1011.94330 1061.00000
54.57315 1010.89564 1010.00000
54.58339 1009.89878 1081.00000
54.59363 1008.94751 1079.00000
54.60387 1008.03510 1063.00000
54.61411 1007.14555 1066.00000
54.62435 1006.23286 1050.00000
54.63459 1005.27699 1042.00000
54.64484 1004.44374 1027.00000
54.65508 1003.69824 1035.00000
54.66532 1002.98928 1046.00000
54.67556 1002.30597 1112.00000
54.68580 1001.64630 1046.00000
54.69604 1001.00893 1011.00000
54.70628 1000.39266 1034.00000
54.71653 999.79638 1007.00000
54.72677 999.21897 1089.00000
54.73701 998.65950 1035.00000
54.74725 998.11709 1047.00000
54.75749 997.59093 1030.00000
54.76773 997.08026 1071.00000
54.77797 996.58437 1004.00000
54.78822 996.10263 988.00000
54.79846 995.63441 993.00000
54.80870 995.17914 1038.00000
54.81894 994.73629 1012.00000
54.82918 994.30535 969.00000
54.83942 993.88585 1025.00000
54.84967 993.47733 1013.00000
54.85991 993.07939 1039.00000
54.87015 992.69161 1022.00000
54.88039 992.31361 1015.00000
54.89063 991.94505 927.00000
54.90087 991.58559 994.00000
54.91111 991.23489 989.00000
54.92136 990.89265 1015.00000
54.93160 990.55859 1000.00000
54.94184 990.23243 983.00000
54.95208 989.91389 965.00000
54.96232 989.60274 1027.00000
54.97256 989.29873 1006.00000
54.98280 989.00162 1009.00000
54.99305 988.71117 971.00000
55.00329 988.42706 994.00000
55.01353 988.14865 942.00000
55.02377 987.87455 985.00000
55.03401 987.60476 922.00000
55.04425 987.34428 984.00000
55.05449 987.08947 1008.00000
55.06474 986.84032 972.00000
55.07498 986.59482 994.00000
55.08522 986.34607 986.00000
55.09546 986.06289 1003.00000
55.10570 985.64029 1023.00000
55.11594 985.05894 1004.00000
55.12618 984.77002 1028.00000
55.13643 984.55823 981.00000
55.14667 984.35514 1016.00000
55.15691 984.15599 1036.00000
55.16715 983.96014 988.00000
55.17739 983.76662 1016.00000
55.18763 983.57614 960.00000
55.19788 983.39202 1009.00000
55.20812 983.21214 1032.00000
55.21836 983.03582 1020.00000
55.22860 982.86295 1023.00000
55.23884 982.69345 956.00000
55.24908 982.52724 985.00000
55.25932 982.36426 978.00000
55.26957 982.20443 969.00000
55.27981 982.04770 989.00000
55.29005 981.89400 1053.00000
55.30029 981.74329 1017.00000
55.31053 981.59549 917.00000
55.32077 981.45056 937.00000
55.33101 981.30826 1021.00000
55.34126 981.16709 1008.00000
55.35150 981.02030 956.00000
55.36174 980.83676 1014.00000
55.37198 980.51144 996.00000
55.38222 980.02515 948.00000
55.39246 979.82976 987.00000
55.40270 979.70893 1002.00000
55.41295 979.59323 997.00000
55.42319 979.47167 951.00000
55.43343 979.31925 1017.00000
55.44367 979.09605 1015.00000
55.45391 978.85333 1022.00000
55.46415 978.72751 988.00000
55.47439 978.63109 1025.00000
55.48464 978.53968 1034.00000
55.49488 978.45339 1002.00000
55.50512 978.37171 932.00000
55.51536 978.28767 951.00000
55.52560 978.20495 973.00000
55.53584 978.12477 989.00000
55.54609 978.04728 988.00000
55.55633 977.97257 999.00000
55.56657 977.90074 981.00000
55.57681 977.83192 984.00000
55.58705 977.76623 1001.00000
55.59729 977.70383 951.00000
55.60753 977.64491 973.00000
55.61778 977.58967 1017.00000
55.62802 977.53833 950.00000
55.63826 977.49115 992.00000
55.64850 977.44842 956.00000
55.65874 977.41042 994.00000
55.66898 977.37733 936.00000
55.67922 977.34854 960.00000
55.68947 977.32013 1005.00000
55.69971 977.27362 987.00000
55.70995 977.16110 979.00000
55.72019 976.99542 953.00000
55.73043 976.96878 960.00000
55.74067 976.98115 993.00000
55.75091 977.00211 969.00000
55.76116 977.02987 939.00000
55.77140 977.06468 985.00000
55.78164 977.10722 994.00000
55.79188 977.15873 942.00000
55.80212 977.22126 975.00000
55.81236 977.29775 968.00000
55.82261 977.39214 957.00000
55.83285 977.50938 935.00000
55.84309 977.65560 947.00000
55.85333 977.83836 1000.00000
55.86357 978.06668 998.00000
55.87381 978.35180 936.00000
55.88405 978.70806 946.00000
55.89430 979.15396 964.00000
55.90454 979.71377 963.00000
55.91478 980.41963 993.00000
55.92502 981.31424 987.00000
55.93526 982.45378 932.00000
55.94550 983.91016 941.00000
55.95574 985.76941 937.00000
55.96599 988.11918 994.00000
55.97623 991.01222 974.00000
55.98647 994.39023 985.00000
55.99671 997.97182 1026.00000
56.00695 1001.17505 979.00000
56.01719 1003.22241 988.00000
56.02743 1003.49684 1012.00000
56.03768 1001.95520 970.00000
56.04792 999.16633 989.00000
56.05816 995.93017 965.00000
56.06840 992.88301 975.00000
56.07864 990.36654 1038.00000
56.08888 988.49468 1017.00000
56.09912 987.26430 996.00000
56.10937 986.63301 996.00000
56.11961 986.55191 953.00000
56.12985 986.96061 1029.00000
56.14009 987.75328 1008.00000
56.15033 988.73070 993.00000
56.16057 989.57571 993.00000
56.17082 989.91532 1005.00000
56.18106 989.48393 961.00000
56.19130 988.27772 981.00000
56.20154 986.54777 1018.00000
56.21178 984.63596 955.00000
56.22202 982.81178 951.00000
56.23226 981.21464 998.00000
56.24251 979.88038 1019.00000
56.25275 978.78932 1028.00000
56.26299 977.90165 994.00000
56.27323 977.17607 922.00000
56.28347 976.57935 983.00000
56.29371 976.08553 985.00000
56.30395 975.67116 982.00000
56.31420 975.31913 992.00000
56.32444 975.01672 998.00000
56.33468 974.75419 1005.00000
56.34492 974.52406 906.00000
56.35516 974.32046 974.00000
56.36540 974.13883 1020.00000
56.37564 973.97552 920.00000
56.38589 973.82764 1053.00000
56.39613 973.69284 1040.00000
56.40637 973.56923 1039.00000
56.41661 973.45523 981.00000
56.42685 973.34956 944.00000
56.43709 973.25115 1019.00000
56.44733 973.15910 970.00000
56.45758 973.07265 953.00000
56.46782 972.99116 1044.00000
56.47806 972.91408 973.00000
56.48830 972.84093 968.00000
56.49854 972.77112 972.00000
56.50878 972.70279 976.00000
56.51903 972.62871 978.00000
56.52927 972.51666 1000.00000
56.53951 972.25969 954.00000
56.54975 971.83963 945.00000
56.55999 971.71368 974.00000
56.57023 971.66159 967.00000
56.58047 971.61536 920.00000
56.59072 971.57065 1000.00000
56.60096 971.52735 1015.00000
56.61120 971.48535 1003.00000
56.62144 971.44457 947.00000
56.63168 971.40492 1002.00000
56.64192 971.36633 983.00000
56.65216 971.32872 943.00000
56.66241 971.29205 888.00000
56.67265 971.25624 997.00000
56.68289 971.22126 985.00000
56.69313 971.18705 923.00000
56.70337 971.15358 990.00000
56.71361 971.12079 1009.00000
56.72385 971.08867 1023.00000
56.73410 971.05717 989.00000
56.74434 971.02629 986.00000
56.75458 970.99614 936.00000
56.76482 970.96699 999.00000
56.77506 970.93891 945.00000
56.78530 970.91098 976.00000
56.79554 970.88282 994.00000
56.80579 970.85498 956.00000
56.81603 970.82756 954.00000
56.82627 970.80056 967.00000
56.83651 970.77392 991.00000
56.84675 970.74728 1004.00000
56.85699 970.71888 1002.00000
56.86724 970.68075 996.00000
56.87748 970.60363 989.00000
56.88772 970.45120 979.00000
56.89796 970.29890 998.00000
56.90820 970.25190 990.00000
56.91844 970.22896 947.00000
56.92868 970.20764 1071.00000
56.93893 970.18659 979.00000
56.94917 970.16580 916.00000
56.95941 970.14526 1000.00000
56.96965 970.12496 967.00000
56.97989 970.10489 991.00000
56.99013 970.08505 981.00000
57.00037 970.06544 947.00000
57.01062 970.04606 965.00000
57.02086 970.02702 948.00000
57.03110 970.00870 929.00000
57.04134 969.99151 1023.00000
57.05158 969.97411 973.00000
57.06182 969.95620 944.00000
57.07206 969.93817 1013.00000
57.08231 969.92027 928.00000
57.09255 969.90254 960.00000
57.10279 969.88500 973.00000
57.11303 969.86763 977.00000
57.12327 969.85046 991.00000
57.13351 969.83359 960.00000
57.14375 969.81723 895.00000
57.15400 969.80123 916.00000
57.16424 969.78485 998.00000
57.17448 969.76850 984.00000
57.18472 969.75229 967.00000
57.19496 969.73624 953.00000
57.20520 969.72033 950.00000
57.21545 969.70458 975.00000
57.22569 969.68897 956.00000
57.23593 969.67351 982.00000
57.24617 969.65819 866.00000
57.25641 969.64301 969.00000
57.26665 969.62796 940.00000
57.27689 969.61304 976.00000
57.28714 969.59819 939.00000
57.29738 969.58345 961.00000
57.30762 969.56893 940.00000
57.31786 969.55457 958.00000
57.32810 969.54034 959.00000
57.33834 969.52624 965.00000
57.34858 969.51227 956.00000
57.35883 969.49843 969.00000
57.36907 969.48472 960.00000
57.37931 969.47114 995.00000
57.38955 969.45771 961.00000
57.39979 969.44452 1020.00000
57.41003 969.43196 973.00000
57.42027 969.42034 919.00000
57.43052 969.40816 919.00000
57.44076 969.39519 928.00000
57.45100 969.38128 1006.00000
57.46124 969.36587 938.00000
57.47148 969.35103 969.00000
57.48172 969.33866 984.00000
57.49196 969.32682 932.00000
57.50221 969.31501 993.00000
57.51245 969.30384 908.00000
57.52269 969.29505 993.00000
57.53293 969.28962 916.00000
57.54317 969.28112 913.00000
57.55341 969.27035 957.00000
57.56366 969.25923 922.00000
57.57390 969.24821 991.00000
57.58414 969.23732 945.00000
57.59438 969.22655 1002.00000
57.60462 969.21592 973.00000
57.61486 969.20542 950.00000
57.62510 969.19505 975.00000
57.63535 969.18482 988.00000
57.64559 969.17471 933.00000
57.65583 969.16475 976.00000
57.66607 969.15492 1003.00000
57.67631 969.14523 934.00000
57.68655 969.13568 971.00000
57.69679 969.12627 907.00000
57.70704 969.11701 956.00000
57.71728 969.10790 966.00000
57.72752 969.09893 970.00000
57.73776 969.09012 930.00000
57.74800 969.08146 938.00000
57.75824 969.07296 930.00000
57.76848 969.06461 932.00000
57.77873 969.05643 997.00000
57.78897 969.04842 962.00000
57.79921 969.04058 1009.00000
57.80945 969.03291 1040.00000
57.81969 969.02542 965.00000
57.82993 969.01811 952.00000
57.84017 969.01102 986.00000
57.85042 969.00419 984.00000
57.86066 968.99768 1011.00000
57.87090 968.99127 1002.00000
57.88114 968.98491 970.00000
57.89138 968.97851 960.00000
57.90162 968.97177 932.00000
57.91187 968.96507 958.00000
57.92211 968.95947 957.00000
57.93235 968.95433 984.00000
57.94259 968.94944 1012.00000
57.95283 968.94459 935.00000
57.96307 968.93824 1003.00000
57.97331 968.92331 956.00000
57.98356 968.86738 941.00000
57.99380 968.66547 1010.00000
58.00404 968.31189 916.00000
58.01428 968.26069 993.00000
58.02452 968.22116 885.00000
58.03476 968.21798 1004.00000
58.04500 968.21942 947.00000
58.05525 968.22186 946.00000
58.06549 968.22771 961.00000
58.07573 968.23884 1011.00000
58.08597 968.24470 942.00000
58.09621 968.24857 926.00000
58.10645 968.25262 960.00000
58.11669 968.25720 959.00000
58.12694 968.26234 945.00000
58.13718 968.26809 985.00000
58.14742 968.27447 906.00000
58.15766 968.28149 931.00000
58.16790 968.28900 972.00000
58.17814 968.29673 975.00000
58.18838 968.30513 966.00000
58.19863 968.31533 921.00000
58.20887 968.32673 975.00000
58.21911 968.33915 959.00000
58.22935 968.35270 969.00000
58.23959 968.36748 988.00000
58.24983 968.38360 906.00000
58.26008 968.40116 1002.00000
58.27032 968.42029 963.00000
58.28056 968.44114 915.00000
58.29080 968.46384 927.00000
58.30104 968.48852 910.00000
58.31128 968.51497 968.00000
58.32152 968.54141 933.00000
58.33177 968.55913 969.00000
58.34201 968.53618 943.00000
58.35225 968.44210 936.00000
58.36249 968.37551 954.00000
58.37273 968.39848 1001.00000
58.38297 968.43584 963.00000
58.39321 968.48805 965.00000
58.40346 968.54532 979.00000
58.41370 968.60654 952.00000
58.42394 968.67178 994.00000
58.43418 968.74120 941.00000
58.44442 968.81505 950.00000
58.45466 968.89382 970.00000
58.46490 968.97835 980.00000
58.47515 969.06983 960.00000
58.48539 969.16995 992.00000
58.49563 969.28087 910.00000
58.50587 969.40527 951.00000
58.51611 969.54637 964.00000
58.52635 969.70804 903.00000
58.53659 969.89489 922.00000
58.54684 970.11256 953.00000
58.55708 970.36806 977.00000
58.56732 970.67020 974.00000
58.57756 971.03030 937.00000
58.58780 971.46300 929.00000
58.59804 971.98742 983.00000
58.60829 972.62842 947.00000
58.61853 973.41806 951.00000
58.62877 974.39629 939.00000
58.63901 975.60942 992.00000
58.64925 977.10256 967.00000
58.65949 978.89971 939.00000
58.66973 980.96437 1020.00000
58.67998 983.14352 974.00000
58.69022 985.12838 1013.00000
58.70046 986.50259 975.00000
58.71070 986.92147 972.00000
58.72094 986.32456 978.00000
58.73118 984.97929 969.00000
58.74142 983.30748 979.00000
58.75167 981.67602 1005.00000
58.76191 980.30608 984.00000
58.77215 979.29084 999.00000
58.78239 978.64906 957.00000
58.79263 978.36934 961.00000
58.80287 978.43473 931.00000
58.81311 978.82919 951.00000
58.82336 979.52978 1012.00000
58.83360 980.48743 947.00000
58.84384 981.60380 983.00000
58.85408 982.72515 891.00000
58.86432 983.68203 863.00000
58.87456 984.37630 973.00000
58.88480 984.85792 981.00000
58.89505 985.32055 960.00000
58.90529 986.02219 933.00000
58.91553 987.20386 995.00000
58.92577 989.04675 933.00000
58.93601 991.64029 960.00000
58.94625 994.95477 1006.00000
58.95650 998.76087 1038.00000
58.96674 1002.50588 1049.00000
58.97698 1005.35078 952.00000
58.98722 1006.45884 986.00000
58.99746 1005.46089 998.00000
59.00770 1002.68981 982.00000
59.01794 998.94166 1007.00000
59.02819 995.03003 1043.00000
59.03843 991.51047 1009.00000
59.04867 988.65159 1000.00000
59.05891 986.52783 948.00000
59.06915 985.12015 969.00000
59.07939 984.38079 1023.00000
59.08963 984.25944 957.00000
59.09988 984.69800 1017.00000
59.11012 985.59871 980.00000
59.12036 986.77475 961.00000
59.13060 987.91391 911.00000
59.14084 988.61331 966.00000
59.15108 988.52167 964.00000
59.16132 987.51777 952.00000
59.17157 985.77104 950.00000
59.18181 983.62685 950.00000
59.19205 981.42765 980.00000
59.20229 979.40277 989.00000
59.21253 977.65569 944.00000
59.22277 976.20283 966.00000
59.23301 975.01712 905.00000
59.24326 974.05717 1039.00000
59.25350 973.28190 955.00000
59.26374 972.65618 976.00000
59.27398 972.15206 1007.00000
59.28422 971.74823 965.00000
59.29446 971.42927 938.00000
59.30471 971.18525 944.00000
59.31495 971.01053 959.00000
59.32519 970.89906 993.00000
59.33543 970.84639 954.00000
59.34567 970.85863 901.00000
59.35591 970.94322 1020.00000
59.36615 971.10985 968.00000
59.37640 971.37011 953.00000
59.38664 971.73378 1000.00000
59.39688 972.20059 1002.00000
59.40712 972.74597 1029.00000
59.41736 973.30461 956.00000
59.42760 973.76694 995.00000
59.43784 974.00746 968.00000
59.44809 973.94260 994.00000
59.45833 973.58338 986.00000
59.46857 973.02724 1010.00000
59.47881 972.40046 930.00000
59.48905 971.80419 969.00000
59.49929 971.29583 981.00000
59.50953 970.89725 913.00000
59.51978 970.61076 944.00000
59.53002 970.43362 1022.00000
59.54026 970.37260 878.00000
59.55050 970.43546 979.00000
59.56074 970.56260 948.00000
59.57098 970.71290 982.00000
59.58123 970.87573 977.00000
59.59147 971.00329 971.00000
59.60171 971.03637 928.00000
59.61195 970.93600 1024.00000
59.62219 970.70490 1024.00000
59.63243 970.38444 942.00000
59.64267 970.03013 962.00000
59.65292 969.68727 1014.00000
59.66316 969.38130 994.00000
59.67340 969.12070 957.00000
59.68364 968.90392 1001.00000
59.69388 968.72525 945.00000
59.70412 968.57803 960.00000
59.71436 968.45619 903.00000
59.72461 968.35467 994.00000
59.73485 968.26940 984.00000
59.74509 968.19722 983.00000
59.75533 968.13567 964.00000
59.76557 968.08279 963.00000
59.77581 968.03700 905.00000
59.78605 967.99695 967.00000
59.79630 967.96178 924.00000
59.80654 967.93150 960.00000
59.81678 967.90507 1003.00000
59.82702 967.88191 922.00000
59.83726 967.86159 983.00000
59.84750 967.84379 964.00000
59.85774 967.82825 950.00000
59.86799 967.81474 893.00000
59.87823 967.80307 926.00000
59.88847 967.79309 927.00000
59.89871 967.78468 947.00000
59.90895 967.77771 995.00000
59.91919 967.77209 965.00000
59.92944 967.76774 962.00000
59.93968 967.76460 999.00000
59.94992 967.76260 967.00000
59.96016 967.76171 990.00000
59.97040 967.76188 1008.00000
59.98064 967.76308 921.00000
59.99088 967.76528 932.00000
60.00113 967.76848 977.00000
60.01137 967.77275 1000.00000
60.02161 967.77902 950.00000
60.03185 967.79278 944.00000
60.04209 967.82537 1047.00000
60.05233 967.86101 952.00000
60.06257 967.87478 965.00000
60.07282 967.88418 960.00000
60.08306 967.89399 906.00000
60.09330 967.90594 922.00000
60.10354 967.91919 973.00000
60.11378 967.93351 993.00000
60.12402 967.94891 961.00000
60.13426 967.96544 918.00000
60.14451 967.98315 896.00000
60.15475 968.00206 949.00000
60.16499 968.02221 913.00000
60.17523 968.04364 930.00000
60.18547 968.06642 965.00000
60.19571 968.09069 917.00000
60.20595 968.11705 954.00000
60.21620 968.14798 939.00000
60.22644 968.18540 900.00000
60.23668 968.21860 977.00000
60.24692 968.25121 947.00000
60.25716 968.28541 970.00000
60.26740 968.32157 959.00000
60.27765 968.35982 920.00000
60.28789 968.40029 914.00000
60.29813 968.44310 963.00000
60.30837 968.48841 946.00000
60.31861 968.53637 924.00000
60.32885 968.58717 964.00000
60.33909 968.64099 983.00000
60.34934 968.69806 945.00000
60.35958 968.75861 946.00000
60.36982 968.82285 943.00000
60.38006 968.89123 984.00000
60.39030 968.96395 927.00000
60.40054 969.04133 930.00000
60.41078 969.12375 933.00000
60.42103 969.21161 978.00000
60.43127 969.30538 944.00000
60.44151 969.40555 905.00000
60.45175 969.51269 974.00000
60.46199 969.62740 955.00000
60.47223 969.75038 992.00000
60.48247 969.88237 910.00000
60.49272 970.02420 916.00000
60.50296 970.17680 952.00000
60.51320 970.34116 943.00000
60.52344 970.51834 944.00000
60.53368 970.70945 874.00000
60.54392 970.91573 930.00000
60.55416 971.13880 970.00000
60.56441 971.37989 956.00000
60.57465 971.64033 900.00000
60.58489 971.92141 1010.00000
60.59513 972.22434 965.00000
60.60537 972.55014 1013.00000
60.61561 972.89984 944.00000
60.62586 973.27450 898.00000
60.63610 973.67346 952.00000
60.64634 974.09683 976.00000
60.65658 974.54494 922.00000
60.66682 975.01882 991.00000
60.67706 975.52076 941.00000
60.68730 976.05493 958.00000
60.69755 976.62840 882.00000
60.70779 977.25199 923.00000
60.71803 977.93857 981.00000
60.72827 978.70478 939.00000
60.73851 979.57102 992.00000
60.74875 980.56164 955.00000
60.75899 981.70560 908.00000
60.76924 983.03763 981.00000
60.77948 984.59992 950.00000
60.78972 986.44459 954.00000
60.79996 988.63702 935.00000
60.81020 991.26027 942.00000
60.82044 994.42093 971.00000
60.83068 998.25648 1050.00000
60.84093 1002.94426 968.00000
60.85117 1008.71125 960.00000
60.86141 1015.89381 973.00000
60.87165 1024.83721 1021.00000
60.88189 1035.87571 1019.00000
60.89213 1049.26165 989.00000
60.90237 1064.90183 1011.00000
60.91262 1081.97911 1078.00000
60.92286 1098.58909 1062.00000
60.93310 1111.80788 1160.00000
60.94334 1118.61563 1115.00000
60.95358 1117.39866 1096.00000
60.96382 1108.87628 1055.00000
60.97407 1095.62674 965.00000
60.98431 1080.71735 1010.00000
60.99455 1066.55950 1083.00000
61.00479 1054.53518 1065.00000
61.01503 1045.18804 1040.00000
61.02527 1038.58036 1014.00000
61.03551 1034.57588 1013.00000
61.04576 1032.99387 1043.00000
61.05600 1033.64908 1010.00000
61.06624 1036.29913 1048.00000
61.07648 1040.51410 988.00000
61.08672 1045.50386 1056.00000
61.09696 1050.00844 1038.00000
61.10720 1052.32113 1075.00000
61.11745 1051.28458 1008.00000
61.12769 1046.71673 1015.00000
61.13793 1039.46902 991.00000
61.14817 1030.88696 971.00000
61.15841 1022.19737 986.00000
61.16865 1014.19586 993.00000
61.17889 1007.24112 946.00000
61.18914 1001.39213 1010.00000
61.19938 996.55301 926.00000
61.20962 992.57209 1042.00000
61.21986 989.29425 940.00000
61.23010 986.58263 960.00000
61.24034 984.32427 980.00000
61.25058 982.42892 961.00000
61.26083 980.82546 938.00000
61.27107 979.45788 913.00000
61.28131 978.28218 980.00000
61.29155 977.26519 956.00000
61.30179 976.38002 972.00000
61.31203 975.60432 896.00000
61.32228 974.92050 1000.00000
61.33252 974.31442 924.00000
61.34276 973.77570 975.00000
61.35300 973.29466 974.00000
61.36324 972.86197 983.00000
61.37348 972.47127 911.00000
61.38372 972.11720 955.00000
61.39397 971.79527 919.00000
61.40421 971.50162 957.00000
61.41445 971.23299 1004.00000
61.42469 970.98656 939.00000
61.43493 970.75991 946.00000
61.44517 970.55087 908.00000
61.45541 970.35757 957.00000
61.46566 970.17866 959.00000
61.47590 970.01273 915.00000
61.48614 969.85849 985.00000
61.49638 969.71484 920.00000
61.50662 969.58081 961.00000
61.51686 969.45557 913.00000
61.52710 969.33835 883.00000
61.53735 969.22848 900.00000
61.54759 969.12535 967.00000
61.55783 969.02844 936.00000
61.56807 968.93724 926.00000
61.57831 968.85137 1011.00000
61.58855 968.77075 984.00000
61.59879 968.69526 980.00000
61.60904 968.62422 919.00000
61.61928 968.55616 942.00000
61.62952 968.49150 976.00000
61.63976 968.43020 992.00000
61.65000 968.37204 943.00000
61.66024 968.31684 925.00000
61.67049 968.26448 925.00000
61.68073 968.21543 918.00000
61.69097 968.17252 1024.00000
61.70121 968.13987 920.00000
61.71145 968.10826 965.00000
61.72169 968.07037 969.00000
61.73193 968.03195 951.00000
61.74218 967.99596 903.00000
61.75242 967.96712 993.00000
61.76266 967.96650 916.00000
61.77290 968.00733 973.00000
61.78314 967.99590 1008.00000
61.79338 967.96936 933.00000
61.80362 967.94210 981.00000
61.81387 967.91599 1034.00000
61.82411 967.89112 930.00000
61.83435 967.86778 1015.00000
61.84459 967.84712 984.00000
61.85483 967.82990 946.00000
61.86507 967.81013 963.00000
61.87531 967.79043 944.00000
61.88556 967.77158 960.00000
61.89580 967.75357 966.00000
61.90604 967.73639 917.00000
61.91628 967.71999 919.00000
61.92652 967.70434 973.00000
61.93676 967.68942 1025.00000
61.94700 967.67520 997.00000
61.95725 967.66165 974.00000
61.96749 967.64875 933.00000
61.97773 967.63647 944.00000
61.98797 967.62479 960.00000
61.99821 967.61370 996.00000
62.00845 967.60316 962.00000
62.01870 967.59318 983.00000
62.02894 967.58371 987.00000
62.03918 967.57474 968.00000
62.04942 967.56615 975.00000
62.05966 967.55761 997.00000
62.06990 967.54807 968.00000
62.08014 967.53771 914.00000
62.09039 967.53133 929.00000
62.10063 967.52616 896.00000
62.11087 967.52444 948.00000
62.12111 967.52804 946.00000
62.13135 967.52606 942.00000
62.14159 967.52221 938.00000
62.15183 967.51848 956.00000
62.16208 967.51513 937.00000
62.17232 967.51215 922.00000
62.18256 967.50952 963.00000
62.19280 967.50726 970.00000
62.20304 967.50535 959.00000
62.21328 967.50378 961.00000
62.22352 967.50256 948.00000
62.23377 967.50167 930.00000
62.24401 967.50113 953.00000
62.25425 967.50103 959.00000
62.26449 967.50225 858.00000
62.27473 967.50994 942.00000
62.28497 967.53542 1029.00000
62.29521 967.56437 988.00000
62.30546 967.57043 951.00000
62.31570 967.57258 976.00000
62.32594 967.57494 935.00000
62.33618 967.57761 944.00000
62.34642 967.58059 898.00000
62.35666 967.58388 965.00000
62.36691 967.58749 919.00000
62.37715 967.59140 963.00000
62.38739 967.59562 962.00000
62.39763 967.60015 993.00000
62.40787 967.60499 984.00000
62.41811 967.61016 928.00000
62.42835 967.61573 957.00000
62.43860 967.62215 954.00000
62.44884 967.63008 976.00000
62.45908 967.63816 943.00000
62.46932 967.64522 977.00000
62.47956 967.65231 930.00000
62.48980 967.65970 979.00000
62.50004 967.66743 924.00000
62.51029 967.67549 962.00000
62.52053 967.68389 959.00000
62.53077 967.69262 909.00000
62.54101 967.70170 974.00000
62.55125 967.71113 929.00000
62.56149 967.72091 984.00000
62.57173 967.73103 906.00000
62.58198 967.74137 951.00000
62.59222 967.75148 940.00000
62.60246 967.76113 941.00000
62.61270 967.77223 950.00000
62.62294 967.78421 939.00000
62.63318 967.79666 927.00000
62.64342 967.80952 929.00000
62.65367 967.82279 952.00000
62.66391 967.83649 955.00000
62.67415 967.85062 937.00000
62.68439 967.86520 908.00000
62.69463 967.88022 999.00000
62.70487 967.89572 951.00000
62.71512 967.91169 964.00000
62.72536 967.92815 1004.00000
62.73560 967.94511 945.00000
62.74584 967.96258 993.00000
62.75608 967.98059 1010.00000
62.76632 967.99914 916.00000
62.77656 968.01825 939.00000
62.78681 968.03793 968.00000
62.79705 968.05821 942.00000
62.80729 968.07911 930.00000
62.81753 968.10063 914.00000
62.82777 968.12281 963.00000
62.83801 968.14566 979.00000
62.84825 968.16920 970.00000
62.85850 968.19346 917.00000
62.86874 968.21847 985.00000
62.87898 968.24424 967.00000
62.88922 968.27082 914.00000
62.89946 968.29822 951.00000
62.90970 968.32648 939.00000
62.91994 968.35563 937.00000
62.93019 968.38570 906.00000
62.94043 968.41674 941.00000
62.95067 968.44878 941.00000
62.96091 968.48187 921.00000
62.97115 968.51603 977.00000
62.98139 968.55129 922.00000
62.99163 968.58755 1014.00000
63.00188 968.62420 970.00000
63.01212 968.65958 935.00000
63.02236 968.69333 972.00000
63.03260 968.73381 955.00000
63.04284 968.77710 906.00000
63.05308 968.82203 947.00000
63.06333 968.86858 916.00000
63.07357 968.91678 919.00000
63.08381 968.96667 983.00000
63.09405 969.01845 945.00000
63.10429 969.07237 958.00000
63.11453 969.12844 971.00000
63.12477 969.18672 959.00000
63.13502 969.24736 1035.00000
63.14526 969.31047 964.00000
63.15550 969.37621 976.00000
63.16574 969.44474 934.00000
63.17598 969.51623 948.00000
63.18622 969.59085 909.00000
63.19646 969.66882 972.00000
63.20671 969.75035 979.00000
63.21695 969.83568 948.00000
63.22719 969.92506 990.00000
63.23743 970.01878 964.00000
63.24767 970.11720 916.00000
63.25791 970.22111 955.00000
63.26815 970.33406 921.00000
63.27840 970.47147 969.00000
63.28864 970.66229 945.00000
63.29888 970.89003 930.00000
63.30912 971.08668 1008.00000
63.31936 971.23912 949.00000
63.32960 971.38685 955.00000
63.33985 971.54661 929.00000
63.35009 971.71867 1020.00000
63.36033 971.90199 956.00000
63.37057 972.09710 970.00000
63.38081 972.30499 1039.00000
63.39105 972.52677 990.00000
63.40129 972.76364 1010.00000
63.41154 973.01687 942.00000
63.42178 973.28782 994.00000
63.43202 973.57787 959.00000
63.44226 973.88846 944.00000
63.45250 974.22097 959.00000
63.46274 974.57674 1000.00000
63.47298 974.95692 972.00000
63.48323 975.36250 977.00000
63.49347 975.79415 926.00000
63.50371 976.25231 1007.00000
63.51395 976.73711 964.00000
63.52419 977.24865 933.00000
63.53443 977.78727 976.00000
63.54467 978.35423 1000.00000
63.55492 978.95204 968.00000
63.56516 979.58292 947.00000
63.57540 980.25387 967.00000
63.58564 980.97446 964.00000
63.59588 981.75719 966.00000
63.60612 982.61782 978.00000
63.61636 983.57555 998.00000
63.62661 984.65317 942.00000
63.63685 985.87747 941.00000
63.64709 987.28001 922.00000
63.65733 988.89838 1002.00000
63.66757 990.77798 989.00000
63.67781 992.97449 957.00000
63.68806 995.55742 1020.00000
63.69830 998.61550 973.00000
63.70854 1002.26707 939.00000
63.71878 1006.67215 1016.00000
63.72902 1012.01021 965.00000
63.73926 1018.43197 940.00000
63.74950 1026.26203 1020.00000
63.75975 1035.85577 999.00000
63.76999 1047.59369 1051.00000
63.78023 1061.82250 1010.00000
63.79047 1078.69391 1076.00000
63.80071 1097.86527 1057.00000
63.81095 1118.08571 1140.00000
63.82119 1136.88994 1119.00000
63.83144 1150.84770 1183.00000
63.84168 1156.72644 1173.00000
63.85192 1153.24135 1117.00000
63.86216 1141.82197 1121.00000
63.87240 1125.66140 1080.00000
63.88264 1108.12485 1074.00000
63.89288 1091.68288 1047.00000
63.90313 1077.69547 1042.00000
63.91337 1066.68360 1030.00000
63.92361 1058.69479 1041.00000
63.93385 1053.58043 1054.00000
63.94409 1051.15229 1011.00000
63.95433 1051.22757 1042.00000
63.96457 1053.59836 1014.00000
63.97482 1057.92542 1072.00000
63.98506 1063.57589 1044.00000
63.99530 1069.47034 1125.00000
64.00554 1074.09518 1094.00000
64.01578 1075.85707 1080.00000
64.02602 1073.72884 1096.00000
64.03627 1067.75810 1029.00000
64.04651 1058.99503 1028.00000
64.05675 1048.91475 1032.00000
64.06699 1038.82063 1063.00000
64.07723 1029.54510 1005.00000
64.08747 1021.46096 1026.00000
64.09771 1014.62922 1012.00000
64.10796 1008.94881 1014.00000
64.11820 1004.25755 1026.00000
64.12844 1000.38539 1022.00000
64.13868 997.17687 963.00000
64.14892 994.49796 964.00000
64.15916 992.23751 963.00000
64.16940 990.30839 970.00000
64.17965 988.64617 1004.00000
64.18989 987.19985 950.00000
64.20013 985.93861 995.00000
64.21037 984.83921 962.00000
64.22061 983.88126 932.00000
64.23085 983.04612 1045.00000
64.24109 982.31835 963.00000
64.25134 981.69214 962.00000
64.26158 981.16478 967.00000
64.27182 980.70282 944.00000
64.28206 980.28211 949.00000
64.29230 979.91057 1048.00000
64.30254 979.58537 963.00000
64.31278 979.30138 991.00000
64.32303 979.05408 991.00000
64.33327 978.83965 953.00000
64.34351 978.65483 943.00000
64.35375 978.49683 982.00000
64.36399 978.36325 1010.00000
64.37423 978.25204 1000.00000
64.38448 978.16142 999.00000
64.39472 978.08997 984.00000
64.40496 978.03696 993.00000
64.41520 978.00222 994.00000
64.42544 977.98292 959.00000
64.43568 977.97626 971.00000
64.44592 977.98312 955.00000
64.45617 978.00331 961.00000
64.46641 978.03621 955.00000
64.47665 978.08134 1014.00000
64.48689 978.13831 980.00000
64.49713 978.20677 960.00000
64.50737 978.28646 946.00000
64.51761 978.37714 976.00000
64.52786 978.47865 1001.00000
64.53810 978.59086 972.00000
64.54834 978.71371 940.00000
64.55858 978.84714 1006.00000
64.56882 978.99118 915.00000
64.57906 979.14584 983.00000
64.58930 979.31123 989.00000
64.59955 979.48745 1013.00000
64.60979 979.67465 959.00000
64.62003 979.87303 1027.00000
64.63027 980.08281 979.00000
64.64051 980.30424 939.00000
64.65075 980.53761 1032.00000
64.66099 980.78324 955.00000
64.67124 981.04130 977.00000
64.68148 981.31149 993.00000
64.69172 981.59257 971.00000
64.70196 981.88515 992.00000
64.71220 982.19740 1009.00000
64.72244 982.52610 950.00000
64.73269 982.87061 923.00000
64.74293 983.23154 952.00000
64.75317 983.61002 912.00000
64.76341 984.00665 982.00000
64.77365 984.42236 1007.00000
64.78389 984.85849 1040.00000
64.79413 985.31662 1019.00000
64.80438 985.79825 987.00000
64.81462 986.30334 997.00000
64.82486 986.83204 966.00000
64.83510 987.38689 998.00000
64.84534 987.96977 1028.00000
64.85558 988.58247 1011.00000
64.86582 989.22690 961.00000
64.87607 989.90513 927.00000
64.88631 990.61945 1014.00000
64.89655 991.37232 987.00000
64.90679 992.16647 955.00000
64.91703 993.00486 1030.00000
64.92727 993.89073 993.00000
64.93751 994.82764 997.00000
64.94776 995.81948 1007.00000
64.95800 996.87052 1006.00000
64.96824 997.98546 988.00000
64.97848 999.16943 996.00000
64.98872 1000.42806 1047.00000
64.99896 1001.76751 1043.00000
65.00920 1003.19444 984.00000
65.01945 1004.71565 1044.00000
65.02969 1006.33670 955.00000
65.03993 1008.06453 1011.00000
65.05017 1009.91945 1044.00000
65.06041 1011.90708 1048.00000
65.07065 1014.03583 946.00000
65.08090 1016.31613 963.00000
65.09114 1018.75870 1047.00000
65.10138 1021.37408 996.00000
65.11162 1024.17222 1000.00000
65.12186 1027.16606 1010.00000
65.13210 1030.36142 1052.00000
65.14234 1033.76121 1006.00000
65.15259 1037.36842 1037.00000
65.16283 1041.18429 1120.00000
65.17307 1045.20942 1012.00000
65.18331 1049.44588 1052.00000
65.19355 1053.90032 996.00000
65.20379 1058.58790 1072.00000
65.21403 1063.53662 1039.00000
65.22428 1068.79156 1015.00000
65.23452 1074.41834 1082.00000
65.24476 1080.50535 1013.00000
65.25500 1087.16504 1098.00000
65.26524 1094.53461 1062.00000
65.27548 1102.77710 1066.00000
65.28572 1112.08371 1094.00000
65.29597 1122.67828 1133.00000
65.30621 1134.82461 1086.00000
65.31645 1148.83736 1137.00000
65.32669 1165.09716 1204.00000
65.33693 1184.07074 1158.00000
65.34717 1206.33739 1203.00000
65.35741 1232.62309 1230.00000
65.36766 1263.84391 1269.00000
65.37790 1301.15963 1306.00000
65.38814 1346.03666 1347.00000
65.39838 1400.31326 1347.00000
65.40862 1466.24605 1472.00000
65.41886 1546.49174 1438.00000
65.42911 1643.91915 1538.00000
65.43935 1761.06221 1702.00000
65.44959 1898.91712 1840.00000
65.45983 2054.96702 1768.00000
65.47007 2218.39719 1922.00000
65.48031 2369.54581 2009.00000
65.49055 2482.03201 2112.00000
65.50080 2531.81646 2069.00000
65.51104 2509.09611 2014.00000
65.52128 2423.46627 1922.00000
65.53152 2297.95664 1889.00000
65.54176 2157.94009 1772.00000
65.55200 2023.14053 1880.00000
65.56224 1905.40002 1727.00000
65.57249 1809.98245 1678.00000
65.58273 1738.07754 1706.00000
65.59297 1688.93793 1590.00000
65.60321 1661.21351 1613.00000
65.61345 1653.53932 1676.00000
65.62369 1664.51632 1640.00000
65.63393 1692.16163 1648.00000
65.64418 1732.89729 1608.00000
65.65442 1780.36491 1678.00000
65.66466 1824.84256 1705.00000
65.67490 1854.41428 1704.00000
65.68514 1858.43369 1689.00000
65.69538 1831.89904 1681.00000
65.70562 1777.73424 1567.00000
65.71587 1705.08148 1547.00000
65.72611 1624.97151 1505.00000
65.73635 1546.49051 1379.00000
65.74659 1475.19838 1450.00000
65.75683 1413.45997 1393.00000
65.76707 1361.44027 1315.00000
65.77732 1318.25315 1336.00000
65.78756 1282.70926 1304.00000
65.79780 1253.73945 1316.00000
65.80804 1230.02894 1332.00000
65.81828 1210.69285 1236.00000
65.82852 1195.03033 1279.00000
65.83876 1182.50095 1278.00000
65.84901 1172.69903 1263.00000
65.85925 1165.33097 1187.00000
65.86949 1160.19767 1213.00000
65.87973 1157.18228 1173.00000
65.88997 1156.24319 1288.00000
65.90021 1157.41197 1252.00000
65.91045 1160.79611 1286.00000
65.92070 1166.58668 1289.00000
65.93094 1175.07132 1283.00000
65.94118 1186.65290 1386.00000
65.95142 1201.87397 1397.00000
65.96166 1221.44470 1386.00000
65.97190 1246.27013 1424.00000
65.98214 1277.46746 1336.00000
65.99239 1316.33925 1426.00000
66.00263 1364.24071 1526.00000
66.01287 1422.23843 1540.00000
66.02311 1490.40115 1564.00000
66.03335 1566.62317 1659.00000
66.04359 1644.70168 1821.00000
66.05383 1713.90413 1786.00000
66.06408 1761.09145 1930.00000
66.07432 1775.60735 1975.00000
66.08456 1754.72266 2028.00000
66.09480 1705.02036 2141.00000
66.10504 1638.58134 1949.00000
66.11528 1567.53946 1893.00000
66.12553 1500.73194 1798.00000
66.13577 1443.11144 1687.00000
66.14601 1396.67266 1572.00000
66.15625 1361.69091 1525.00000
66.16649 1337.67672 1516.00000
66.17673 1323.94478 1413.00000
66.18697 1319.85000 1481.00000
66.19722 1324.74391 1377.00000
66.20746 1337.69702 1479.00000
66.21770 1356.99880 1417.00000
66.22794 1379.55921 1508.00000
66.23818 1400.58818 1450.00000
66.24842 1414.17768 1481.00000
66.25866 1415.05611 1517.00000
66.26891 1400.79716 1548.00000
66.27915 1372.90239 1540.00000
66.28939 1335.87683 1537.00000
66.29963 1295.09863 1400.00000
66.30987 1254.99020 1407.00000
66.32011 1218.27243 1312.00000
66.33035 1186.11911 1342.00000
66.34060 1158.67485 1217.00000
66.35084 1135.54926 1166.00000
66.36108 1116.23961 1192.00000
66.37132 1100.01089 1110.00000
66.38156 1086.32601 1076.00000
66.39180 1074.71781 1122.00000
66.40204 1064.80632 1134.00000
66.41229 1056.29473 1148.00000
66.42253 1048.93373 1017.00000
66.43277 1042.52526 1088.00000
66.44301 1036.90853 1016.00000
66.45325 1031.95678 1057.00000
66.46349 1027.56849 1050.00000
66.47374 1023.66125 1026.00000
66.48398 1020.16376 1045.00000
66.49422 1017.01422 1053.00000
66.50446 1014.16812 1077.00000
66.51470 1011.58659 990.00000
66.52494 1009.23636 1023.00000
66.53518 1007.08934 1047.00000
66.54543 1005.12157 1044.00000
66.55567 1003.31261 971.00000
66.56591 1001.64492 1001.00000
66.57615 1000.10338 970.00000
66.58639 998.67491 980.00000
66.59663 997.34811 889.00000
66.60687 996.11303 975.00000
66.61712 994.96096 959.00000
66.62736 993.88423 976.00000
66.63760 992.87605 967.00000
66.64784 991.93044 957.00000
66.65808 991.04205 1019.00000
66.66832 990.20614 968.00000
66.67856 989.41916 1023.00000
66.68881 988.67692 952.00000
66.69905 987.97522 1002.00000
66.70929 987.30929 946.00000
66.71953 986.66826 965.00000
66.72977 986.03197 929.00000
66.74001 985.40475 953.00000
66.75025 984.85566 990.00000
66.76050 984.34512 950.00000
66.77074 983.85984 946.00000
66.78098 983.39751 987.00000
66.79122 982.95668 978.00000
66.80146 982.53607 1027.00000
66.81170 982.13447 958.00000
66.82195 981.75071 949.00000
66.83219 981.38376 940.00000
66.84243 981.03268 936.00000
66.85267 980.69660 1033.00000
66.86291 980.37485 1002.00000
66.87315 980.06738 998.00000
66.88339 979.77409 972.00000
66.89364 979.49110 926.00000
66.90388 979.21898 968.00000
66.91412 978.95769 928.00000
66.92436 978.70679 905.00000
66.93460 978.46578 934.00000
66.94484 978.23422 995.00000
66.95508 978.01169 930.00000
66.96533 977.79778 1028.00000
66.97557 977.59213 1033.00000
66.98581 977.39440 911.00000
66.99605 977.20430 911.00000
67.00629 977.02161 984.00000
67.01653 976.84593 940.00000
67.02677 976.67699 948.00000
67.03702 976.51454 976.00000
67.04726 976.35837 1007.00000
67.05750 976.20826 946.00000
67.06774 976.06401 982.00000
67.07798 975.92545 972.00000
67.08822 975.79240 967.00000
67.09847 975.66471 942.00000
67.10871 975.54223 945.00000
67.11895 975.42483 914.00000
67.12919 975.31239 976.00000
67.13943 975.20483 934.00000
67.14967 975.10201 999.00000
67.15991 975.00386 929.00000
67.17016 974.91030 954.00000
67.18040 974.82124 927.00000
67.19064 974.73665 936.00000
67.20088 974.65647 977.00000
67.21112 974.58066 942.00000
67.22136 974.50921 987.00000
67.23160 974.44210 948.00000
67.24185 974.37932 986.00000
67.25209 974.32089 909.00000
67.26233 974.26682 927.00000
67.27257 974.21716 967.00000
67.28281 974.17193 932.00000
67.29305 974.13094 954.00000
67.30329 974.09213 910.00000
67.31354 974.04488 973.00000
67.32378 973.98028 1009.00000
67.33402 973.95172 975.00000
67.34426 973.93551 962.00000
67.35450 973.92490 948.00000
67.36474 973.91966 911.00000
67.37498 973.91997 991.00000
67.38523 973.92602 920.00000
67.39547 973.93806 978.00000
67.40571 973.95651 958.00000
67.41595 973.98186 975.00000
67.42619 974.01325 980.00000
67.43643 974.05112 958.00000
67.44668 974.09584 962.00000
67.45692 974.14761 935.00000
67.46716 974.20654 981.00000
67.47740 974.27276 937.00000
67.48764 974.34643 940.00000
67.49788 974.42776 948.00000
67.50812 974.51714 986.00000
67.51837 974.61524 945.00000
67.52861 974.72315 950.00000
67.53885 974.84179 984.00000
67.54909 974.97189 981.00000
67.55933 975.11582 1039.00000
67.56957 975.27600 954.00000
67.57981 975.45517 980.00000
67.59006 975.65650 957.00000
67.60030 975.88367 989.00000
67.61054 976.14123 950.00000
67.62078 976.43450 978.00000
67.63102 976.76813 983.00000
67.64126 977.14966 974.00000
67.65150 977.58622 954.00000
67.66175 978.08833 968.00000
67.67199 978.66878 929.00000
67.68223 979.34303 961.00000
67.69247 980.13027 934.00000
67.70271 981.05438 933.00000
67.71295 982.14489 969.00000
67.72319 983.43778 944.00000
67.73344 984.97521 972.00000
67.74368 986.80228 987.00000
67.75392 988.95592 949.00000
67.76416 991.44334 953.00000
67.77440 994.24126 986.00000
67.78464 997.32316 934.00000
67.79489 1000.40843 1010.00000
67.80513 1003.10876 931.00000
67.81537 1004.99053 926.00000
67.82561 1005.73197 999.00000
67.83585 1005.29484 969.00000
67.84609 1003.92163 980.00000
67.85633 1002.02769 939.00000
67.86658 1000.02872 948.00000
67.87682 998.23383 979.00000
67.88706 996.82573 956.00000
67.89730 995.88820 1017.00000
67.90754 995.44975 1000.00000
67.91778 995.51448 1011.00000
67.92802 996.08225 995.00000
67.93827 997.15870 995.00000
67.94851 998.75695 948.00000
67.95875 1000.89207 975.00000
67.96899 1003.56890 968.00000
67.97923 1006.76573 1013.00000
67.98947 1010.42277 1035.00000
67.99971 1014.45162 1014.00000
68.00996 1018.77976 1007.00000
68.02020 1023.41818 1017.00000
68.03044 1028.50516 1040.00000
68.04068 1034.27736 1051.00000
68.05092 1040.93324 1031.00000
68.06116 1048.38056 1081.00000
68.07140 1056.18250 1063.00000
68.08165 1063.39534 1115.00000
68.09189 1068.69837 1111.00000
68.10213 1070.84973 1151.00000
68.11237 1069.29699 1118.00000
68.12261 1064.53564 1120.00000
68.13285 1057.65248 1096.00000
68.14310 1049.94726 1101.00000
68.15334 1042.49275 1051.00000
68.16358 1035.96952 1080.00000
68.17382 1030.71724 1095.00000
68.18406 1026.84548 1054.00000
68.19430 1024.35254 1007.00000
68.20454 1023.19688 1013.00000
68.21479 1023.33899 1025.00000
68.22503 1024.75504 969.00000
68.23527 1027.42695 1025.00000
68.24551 1031.31028 1019.00000
68.25575 1036.28217 1043.00000
68.26599 1042.08476 1062.00000
68.27623 1048.30680 1090.00000
68.28648 1054.46587 1098.00000
68.29672 1060.16571 1061.00000
68.30696 1065.10630 1169.00000
68.31720 1069.33629 1081.00000
68.32744 1072.93362 1100.00000
68.33768 1075.66861 1073.00000
68.34792 1076.91345 1098.00000
68.35817 1075.87978 995.00000
68.36841 1072.11361 1088.00000
68.37865 1065.84942 1088.00000
68.38889 1057.87246 996.00000
68.39913 1049.22256 1012.00000
68.40937 1040.81433 1036.00000
68.41961 1033.25486 948.00000
68.42986 1026.84782 1017.00000
68.44010 1021.68248 975.00000
68.45034 1017.73012 1027.00000
68.46058 1014.91498 1007.00000
68.47082 1013.15477 1012.00000
68.48106 1012.37563 999.00000
68.49131 1012.50658 972.00000
68.50155 1013.45510 1032.00000
68.51179 1015.06541 1027.00000
68.52203 1017.06917 1019.00000
68.53227 1019.05682 988.00000
68.54251 1020.51459 1005.00000
68.55275 1020.95502 1008.00000
68.56300 1020.09766 1015.00000
68.57324 1017.98726 1017.00000
68.58348 1014.96200 1042.00000
68.59372 1011.49786 1025.00000
68.60396 1008.03470 960.00000
68.61420 1004.89499 1024.00000
68.62444 1002.25976 949.00000
68.63469 1000.20555 986.00000
68.64493 998.74637 1013.00000
68.65517 997.87700 1023.00000
68.66541 997.59071 971.00000
68.67565 997.89250 995.00000
68.68589 998.80421 986.00000
68.69613 1000.36066 1065.00000
68.70638 1002.60017 1030.00000
68.71662 1005.57414 981.00000
68.72686 1009.29520 1033.00000
68.73710 1013.61733 1035.00000
68.74734 1018.21674 1052.00000
68.75758 1022.52875 1005.00000
68.76782 1025.80250 1046.00000
68.77807 1027.32187 1059.00000
68.78831 1026.71090 994.00000
68.79855 1024.11331 1035.00000
68.80879 1020.10360 1056.00000
68.81903 1015.41577 1010.00000
68.82927 1010.69212 993.00000
68.83952 1006.36695 1022.00000
68.84976 1002.67040 1006.00000
68.86000 999.68688 991.00000
68.87024 997.41851 1062.00000
68.88048 995.83211 1044.00000
68.89072 994.88641 997.00000
68.90096 994.54267 967.00000
68.91121 994.76171 915.00000
68.92145 995.48867 1000.00000
68.93169 996.62641 1019.00000
68.94193 998.00341 1036.00000
68.95217 999.35376 954.00000
68.96241 1000.33785 1036.00000
68.97265 1000.62345 973.00000
68.98290 1000.00432 955.00000
68.99314 998.48545 978.00000
69.00338 996.27250 1017.00000
69.01362 993.67447 974.00000
69.02386 990.98924 996.00000
69.03410 988.43288 976.00000
69.04434 986.12510 981.00000
69.05459 984.10911 966.00000
69.06483 982.38074 943.00000
69.07507 980.91241 907.00000
69.08531 979.66845 979.00000
69.09555 978.61310 956.00000
69.10579 977.71407 1051.00000
69.11603 976.94448 949.00000
69.12628 976.28305 977.00000
69.13652 975.71073 983.00000
69.14676 975.21246 971.00000
69.15700 974.77617 1025.00000
69.16724 974.39209 928.00000
69.17748 974.05227 911.00000
69.18773 973.75020 971.00000
69.19797 973.48090 941.00000
69.20821 973.23957 906.00000
69.21845 973.02245 937.00000
69.22869 972.82650 976.00000
69.23893 972.64916 938.00000
69.24917 972.48826 1020.00000
69.25942 972.34197 908.00000
69.26966 972.20872 911.00000
69.27990 972.08716 959.00000
69.29014 971.97615 893.00000
69.30038 971.87469 963.00000
69.31062 971.78200 972.00000
69.32086 971.69800 975.00000
69.33111 971.62325 938.00000
69.34135 971.55417 941.00000
69.35159 971.48976 993.00000
69.36183 971.43081 985.00000
69.37207 971.37714 948.00000
69.38231 971.32795 974.00000
69.39255 971.28179 970.00000
69.40280 971.23884 987.00000
69.41304 971.20312 978.00000
69.42328 971.17217 934.00000
69.43352 971.14514 958.00000
69.44376 971.12188 995.00000
69.45400 971.10225 941.00000
69.46424 971.08617 956.00000
69.47449 971.07356 925.00000
69.48473 971.06436 992.00000
69.49497 971.05854 997.00000
69.50521 971.05608 928.00000
69.51545 971.05698 993.00000
69.52569 971.06126 943.00000
69.53594 971.06894 983.00000
69.54618 971.08006 968.00000
69.55642 971.09470 940.00000
69.56666 971.11285 967.00000
69.57690 971.13403 967.00000
69.58714 971.15465 976.00000
69.59738 971.15862 943.00000
69.60763 971.12866 991.00000
69.61787 971.12071 952.00000
69.62811 971.15462 978.00000
69.63835 971.19950 951.00000
69.64859 971.24899 962.00000
69.65883 971.30112 971.00000
69.66907 971.35719 952.00000
69.67932 971.41951 973.00000
69.68956 971.48642 962.00000
69.69980 971.55752 1000.00000
69.71004 971.63295 1007.00000
69.72028 971.71303 1011.00000
69.73052 971.79828 980.00000
69.74076 971.88969 963.00000
69.75101 971.99040 990.00000
69.76125 972.11270 957.00000
69.77149 972.27233 930.00000
69.78173 972.43558 983.00000
69.79197 972.62096 989.00000
69.80221 972.80327 890.00000
69.81245 972.98652 958.00000
69.82270 973.18901 988.00000
69.83294 973.41829 910.00000
69.84318 973.67936 944.00000
69.85342 973.97802 933.00000
69.86366 974.32127 960.00000
69.87390 974.71774 977.00000
69.88415 975.17808 976.00000
69.89439 975.71551 921.00000
69.90463 976.34648 988.00000
69.91487 977.09226 938.00000
69.92511 977.97816 1033.00000
69.93535 979.03440 987.00000
69.94559 980.29671 936.00000
69.95584 981.80387 1022.00000
69.96608 983.59194 991.00000
69.97632 985.68158 970.00000
69.98656 988.05514 970.00000
69.99680 990.62304 985.00000
70.00704 993.19088 1025.00000
70.01728 995.46165 1013.00000
70.02753 997.10182 990.00000
70.03777 997.79106 927.00000
70.04801 997.41073 1008.00000
70.05825 996.11786 1001.00000
70.06849 994.20098 965.00000
70.07873 992.05468 972.00000
70.08897 989.96596 986.00000
70.09922 988.10983 990.00000
70.10946 986.57166 955.00000
70.11970 985.37643 1033.00000
70.12994 984.51922 952.00000
70.14018 983.98132 1002.00000
70.15042 983.74439 970.00000
70.16066 983.79232 986.00000
70.17091 984.10699 974.00000
70.18115 984.66307 932.00000
70.19139 985.41593 947.00000
70.20163 986.28623 1035.00000
70.21187 987.14574 978.00000
70.22211 987.82143 945.00000
70.23236 988.14841 974.00000
70.24260 988.07619 967.00000
70.25284 987.58341 916.00000
70.26308 986.76811 953.00000
70.27332 985.76654 996.00000
70.28356 984.68315 929.00000
70.29380 983.64980 998.00000
70.30405 982.73855 957.00000
70.31429 981.97860 961.00000
70.32453 981.37570 959.00000
70.33477 980.92409 964.00000
70.34501 980.61007 1016.00000
70.35525 980.42262 1013.00000
70.36549 980.35036 1053.00000
70.37574 980.38685 942.00000
70.38598 980.53036 992.00000
70.39622 980.78166 999.00000
70.40646 981.14497 951.00000
70.41670 981.62843 960.00000
70.42694 982.24454 939.00000
70.43718 983.01088 1032.00000
70.44743 983.95105 1020.00000
70.45767 985.09647 995.00000
70.46791 986.48672 974.00000
70.47815 988.16496 1002.00000
70.48839 990.19725 1010.00000
70.49863 992.64811 1047.00000
70.50887 995.59671 995.00000
70.51912 999.13729 985.00000
70.52936 1003.33540 1032.00000
70.53960 1008.00050 1016.00000
70.54984 1013.00333 1006.00000
70.56008 1017.96770 1028.00000
70.57032 1022.28319 1005.00000
70.58057 1025.23903 1010.00000
70.59081 1026.27288 1074.00000
70.60105 1025.22734 1046.00000
70.61129 1022.42471 1120.00000
70.62153 1018.50091 1061.00000
70.63177 1014.14017 1039.00000
70.64201 1009.88475 1019.00000
70.65226 1006.07536 1006.00000
70.66250 1002.87939 994.00000
70.67274 1000.34917 1021.00000
70.68298 998.47552 1047.00000
70.69322 997.22494 1046.00000
70.70346 996.56024 1009.00000
70.71370 996.44790 999.00000
70.72395 996.85487 969.00000
70.73419 997.73497 1042.00000
70.74443 999.00590 1035.00000
70.75467 1000.52288 1052.00000
70.76491 1002.05638 967.00000
70.77515 1003.29587 1008.00000
70.78539 1003.91920 1009.00000
70.79564 1003.69839 996.00000
70.80588 1002.59083 1000.00000
70.81612 1000.75084 1073.00000
70.82636 998.45430 1076.00000
70.83660 995.99164 994.00000
70.84684 993.58835 1032.00000
70.85709 991.38842 974.00000
70.86733 989.45393 1025.00000
70.87757 987.79535 952.00000
70.88781 986.39477 1046.00000
70.89805 985.22204 1006.00000
70.90829 984.24422 997.00000
70.91853 983.43039 998.00000
70.92878 982.75344 998.00000
70.93902 982.19056 1003.00000
70.94926 981.72316 1013.00000
70.95950 981.33699 972.00000
70.96974 981.01972 924.00000
70.97998 980.75639 985.00000
70.99022 980.54087 962.00000
71.00047 980.36699 941.00000
71.01071 980.22917 1047.00000
71.02095 980.12279 953.00000
71.03119 980.04403 1008.00000
71.04143 979.98974 1005.00000
71.05167 979.95727 1010.00000
71.06191 979.94437 1017.00000
71.07216 979.94917 982.00000
71.08240 979.97008 1012.00000
71.09264 980.00554 949.00000
71.10288 980.05338 1003.00000
71.11312 980.11177 963.00000
71.12336 980.18504 980.00000
71.13360 980.27035 1048.00000
71.14385 980.36644 972.00000
71.15409 980.47271 1002.00000
71.16433 980.58865 902.00000
71.17457 980.71342 955.00000
71.18481 980.84612 965.00000
71.19505 980.98845 986.00000
71.20530 981.14070 979.00000
71.21554 981.30184 979.00000
71.22578 981.47157 970.00000
71.23602 981.64983 1032.00000
71.24626 981.83660 975.00000
71.25650 982.03190 992.00000
71.26674 982.23581 986.00000
71.27699 982.44861 962.00000
71.28723 982.67071 980.00000
71.29747 982.90098 1040.00000
71.30771 983.14008 983.00000
71.31795 983.38832 975.00000
71.32819 983.64591 957.00000
71.33843 983.91308 992.00000
71.34868 984.19003 983.00000
71.35892 984.47684 973.00000
71.36916 984.77342 1039.00000
71.37940 985.08076 993.00000
71.38964 985.39995 1036.00000
71.39988 985.73070 988.00000
71.41012 986.07325 965.00000
71.42037 986.42776 998.00000
71.43061 986.79313 939.00000
71.44085 987.16232 941.00000
71.45109 987.51774 1034.00000
71.46133 987.86243 1030.00000
71.47157 988.27637 977.00000
71.48181 988.70927 1010.00000
71.49206 989.16427 1032.00000
71.50230 989.63700 1038.00000
71.51254 990.12742 1059.00000
71.52278 990.63637 985.00000
71.53302 991.16458 967.00000
71.54326 991.71231 1001.00000
71.55351 992.27997 927.00000
71.56375 992.87218 979.00000
71.57399 993.48862 1033.00000
71.58423 994.13007 1006.00000
71.59447 994.79786 933.00000
71.60471 995.49344 967.00000
71.61495 996.21838 950.00000
71.62520 996.97438 995.00000
71.63544 997.76326 919.00000
71.64568 998.58698 1017.00000
71.65592 999.44766 937.00000
71.66616 1000.34759 975.00000
71.67640 1001.28924 964.00000
71.68664 1002.27527 992.00000
71.69689 1003.30855 1020.00000
71.70713 1004.39220 981.00000
71.71737 1005.53043 1010.00000
71.72761 1006.72662 999.00000
71.73785 1007.98425 994.00000
71.74809 1009.30753 1035.00000
71.75833 1010.70148 978.00000
71.76858 1012.17056 1020.00000
71.77882 1013.71978 994.00000
71.78906 1015.35453 1039.00000
71.79930 1017.08045 1030.00000
71.80954 1018.90342 1004.00000
71.81978 1020.82961 1007.00000
71.83002 1022.86532 993.00000
71.84027 1025.01570 1014.00000
71.85051 1027.28687 1012.00000
71.86075 1029.68338 1018.00000
71.87099 1032.21022 1031.00000
71.88123 1034.87178 1102.00000
71.89147 1037.67165 999.00000
71.90172 1040.61292 1065.00000
71.91196 1043.69853 1001.00000
71.92220 1046.93185 1039.00000
71.93244 1050.31722 1035.00000
71.94268 1053.86251 1076.00000
71.95292 1057.58294 1045.00000
71.96316 1061.49472 1052.00000
71.97341 1065.62151 999.00000
71.98365 1069.99657 1067.00000
71.99389 1074.66094 998.00000
72.00413 1079.66633 1070.00000
72.01437 1085.07368 1057.00000
72.02461 1090.95359 1049.00000
72.03485 1097.38692 1111.00000
72.04510 1104.46580 1142.00000
72.05534 1112.31200 1132.00000
72.06558 1121.04957 1085.00000
72.07582 1130.80622 1159.00000
72.08606 1141.74578 1079.00000
72.09630 1154.05515 1114.00000
72.10654 1167.95880 1146.00000
72.11679 1183.78942 1138.00000
72.12703 1201.87010 1166.00000
72.13727 1222.61912 1215.00000
72.14751 1246.55003 1175.00000
72.15775 1274.29594 1310.00000
72.16799 1306.63048 1282.00000
72.17823 1344.48590 1264.00000
72.18848 1388.95602 1384.00000
72.19872 1441.25981 1383.00000
72.20896 1502.62193 1501.00000
72.21920 1573.99933 1474.00000
72.22944 1655.56278 1613.00000
72.23968 1745.87047 1784.00000
72.24993 1840.83257 1814.00000
72.26017 1932.92494 2056.00000
72.27041 2011.53127 2127.00000
72.28065 2065.24314 2136.00000
72.29089 2085.83382 1997.00000
72.30113 2071.87317 2048.00000
72.31137 2029.44532 2031.00000
72.32162 1969.41720 1902.00000
72.33186 1903.35050 1888.00000
72.34210 1840.55322 1788.00000
72.35234 1787.10734 1756.00000
72.36258 1746.28563 1711.00000
72.37282 1719.54902 1613.00000
72.38306 1707.25823 1603.00000
72.39331 1709.66357 1682.00000
72.40355 1726.69801 1720.00000
72.41379 1758.57206 1691.00000
72.42403 1805.85320 1739.00000
72.43427 1869.20737 1823.00000
72.44451 1949.10859 1904.00000
72.45475 2045.41896 2041.00000
72.46500 2156.96537 2166.00000
72.47524 2281.39588 2238.00000
72.48548 2415.59258 2395.00000
72.49572 2556.50977 2621.00000
72.50596 2701.57910 2745.00000
72.51620 2847.60066 2831.00000
72.52644 2988.00535 3159.00000
72.53669 3110.17843 3247.00000
72.54693 3195.75968 3448.00000
72.55717 3225.86795 3525.00000
72.56741 3189.48903 3493.00000
72.57765 3089.51388 3271.00000
72.58789 2941.84141 3017.00000
72.59814 2768.61241 2817.00000
72.60838 2590.72846 2629.00000
72.61862 2423.54412 2404.00000
72.62886 2276.11429 2152.00000
72.63910 2152.47284 2059.00000
72.64934 2053.45075 1941.00000
72.65958 1978.23302 1872.00000
72.66983 1925.41118 1835.00000
72.68007 1894.01798 1799.00000
72.69031 1882.44166 1774.00000
72.70055 1889.39410 1818.00000
72.71079 1913.36765 1823.00000
72.72103 1951.78915 2001.00000
72.73127 2000.11443 1921.00000
72.74152 2051.05828 2100.00000
72.75176 2094.72503 2101.00000
72.76200 2120.29037 2234.00000
72.77224 2119.15544 2202.00000
72.78248 2088.10075 2232.00000
72.79272 2030.40799 2170.00000
72.80296 1954.21041 1990.00000
72.81321 1869.28670 1856.00000
72.82345 1784.18567 1732.00000
72.83369 1704.73501 1709.00000
72.84393 1633.86878 1636.00000
72.85417 1572.19654 1502.00000
72.86441 1518.81838 1503.00000
72.87465 1472.14851 1386.00000
72.88490 1430.63965 1407.00000
72.89514 1393.25027 1236.00000
72.90538 1359.56118 1279.00000
72.91562 1329.58644 1264.00000
72.92586 1303.49372 1277.00000
72.93610 1281.39827 1195.00000
72.94635 1263.27565 1290.00000
72.95659 1248.95470 1230.00000
72.96683 1238.06406 1196.00000
72.97707 1230.01372 1228.00000
72.98731 1223.98515 1240.00000
72.99755 1218.86536 1232.00000
73.00779 1213.49272 1195.00000
73.01804 1206.96288 1293.00000
73.02828 1198.91833 1277.00000
73.03852 1189.60621 1226.00000
73.04876 1179.63882 1213.00000
73.05900 1169.63201 1225.00000
73.06924 1159.94595 1143.00000
73.07948 1150.62959 1099.00000
73.08973 1141.52957 1103.00000
73.09997 1132.50956 1170.00000
73.11021 1123.61212 1059.00000
73.12045 1115.03464 1102.00000
73.13069 1107.06009 1090.00000
73.14093 1099.95637 1123.00000
73.15117 1093.91187 1112.00000
73.16142 1089.01188 1061.00000
73.17166 1085.23104 1081.00000
73.18190 1082.43448 1108.00000
73.19214 1080.36692 1051.00000
73.20238 1078.64923 1043.00000
73.21262 1076.81292 1171.00000
73.22286 1074.39487 1116.00000
73.23311 1071.07245 1121.00000
73.24335 1066.76863 1106.00000
73.25359 1061.65876 1120.00000
73.26383 1056.07708 1071.00000
73.27407 1050.38701 1085.00000
73.28431 1044.88367 1008.00000
73.29456 1039.75637 970.00000
73.30480 1035.09237 996.00000
73.31504 1030.90814 1034.00000
73.32528 1027.17864 1061.00000
73.33552 1023.85919 989.00000
73.34576 1020.89926 1085.00000
73.35600 1018.24996 1048.00000
73.36625 1015.87021 1043.00000
73.37649 1013.71903 1052.00000
73.38673 1011.76318 982.00000
73.39697 1009.97591 943.00000
73.40721 1008.33494 1036.00000
73.41745 1006.82152 988.00000
73.42769 1005.41994 1033.00000
73.43794 1004.11683 1016.00000
73.44818 1002.90037 1063.00000
73.45842 1001.76106 1009.00000
73.46866 1000.69394 994.00000
73.47890 999.69050 985.00000
73.48914 998.74434 1020.00000
73.49938 997.85026 987.00000
73.50963 997.00374 1037.00000
73.51987 996.20082 1070.00000
73.53011 995.43801 1009.00000
73.54035 994.71222 1066.00000
73.55059 994.02071 1023.00000
73.56083 993.36100 942.00000
73.57107 992.73092 953.00000
73.58132 992.12846 983.00000
73.59156 991.55184 988.00000
73.60180 990.99970 1015.00000
73.61204 990.47037 1003.00000
73.62228 989.96245 1010.00000
73.63252 989.47498 975.00000
73.64277 989.00749 965.00000
73.65301 988.55765 922.00000
73.66325 988.11775 1047.00000
73.67349 987.67610 992.00000
73.68373 987.23342 1025.00000
73.69397 986.83823 1003.00000
73.70421 986.46518 928.00000
73.71446 986.10592 1007.00000
73.72470 985.75937 957.00000
73.73494 985.42499 1021.00000
73.74518 985.10228 984.00000
73.75542 984.79076 1038.00000
73.76566 984.48998 954.00000
73.77590 984.19956 959.00000
73.78615 983.91909 1020.00000
73.79639 983.64822 1041.00000
73.80663 983.38661 977.00000
73.81687 983.13396 973.00000
73.82711 982.89000 1003.00000
73.83735 982.65448 971.00000
73.84759 982.42715 1017.00000
73.85784 982.20780 994.00000
73.86808 981.99622 980.00000
73.87832 981.79225 992.00000
73.88856 981.59573 935.00000
73.89880 981.40651 970.00000
73.90904 981.22467 947.00000
73.91928 981.05088 956.00000
73.92953 980.88693 1022.00000
73.93977 980.72955 955.00000
73.95001 980.56674 960.00000
73.96025 980.36997 971.00000
73.97049 980.14543 984.00000
73.98073 979.99690 911.00000
73.99098 979.87060 930.00000
74.00122 979.75174 971.00000
74.01146 979.63943 980.00000
74.02170 979.53360 971.00000
74.03194 979.43405 972.00000
74.04218 979.34036 966.00000
74.05242 979.25278 961.00000
74.06267 979.17249 980.00000
74.07291 979.09866 977.00000
74.08315 979.03135 919.00000
74.09339 978.97058 985.00000
74.10363 978.91653 979.00000
74.11387 978.86963 952.00000
74.12411 978.83053 954.00000
74.13436 978.79936 1011.00000
74.14460 978.77631 961.00000
74.15484 978.76254 973.00000
74.16508 978.75905 951.00000
74.17532 978.76692 993.00000
74.18556 978.78738 955.00000
74.19580 978.82181 1003.00000
74.20605 978.87186 1028.00000
74.21629 978.93949 1024.00000
74.22653 979.02698 931.00000
74.23677 979.13712 977.00000
74.24701 979.27329 969.00000
74.25725 979.43966 915.00000
74.26749 979.64127 1015.00000
74.27774 979.88398 990.00000
74.28798 980.17430 947.00000
74.29822 980.52192 951.00000
74.30846 980.94166 947.00000
74.31870 981.44523 1021.00000
74.32894 982.04840 942.00000
74.33919 982.77011 988.00000
74.34943 983.63103 968.00000
74.35967 984.65286 984.00000
74.36991 985.86018 943.00000
74.38015 987.26425 945.00000
74.39039 988.85593 963.00000
74.40063 990.59127 1020.00000
74.41088 992.37479 1005.00000
74.42112 994.05424 1003.00000
74.43136 995.44278 1047.00000
74.44160 996.37981 949.00000
74.45184 996.79200 1032.00000
74.46208 996.72750 949.00000
74.47232 996.34443 974.00000
74.48257 995.85250 955.00000
74.49281 995.44855 967.00000
74.50305 995.28166 967.00000
74.51329 995.44253 968.00000
74.52353 995.96151 993.00000
74.53377 996.80469 927.00000
74.54401 997.87065 1023.00000
74.55426 998.99077 1018.00000
74.56450 999.95173 978.00000
74.57474 1000.55002 1034.00000
74.58498 1000.66264 1014.00000
74.59522 1000.29260 996.00000
74.60546 999.55572 936.00000
74.61571 998.61742 909.00000
74.62595 997.62082 971.00000
74.63619 996.64250 964.00000
74.64643 995.68883 929.00000
74.65667 994.72779 982.00000
74.66691 993.72488 954.00000
74.67715 992.67603 1017.00000
74.68740 991.61955 922.00000
74.69764 990.62112 969.00000
74.70788 989.75130 1011.00000
74.71812 989.06688 991.00000
74.72836 988.60153 960.00000
74.73860 988.36280 976.00000
74.74884 988.33107 940.00000
74.75909 988.45811 1000.00000
74.76933 988.66743 938.00000
74.77957 988.86226 966.00000
74.78981 988.94569 990.00000
74.80005 988.84942 962.00000
74.81029 988.55523 990.00000
74.82053 988.10091 1052.00000
74.83078 987.56470 927.00000
74.84102 987.03036 1007.00000
74.85126 986.57119 901.00000
74.86150 986.29664 963.00000
74.87174 986.25317 956.00000
74.88198 986.45953 979.00000
74.89222 986.93678 976.00000
74.90247 987.70295 990.00000
74.91271 988.76797 927.00000
74.92295 990.12671 994.00000
74.93319 991.75461 939.00000
74.94343 993.58890 942.00000
74.95367 995.40370 956.00000
74.96392 996.92466 1012.00000
74.97416 997.92332 964.00000
74.98440 998.19709 1019.00000
74.99464 997.67160 971.00000
75.00488 996.44004 964.00000
75.01512 994.71821 1008.00000
75.02536 992.75882 1017.00000
75.03561 990.78016 982.00000
75.04585 988.93434 913.00000
75.05609 987.30816 1014.00000
75.06633 985.93925 1002.00000
75.07657 984.83476 960.00000
75.08681 983.98844 1015.00000
75.09705 983.38322 980.00000
75.10730 983.00431 967.00000
75.11754 982.84173 955.00000
75.12778 982.88138 961.00000
75.13802 983.07773 1000.00000
75.14826 983.38104 1017.00000
75.15850 983.88736 957.00000
75.16874 984.46455 974.00000
75.17899 984.99370 980.00000
75.18923 985.35408 984.00000
75.19947 985.43606 914.00000
75.20971 985.17559 949.00000
75.21995 984.57548 1022.00000
75.23019 983.69466 956.00000
75.24043 982.62359 942.00000
75.25068 981.49692 939.00000
75.26092 980.41303 959.00000
75.27116 979.42215 979.00000
75.28140 978.56556 951.00000
75.29164 977.77462 955.00000
75.30188 977.07725 988.00000
75.31213 976.47318 979.00000
75.32237 975.95167 918.00000
75.33261 975.50165 985.00000
75.34285 975.11100 968.00000
75.35309 974.77043 993.00000
75.36333 974.47252 953.00000
75.37357 974.21073 961.00000
75.38382 973.97955 933.00000
75.39406 973.77443 960.00000
75.40430 973.59157 981.00000
75.41454 973.42784 994.00000
75.42478 973.28061 906.00000
75.43502 973.14771 1022.00000
75.44526 973.02729 1014.00000
75.45551 972.91776 992.00000
75.46575 972.81728 966.00000
75.47599 972.72363 969.00000
75.48623 972.63749 1001.00000
75.49647 972.56010 989.00000
75.50671 972.48779 976.00000
75.51695 972.40883 958.00000
75.52720 972.29203 965.00000
75.53744 972.15872 985.00000
75.54768 972.09360 990.00000
75.55792 972.04618 935.00000
75.56816 972.00299 1039.00000
75.57840 971.96299 881.00000
75.58864 971.92597 911.00000
75.59889 971.89157 927.00000
75.60913 971.85896 964.00000
75.61937 971.82673 942.00000
75.62961 971.79728 970.00000
75.63985 971.77198 971.00000
75.65009 971.74908 1008.00000
75.66034 971.72812 947.00000
75.67058 971.70898 1028.00000
75.68082 971.69158 981.00000
75.69106 971.67585 928.00000
75.70130 971.66174 971.00000
75.71154 971.64918 931.00000
75.72178 971.63814 981.00000
75.73203 971.62857 943.00000
75.74227 971.62043 954.00000
75.75251 971.61370 988.00000
75.76275 971.60836 980.00000
75.77299 971.60439 1003.00000
75.78323 971.60177 998.00000
75.79347 971.60050 952.00000
75.80372 971.60057 1053.00000
75.81396 971.60199 943.00000
75.82420 971.60476 1046.00000
75.83444 971.60888 1002.00000
75.84468 971.61430 1042.00000
75.85492 971.62047 964.00000
75.86516 971.62629 921.00000
75.87541 971.63368 1023.00000
75.88565 971.64428 927.00000
75.89589 971.65632 914.00000
75.90613 971.67035 997.00000
75.91637 971.68630 1027.00000
75.92661 971.70396 950.00000
75.93685 971.72337 961.00000
75.94710 971.74457 1033.00000
75.95734 971.76765 968.00000
75.96758 971.79269 945.00000
75.97782 971.81978 954.00000
75.98806 971.84892 914.00000
75.99830 971.87962 952.00000
76.00855 971.91072 904.00000
76.01879 971.94446 955.00000
76.02903 971.98263 1040.00000
76.03927 972.02375 983.00000
76.04951 972.06857 971.00000
76.05975 972.11699 994.00000
76.06999 972.16964 977.00000
76.08024 972.22573 964.00000
76.09048 972.28479 988.00000
76.10072 972.34763 914.00000
76.11096 972.41470 940.00000
76.12120 972.48626 935.00000
76.13144 972.56255 953.00000
76.14168 972.64382 990.00000
76.15193 972.73032 981.00000
76.16217 972.82229 943.00000
76.17241 972.91992 994.00000
76.18265 973.02340 981.00000
76.19289 973.13288 981.00000
76.20313 973.24846 936.00000
76.21337 973.37020 970.00000
76.22362 973.49812 947.00000
76.23386 973.63224 989.00000
76.24410 973.77254 977.00000
76.25434 973.91908 946.00000
76.26458 974.07201 975.00000
76.27482 974.23162 975.00000
76.28506 974.39846 974.00000
76.29531 974.57337 1000.00000
76.30555 974.75756 996.00000
76.31579 974.95267 990.00000
76.32603 975.16078 999.00000
76.33627 975.38443 1001.00000
76.34651 975.62663 940.00000
76.35676 975.89091 940.00000
76.36700 976.18125 955.00000
76.37724 976.50221 977.00000
76.38748 976.85895 947.00000
76.39772 977.25735 955.00000
76.40796 977.70414 956.00000
76.41820 978.20715 957.00000
76.42845 978.77547 1021.00000
76.43869 979.41967 986.00000
76.44893 980.15224 949.00000
76.45917 980.98969 1024.00000
76.46941 981.95065 970.00000
76.47965 983.05725 946.00000
76.48989 984.33678 993.00000
76.50014 985.82243 971.00000
76.51038 987.55423 937.00000
76.52062 989.58007 972.00000
76.53086 991.95732 990.00000
76.54110 994.75234 992.00000
76.55134 998.03557 986.00000
76.56158 1001.87686 965.00000
76.57183 1006.32983 1074.00000
76.58207 1011.40488 1003.00000
76.59231 1017.02665 999.00000
76.60255 1022.97878 1028.00000
76.61279 1028.85467 1010.00000
76.62303 1034.05363 971.00000
76.63327 1037.87428 1078.00000
76.64352 1039.71320 1070.00000
76.65376 1039.29560 1042.00000
76.66400 1036.78461 995.00000
76.67424 1032.70353 1016.00000
76.68448 1027.72954 1010.00000
76.69472 1022.49283 998.00000
76.70497 1017.46579 1015.00000
76.71521 1012.94886 922.00000
76.72545 1009.08972 1064.00000
76.73569 1005.93243 1050.00000
76.74593 1003.47029 1030.00000
76.75617 1001.67268 1059.00000
76.76641 1000.50330 1012.00000
76.77666 999.92884 1018.00000
76.78690 999.92021 978.00000
76.79714 1000.44709 994.00000
76.80738 1001.46576 985.00000
76.81762 1002.90004 953.00000
76.82786 1004.61779 1046.00000
76.83810 1006.41152 1009.00000
76.84835 1007.99918 1020.00000
76.85859 1009.06236 1019.00000
76.86883 1009.32381 1025.00000
76.87907 1008.63551 1001.00000
76.88931 1007.02816 1000.00000
76.89955 1004.68915 1051.00000
76.90979 1001.89306 1071.00000
76.92004 998.91616 1044.00000
76.93028 995.97229 1034.00000
76.94052 993.19534 1007.00000
76.95076 990.68962 1013.00000
76.96100 988.49755 1005.00000
76.97124 986.59413 930.00000
76.98148 984.95089 1004.00000
76.99173 983.53739 966.00000
77.00197 982.32267 929.00000
77.01221 981.27792 980.00000
77.02245 980.37765 984.00000
77.03269 979.59997 926.00000
77.04293 978.92642 1039.00000
77.05318 978.34154 928.00000
77.06342 977.83247 1020.00000
77.07366 977.38857 1030.00000
77.08390 977.00154 1063.00000
77.09414 976.66520 996.00000
77.10438 976.36982 924.00000
77.11462 976.11000 991.00000
77.12487 975.88295 977.00000
77.13511 975.68430 995.00000
77.14535 975.51047 996.00000
77.15559 975.36176 1020.00000
77.16583 975.23401 960.00000
77.17607 975.12532 962.00000
77.18631 975.03393 980.00000
77.19656 974.95857 919.00000
77.20680 974.89831 1018.00000
77.21704 974.85224 954.00000
77.22728 974.81620 995.00000
77.23752 974.76609 940.00000
77.24776 974.66853 972.00000
77.25800 974.65002 1006.00000
77.26825 974.67648 965.00000
77.27849 974.72326 929.00000
77.28873 974.78888 937.00000
77.29897 974.87504 998.00000
77.30921 974.98386 954.00000
77.31945 975.11787 963.00000
77.32969 975.28012 964.00000
77.33994 975.47419 981.00000
77.35018 975.70444 915.00000
77.36042 975.97611 978.00000
77.37066 976.29559 943.00000
77.38090 976.67052 999.00000
77.39114 977.11027 985.00000
77.40139 977.62622 954.00000
77.41163 978.23228 924.00000
77.42187 978.94537 990.00000
77.43211 979.78544 969.00000
77.44235 980.77564 1008.00000
77.45259 981.94340 1051.00000
77.46283 983.31834 1016.00000
77.47308 984.92960 1039.00000
77.48332 986.79999 970.00000
77.49356 988.93529 998.00000
77.50380 991.30729 1051.00000
77.51404 993.83185 1083.00000
77.52428 996.34968 1007.00000
77.53452 998.62063 987.00000
77.54477 1000.35695 1105.00000
77.55501 1001.29857 1003.00000
77.56525 1001.30398 1033.00000
77.57549 1000.40485 1038.00000
77.58573 998.78834 987.00000
77.59597 996.72420 1019.00000
77.60621 994.48631 1013.00000
77.61646 992.28694 1015.00000
77.62670 990.26828 973.00000
77.63694 988.50943 958.00000
77.64718 987.04346 978.00000
77.65742 985.87424 1026.00000
77.66766 984.99345 955.00000
77.67790 984.38656 1024.00000
77.68815 984.03997 935.00000
77.69839 983.94170 968.00000
77.70863 984.07964 1014.00000
77.71887 984.43890 1029.00000
77.72911 984.99448 996.00000
77.73935 985.70239 1002.00000
77.74960 986.49601 1022.00000
77.75984 987.27220 1008.00000
77.77008 987.90096 994.00000
77.78032 988.25124 996.00000
77.79056 988.22526 1033.00000
77.80080 987.78874 988.00000
77.81104 986.97950 946.00000
77.82129 985.89010 987.00000
77.83153 984.63617 962.00000
77.84177 983.32690 955.00000
77.85201 982.04714 976.00000
77.86225 980.85225 962.00000
77.87249 979.77130 967.00000
77.88273 978.81391 1041.00000
77.89298 977.97740 981.00000
77.90322 977.25239 1070.00000
77.91346 976.62667 995.00000
77.92370 976.08756 1032.00000
77.93394 975.62312 970.00000
77.94418 975.22272 945.00000
77.95442 974.87721 951.00000
77.96467 974.57885 991.00000
77.97491 974.32126 1001.00000
77.98515 974.10149 934.00000
77.99539 973.93357 986.00000
78.00563 973.84665 976.00000
78.01587 973.74850 969.00000
78.02611 973.62866 937.00000
78.03636 973.51316 993.00000
78.04660 973.40480 975.00000
78.05684 973.30050 992.00000
78.06708 973.19808 1020.00000
78.07732 973.09677 955.00000
78.08756 972.99739 1007.00000
78.09781 972.90281 970.00000
78.10805 972.81390 995.00000
78.11829 972.73152 961.00000
78.12853 972.65619 981.00000
78.13877 972.58765 965.00000
78.14901 972.52461 924.00000
78.15925 972.46683 1013.00000
78.16950 972.41739 911.00000
78.17974 972.37390 1012.00000
78.18998 972.33533 1021.00000
78.20022 972.30118 956.00000
78.21046 972.27106 1005.00000
78.22070 972.24463 1023.00000
78.23094 972.22158 932.00000
78.24119 972.20166 951.00000
78.25143 972.18467 930.00000
78.26167 972.17042 983.00000
78.27191 972.15874 1025.00000
78.28215 972.14953 930.00000
78.29239 972.14266 969.00000
78.30263 972.13805 1027.00000
78.31288 972.13564 954.00000
78.32312 972.13537 902.00000
78.33336 972.13724 950.00000
78.34360 972.14233 997.00000
78.35384 972.16074 975.00000
78.36408 972.21470 989.00000
78.37433 972.24454 937.00000
78.38457 972.25921 1015.00000
78.39481 972.27363 1015.00000
78.40505 972.28999 938.00000
78.41529 972.30859 893.00000
78.42553 972.32982 971.00000
78.43577 972.35249 933.00000
78.44602 972.37679 986.00000
78.45626 972.40297 1015.00000
78.46650 972.43103 874.00000
78.47674 972.46096 922.00000
78.48698 972.49275 1053.00000
78.49722 972.52640 961.00000
78.50746 972.56197 1000.00000
78.51771 972.59955 962.00000
78.52795 972.63931 972.00000
78.53819 972.68148 958.00000
78.54843 972.72641 960.00000
78.55867 972.77449 976.00000
78.56891 972.82627 892.00000
78.57915 972.88234 947.00000
78.58940 972.94343 923.00000
78.59964 973.01036 1010.00000
78.60988 973.08405 1002.00000
78.62012 973.16557 1027.00000
78.63036 973.25609 958.00000
78.64060 973.35701 976.00000
78.65084 973.47018 997.00000
78.66109 973.59843 944.00000
78.67133 973.74409 978.00000
78.68157 973.90749 969.00000
78.69181 974.09048 957.00000
78.70205 974.29806 930.00000
78.71229 974.53486 966.00000
78.72254 974.80602 1027.00000
78.73278 975.11776 962.00000
78.74302 975.47754 991.00000
78.75326 975.89435 1003.00000
78.76350 976.37886 1034.00000
78.77374 976.94358 959.00000
78.78398 977.60273 1010.00000
78.79423 978.37168 957.00000
78.80447 979.26547 953.00000
78.81471 980.29579 917.00000
78.82495 981.46570 984.00000
78.83519 982.76132 964.00000
78.84543 984.14121 992.00000
78.85567 985.52661 1035.00000
78.86592 986.79824 1007.00000
78.87616 987.80733 1031.00000
78.88640 988.41660 1005.00000
78.89664 988.53981 983.00000
78.90688 988.17393 1010.00000
78.91712 987.39910 1078.00000
78.92736 986.34758 988.00000
78.93761 985.16198 1013.00000
78.94785 983.96355 988.00000
78.95809 982.83847 1011.00000
78.96833 981.83839 924.00000
78.97857 980.98816 1012.00000
78.98881 980.29502 1009.00000
78.99905 979.75639 985.00000
79.00930 979.36533 1003.00000
79.01954 979.11301 936.00000
79.02978 978.98633 1041.00000
79.04002 978.96709 990.00000
79.05026 979.06010 1005.00000
79.06050 979.29344 976.00000
79.07075 979.62476 985.00000
79.08099 980.02741 901.00000
79.09123 980.45622 995.00000
79.10147 980.85356 983.00000
79.11171 981.14713 988.00000
79.12195 981.26978 947.00000
79.13219 981.18099 987.00000
79.14244 980.87660 936.00000
79.15268 980.38911 982.00000
79.16292 979.77465 960.00000
79.17316 979.09543 1014.00000
79.18340 978.40564 976.00000
79.19364 977.74450 1028.00000
79.20388 977.13555 979.00000
79.21413 976.58960 923.00000
79.22437 976.10896 939.00000
79.23461 975.69120 997.00000
79.24485 975.32997 940.00000
79.25509 975.01669 945.00000
79.26533 974.74583 1009.00000
79.27557 974.51144 971.00000
79.28582 974.30788 929.00000
79.29606 974.13138 912.00000
79.30630 973.97796 988.00000
79.31654 973.84402 1000.00000
79.32678 973.72670 971.00000
79.33702 973.62338 962.00000
79.34726 973.52865 978.00000
79.35751 973.41912 1015.00000
79.36775 973.26152 926.00000
79.37799 973.16573 947.00000
79.38823 973.10067 1020.00000
79.39847 973.04964 927.00000
79.40871 973.00597 949.00000
79.41896 972.96585 911.00000
79.42920 972.92822 942.00000
79.43944 972.89700 955.00000
79.44968 972.87044 943.00000
79.45992 972.84720 1000.00000
79.47016 972.82683 981.00000
79.48040 972.80904 978.00000
79.49065 972.79360 968.00000
79.50089 972.78030 964.00000
79.51113 972.76896 992.00000
79.52137 972.75941 976.00000
79.53161 972.75151 933.00000
79.54185 972.74514 967.00000
79.55209 972.74019 971.00000
79.56234 972.73653 1012.00000
79.57258 972.73407 938.00000
79.58282 972.73273 997.00000
79.59306 972.73244 949.00000
79.60330 972.73311 935.00000
79.61354 972.73470 946.00000
79.62378 972.73714 958.00000
79.63403 972.74039 925.00000
79.64427 972.74439 917.00000
79.65451 972.74911 1013.00000
79.66475 972.75451 963.00000
79.67499 972.76054 955.00000
79.68523 972.76719 929.00000
79.69547 972.77441 990.00000
79.70572 972.78202 939.00000
79.71596 972.78917 967.00000
79.72620 972.79466 954.00000
79.73644 972.80288 985.00000
79.74668 972.81230 991.00000
79.75692 972.82244 951.00000
79.76717 972.83309 1000.00000
79.77741 972.84415 992.00000
79.78765 972.85562 998.00000
79.79789 972.86747 976.00000
79.80813 972.87968 958.00000
79.81837 972.89213 992.00000
79.82861 972.90402 968.00000
79.83886 972.91408 940.00000
79.84910 972.92638 978.00000
79.85934 972.93976 976.00000
79.86958 972.95184 941.00000
79.87982 972.96174 934.00000
79.89006 972.97573 1011.00000
79.90030 972.99061 1024.00000
79.91055 973.00612 923.00000
79.92079 973.02197 992.00000
79.93103 973.03810 997.00000
79.94127 973.05452 996.00000
79.95151 973.07122 987.00000
79.96175 973.08820 951.00000
79.97199 973.10544 944.00000
79.98224 973.12296 965.00000
79.99248 973.14075 944.00000
80.00272 973.15881 1036.00000
80.01296 973.17713 984.00000
80.02320 973.19572 983.00000
80.03344 973.21457 957.00000
80.04368 973.23368 989.00000
80.05393 973.25309 976.00000
80.06417 973.27320 942.00000
80.07441 973.29621 961.00000
80.08465 973.33287 959.00000
80.09489 973.42172 989.00000
80.10513 973.57146 992.00000
80.11538 973.68670 941.00000
80.12562 973.72674 995.00000
80.13586 973.75129 975.00000
80.14610 973.77519 1062.00000
80.15634 973.79937 965.00000
80.16658 973.82384 938.00000
80.17682 973.84860 956.00000
80.18707 973.87365 983.00000
80.19731 973.89902 929.00000
80.20755 973.92533 1006.00000
80.21779 973.95903 971.00000
80.22803 974.01588 1016.00000
80.23827 974.05746 967.00000
80.24851 974.08665 1028.00000
80.25876 974.11407 967.00000
80.26900 974.14174 961.00000
80.27924 974.17013 1014.00000
80.28948 974.20029 955.00000
80.29972 974.23123 1019.00000
80.30996 974.26062 945.00000
80.32020 974.28993 982.00000
80.33045 974.31956 978.00000
80.34069 974.34953 1008.00000
80.35093 974.37985 967.00000
80.36117 974.41048 999.00000
80.37141 974.44113 951.00000
80.38165 974.47129 966.00000
80.39189 974.50234 979.00000
80.40214 974.53440 944.00000
80.41238 974.56697 1010.00000
80.42262 974.60017 931.00000
80.43286 974.63640 975.00000
80.44310 974.68296 971.00000
80.45334 974.73536 956.00000
80.46359 974.80424 953.00000
80.47383 974.88253 1012.00000
80.48407 974.95942 951.00000
80.49431 975.02876 1039.00000
80.50455 975.07175 910.00000
80.51479 975.11003 1035.00000
80.52503 975.14852 964.00000
80.53528 975.18752 1046.00000
80.54552 975.22703 941.00000
80.55576 975.26707 966.00000
80.56600 975.30762 986.00000
80.57624 975.34871 989.00000
80.58648 975.39037 970.00000
80.59672 975.43259 997.00000
80.60697 975.47539 1000.00000
80.61721 975.51880 992.00000
80.62745 975.56285 1020.00000
80.63769 975.60766 996.00000
80.64793 975.65352 988.00000
80.65817 975.69989 979.00000
80.66841 975.74987 945.00000
80.67866 975.82510 1000.00000
80.68890 975.96127 942.00000
80.69914 976.04982 913.00000
80.70938 976.10799 933.00000
80.71962 976.16056 956.00000
80.72986 976.21344 1014.00000
80.74010 976.26718 977.00000
80.75035 976.32180 989.00000
80.76059 976.37735 976.00000
80.77083 976.43384 975.00000
80.78107 976.49127 937.00000
80.79131 976.54937 939.00000
80.80155 976.60768 985.00000
80.81180 976.66758 931.00000
80.82204 976.72924 1017.00000
80.83228 976.79220 1000.00000
80.84252 976.85639 944.00000
80.85276 976.92188 941.00000
80.86300 976.98939 937.00000
80.87324 977.06339 983.00000
80.88349 977.15189 1060.00000
80.89373 977.22710 974.00000
80.90397 977.30006 975.00000
80.91421 977.37438 1063.00000
80.92445 977.45040 1010.00000
80.93469 977.52820 958.00000
80.94493 977.60786 968.00000
80.95518 977.68948 1033.00000
80.96542 977.77314 1046.00000
80.97566 977.85896 981.00000
80.98590 977.94703 945.00000
80.99614 978.03746 966.00000
81.00638 978.13039 921.00000
81.01662 978.22594 948.00000
81.02687 978.32425 1007.00000
81.03711 978.42587 986.00000
81.04735 978.53559 998.00000
81.05759 978.67045 983.00000
81.06783 978.82114 975.00000
81.07807 978.94335 997.00000
81.08831 979.06225 984.00000
81.09856 979.18454 1000.00000
81.10880 979.31071 1071.00000
81.11904 979.44087 1005.00000
81.12928 979.57514 980.00000
81.13952 979.71358 1021.00000
81.14976 979.85627 959.00000
81.16001 980.00324 997.00000
81.17025 980.15452 988.00000
81.18049 980.31014 994.00000
81.19073 980.47010 975.00000
81.20097 980.63446 962.00000
81.21121 980.80331 982.00000
81.22145 980.97680 947.00000
81.23170 981.15522 926.00000
81.24194 981.33896 962.00000
81.25218 981.52859 980.00000
81.26242 981.72489 962.00000
81.27266 981.92883 979.00000
81.28290 982.14159 958.00000
81.29314 982.36461 962.00000
81.30339 982.59951 1052.00000
81.31363 982.84817 962.00000
81.32387 983.11270 1014.00000
81.33411 983.39549 1013.00000
81.34435 983.69918 981.00000
81.35459 984.02677 1021.00000
81.36483 984.38164 992.00000
81.37508 984.76764 993.00000
81.38532 985.18920 973.00000
81.39556 985.65146 979.00000
81.40580 986.16041 1022.00000
81.41604 986.72309 1019.00000
81.42628 987.34780 937.00000
81.43652 988.04444 978.00000
81.44677 988.82477 1012.00000
81.45701 989.70286 971.00000
81.46725 990.69531 963.00000
81.47749 991.82191 969.00000
81.48773 993.10731 918.00000
81.49797 994.57926 1007.00000
81.50822 996.26965 991.00000
81.51846 998.21421 977.00000
81.52870 1000.45056 992.00000
81.53894 1003.01415 1019.00000
81.54918 1005.93060 1101.00000
81.55942 1009.20265 1001.00000
81.56966 1012.79069 985.00000
81.57991 1016.58813 1068.00000
81.59015 1020.39863 1002.00000
81.60039 1023.92977 1119.00000
81.61063 1026.82267 1042.00000
81.62087 1028.72712 1054.00000
81.63111 1029.40437 1068.00000
81.64135 1028.81044 1034.00000
81.65160 1027.10618 1059.00000
81.66184 1024.59775 1060.00000
81.67208 1021.63916 1009.00000
81.68232 1018.55000 1042.00000
81.69256 1015.57678 1017.00000
81.70280 1012.87864 989.00000
81.71304 1010.54172 1048.00000
81.72329 1008.60073 1062.00000
81.73353 1007.06026 1059.00000
81.74377 1005.90876 984.00000
81.75401 1005.12817 1024.00000
81.76425 1004.70002 1034.00000
81.77449 1004.60770 1084.00000
81.78473 1004.83628 1007.00000
81.79498 1005.37085 1029.00000
81.80522 1006.18807 950.00000
81.81546 1007.24913 994.00000
81.82570 1008.48937 975.00000
81.83594 1009.80880 990.00000
81.84618 1011.06955 1027.00000
81.85643 1012.10736 1037.00000
81.86667 1012.76058 1019.00000
81.87691 1012.91023 1007.00000
81.88715 1012.51438 1087.00000
81.89739 1011.61881 1015.00000
81.90763 1010.33885 1048.00000
81.91787 1008.82301 990.00000
81.92812 1007.21629 973.00000
81.93836 1005.63576 992.00000
81.94860 1004.16145 993.00000
81.95884 1002.83870 1034.00000
81.96908 1001.68611 957.00000
81.97932 1000.70444 916.00000
81.98956 999.88418 1044.00000
81.99981 999.21086 1089.00000
82.01005 998.66839 1027.00000
82.02029 998.24106 1056.00000
82.03053 997.91445 1038.00000
82.04077 997.67580 956.00000
82.05101 997.51413 991.00000
82.06125 997.42006 1042.00000
82.07150 997.38557 1008.00000
82.08174 997.40371 1032.00000
82.09198 997.46937 955.00000
82.10222 997.57882 958.00000
82.11246 997.72765 979.00000
82.12270 997.91271 989.00000
82.13295 998.13137 1023.00000
82.14319 998.38153 1002.00000
82.15343 998.66148 1022.00000
82.16367 998.96993 1010.00000
82.17391 999.30642 983.00000
82.18415 999.67113 995.00000
82.19439 1000.06017 1007.00000
82.20464 1000.47420 1066.00000
82.21488 1000.91307 1045.00000
82.22512 1001.37780 1019.00000
82.23536 1001.86860 1015.00000
82.24560 1002.38616 984.00000
82.25584 1002.92958 1012.00000
82.26608 1003.49970 983.00000
82.27633 1004.09623 1020.00000
82.28657 1004.71967 1002.00000
82.29681 1005.37148 949.00000
82.30705 1006.05272 1022.00000
82.31729 1006.76442 1005.00000
82.32753 1007.50773 993.00000
82.33777 1008.28391 1007.00000
82.34802 1009.09433 1019.00000
82.35826 1009.94052 973.00000
82.36850 1010.82410 1051.00000
82.37874 1011.74686 1023.00000
82.38898 1012.71072 1046.00000
82.39922 1013.71776 1036.00000
82.40946 1014.77021 1036.00000
82.41971 1015.87049 1032.00000
82.42995 1017.02120 967.00000
82.44019 1018.22511 1072.00000
82.45043 1019.48524 1002.00000
82.46067 1020.80521 985.00000
82.47091 1022.18956 1006.00000
82.48116 1023.64085 1000.00000
82.49140 1025.16222 1039.00000
82.50164 1026.75768 1043.00000
82.51188 1028.43002 1063.00000
82.52212 1030.18516 1095.00000
82.53236 1032.02817 1007.00000
82.54260 1033.96401 1043.00000
82.55285 1035.99786 1013.00000
82.56309 1038.13487 1036.00000
82.57333 1040.38287 1025.00000
82.58357 1042.74445 969.00000
82.59381 1045.22458 1040.00000
82.60405 1047.82795 1117.00000
82.61429 1050.55888 1098.00000
82.62454 1053.42118 1056.00000
82.63478 1056.41801 1099.00000
82.64502 1059.55185 1008.00000
82.65526 1062.82442 1069.00000
82.66550 1066.23651 1091.00000
82.67574 1069.78822 1141.00000
82.68598 1073.48133 1038.00000
82.69623 1077.31689 1110.00000
82.70647 1081.29634 1057.00000
82.71671 1085.42354 1099.00000
82.72695 1089.70547 1152.00000
82.73719 1094.15330 1124.00000
82.74743 1098.78343 1165.00000
82.75767 1103.61850 1091.00000
82.76792 1108.68819 1146.00000
82.77816 1114.02983 1125.00000
82.78840 1119.68874 1108.00000
82.79864 1125.71842 1145.00000
82.80888 1132.18063 1105.00000
82.81912 1139.14554 1082.00000
82.82937 1146.69210 1227.00000
82.83961 1154.90877 1127.00000
82.84985 1163.89425 1162.00000
82.86009 1173.75958 1135.00000
82.87033 1184.62830 1121.00000
82.88057 1196.63990 1154.00000
82.89081 1209.95632 1193.00000
82.90106 1224.76315 1262.00000
82.91130 1241.27536 1264.00000
82.92154 1259.74382 1156.00000
82.93178 1280.46299 1293.00000
82.94202 1303.78014 1270.00000
82.95226 1330.10631 1271.00000
82.96250 1360.03756 1269.00000
82.97275 1394.08843 1276.00000
82.98299 1432.95470 1430.00000
82.99323 1477.46423 1389.00000
83.00347 1528.58924 1473.00000
83.01371 1587.45577 1502.00000
83.02395 1655.33737 1533.00000
83.03419 1733.61706 1669.00000
83.04444 1823.69107 1746.00000
83.05468 1926.77388 1843.00000
83.06492 2043.55078 1979.00000
83.07516 2173.62366 2110.00000
83.08540 2314.73510 2277.00000
83.09564 2461.87258 2509.00000
83.10588 2606.58302 2550.00000
83.11613 2737.09318 2693.00000
83.12637 2839.81877 2739.00000
83.13661 2902.38695 2784.00000
83.14685 2917.23153 2791.00000
83.15709 2884.04768 2710.00000
83.16733 2809.75720 2667.00000
83.17758 2706.09305 2610.00000
83.18782 2586.22079 2398.00000
83.19806 2461.94599 2409.00000
83.20830 2342.26803 2277.00000
83.21854 2233.12767 2127.00000
83.22878 2137.87010 2137.00000
83.23902 2057.96362 1999.00000
83.24927 1993.69463 1948.00000
83.25951 1944.71657 1927.00000
83.26975 1910.42850 1855.00000
83.27999 1890.20522 1858.00000
83.29023 1883.50467 1959.00000
83.30047 1889.87419 1934.00000
83.31071 1908.87667 1914.00000
83.32096 1939.92105 1949.00000
83.33120 1981.99583 2016.00000
83.34144 2033.31600 2065.00000
83.35168 2090.93942 2133.00000
83.36192 2150.21886 2220.00000
83.37216 2205.49716 2172.00000
83.38240 2250.78689 2252.00000
83.39265 2281.14996 2316.00000
83.40289 2294.14456 2357.00000
83.41313 2290.62535 2300.00000
83.42337 2274.49231 2210.00000
83.43361 2251.56159 2202.00000
83.44385 2228.11580 2231.00000
83.45409 2209.65318 2242.00000
83.46434 2200.06118 2281.00000
83.47458 2201.16009 2239.00000
83.48482 2212.45720 2293.00000
83.49506 2230.96763 2292.00000
83.50530 2251.10556 2325.00000
83.51554 2265.76681 2390.00000
83.52579 2267.62826 2504.00000
83.53603 2251.07451 2456.00000
83.54627 2213.86896 2465.00000
83.55651 2157.68255 2374.00000
83.56675 2087.23489 2252.00000
83.57699 2008.63180 2176.00000
83.58723 1927.77772 1990.00000
83.59748 1849.40249 1909.00000
83.60772 1776.74943 1808.00000
83.61796 1711.70444 1782.00000
83.62820 1655.12386 1663.00000
83.63844 1607.18782 1629.00000
83.64868 1567.63231 1531.00000
83.65892 1536.05524 1520.00000
83.66917 1512.02196 1479.00000
83.67941 1495.12074 1500.00000
83.68965 1484.99221 1480.00000
83.69989 1481.31081 1543.00000
83.71013 1483.72230 1524.00000
83.72037 1491.73468 1505.00000
83.73061 1504.56399 1448.00000
83.74086 1520.95746 1586.00000
83.75110 1539.00927 1554.00000
83.76134 1556.13149 1655.00000
83.77158 1569.24431 1715.00000
83.78182 1575.27334 1674.00000
83.79206 1571.86228 1748.00000
83.80230 1558.01895 1634.00000
83.81255 1534.25709 1604.00000
83.82279 1502.68116 1565.00000
83.83303 1466.19199 1515.00000
83.84327 1427.53042 1574.00000
83.85351 1388.97246 1362.00000
83.86375 1352.13773 1346.00000
83.87400 1318.00551 1305.00000
83.88424 1287.00126 1279.00000
83.89448 1259.22449 1253.00000
83.90472 1234.54734 1176.00000
83.91496 1212.72085 1182.00000
83.92520 1193.44741 1183.00000
83.93544 1176.42324 1207.00000
83.94569 1161.36126 1162.00000
83.95593 1148.00111 1135.00000
83.96617 1136.11182 1113.00000
83.97641 1125.49985 1117.00000
83.98665 1115.99114 1134.00000
83.99689 1107.44005 1114.00000
84.00713 1099.72222 1098.00000
84.01738 1092.73168 1087.00000
84.02762 1086.37807 1097.00000
84.03786 1080.58421 1094.00000
84.04810 1075.28405 1077.00000
84.05834 1070.42087 1001.00000
84.06858 1065.94583 1060.00000
84.07882 1061.81675 1115.00000
84.08907 1057.99708 1101.00000
84.09931 1054.45500 1078.00000
84.10955 1051.16274 1044.00000
84.11979 1048.09592 1026.00000
84.13003 1045.23643 1064.00000
84.14027 1042.56519 1047.00000
84.15051 1040.06467 1036.00000
84.16076 1037.71482 1040.00000
84.17100 1035.50432 1072.00000
84.18124 1033.42244 1071.00000
84.19148 1031.45892 1063.00000
84.20172 1029.60444 1003.00000
84.21196 1027.85065 1019.00000
84.22221 1026.18997 1051.00000
84.23245 1024.61559 1079.00000
84.24269 1023.12133 1006.00000
84.25293 1021.70158 1008.00000
84.26317 1020.35123 1045.00000
84.27341 1019.06563 947.00000
84.28365 1017.84053 989.00000
84.29390 1016.67205 1065.00000
84.30414 1015.55663 1009.00000
84.31438 1014.49117 1026.00000
84.32462 1013.47443 1033.00000
84.33486 1012.50947 1016.00000
84.34510 1011.58976 1012.00000
84.35534 1010.69819 997.00000
84.36559 1009.84121 1016.00000
84.37583 1009.01969 1041.00000
84.38607 1008.23177 1020.00000
84.39631 1007.47393 986.00000
84.40655 1006.74545 1023.00000
84.41679 1006.04509 1030.00000
84.42703 1005.37158 1014.00000
84.43728 1004.72421 1012.00000
84.44752 1004.10260 1128.00000
84.45776 1003.50350 1025.00000
84.46800 1002.92720 1016.00000
84.47824 1002.37041 1019.00000
84.48848 1001.83298 986.00000
84.49872 1001.31459 1012.00000
84.50897 1000.81453 995.00000
84.51921 1000.33210 1054.00000
84.52945 999.86655 1010.00000
84.53969 999.41714 1017.00000
84.54993 998.98325 1040.00000
84.56017 998.56427 974.00000
84.57042 998.15968 1031.00000
84.58066 997.76918 958.00000
84.59090 997.39271 1055.00000
84.60114 997.02835 1077.00000
84.61138 996.67622 989.00000
84.62162 996.33607 1045.00000
84.63186 996.00753 1022.00000
84.64211 995.68994 994.00000
84.65235 995.38222 1013.00000
84.66259 995.08477 1020.00000
84.67283 994.79917 927.00000
84.68307 994.52410 1063.00000
84.69331 994.25885 1002.00000
84.70355 994.00304 955.00000
84.71380 993.75657 981.00000
84.72404 993.51926 994.00000
84.73428 993.29094 976.00000
84.74452 993.07146 985.00000
84.75476 992.86065 1004.00000
84.76500 992.65850 1002.00000
84.77524 992.46480 999.00000
84.78549 992.27943 993.00000
84.79573 992.10224 1032.00000
84.80597 991.93219 955.00000
84.81621 991.76127 1067.00000
84.82645 991.56361 1002.00000
84.83669 991.33499 992.00000
84.84693 991.18178 974.00000
84.85718 991.05334 968.00000
84.86742 990.93382 1010.00000
84.87766 990.82216 1022.00000
84.88790 990.71833 994.00000
84.89814 990.62228 1006.00000
84.90838 990.53401 993.00000
84.91863 990.45349 979.00000
84.92887 990.38065 1010.00000
84.93911 990.31547 998.00000
84.94935 990.25793 996.00000
84.95959 990.20805 959.00000
84.96983 990.16583 987.00000
84.98007 990.13108 986.00000
84.99032 990.10349 977.00000
85.00056 990.08460 1007.00000
85.01080 990.07486 978.00000
85.02104 990.07430 984.00000
85.03128 990.08346 1033.00000
85.04152 990.10301 1032.00000
85.05176 990.13379 1000.00000
85.06201 990.17681 998.00000
85.07225 990.23322 978.00000
85.08249 990.30473 1003.00000
85.09273 990.39370 1011.00000
85.10297 990.49844 1000.00000
85.11321 990.62075 1014.00000
85.12345 990.76371 1014.00000
85.13370 990.93122 976.00000
85.14394 991.12448 952.00000
85.15418 991.34580 994.00000
85.16442 991.59818 1012.00000
85.17466 991.88508 929.00000
85.18490 992.21055 975.00000
85.19514 992.57931 989.00000
85.20539 992.99635 1022.00000
85.21563 993.46188 985.00000
85.22587 993.96537 1030.00000
85.23611 994.54331 971.00000
85.24635 995.23301 954.00000
85.25659 996.02602 955.00000
85.26684 996.93308 964.00000
85.27708 997.97236 990.00000
85.28732 999.16492 1029.00000
85.29756 1000.53416 1004.00000
85.30780 1002.10485 976.00000
85.31804 1003.90101 1009.00000
85.32828 1005.94211 1038.00000
85.33853 1008.23665 930.00000
85.34877 1010.77245 1102.00000
85.35901 1013.50381 1044.00000
85.36925 1016.33787 1020.00000
85.37949 1019.12574 1122.00000
85.38973 1021.66783 1138.00000
85.39997 1023.74183 1002.00000
85.41022 1025.15308 1102.00000
85.42046 1025.79137 1038.00000
85.43070 1025.66735 1081.00000
85.44094 1024.90914 1040.00000
85.45118 1023.72276 1055.00000
85.46142 1022.33901 1043.00000
85.47166 1020.96995 1047.00000
85.48191 1019.78593 1021.00000
85.49215 1018.91110 1030.00000
85.50239 1018.43030 1096.00000
85.51263 1018.40025 999.00000
85.52287 1018.86078 1016.00000
85.53311 1019.84367 1057.00000
85.54336 1021.37814 1070.00000
85.55360 1023.49175 1048.00000
85.56384 1026.20778 1100.00000
85.57408 1029.53894 994.00000
85.58432 1033.47160 990.00000
85.59456 1037.94443 1085.00000
85.60480 1042.82155 1042.00000
85.61505 1047.86635 1063.00000
85.62529 1052.72956 1073.00000
85.63553 1056.96994 1044.00000
85.64577 1060.12051 995.00000
85.65601 1061.79182 1051.00000
85.66625 1061.77469 1072.00000
85.67649 1060.09417 1028.00000
85.68674 1056.99003 1076.00000
85.69698 1052.84000 1073.00000
85.70722 1048.06629 1087.00000
85.71746 1043.05976 1040.00000
85.72770 1038.13585 1058.00000
85.73794 1033.52004 1058.00000
85.74818 1029.35394 1014.00000
85.75843 1025.71197 1052.00000
85.76867 1022.62110 1047.00000
85.77891 1020.07878 992.00000
85.78915 1018.06684 1028.00000
85.79939 1016.56098 949.00000
85.80963 1015.53626 999.00000
85.81987 1014.96921 996.00000
85.83012 1014.83699 1009.00000
85.84036 1015.11377 1040.00000
85.85060 1015.76434 1009.00000
85.86084 1016.73503 1013.00000
85.87108 1017.94355 1046.00000
85.88132 1019.27072 1014.00000
85.89157 1020.55997 1115.00000
85.90181 1021.63099 1022.00000
85.91205 1022.30837 988.00000
85.92229 1022.46515 1000.00000
85.93253 1022.05733 979.00000
85.94277 1021.13324 1000.00000
85.95301 1019.82311 993.00000
85.96326 1018.30466 1043.00000
85.97350 1016.70925 983.00000
85.98374 1015.18414 1036.00000
85.99398 1013.78500 1012.00000
86.00422 1012.54274 968.00000
86.01446 1011.44589 1015.00000
86.02470 1010.43648 1011.00000
86.03495 1009.43655 1028.00000
86.04519 1008.37443 1038.00000
86.05543 1007.20695 973.00000
86.06567 1005.93056 1036.00000
86.07591 1004.57772 984.00000
86.08615 1003.20240 977.00000
86.09639 1001.86333 1042.00000
86.10664 1000.61173 1045.00000
86.11688 999.48561 989.00000
86.12712 998.50930 1017.00000
86.13736 997.69593 999.00000
86.14760 997.05085 996.00000
86.15784 996.57485 977.00000
86.16808 996.26678 1026.00000
86.17833 996.12534 979.00000
86.18857 996.15056 1013.00000
86.19881 996.34724 1002.00000
86.20905 996.72626 998.00000
86.21929 997.26894 980.00000
86.22953 997.98553 1036.00000
86.23978 998.83050 1017.00000
86.25002 999.75312 1038.00000
86.26026 1000.77165 1015.00000
86.27050 1001.84442 1067.00000
86.28074 1002.83157 1059.00000
86.29098 1003.60346 1018.00000
86.30122 1004.04518 1078.00000
86.31147 1004.07626 983.00000
86.32171 1003.67245 1077.00000
86.33195 1002.87142 1054.00000
86.34219 1001.75941 1008.00000
86.35243 1000.44643 1007.00000
86.36267 999.04165 978.00000
86.37291 997.63666 1016.00000
86.38316 996.29844 1071.00000
86.39340 995.06976 958.00000
86.40364 993.97353 1015.00000
86.41388 993.01844 938.00000
86.42412 992.20416 976.00000
86.43436 991.52541 994.00000
86.44460 990.97478 1008.00000
86.45485 990.54448 1041.00000
86.46509 990.22720 1033.00000
86.47533 990.01637 1033.00000
86.48557 989.90610 1020.00000
86.49581 989.89037 975.00000
86.50605 989.95667 935.00000
86.51629 990.09495 1045.00000
86.52654 990.28175 1098.00000
86.53678 990.48982 999.00000
86.54702 990.68334 948.00000
86.55726 990.82095 972.00000
86.56750 990.86279 1010.00000
86.57774 990.77938 1021.00000
86.58799 990.55687 964.00000
86.59823 990.20700 1035.00000
86.60847 989.75653 1038.00000
86.61871 989.24663 995.00000
86.62895 988.72843 999.00000
86.63919 988.19590 952.00000
86.64943 987.67126 1030.00000
86.65968 987.16659 962.00000
86.66992 986.67012 1006.00000
86.68016 986.26353 1003.00000
86.69040 985.91859 982.00000
86.70064 985.62614 985.00000
86.71088 985.35286 981.00000
86.72112 985.08114 1026.00000
86.73137 984.80898 1041.00000
86.74161 984.62043 934.00000
86.75185 984.47034 975.00000
86.76209 984.34271 1024.00000
86.77233 984.23419 989.00000
86.78257 984.14268 968.00000
86.79281 984.06642 1028.00000
86.80306 984.00395 1006.00000
86.81330 983.95409 1009.00000
86.82354 983.91589 969.00000
86.83378 983.88865 1031.00000
86.84402 983.87186 939.00000
86.85426 983.86543 1004.00000
86.86450 983.87175 1029.00000
86.87475 983.89784 1041.00000
86.88499 983.93173 988.00000
86.89523 983.96754 1031.00000
86.90547 984.01238 1002.00000
86.91571 984.06838 1007.00000
86.92595 984.13628 983.00000
86.93620 984.21687 982.00000
86.94644 984.31114 1025.00000
86.95668 984.42024 964.00000
86.96692 984.54554 984.00000
86.97716 984.68865 1032.00000
86.98740 984.85152 1004.00000
86.99764 985.03643 943.00000
87.00789 985.24603 996.00000
87.01813 985.48350 930.00000
87.02837 985.75259 973.00000
87.03861 986.05771 983.00000
87.04885 986.40409 1022.00000
87.05909 986.79784 988.00000
87.06933 987.24613 947.00000
87.07958 987.75723 993.00000
87.08982 988.34057 1031.00000
87.10006 989.00662 961.00000
87.11030 989.76628 953.00000
87.12054 990.62926 950.00000
87.13078 991.59907 976.00000
87.14102 992.66432 1030.00000
87.15127 993.85421 942.00000
87.16151 995.17456 965.00000
87.17175 996.57241 1034.00000
87.18199 997.98226 1004.00000
87.19223 999.31805 1046.00000
87.20247 1000.46584 992.00000
87.21271 1001.30726 1003.00000
87.22296 1001.75699 1071.00000
87.23320 1001.77704 997.00000
87.24344 1001.39026 1002.00000
87.25368 1000.67110 1033.00000
87.26392 999.72275 1042.00000
87.27416 998.65241 1053.00000
87.28441 997.55338 1015.00000
87.29465 996.49664 999.00000
87.30489 995.53002 961.00000
87.31513 994.68167 1024.00000
87.32537 993.96515 1002.00000
87.33561 993.38440 1014.00000
87.34585 992.93792 974.00000
87.35610 992.62279 967.00000
87.36634 992.43948 993.00000
87.37658 992.38373 1023.00000
87.38682 992.43253 1009.00000
87.39706 992.59158 994.00000
87.40730 992.85914 954.00000
87.41754 993.23125 1011.00000
87.42779 993.70177 1029.00000
87.43803 994.25454 998.00000
87.44827 994.86582 908.00000
87.45851 995.50196 1018.00000
87.46875 996.11970 1015.00000
87.47899 996.67066 973.00000
87.48923 997.10981 966.00000
87.49948 997.40613 1001.00000
87.50972 997.55147 995.00000
87.51996 997.56346 993.00000
87.53020 997.47947 1002.00000
87.54044 997.35416 967.00000
87.55068 997.24294 1032.00000
87.56092 997.19378 978.00000
87.57117 997.24620 1092.00000
87.58141 997.43124 1019.00000
87.59165 997.77335 995.00000
87.60189 998.29276 1034.00000
87.61213 999.00767 1055.00000
87.62237 999.93578 1025.00000
87.63262 1001.09485 1030.00000
87.64286 1002.50177 988.00000
87.65310 1004.16957 1063.00000
87.66334 1006.10431 1037.00000
87.67358 1008.29427 1020.00000
87.68382 1010.70301 1000.00000
87.69406 1013.25505 1009.00000
87.70431 1015.82465 1017.00000
87.71455 1018.23312 1021.00000
87.72479 1020.26245 1043.00000
87.73503 1021.68006 1081.00000
87.74527 1022.31181 1202.00000
87.75551 1022.09924 1092.00000
87.76575 1021.09564 1125.00000
87.77600 1019.45169 1046.00000
87.78624 1017.37129 1119.00000
87.79648 1015.06457 1033.00000
87.80672 1012.71195 1009.00000
87.81696 1010.44904 1002.00000
87.82720 1008.36725 1072.00000
87.83744 1006.51881 967.00000
87.84769 1004.92849 1022.00000
87.85793 1003.60197 996.00000
87.86817 1002.53248 1080.00000
87.87841 1001.71096 985.00000
87.88865 1001.12631 1065.00000
87.89889 1000.76778 980.00000
87.90913 1000.62596 1025.00000
87.91938 1000.69247 1045.00000
87.92962 1000.95853 1030.00000
87.93986 1001.41235 1024.00000
87.95010 1002.03537 1028.00000
87.96034 1002.79741 1002.00000
87.97058 1003.65149 1014.00000
87.98083 1004.53021 956.00000
87.99107 1005.34632 1030.00000
88.00131 1006.00043 1018.00000
88.01155 1006.39672 1001.00000
88.02179 1006.46322 1025.00000
88.03203 1006.16927 999.00000
88.04227 1005.53250 1084.00000
88.05252 1004.61221 1034.00000
88.06276 1003.49274 1055.00000
88.07300 1002.26417 1019.00000
88.08324 1001.00688 1020.00000
88.09348 999.78441 976.00000
88.10372 998.64036 1016.00000
88.11396 997.59784 1008.00000
88.12421 996.66535 1020.00000
88.13445 995.84355 972.00000
88.14469 995.12718 1013.00000
88.15493 994.50803 1036.00000
88.16517 993.97669 1029.00000
88.17541 993.52369 981.00000
88.18565 993.14012 950.00000
88.19590 992.81801 1056.00000
88.20614 992.54998 1008.00000
88.21638 992.32916 1017.00000
88.22662 992.15035 996.00000
88.23686 992.00892 995.00000
88.24710 991.90083 1000.00000
88.25734 991.82262 1049.00000
88.26759 991.77136 1020.00000
88.27783 991.74453 1004.00000
88.28807 991.74001 1015.00000
88.29831 991.75600 1014.00000
88.30855 991.79094 1058.00000
88.31879 991.84356 947.00000
88.32904 991.91274 972.00000
88.33928 991.99757 1011.00000
88.34952 992.09728 1065.00000
88.35976 992.21125 1027.00000
88.37000 992.33894 1033.00000
88.38024 992.47995 992.00000
88.39048 992.63397 974.00000
88.40073 992.80076 946.00000
88.41097 992.98020 971.00000
88.42121 993.17214 947.00000
88.43145 993.37671 944.00000
88.44169 993.59369 995.00000
88.45193 993.82314 1000.00000
88.46217 994.06530 1023.00000
88.47242 994.32037 994.00000
88.48266 994.58865 965.00000
88.49290 994.87037 1026.00000
88.50314 995.16585 1048.00000
88.51338 995.47549 967.00000
88.52362 995.79970 1006.00000
88.53386 996.13898 978.00000
88.54411 996.49385 1114.00000
88.55435 996.86489 966.00000
88.56459 997.25274 1005.00000
88.57483 997.65808 997.00000
88.58507 998.08165 983.00000
88.59531 998.52424 998.00000
88.60555 998.98671 1004.00000
88.61580 999.46996 994.00000
88.62604 999.97494 931.00000
88.63628 1000.50239 983.00000
88.64652 1001.05271 991.00000
88.65676 1001.62839 972.00000
88.66700 1002.23116 989.00000
88.67725 1002.86158 1007.00000
88.68749 1003.52081 974.00000
88.69773 1004.21016 998.00000
88.70797 1004.93103 979.00000
88.71821 1005.68481 933.00000
88.72845 1006.47290 1038.00000
88.73869 1007.29669 1039.00000
88.74894 1008.15751 1016.00000
88.75918 1009.05610 1007.00000
88.76942 1009.98857 1026.00000
88.77966 1010.93162 1052.00000
88.78990 1011.85632 1001.00000
88.80014 1012.89981 1023.00000
88.81038 1014.00615 989.00000
88.82063 1015.15743 1041.00000
88.83087 1016.35295 989.00000
88.84111 1017.59305 1102.00000
88.85135 1018.87812 1027.00000
88.86159 1020.20870 1010.00000
88.87183 1021.58570 1025.00000
88.88207 1023.01171 1047.00000
88.89232 1024.49204 1039.00000
88.90256 1026.02160 1077.00000
88.91280 1027.60459 1006.00000
88.92304 1029.24981 1061.00000
88.93328 1030.96414 1086.00000
88.94352 1032.75609 979.00000
88.95376 1034.63602 1028.00000
88.96401 1036.61613 1023.00000
88.97425 1038.71047 1040.00000
88.98449 1040.93490 1080.00000
88.99473 1043.30715 999.00000
89.00497 1045.84684 1088.00000
89.01521 1048.57545 1060.00000
89.02546 1051.51651 1083.00000
89.03570 1054.69652 1084.00000
89.04594 1058.14510 1005.00000
89.05618 1061.89400 1038.00000
89.06642 1065.97912 1014.00000
89.07666 1070.44100 1080.00000
89.08690 1075.32566 1036.00000
89.09715 1080.68567 1015.00000
89.10739 1086.58145 1063.00000
89.11763 1093.08281 1075.00000
89.12787 1100.27055 1108.00000
89.13811 1108.23858 1165.00000
89.14835 1117.09879 1109.00000
89.15859 1126.98123 1132.00000
89.16884 1138.03696 1181.00000
89.17908 1150.44342 1110.00000
89.18932 1164.40775 1215.00000
89.19956 1180.16998 1192.00000
89.20980 1198.00340 1158.00000
89.22004 1218.20453 1203.00000
89.23028 1241.10438 1279.00000
89.24053 1267.13288 1236.00000
89.25077 1296.61556 1265.00000
89.26101 1329.84696 1368.00000
89.27125 1367.00019 1252.00000
89.28149 1408.00242 1337.00000
89.29173 1452.37375 1383.00000
89.30198 1499.03745 1481.00000
89.31222 1546.15100 1438.00000
89.32246 1591.04762 1455.00000
89.33270 1630.37071 1519.00000
89.34294 1660.62115 1524.00000
89.35318 1678.88654 1493.00000
89.36342 1683.60386 1515.00000
89.37367 1675.00330 1523.00000
89.38391 1655.01271 1557.00000
89.39415 1626.69078 1523.00000
89.40439 1593.48690 1511.00000
89.41463 1558.61252 1559.00000
89.42487 1524.67667 1414.00000
89.43511 1493.58016 1398.00000
89.44536 1466.57408 1419.00000
89.45560 1444.39815 1443.00000
89.46584 1427.43588 1392.00000
89.47608 1415.85174 1394.00000
89.48632 1409.69599 1384.00000
89.49656 1408.97453 1379.00000
89.50680 1413.68574 1404.00000
89.51705 1423.82614 1504.00000
89.52729 1439.36474 1457.00000
89.53753 1460.18327 1500.00000
89.54777 1485.97897 1553.00000
89.55801 1516.13123 1558.00000
89.56825 1549.54795 1645.00000
89.57849 1584.53615 1740.00000
89.58874 1618.74825 1646.00000
89.59898 1649.31132 1722.00000
89.60922 1673.16975 1826.00000
89.61946 1687.60754 1695.00000
89.62970 1690.80054 1736.00000
89.63994 1682.19657 1674.00000
89.65019 1662.59389 1701.00000
89.66043 1633.89823 1625.00000
89.67067 1598.67858 1568.00000
89.68091 1559.67985 1510.00000
89.69115 1519.42318 1509.00000
89.70139 1479.95940 1408.00000
89.71163 1442.77862 1338.00000
89.72188 1408.83839 1387.00000
89.73212 1378.65978 1378.00000
89.74236 1352.44587 1394.00000
89.75260 1330.19286 1298.00000
89.76284 1311.77981 1306.00000
89.77308 1297.02947 1333.00000
89.78332 1285.74989 1321.00000
89.79357 1277.75330 1309.00000
89.80381 1272.85879 1353.00000
89.81405 1270.88038 1265.00000
89.82429 1271.60232 1310.00000
89.83453 1274.73891 1295.00000
89.84477 1279.88807 1340.00000
89.85501 1286.48577 1433.00000
89.86526 1293.78009 1371.00000
89.87550 1300.84998 1337.00000
89.88574 1306.68993 1430.00000
89.89598 1310.36041 1433.00000
89.90622 1311.17018 1409.00000
89.91646 1308.82874 1365.00000
89.92670 1303.50974 1402.00000
89.93695 1295.80168 1359.00000
89.94719 1286.56959 1386.00000
89.95743 1276.78302 1407.00000
89.96767 1267.36616 1314.00000
89.97791 1259.10351 1315.00000
89.98815 1252.60540 1300.00000
89.99840 1248.31752 1333.00000
90.00864 1246.55262 1328.00000
90.01888 1247.52543 1362.00000
90.02912 1251.37805 1308.00000
90.03936 1258.18817 1343.00000
90.04960 1267.95487 1340.00000
90.05984 1280.55904 1373.00000
90.07009 1295.69777 1398.00000
90.08033 1312.79994 1342.00000
90.09057 1330.94382 1402.00000
90.10081 1348.81834 1395.00000
90.11105 1364.77962 1412.00000
90.12129 1377.05023 1503.00000
90.13153 1384.05002 1494.00000
90.14178 1384.76224 1459.00000
90.15202 1378.98361 1380.00000
90.16226 1367.34010 1526.00000
90.17250 1351.06997 1464.00000
90.18274 1331.68418 1451.00000
90.19298 1310.65627 1360.00000
90.20322 1289.22569 1396.00000
90.21347 1268.32888 1347.00000
90.22371 1248.61713 1356.00000
90.23395 1230.51273 1355.00000
90.24419 1214.26961 1252.00000
90.25443 1200.02344 1178.00000
90.26467 1187.82910 1269.00000
90.27491 1177.68836 1235.00000
90.28516 1169.57056 1264.00000
90.29540 1163.42788 1257.00000
90.30564 1159.20443 1220.00000
90.31588 1156.83992 1222.00000
90.32612 1156.26540 1230.00000
90.33636 1157.39060 1186.00000
90.34661 1160.08181 1152.00000
90.35685 1164.13084 1248.00000
90.36709 1169.21870 1103.00000
90.37733 1174.88143 1233.00000
90.38757 1180.49543 1285.00000
90.39781 1185.30832 1262.00000
90.40805 1188.51677 1231.00000
90.41830 1189.40644 1242.00000
90.42854 1187.49881 1288.00000
90.43878 1182.66089 1269.00000
90.44902 1175.12667 1212.00000
90.45926 1165.42339 1202.00000
90.46950 1154.23719 1240.00000
90.47974 1142.27339 1224.00000
90.48999 1130.15039 1160.00000
90.50023 1118.35164 1195.00000
90.51047 1107.19422 1196.00000
90.52071 1096.85822 1118.00000
90.53095 1087.42043 1178.00000
90.54119 1078.88617 1120.00000
90.55143 1071.21601 1054.00000
90.56168 1064.34576 1103.00000
90.57192 1058.20176 1066.00000
90.58216 1052.70728 1014.00000
90.59240 1047.78826 1035.00000
90.60264 1043.37652 1084.00000
90.61288 1039.41074 1031.00000
90.62312 1035.83682 988.00000
90.63337 1032.60780 1030.00000
90.64361 1029.68105 1074.00000
90.65385 1027.02068 1051.00000
90.66409 1024.59479 1041.00000
90.67433 1022.37585 1006.00000
90.68457 1020.34107 1081.00000
90.69482 1018.47023 974.00000
90.70506 1016.74563 998.00000
90.71530 1015.15185 1044.00000
90.72554 1013.67552 996.00000
90.73578 1012.30508 1041.00000
90.74602 1011.02988 1071.00000
90.75626 1009.84083 994.00000
90.76651 1008.72976 1021.00000
90.77675 1007.68937 1010.00000
90.78699 1006.71362 1059.00000
90.79723 1005.79695 1007.00000
90.80747 1004.93439 1061.00000
90.81771 1004.12147 1040.00000
90.82795 1003.35420 1007.00000
90.83820 1002.62898 1014.00000
90.84844 1001.94263 1003.00000
90.85868 1001.29235 999.00000
90.86892 1000.67558 997.00000
90.87916 1000.08936 1000.00000
90.88940 999.53177 952.00000
90.89964 999.00091 954.00000
90.90989 998.49500 1000.00000
90.92013 998.01238 1018.00000
90.93037 997.55156 1040.00000
90.94061 997.11115 1012.00000
90.95085 996.68988 1014.00000
90.96109 996.28661 1003.00000
90.97133 995.90030 1016.00000
90.98158 995.53010 1014.00000
90.99182 995.17483 1009.00000
91.00206 994.83380 1016.00000
91.01230 994.50602 979.00000
91.02254 994.19078 984.00000
91.03278 993.88750 1034.00000
91.04303 993.59554 997.00000
91.05327 993.31426 951.00000
91.06351 993.04285 1035.00000
91.07375 992.78073 1028.00000
91.08399 992.52899 1032.00000
91.09423 992.28760 1018.00000
91.10447 992.05314 1027.00000
91.11472 991.82552 1035.00000
91.12496 991.60423 1035.00000
91.13520 991.39178 937.00000
91.14544 991.18661 938.00000
91.15568 990.98809 977.00000
91.16592 990.79590 956.00000
91.17616 990.60976 966.00000
91.18641 990.42943 938.00000
91.19665 990.25464 966.00000
91.20689 990.08458 1011.00000
91.21713 989.91294 949.00000
91.22737 989.72440 1004.00000
91.23761 989.55424 1087.00000
91.24785 989.40212 1011.00000
91.25810 989.25669 1020.00000
91.26834 989.11553 957.00000
91.27858 988.97807 993.00000
91.28882 988.84351 998.00000
91.29906 988.71295 994.00000
91.30930 988.58675 942.00000
91.31954 988.46210 969.00000
91.32979 988.32396 1028.00000
91.34003 988.14218 979.00000
91.35027 987.97240 939.00000
91.36051 987.85315 1029.00000
91.37075 987.74218 966.00000
91.38099 987.63799 986.00000
91.39124 987.53710 1032.00000
91.40148 987.43884 967.00000
91.41172 987.34312 943.00000
91.42196 987.24986 1012.00000
91.43220 987.15898 992.00000
91.44244 987.07041 975.00000
91.45268 986.98421 1004.00000
91.46293 986.90056 944.00000
91.47317 986.81854 943.00000
91.48341 986.73606 1002.00000
91.49365 986.64694 989.00000
91.50389 986.55890 1049.00000
91.51413 986.48262 970.00000
91.52437 986.41026 979.00000
91.53462 986.33971 923.00000
91.54486 986.27029 976.00000
91.55510 986.20077 1086.00000
91.56534 986.13353 1003.00000
91.57558 986.06929 996.00000
91.58582 986.00686 930.00000
91.59606 985.94591 939.00000
91.60631 985.88615 943.00000
91.61655 985.82677 975.00000
91.62679 985.76867 930.00000
91.63703 985.71307 962.00000
91.64727 985.65923 922.00000
91.65751 985.60740 937.00000
91.66775 985.55612 920.00000
91.67800 985.50577 982.00000
91.68824 985.45655 947.00000
91.69848 985.40852 997.00000
91.70872 985.36176 1003.00000
91.71896 985.31602 940.00000
91.72920 985.27122 933.00000
91.73945 985.22743 984.00000
91.74969 985.18467 959.00000
91.75993 985.14313 989.00000
91.77017 985.10309 986.00000
91.78041 985.05976 983.00000
91.79065 984.99676 1004.00000
91.80089 984.91586 988.00000
91.81114 984.86999 991.00000
91.82138 984.82956 969.00000
91.83162 984.79372 966.00000
91.84186 984.75927 967.00000
91.85210 984.72564 956.00000
91.86234 984.69279 973.00000
91.87258 984.66069 980.00000
91.88283 984.62937 1015.00000
91.89307 984.59879 1004.00000
91.90331 984.56893 949.00000
91.91355 984.53978 1009.00000
91.92379 984.51132 984.00000
91.93403 984.48355 953.00000
91.94427 984.45651 970.00000
91.95452 984.43041 1012.00000
91.96476 984.40560 991.00000
91.97500 984.38086 1016.00000
91.98524 984.35699 965.00000
91.99548 984.33283 1043.00000
92.00572 984.30942 985.00000
92.01596 984.28626 926.00000
92.02621 984.25945 946.00000
92.03645 984.22054 1005.00000
92.04669 984.19440 1045.00000
92.05693 984.17350 976.00000
92.06717 984.15373 1007.00000
92.07741 984.13452 947.00000
92.08766 984.11582 948.00000
92.09790 984.09763 1033.00000
92.10814 984.07994 1022.00000
92.11838 984.06274 1005.00000
92.12862 984.04602 979.00000
92.13886 984.02977 923.00000
92.14910 984.01400 974.00000
92.15935 983.99869 957.00000
92.16959 983.98383 915.00000
92.17983 983.96943 941.00000
92.19007 983.95546 939.00000
92.20031 983.94193 950.00000
92.21055 983.92884 913.00000
92.22079 983.91616 973.00000
92.23104 983.90391 944.00000
92.24128 983.89207 913.00000
92.25152 983.88064 985.00000
92.26176 983.86954 907.00000
92.27200 983.85855 991.00000
92.28224 983.84770 993.00000
92.29248 983.83774 981.00000
92.30273 983.82829 999.00000
92.31297 983.81923 964.00000
92.32321 983.81054 1001.00000
92.33345 983.80223 982.00000
92.34369 983.79430 958.00000
92.35393 983.78673 922.00000
92.36417 983.77953 969.00000
92.37442 983.77269 941.00000
92.38466 983.76622 1009.00000
92.39490 983.76010 955.00000
92.40514 983.75433 1004.00000
92.41538 983.74892 982.00000
92.42562 983.74386 967.00000
92.43587 983.73915 980.00000
92.44611 983.73478 947.00000
92.45635 983.73078 977.00000
92.46659 983.72716 1059.00000
92.47683 983.72386 964.00000
92.48707 983.72087 974.00000
92.49731 983.71823 963.00000
92.50756 983.71592 956.00000
92.51780 983.71394 991.00000
92.52804 983.71231 1000.00000
92.53828 983.71102 954.00000
92.54852 983.71007 960.00000
92.55876 983.70945 968.00000
92.56900 983.70918 945.00000
92.57925 983.70924 970.00000
92.58949 983.70964 960.00000
92.59973 983.71039 984.00000
92.60997 983.71148 1033.00000
92.62021 983.71291 990.00000
92.63045 983.71469 967.00000
92.64069 983.71681 983.00000
92.65094 983.71929 935.00000
92.66118 983.72211 987.00000
92.67142 983.72529 1007.00000
92.68166 983.72885 1013.00000
92.69190 983.73294 978.00000
92.70214 983.73795 997.00000
92.71238 983.74312 967.00000
92.72263 983.74824 935.00000
92.73287 983.75363 975.00000
92.74311 983.75940 994.00000
92.75335 983.76555 927.00000
92.76359 983.77210 998.00000
92.77383 983.77904 993.00000
92.78408 983.78638 956.00000
92.79432 983.79411 1073.00000
92.80456 983.80165 956.00000
92.81480 983.80296 1009.00000
92.82504 983.78298 963.00000
92.83528 983.77666 972.00000
92.84552 983.78439 963.00000
92.85577 983.79494 953.00000
92.86601 983.80608 1026.00000
92.87625 983.81770 993.00000
92.88649 983.82980 968.00000
92.89673 983.84239 921.00000
92.90697 983.85550 937.00000
92.91721 983.86912 960.00000
92.92746 983.88329 984.00000
92.93770 983.89800 966.00000
92.94794 983.91327 943.00000
92.95818 983.92913 979.00000
92.96842 983.94565 980.00000
92.97866 983.96359 975.00000
92.98890 983.98604 995.00000
92.99915 984.01223 990.00000
93.00939 984.03302 985.00000
93.01963 984.05294 921.00000
93.02987 984.07346 986.00000
93.04011 984.09473 1003.00000
93.05035 984.11678 979.00000
93.06060 984.13964 999.00000
93.07084 984.16332 941.00000
93.08108 984.18756 985.00000
93.09132 984.20932 952.00000
93.10156 984.22106 1027.00000
93.11180 984.24039 949.00000
93.12204 984.26762 999.00000
93.13229 984.29711 1023.00000
93.14253 984.32774 981.00000
93.15277 984.35949 916.00000
93.16301 984.39240 988.00000
93.17325 984.42651 944.00000
93.18349 984.46186 940.00000
93.19373 984.49850 991.00000
93.20398 984.53647 964.00000
93.21422 984.57581 990.00000
93.22446 984.61656 1036.00000
93.23470 984.65878 917.00000
93.24494 984.70250 1029.00000
93.25518 984.74778 1005.00000
93.26542 984.79465 925.00000
93.27567 984.84304 947.00000
93.28591 984.89270 961.00000
93.29615 984.94400 1027.00000
93.30639 984.99771 939.00000
93.31663 985.05286 975.00000
93.32687 985.10337 989.00000
93.33711 985.13416 975.00000
93.34736 985.18040 1026.00000
93.35760 985.24270 944.00000
93.36784 985.30992 997.00000
93.37808 985.37995 946.00000
93.38832 985.45287 991.00000
93.39856 985.52886 938.00000
93.40881 985.60806 979.00000
93.41905 985.69009 982.00000
93.42929 985.77431 1012.00000
93.43953 985.86488 1059.00000
93.44977 985.96439 989.00000
93.46001 986.08190 968.00000
93.47025 986.19394 976.00000
93.48050 986.30514 1027.00000
93.49074 986.42104 971.00000
93.50098 986.54299 973.00000
93.51122 986.67151 979.00000
93.52146 986.80713 943.00000
93.53170 986.95043 977.00000
93.54194 987.10212 1024.00000
93.55219 987.26300 903.00000
93.56243 987.43401 969.00000
93.57267 987.61625 959.00000
93.58291 987.81103 920.00000
93.59315 988.01964 1029.00000
93.60339 988.24167 971.00000
93.61363 988.47272 983.00000
93.62388 988.72394 966.00000
93.63412 989.00747 1040.00000
93.64436 989.31576 959.00000
93.65460 989.64298 1005.00000
93.66484 990.01043 979.00000
93.67508 990.42283 959.00000
93.68532 990.87926 999.00000
93.69557 991.38343 990.00000
93.70581 991.94003 987.00000
93.71605 992.55320 1020.00000
93.72629 993.22569 1019.00000
93.73653 993.95766 991.00000
93.74677 994.74521 966.00000
93.75702 995.57857 977.00000
93.76726 996.44050 912.00000
93.77750 997.30552 987.00000
93.78774 998.14104 987.00000
93.79798 998.91124 1000.00000
93.80822 999.58359 1018.00000
93.81846 1000.13668 1070.00000
93.82871 1000.56642 970.00000
93.83895 1000.88811 1021.00000
93.84919 1001.13341 1016.00000
93.85943 1001.34373 1001.00000
93.86967 1001.56562 941.00000
93.87991 1001.84361 966.00000
93.89015 1002.21508 1029.00000
93.90040 1002.71219 1007.00000
93.91064 1003.36188 974.00000
93.92088 1004.18671 963.00000
93.93112 1005.20539 978.00000
93.94136 1006.43275 1048.00000
93.95160 1007.88468 1021.00000
93.96184 1009.57036 1027.00000
93.97209 1011.48739 1023.00000
93.98233 1013.62102 1062.00000
93.99257 1015.93656 1033.00000
94.00281 1018.37224 1026.00000
94.01305 1020.83403 1019.00000
94.02329 1023.19587 990.00000
94.03353 1025.30905 1009.00000
94.04378 1027.02256 1060.00000
94.05402 1028.21129 1088.00000
94.06426 1028.80322 1053.00000
94.07450 1028.79490 1051.00000
94.08474 1028.24867 1045.00000
94.09498 1027.27402 1005.00000
94.10523 1026.00208 1011.00000
94.11547 1024.56336 1009.00000
94.12571 1023.07388 953.00000
94.13595 1021.62993 1030.00000
94.14619 1020.30835 1006.00000
94.15643 1019.16885 1032.00000
94.16667 1018.25397 1043.00000
94.17692 1017.59079 1027.00000
94.18716 1017.23528 1062.00000
94.19740 1017.19768 1013.00000
94.20764 1017.49139 1018.00000
94.21788 1018.12904 1057.00000
94.22812 1019.12335 1055.00000
94.23836 1020.48292 1038.00000
94.24861 1022.20702 1056.00000
94.25885 1024.28508 1049.00000
94.26909 1026.68882 1081.00000
94.27933 1029.36430 1047.00000
94.28957 1032.22375 1005.00000
94.29981 1035.14044 1080.00000
94.31005 1037.95058 1037.00000
94.32030 1040.46602 1016.00000
94.33054 1042.49869 1056.00000
94.34078 1043.89232 1064.00000
94.35102 1044.55197 1041.00000
94.36126 1044.46081 1093.00000
94.37150 1043.67829 1059.00000
94.38174 1042.32131 1074.00000
94.39199 1040.53388 1087.00000
94.40223 1038.46232 1097.00000
94.41247 1036.22906 1073.00000
94.42271 1033.92488 1078.00000
94.43295 1031.60671 1080.00000
94.44319 1029.30623 1024.00000
94.45344 1027.04300 1052.00000
94.46368 1024.83643 1099.00000
94.47392 1022.71262 1053.00000
94.48416 1020.70496 1035.00000
94.49440 1018.85052 1084.00000
94.50464 1017.18510 1018.00000
94.51488 1015.73589 1048.00000
94.52513 1014.52571 1068.00000
94.53537 1013.56543 1038.00000
94.54561 1012.86072 1050.00000
94.55585 1012.40920 1062.00000
94.56609 1012.20044 1004.00000
94.57633 1012.21534 1061.00000
94.58657 1012.42451 1043.00000
94.59682 1012.78649 1045.00000
94.60706 1013.24612 1021.00000
94.61730 1013.73778 1002.00000
94.62754 1014.19020 973.00000
94.63778 1014.53507 1034.00000
94.64802 1014.71698 949.00000
94.65826 1014.70132 1025.00000
94.66851 1014.47690 1057.00000
94.67875 1014.05335 1030.00000
94.68899 1013.45329 1034.00000
94.69923 1012.70290 1065.00000
94.70947 1011.82883 1017.00000
94.71971 1010.85486 1040.00000
94.72995 1009.80015 1025.00000
94.74020 1008.68028 1060.00000
94.75044 1007.50866 1009.00000
94.76068 1006.29844 1015.00000
94.77092 1005.06442 1061.00000
94.78116 1003.82402 1015.00000
94.79140 1002.59680 1024.00000
94.80165 1001.40287 1020.00000
94.81189 1000.26072 1020.00000
94.82213 999.18546 995.00000
94.83237 998.18782 1027.00000
94.84261 997.27401 1026.00000
94.85285 996.44627 1015.00000
94.86309 995.70379 982.00000
94.87334 995.04359 954.00000
94.88358 994.46163 954.00000
94.89382 993.95291 933.00000
94.90406 993.51221 944.00000
94.91430 993.13442 963.00000
94.92454 992.81446 1020.00000
94.93478 992.54709 977.00000
94.94503 992.32662 998.00000
94.95527 992.14651 1024.00000
94.96551 991.99888 1005.00000
94.97575 991.87437 978.00000
94.98599 991.76341 985.00000
94.99623 991.65405 984.00000
95.00647 991.53515 985.00000
95.01672 991.39730 923.00000
95.02696 991.23433 949.00000
95.03720 991.04422 1010.00000
95.04744 990.82914 947.00000
95.05768 990.59458 985.00000
95.06792 990.34795 949.00000
95.07816 990.09717 1012.00000
95.08841 989.84947 971.00000
95.09865 989.61067 970.00000
95.10889 989.38493 1034.00000
95.11913 989.17484 989.00000
95.12937 988.98166 1007.00000
95.13961 988.80567 1025.00000
95.14986 988.64668 1007.00000
95.16010 988.50436 1025.00000
95.17034 988.37621 971.00000
95.18058 988.26149 1005.00000
95.19082 988.15928 958.00000
95.20106 988.06851 991.00000
95.21130 987.98814 983.00000
95.22155 987.91725 1016.00000
95.23179 987.85504 974.00000
95.24203 987.80077 974.00000
95.25227 987.75378 997.00000
95.26251 987.71360 976.00000
95.27275 987.68002 977.00000
95.28299 987.65341 1017.00000
95.29324 987.63178 970.00000
95.30348 987.61520 944.00000
95.31372 987.60400 888.00000
95.32396 987.59819 930.00000
95.33420 987.59780 976.00000
95.34444 987.60292 1012.00000
95.35468 987.61368 992.00000
95.36493 987.63028 1009.00000
95.37517 987.65297 1013.00000
95.38541 987.68207 982.00000
95.39565 987.71793 1002.00000
95.40589 987.76100 1002.00000
95.41613 987.81176 969.00000
95.42637 987.87079 996.00000
95.43662 987.93874 1091.00000
95.44686 988.01637 992.00000
95.45710 988.10453 955.00000
95.46734 988.20422 1003.00000
95.47758 988.31655 1007.00000
95.48782 988.44284 968.00000
95.49807 988.58458 974.00000
95.50831 988.74348 998.00000
95.51855 988.92154 950.00000
95.52879 989.12105 1004.00000
95.53903 989.34464 1019.00000
95.54927 989.59535 924.00000
95.55951 989.87670 965.00000
95.56976 990.19270 1003.00000
95.58000 990.54796 992.00000
95.59024 990.94769 939.00000
95.60048 991.39776 1011.00000
95.61072 991.90685 1010.00000
95.62096 992.47991 962.00000
95.63120 993.11812 972.00000
95.64145 993.81346 983.00000
95.65169 994.60650 995.00000
95.66193 995.50215 985.00000
95.67217 996.48856 951.00000
95.68241 997.55634 1043.00000
95.69265 998.68849 1002.00000
95.70289 999.85527 944.00000
95.71314 1001.01179 1004.00000
95.72338 1002.09820 943.00000
95.73362 1003.04386 928.00000
95.74386 1003.77623 941.00000
95.75410 1004.23350 1057.00000
95.76434 1004.37738 995.00000
95.77458 1004.20182 1024.00000
95.78483 1003.73544 970.00000
95.79507 1003.03588 972.00000
95.80531 1002.16088 969.00000
95.81555 1001.18672 1027.00000
95.82579 1000.16714 915.00000
95.83603 999.15576 1012.00000
95.84628 998.19279 995.00000
95.85652 997.30438 961.00000
95.86676 996.50526 949.00000
95.87700 995.80262 980.00000
95.88724 995.19843 1005.00000
95.89748 994.69143 1045.00000
95.90772 994.28010 979.00000
95.91797 993.95843 971.00000
95.92821 993.71486 1000.00000
95.93845 993.55251 980.00000
95.94869 993.48066 975.00000
95.95893 993.48862 1056.00000
95.96917 993.57154 1017.00000
95.97941 993.72582 992.00000
95.98966 993.94636 1005.00000
95.99990 994.22526 989.00000
96.01014 994.55047 1002.00000
96.02038 994.90444 992.00000
96.03062 995.26343 956.00000
96.04086 995.59982 998.00000
96.05110 995.88019 1020.00000
96.06135 996.07201 992.00000
96.07159 996.14779 1018.00000
96.08183 996.08977 951.00000
96.09207 995.89299 994.00000
96.10231 995.56948 948.00000
96.11255 995.13962 948.00000
96.12279 994.63071 974.00000
96.13304 994.07256 922.00000
96.14328 993.49302 937.00000
96.15352 992.91528 989.00000
96.16376 992.35676 964.00000
96.17400 991.82919 998.00000
96.18424 991.33939 943.00000
96.19449 990.89038 1007.00000
96.20473 990.48258 977.00000
96.21497 990.11562 966.00000
96.22521 989.78556 958.00000
96.23545 989.48934 999.00000
96.24569 989.22378 966.00000
96.25593 988.98557 1013.00000
96.26618 988.77134 942.00000
96.27642 988.58231 1023.00000
96.28666 988.42819 1000.00000
96.29690 988.28512 990.00000
96.30714 988.16483 1012.00000
96.31738 988.04647 1005.00000
96.32762 987.93417 993.00000
96.33787 987.83174 1014.00000
96.34811 987.73890 1010.00000
96.35835 987.65468 973.00000
96.36859 987.57801 965.00000
96.37883 987.50750 1008.00000
96.38907 987.44296 1006.00000
96.39931 987.38517 1009.00000
96.40956 987.33277 977.00000
96.41980 987.28503 964.00000
96.43004 987.24154 1007.00000
96.44028 987.20190 996.00000
96.45052 987.16579 975.00000
96.46076 987.13291 994.00000
96.47100 987.10299 993.00000
96.48125 987.07573 975.00000
96.49149 987.05040 1004.00000
96.50173 987.02317 976.00000
96.51197 986.98643 980.00000
96.52221 986.96194 929.00000
96.53245 986.94482 912.00000
96.54270 986.93025 1009.00000
96.55294 986.91734 949.00000
96.56318 986.90601 954.00000
96.57342 986.89743 994.00000
96.58366 986.89527 975.00000
96.59390 986.89368 1009.00000
96.60414 986.88859 987.00000
96.61439 986.88349 1037.00000
96.62463 986.87885 990.00000
96.63487 986.87367 963.00000
96.64511 986.87103 941.00000
96.65535 986.86952 932.00000
96.66559 986.86898 923.00000
96.67583 986.86926 956.00000
96.68608 986.87028 1008.00000
96.69632 986.87202 967.00000
96.70656 986.87444 983.00000
96.71680 986.87752 962.00000
96.72704 986.88122 1031.00000
96.73728 986.88553 962.00000
96.74752 986.89041 944.00000
96.75777 986.89578 982.00000
96.76801 986.90152 903.00000
96.77825 986.90790 966.00000
96.78849 986.91488 1033.00000
96.79873 986.92235 988.00000
96.80897 986.93030 956.00000
96.81922 986.93871 949.00000
96.82946 986.94756 960.00000
96.83970 986.95684 1017.00000
96.84994 986.96654 1025.00000
96.86018 986.97665 1034.00000
96.87042 986.98715 946.00000
96.88066 986.99805 1022.00000
96.89091 987.00933 950.00000
96.90115 987.02098 973.00000
96.91139 987.03301 960.00000
96.92163 987.04540 996.00000
96.93187 987.05814 993.00000
96.94211 987.07124 924.00000
96.95235 987.08469 962.00000
96.96260 987.09848 956.00000
96.97284 987.11262 975.00000
96.98308 987.12709 1046.00000
96.99332 987.14190 928.00000
97.00356 987.15705 926.00000
97.01380 987.17253 957.00000
97.02404 987.18834 973.00000
97.03429 987.20449 941.00000
97.04453 987.22096 948.00000
97.05477 987.23778 917.00000
97.06501 987.25525 971.00000
97.07525 987.27722 980.00000
97.08549 987.31293 1014.00000
97.09573 987.33822 981.00000
97.10598 987.35792 943.00000
97.11622 987.37704 994.00000
97.12646 987.39645 985.00000
97.13670 987.41620 960.00000
97.14694 987.43631 982.00000
97.15718 987.45678 951.00000
97.16743 987.47760 998.00000
97.17767 987.49880 995.00000
97.18791 987.52037 1008.00000
97.19815 987.54231 956.00000
97.20839 987.56465 972.00000
97.21863 987.58737 994.00000
97.22887 987.61049 1012.00000
97.23912 987.63402 911.00000
97.24936 987.65796 959.00000
97.25960 987.68233 998.00000
97.26984 987.70713 1011.00000
97.28008 987.73237 962.00000
97.29032 987.75807 991.00000
97.30056 987.78423 1026.00000
97.31081 987.81087 989.00000
97.32105 987.83799 1036.00000
97.33129 987.86562 935.00000
97.34153 987.89377 979.00000
97.35177 987.92245 938.00000
97.36201 987.95168 982.00000
97.37225 987.98147 1004.00000
97.38250 988.01184 998.00000
97.39274 988.04281 1043.00000
97.40298 988.07441 928.00000
97.41322 988.10664 945.00000
97.42346 988.13954 943.00000
97.43370 988.17312 1022.00000
97.44394 988.20741 971.00000
97.45419 988.24244 993.00000
97.46443 988.27823 1000.00000
97.47467 988.31481 960.00000
97.48491 988.35221 946.00000
97.49515 988.39045 916.00000
97.50539 988.42959 1012.00000
97.51564 988.46963 1053.00000
97.52588 988.51064 1046.00000
97.53612 988.55263 972.00000
97.54636 988.59561 909.00000
97.55660 988.63949 924.00000
97.56684 988.68427 958.00000
97.57708 988.73055 919.00000
97.58733 988.77810 962.00000
97.59757 988.82691 990.00000
97.60781 988.87700 988.00000
97.61805 988.92844 919.00000
97.62829 988.98127 993.00000
97.63853 989.03553 966.00000
97.64877 989.09127 962.00000
97.65902 989.14855 938.00000
97.66926 989.20741 966.00000
97.67950 989.26789 965.00000
97.68974 989.33005 947.00000
97.69998 989.39391 973.00000
97.71022 989.45953 947.00000
97.72046 989.52694 983.00000
97.73071 989.59618 981.00000
97.74095 989.66728 932.00000
97.75119 989.74028 953.00000
97.76143 989.81520 980.00000
97.77167 989.89209 926.00000
97.78191 989.97098 971.00000
97.79215 990.05192 1019.00000
97.80240 990.13485 952.00000
97.81264 990.21934 997.00000
97.82288 990.30500 984.00000
97.83312 990.39441 935.00000
97.84336 990.48647 992.00000
97.85360 990.58061 963.00000
97.86385 990.67757 1104.00000
97.87409 990.77793 1019.00000
97.88433 990.88153 1005.00000
97.89457 990.98850 946.00000
97.90481 991.09912 935.00000
97.91505 991.21369 988.00000
97.92529 991.33256 962.00000
97.93554 991.45615 1043.00000
97.94578 991.58490 943.00000
97.95602 991.71933 945.00000
97.96626 991.86002 1015.00000
97.97650 992.00762 957.00000
97.98674 992.16290 955.00000
97.99698 992.32666 995.00000
98.00723 992.49987 999.00000
98.01747 992.68356 973.00000
98.02771 992.87892 1000.00000
98.03795 993.08727 992.00000
98.04819 993.31008 1026.00000
98.05843 993.54901 951.00000
98.06867 993.80591 954.00000
98.07892 994.08286 943.00000
98.08916 994.38220 967.00000
98.09940 994.70652 980.00000
98.10964 995.05842 968.00000
98.11988 995.44031 1012.00000
98.13012 995.85807 941.00000
98.14036 996.31627 985.00000
98.15061 996.81904 959.00000
98.16085 997.37173 972.00000
98.17109 997.98053 961.00000
98.18133 998.65239 1002.00000
98.19157 999.39498 971.00000
98.20181 1000.21660 955.00000
98.21206 1001.12606 1019.00000
98.22230 1002.13225 990.00000
98.23254 1003.24346 947.00000
98.24278 1004.46685 1020.00000
98.25302 1005.80731 961.00000
98.26326 1007.26415 972.00000
98.27350 1008.82981 996.00000
98.28375 1010.48712 1002.00000
98.29399 1012.20698 1025.00000
98.30423 1013.94762 934.00000
98.31447 1015.65648 1044.00000
98.32471 1017.27606 1028.00000
98.33495 1018.75327 1013.00000
98.34519 1020.05059 1010.00000
98.35544 1021.15528 1028.00000
98.36568 1022.08288 1015.00000
98.37592 1022.87291 993.00000
98.38616 1023.57827 1033.00000
98.39640 1024.25568 957.00000
98.40664 1024.94550 1013.00000
98.41688 1025.66480 971.00000
98.42713 1026.40118 1018.00000
98.43737 1027.11122 1006.00000
98.44761 1027.72521 1042.00000
98.45785 1028.15847 947.00000
98.46809 1028.32757 989.00000
98.47833 1028.16410 998.00000
98.48857 1027.62638 1014.00000
98.49882 1026.76447 1017.00000
98.50906 1025.62938 1055.00000
98.51930 1024.29109 991.00000
98.52954 1022.83824 1044.00000
98.53978 1021.35668 1009.00000
98.55002 1019.92119 999.00000
98.56027 1018.59039 1029.00000
98.57051 1017.40571 981.00000
98.58075 1016.39270 999.00000
98.59099 1015.56308 1028.00000
98.60123 1014.91688 977.00000
98.61147 1014.44406 937.00000
98.62171 1014.12592 964.00000
98.63196 1013.93636 1031.00000
98.64220 1013.84365 1038.00000
98.65244 1013.81316 923.00000
98.66268 1013.81127 1004.00000
98.67292 1013.80969 974.00000
98.68316 1013.78932 986.00000
98.69340 1013.74363 956.00000
98.70365 1013.67925 984.00000
98.71389 1013.60859 1045.00000
98.72413 1013.54819 965.00000
98.73437 1013.51271 950.00000
98.74461 1013.50953 999.00000
98.75485 1013.53499 1004.00000
98.76509 1013.57271 1025.00000
98.77534 1013.59367 943.00000
98.78558 1013.55676 1002.00000
98.79582 1013.41799 977.00000
98.80606 1013.16853 1001.00000
98.81630 1012.77401 1010.00000
98.82654 1012.22902 984.00000
98.83678 1011.54402 990.00000
98.84703 1010.74442 1041.00000
98.85727 1009.86447 1007.00000
98.86751 1008.94121 969.00000
98.87775 1008.00938 981.00000
98.88799 1007.09828 982.00000
98.89823 1006.23012 1023.00000
98.90848 1005.41997 1026.00000
98.91872 1004.67669 953.00000
98.92896 1004.00420 949.00000
98.93920 1003.40284 1037.00000
98.94944 1002.87050 954.00000
98.95968 1002.40363 1002.00000
98.96992 1001.99788 1029.00000
98.98017 1001.64861 1004.00000
98.99041 1001.35123 1010.00000
99.00065 1001.10140 1046.00000
99.01089 1000.89508 952.00000
99.02113 1000.72866 994.00000
99.03137 1000.59892 1079.00000
99.04161 1000.50306 964.00000
99.05186 1000.43865 1032.00000
99.06210 1000.40359 1008.00000
99.07234 1000.39614 1037.00000
99.08258 1000.41475 956.00000
99.09282 1000.45820 1021.00000
99.10306 1000.52587 981.00000
99.11330 1000.61687 991.00000
99.12355 1000.73056 1015.00000
99.13379 1000.86623 997.00000
99.14403 1001.02272 940.00000
99.15427 1001.20072 964.00000
99.16451 1001.40141 998.00000
99.17475 1001.62311 996.00000
99.18499 1001.86496 995.00000
99.19524 1002.12562 1017.00000
99.20548 1002.40316 1017.00000
99.21572 1002.69490 1009.00000
99.22596 1002.99720 1019.00000
99.23620 1003.30580 1016.00000
99.24644 1003.61612 980.00000
99.25669 1003.92391 1036.00000
99.26693 1004.22598 966.00000
99.27717 1004.52079 978.00000
99.28741 1004.80880 1048.00000
99.29765 1005.09229 1065.00000
99.30789 1005.37493 1045.00000
99.31813 1005.66110 1001.00000
99.32838 1005.95524 968.00000
99.33862 1006.26156 953.00000
99.34886 1006.58378 997.00000
99.35910 1006.92514 1006.00000
99.36934 1007.28839 1011.00000
99.37958 1007.67561 1003.00000
99.38982 1008.08518 1035.00000
99.40007 1008.51093 966.00000
99.41031 1008.98124 1055.00000
99.42055 1009.48776 981.00000
99.43079 1010.03175 982.00000
99.44103 1010.61518 978.00000
99.45127 1011.24096 1031.00000
99.46151 1011.91255 1002.00000
99.47176 1012.63376 969.00000
99.48200 1013.40880 978.00000
99.49224 1014.24224 948.00000
99.50248 1015.13904 1038.00000
99.51272 1016.10461 1078.00000
99.52296 1017.14476 1021.00000
99.53320 1018.26578 1020.00000
99.54345 1019.47445 1034.00000
99.55369 1020.77811 1011.00000
99.56393 1022.18484 1060.00000
99.57417 1023.70365 1042.00000
99.58441 1025.34487 1014.00000
99.59465 1027.12060 1008.00000
99.60490 1029.04521 1018.00000
99.61514 1031.13584 959.00000
99.62538 1033.41265 1004.00000
99.63562 1035.89906 976.00000
99.64586 1038.62331 990.00000
99.65610 1041.61690 1018.00000
99.66634 1044.91475 991.00000
99.67659 1048.55610 1022.00000
99.68683 1052.58457 1013.00000
99.69707 1057.04802 1014.00000
99.70731 1061.99832 1109.00000
99.71755 1067.49053 1065.00000
99.72779 1073.58118 1082.00000
99.73803 1080.32521 1064.00000
99.74828 1087.77086 1117.00000
99.75852 1095.95188 1080.00000
99.76876 1104.87604 1129.00000
99.77900 1114.50971 1099.00000
99.78924 1124.75837 1106.00000
99.79948 1135.44509 1116.00000
99.80972 1146.29092 1157.00000
99.81997 1156.90493 1215.00000
99.83021 1166.79335 1140.00000
99.84045 1175.39724 1177.00000
99.85069 1182.16095 1175.00000
99.86093 1186.62184 1160.00000
99.87117 1188.49788 1176.00000
99.88141 1187.74457 1192.00000
99.89166 1184.56053 1151.00000
99.90190 1179.34144 1189.00000
99.91214 1172.60110 1168.00000
99.92238 1164.88684 1190.00000
99.93262 1156.71092 1179.00000
99.94286 1148.50804 1182.00000
99.95311 1140.61786 1150.00000
99.96335 1133.28597 1210.00000
99.97359 1126.67586 1169.00000
99.98383 1120.88556 1121.00000
99.99407 1115.96479 1159.00000
100.00431 1111.93038 1190.00000
