#------------------------------------------------------------------------------
#$Date: 2019-10-09 09:54:50 +0300 (Wed, 09 Oct 2019) $
#$Revision: 219191 $
#$URL: file:///home/coder/svn-repositories/cod/cif/7/23/44/7234484.cif $
#------------------------------------------------------------------------------
#
# This file is available in the Crystallography Open Database (COD),
# http://www.crystallography.net/
#
# All data on this site have been placed in the public domain by the
# contributors.
#
data_7234484
loop_
_publ_author_name
'Jie Li'
'Jie Liu'
'Yonggang Zhen'
'Lingqiang Meng'
'Ying Wang'
'Huanli Dong'
'Wenping Hu'
_publ_section_title
;
 Naphthyl substituted anthracene combining charge transport with light
 emission
;
_journal_name_full               'Journal of Materials Chemistry C'
_journal_page_first              10695
_journal_page_last               10698
_journal_paper_doi               10.1039/C5TC02254A
_journal_volume                  3
_journal_year                    2015
_chemical_formula_moiety         'C24 H16'
_chemical_formula_sum            'C24 H16'
_chemical_formula_weight         304.37
_chemical_name_common            NaAnt
_chemical_name_systematic        '2-(2-naphthyl) anthracene'
_space_group_crystal_system      monoclinic
_space_group_IT_number           4
_space_group_name_Hall           'P 2yb'
_space_group_name_H-M_alt        'P 1 21 1'
_atom_sites_solution_hydrogens   geom
_cell_angle_alpha                90
_cell_angle_beta                 90.94(3)
_cell_angle_gamma                90
_cell_formula_units_Z            2
_cell_length_a                   8.2025(16)
_cell_length_b                   6.0189(12)
_cell_length_c                   15.347(3)
_cell_measurement_reflns_used    2340
_cell_measurement_temperature    173.1500
_cell_measurement_theta_max      27.4650
_cell_measurement_theta_min      2.4835
_cell_volume                     757.6(3)
_computing_cell_refinement       'CrystalClear (Rigaku Inc., 2007)'
_computing_data_collection       'CrystalClear (Rigaku Inc., 2007)'
_computing_data_reduction        'CrystalClear (Rigaku Inc., 2007)'
_computing_molecular_graphics    'Olex2 (Dolomanov et al., 2009)'
_computing_publication_material  'CIFTAB (Sheldrick, 2013)'
_computing_structure_refinement  'SHELXL (Sheldrick, 2014)'
_computing_structure_solution
;
'SHELXT (Sheldrick, 2014)'
;
_diffrn_ambient_temperature      173.1500
_diffrn_detector_area_resol_mean 28.5714
_diffrn_measured_fraction_theta_full 0.997
_diffrn_measured_fraction_theta_max 0.996
_diffrn_measurement_details
;
scan:
	Number of images: 360
	           Slice: -110.0000 - 70.0000
	     Image width: 0.5000
	        Exp time: 5.0000
	   Rotation axis: Omega
	           Omega: 0.0000
	             Chi: 45.0000
	             Phi: 180.0000
	             XTD: 39.9400
	          2theta: -19.9560
scan:
	Number of images: 360
	           Slice: -110.0000 - 70.0000
	     Image width: 0.5000
	        Exp time: 5.0000
	   Rotation axis: Omega
	           Omega: 0.0000
	             Chi: 45.0000
	             Phi: 90.0000
	             XTD: 39.9400
	          2theta: -19.9560
scan:
	Number of images: 360
	           Slice: -110.0000 - 70.0000
	     Image width: 0.5000
	        Exp time: 5.0000
	   Rotation axis: Omega
	           Omega: 0.0000
	             Chi: 45.0000
	             Phi: 0.0000
	             XTD: 39.9400
	          2theta: -19.9560
;
_diffrn_measurement_device
;
Saturn724+ (2x2 bin mode)
;
_diffrn_measurement_device_details
;
AFC10: Fixed Chi 2 circle
;
_diffrn_measurement_device_type  'Saturn724+ CCD'
_diffrn_measurement_method       '\w scans at fixed \c = 45\%'
_diffrn_orient_matrix_type       d*Trek
_diffrn_orient_matrix_UB_11      -0.1061
_diffrn_orient_matrix_UB_12      -0.0535
_diffrn_orient_matrix_UB_13      0.0273
_diffrn_orient_matrix_UB_21      0.0781
_diffrn_orient_matrix_UB_22      -0.1001
_diffrn_orient_matrix_UB_23      0.1072
_diffrn_orient_matrix_UB_31      -0.0106
_diffrn_orient_matrix_UB_32      0.0430
_diffrn_orient_matrix_UB_33      0.0478
_diffrn_radiation_detector       CCD
_diffrn_radiation_monochromator  'Graphite Monochromator'
_diffrn_radiation_type           MoK\a
_diffrn_radiation_wavelength     0.71073
_diffrn_reflns_av_R_equivalents  0.0555
_diffrn_reflns_av_unetI/netI     0.0426
_diffrn_reflns_Laue_measured_fraction_full 0.997
_diffrn_reflns_Laue_measured_fraction_max 0.996
_diffrn_reflns_limit_h_max       10
_diffrn_reflns_limit_h_min       -10
_diffrn_reflns_limit_k_max       7
_diffrn_reflns_limit_k_min       -7
_diffrn_reflns_limit_l_max       19
_diffrn_reflns_limit_l_min       -19
_diffrn_reflns_number            9875
_diffrn_reflns_point_group_measured_fraction_full 0.996
_diffrn_reflns_point_group_measured_fraction_max 0.994
_diffrn_reflns_theta_full        26.000
_diffrn_reflns_theta_max         27.500
_diffrn_reflns_theta_min         2.483
_diffrn_source                   'Sealed Tube'
_diffrn_source_current           30.0000
_diffrn_source_power             1.5000
_diffrn_source_voltage           50.0000
_exptl_absorpt_coefficient_mu    0.076
_exptl_absorpt_correction_T_max  1.0000
_exptl_absorpt_correction_T_min  0.52817
_exptl_absorpt_correction_type   multi-scan
_exptl_absorpt_process_details   'CrystalClear (Rigaku Inc., 2007)'
_exptl_crystal_colour            Colorless
_exptl_crystal_density_diffrn    1.334
_exptl_crystal_description       rod
_exptl_crystal_F_000             320
_exptl_crystal_preparation       Luminescent
_exptl_crystal_recrystallization_method
'Re-crystallisation from solvent: Toluene'
_exptl_crystal_size_max          0.35
_exptl_crystal_size_mid          0.31
_exptl_crystal_size_min          0.09
_refine_diff_density_max         0.305
_refine_diff_density_min         -0.178
_refine_diff_density_rms         0.045
_refine_ls_abs_structure_details
;
 Flack x determined using 918 quotients [(I+)-(I-)]/[(I+)+(I-)]
 (Parsons, Flack and Wagner, Acta Cryst. B69 (2013) 249-259).
;
_refine_ls_abs_structure_Flack   -10.0(10)
_refine_ls_extinction_coef       .
_refine_ls_extinction_method     none
_refine_ls_goodness_of_fit_ref   1.120
_refine_ls_hydrogen_treatment    constr
_refine_ls_matrix_type           full
_refine_ls_number_parameters     236
_refine_ls_number_reflns         3459
_refine_ls_number_restraints     22
_refine_ls_restrained_S_all      1.119
_refine_ls_R_factor_all          0.0796
_refine_ls_R_factor_gt           0.0717
_refine_ls_shift/su_max          0.002
_refine_ls_shift/su_mean         0.000
_refine_ls_structure_factor_coef Fsqd
_refine_ls_weighting_details
'w=1/[\s^2^(Fo^2^)+(0.0631P)^2^+0.3009P] where P=(Fo^2^+2Fc^2^)/3'
_refine_ls_weighting_scheme      calc
_refine_ls_wR_factor_gt          0.1670
_refine_ls_wR_factor_ref         0.1725
_reflns_Friedel_coverage         0.821
_reflns_Friedel_fraction_full    0.995
_reflns_Friedel_fraction_max     0.991
_reflns_number_gt                3035
_reflns_number_total             3459
_reflns_threshold_expression     'I > 2\s(I)'
_cod_data_source_file            J-Mater-Chem-C-2015-3-10695.cif
_cod_data_source_block           sa3092
_cod_database_code               7234484
_shelx_space_group_comment
;
The symmetry employed for this shelxl refinement is uniquely defined
by the following loop, which should always be used as a source of
symmetry information in preference to the above space-group names.
They are only intended as comments.
;
_diffrn_number_total             1904
_olex2_refinement_description
;
1. Fixed Uiso
 At 1.2 times of:
  All C(H) groups
2. Rigid bond restraints
 C3, C12
 with sigma for 1-2 distances of 0.01 and sigma for 1-3 distances of 0.01
 C15, C16
 with sigma for 1-2 distances of 0.01 and sigma for 1-3 distances of 0.01
 C18, C23
 with sigma for 1-2 distances of 0.01 and sigma for 1-3 distances of 0.01
3. Uiso/Uaniso restraints and constraints
C2A \\sim C1A: within 1.7A with sigma of 0.02 and sigma for terminal atoms of
0.04
Uanis(C1A) \\sim Ueq, Uanis(C2A) \\sim Ueq: with sigma of 0.01 and sigma for
terminal atoms of 0.02
4. Others
 Sof(H3)=Sof(H14)=Sof(C2A)=Sof(H2A)=Sof(C1A)=Sof(H1A)=1-FVAR(1)
 Sof(C1)=Sof(H1)=Sof(C2)=Sof(H2)=Sof(H13)=Sof(H16)=FVAR(1)
5.a Aromatic/amide H refined with riding coordinates:
 C1(H1), C2(H2), C3(H3), C4(H4), C6(H6), C7(H7), C8(H8), C9(H9), C11(H11),
 C13(H13), C14(H14), C16(H16), C17(H17), C19(H19), C20(H20), C21(H21), C22(H22),
  C24(H24), C2A(H2A), C1A(H1A)
;
_shelx_res_file
;
    sa3092.res created by SHELXL-2014/7

TITL
CELL 0.71073 8.2025 6.0189 15.3466 90 90.94 90
ZERR 2 0.0016 0.0012 0.0031 0 0.03 0
LATT -1
SYMM -X,0.5+Y,-Z
SFAC C H
UNIT 48 32
DELU C3 C12
DELU C15 C16
DELU C18 C23
SIMU 0.02 0.04 1.7 C2A C1A
ISOR 0.01 0.02 C1A C2A

L.S. 5 0 0
PLAN  -20
MORE -1
BOND $H
CONF
fmap 2 53
acta 52
OMIT 0 0 1
REM <olex2.extras>
REM <HklSrc "%.\\sa3092.hkl">
REM </olex2.extras>

WGHT    0.063100    0.300900
FVAR      10.08526   0.68592
PART 1
C1    1    0.816357    0.075039    0.009516    21.00000    0.03164    0.03528 =
         0.03113   -0.00052    0.00777    0.02005
AFIX  43
H1    2    0.870134   -0.029610   -0.024099    21.00000   -1.20000
AFIX   0
C2    1    0.777362    0.017837    0.091119    21.00000    0.03390    0.03816 =
         0.03095   -0.00041    0.00963    0.01506
AFIX  43
H2    2    0.804727   -0.124292    0.110099    21.00000   -1.20000
AFIX   0
PART 0
C3    1    0.699474    0.156102    0.148479    11.00000    0.03930    0.03770 =
         0.03211    0.00736    0.00319   -0.00111
PART 2
AFIX  43
H3    2    0.758434    0.054925    0.115756   -21.00000   -1.20000
AFIX   0
PART 0
C4    1    0.657802    0.108137    0.233162    11.00000    0.03580    0.03938 =
         0.02458    0.00285    0.00618    0.00044
AFIX  43
H4    2    0.690478   -0.027908    0.256262    11.00000   -1.20000
AFIX   0
C5    1    0.570826    0.249212    0.285598    11.00000    0.02981    0.03415 =
         0.03769   -0.00208   -0.00218   -0.00709
C6    1    0.526533    0.201536    0.371892    11.00000    0.03518    0.04295 =
         0.02800    0.00057    0.00343   -0.00089
AFIX  43
H6    2    0.559624    0.067692    0.396759    11.00000   -1.20000
AFIX   0
C7    1    0.437119    0.344716    0.419877    11.00000    0.04121    0.04671 =
         0.02161   -0.00490    0.00556   -0.00515
AFIX  43
H7    2    0.408159    0.306271    0.476240    11.00000   -1.20000
AFIX   0
C8    1    0.387661    0.551407    0.385059    11.00000    0.03488    0.05203 =
         0.03424   -0.00406    0.00972   -0.00188
AFIX  43
H8    2    0.326889    0.647765    0.419013    11.00000   -1.20000
AFIX   0
C9    1    0.427510    0.612590    0.302246    11.00000    0.03462    0.04174 =
         0.03246   -0.00086   -0.00439    0.00230
AFIX  43
H9    2    0.395031    0.749683    0.280049    11.00000   -1.20000
AFIX   0
C10   1    0.521332    0.460119    0.249521    11.00000    0.02676    0.02984 =
         0.02330    0.00000    0.00350   -0.00798
C11   1    0.562361    0.512986    0.162743    11.00000    0.04113    0.04286 =
         0.02680    0.00228    0.00537    0.00220
AFIX  43
H11   2    0.530284    0.648769    0.139170    11.00000   -1.20000
AFIX   0
C12   1    0.650173    0.364275    0.112177    11.00000    0.03693    0.04107 =
         0.03098   -0.00918    0.01168   -0.00714
C13   1    0.697056    0.420641    0.023684    11.00000    0.05308    0.03761 =
         0.03159    0.00645   -0.00010   -0.00804
PART 1
AFIX  43
H13   2    0.668085    0.558901    0.001244    21.00000   -1.20000
AFIX   0
PART 0
C14   1    0.782369    0.276682   -0.027504    11.00000    0.04635    0.03586 =
         0.02459    0.00176    0.00987   -0.00174
PART 2
AFIX  43
H14   2    0.811013    0.138798   -0.004589   -21.00000   -1.20000
AFIX   0
PART 0
C15   1    0.830625    0.329408   -0.116534    11.00000    0.03787    0.03333 =
         0.02641    0.00454    0.00205   -0.00676
C16   1    0.787558    0.539792   -0.154701    11.00000    0.04028    0.03780 =
         0.03493   -0.01602    0.01720   -0.00454
PART 1
AFIX  43
H16   2    0.726389    0.639193   -0.122315    21.00000   -1.20000
AFIX   0
PART 0
C17   1    0.833168    0.599893   -0.237133    11.00000    0.03439    0.02815 =
         0.03761    0.00113    0.00009   -0.00474
AFIX  43
H17   2    0.802570    0.736973   -0.260084    11.00000   -1.20000
AFIX   0
C18   1    0.928042    0.449352   -0.287051    11.00000    0.02595    0.03505 =
         0.01893    0.00098    0.00388   -0.00044
C19   1    0.978168    0.506634   -0.372821    11.00000    0.03706    0.03753 =
         0.03084    0.00552    0.00170   -0.00423
AFIX  43
H19   2    0.948465    0.642758   -0.396958    11.00000   -1.20000
AFIX   0
C20   1    1.070690    0.359376   -0.419622    11.00000    0.03808    0.04872 =
         0.03136    0.00468    0.00715   -0.00290
AFIX  43
H20   2    1.102730    0.395998   -0.475669    11.00000   -1.20000
AFIX   0
C21   1    1.117130    0.153797   -0.383244    11.00000    0.03490    0.03796 =
         0.02930   -0.00795    0.00498    0.00098
AFIX  43
H21   2    1.180577    0.055678   -0.414964    11.00000   -1.20000
AFIX   0
C22   1    1.069057    0.098843   -0.301605    11.00000    0.02944    0.03251 =
         0.03531    0.00049    0.00647   -0.00287
AFIX  43
H22   2    1.101179   -0.037184   -0.278268    11.00000   -1.20000
AFIX   0
C23   1    0.972557    0.240869   -0.251496    11.00000    0.03250    0.05139 =
         0.02981   -0.00415    0.00129   -0.00392
C24   1    0.922186    0.187716   -0.166745    11.00000    0.04074    0.03575 =
         0.03180    0.00194    0.00158   -0.00959
AFIX  43
H24   2    0.952031    0.050644   -0.143508    11.00000   -1.20000
AFIX   0
PART 2
C2A   1    0.713166    0.672222   -0.095781   -21.00000    0.03995    0.02519 =
         0.02786    0.00700    0.00322    0.00209
AFIX  43
H2A   2    0.687447    0.815429   -0.114141   -21.00000   -1.20000
AFIX   0
C1A   1    0.670919    0.617165   -0.010539   -21.00000    0.05327    0.02912 =
         0.03077    0.01417   -0.00128   -0.00148
AFIX  43
H1A   2    0.621901    0.725268    0.023507   -21.00000   -1.20000
AFIX   0
HKLF 4

REM
REM R1 =  0.0717 for    3035 Fo > 4sig(Fo)  and  0.0796 for all    3459 data
REM    236 parameters refined using     22 restraints

END

WGHT      0.0631      0.3011

REM Highest difference peak  0.305,  deepest hole -0.178,  1-sigma level  0.045
Q1    1   0.5265  0.3398  0.2612  11.00000  0.05    0.31
Q2    1   0.9733  0.3608 -0.2610  11.00000  0.05    0.28
Q3    1   0.7042  0.2863  0.1367  11.00000  0.05    0.26
Q4    1   0.7972  0.4251 -0.1346  11.00000  0.05    0.23
Q5    1   0.9201  0.4573 -0.3370  11.00000  0.05    0.22
Q6    1   0.7945  0.2975 -0.0813  11.00000  0.05    0.20
Q7    1   1.2004 -0.0082 -0.4441  11.00000  0.05    0.19
Q8    1   0.5383  0.2163  0.3205  11.00000  0.05    0.19
Q9    1   0.6563  0.1232  0.1814  11.00000  0.05    0.19
Q10   1   0.9913 -0.0139 -0.1363  11.00000  0.05    0.19
Q11   1   0.6846  0.4006  0.0799  11.00000  0.05    0.18
Q12   1   0.6335  0.4156  0.1215  11.00000  0.05    0.18
Q13   1   0.5003  0.7215  0.1382  11.00000  0.05    0.18
Q14   1   1.1317  0.4706 -0.5038  11.00000  0.05    0.18
Q15   1   0.2999  0.7228  0.4413  11.00000  0.05    0.17
Q16   1   0.9688  0.4942 -0.3226  11.00000  0.05    0.17
Q17   1   0.9836  0.2341 -0.2067  11.00000  0.05    0.17
Q18   1   0.7607  0.5833 -0.1458  11.00000  0.05    0.16
Q19   1   0.7185 -0.1082  0.2765  11.00000  0.05    0.16
Q20   1   0.5062  0.5431  0.2790  11.00000  0.05    0.16
;
_shelx_res_checksum              99392
_shelx_hkl_file
;
   0   0  -1    1.11    6.04   1 0.49691-0.49692-0.86774 0.86702-0.00977-0.03653
   0   0   1  -13.32    4.94   1 0.51466-0.51465-0.85662 0.85734 0.03636 0.00993
   0   0  -1   -6.27    4.39   1 0.37579-0.37580-0.92666 0.92590-0.00790-0.03841
   0   0   1   -9.63    5.29   1 0.34451-0.34454-0.93790 0.93875 0.04058 0.00569
   0   0  -1   -4.44    3.67   1-0.99083 0.99069-0.13386 0.13312-0.01780-0.02844
   0   0   1    4.32    4.84   1-0.98491 0.98505-0.17061 0.17135 0.02902 0.01722
   0   0   349591.38  281.10   1 0.53110-0.53107-0.84328 0.84544 0.08247 0.05644
   0   0  -349658.68  262.99   1-0.99311 0.99303-0.09586 0.09371-0.06738-0.07145
   0   0   351492.71  263.15   1-0.97544 0.97588-0.20679 0.20901 0.07582 0.06290
   0   0   422860.26  216.51   1 0.53883-0.53879-0.83577 0.83865 0.10551 0.07970
   0   0  -425160.19  221.58   1 0.46785-0.46789-0.88026 0.87738-0.07904-0.10617
   0   0  -422662.37  217.97   1 0.41946-0.41951-0.90443 0.90136-0.07779-0.10751
   0   0  -424601.32  211.04   1-0.99288 0.99278-0.07699 0.07411-0.09082-0.09430
   0   0   423477.84  190.71   1-0.96936 0.96996-0.22467 0.22763 0.09922 0.08575
   0   0  -530536.56  257.65   1-0.99175 0.99162-0.05797 0.05438-0.11426-0.11713
   0   0   528472.37  223.40   1-0.96239 0.96313-0.24240 0.24610 0.12261 0.10861
   0   0   620572.54  235.59   1 0.55258-0.55268-0.81943 0.82384 0.15224 0.12575
   0   0  -623711.30  253.09   1 0.44707-0.44720-0.88569 0.88130-0.12521-0.15268
   0   0   623742.91  272.01   1 0.26305-0.26320-0.95199 0.95710 0.15652 0.12113
   0   0  -623088.37  234.79   1-0.98971 0.98955-0.03881 0.03450-0.13770-0.13997
   0   0   622008.99  206.81   1-0.95450 0.95539-0.25999 0.26443 0.14600 0.13147
   0   0   7204415.8 2248.58   1 0.55932-0.55944-0.81020 0.81535 0.17527 0.14906
   0   0  -7221722.8 2427.54   1 0.43605-0.43621-0.88760 0.88248-0.14834-0.17587
   0   0  -7197260.4 2165.60   1 0.46046-0.46054-0.87528 0.86991-0.14779-0.17648
   0   0  -7205547.4 2236.43   1-0.98673 0.98655-0.01950 0.01447-0.16115-0.16280
   0   0   7215016.3 2327.80   1-0.94533 0.94652-0.27844 0.28357 0.16973 0.15385
   0   0   8135429.2 2710.68   1 0.56571-0.56585-0.80040 0.80628 0.19829 0.17237
   0   0  -8144717.9 1635.03   1 0.42469-0.42488-0.88894 0.88309-0.17148-0.19905
   0   0   8157705.3 1778.24   1 0.22837-0.22858-0.95221 0.95902 0.20280 0.16741
   0   0  -8132567.0 2648.35   1 0.47351-0.47361-0.86399 0.85785-0.17115-0.19945
   0   0  -8138401.3 2755.21   1-0.98281 0.98260-0.00004-0.00570-0.18460-0.18563
   0   0   8150142.5 1662.46   1-0.93555 0.93691-0.29572 0.30158 0.19309 0.17672
   0   0   922431.39  378.76   1 0.57176-0.57191-0.79000 0.79662 0.22130 0.19570
   0   0   923037.92  387.43   1 0.21057-0.21080-0.95111 0.95877 0.22592 0.19057
   0   0  -923985.38  390.11   1 0.48635-0.48646-0.85165 0.84509-0.19530-0.22173
   0   0  -922126.05  341.46   1-0.97792 0.97768 0.01956-0.02603-0.20806-0.20846
   0   0   924138.09  350.60   1-0.92481 0.92634-0.31284 0.31944 0.21644 0.19959
   0   0  10 2854.17  150.03   1 0.57746-0.57763-0.77900 0.78636 0.24430 0.21903
   0   0  10 2687.77  146.75   1 0.19245-0.19271-0.94918 0.95769 0.24902 0.21375
   0   0 -10 2335.65  117.22   1-0.97203 0.97177 0.03933-0.04652-0.23151-0.23129
   0   0  11  107.45   65.78   1 0.58279-0.58298-0.76739 0.77548 0.26729 0.24237
   0   0  11  403.19  135.70   1 0.17416-0.17461-0.94653 0.95557 0.27155 0.23744
   0   0 -11   89.06   64.82   1-0.96512 0.96483 0.05926-0.06717-0.25497-0.25411
   0   0  12  160.85   70.09   1 0.58776-0.58797-0.75516 0.76398 0.29027 0.26573
   0   0  12  401.50  125.21   1 0.15538-0.15587-0.94289 0.95276 0.29461 0.26065
   0   0 -12  207.87   73.59   1-0.95704 0.95687 0.07984-0.08852-0.27873-0.27670
   0   0  1314259.49  506.21   1 0.59236-0.59258-0.74228 0.75184 0.31324 0.28909
   0   0  1314403.58  501.34   1 0.13625-0.13679-0.93836 0.94905 0.31766 0.28387
   0   0 -1315321.77  522.24   1-0.94797 0.94778 0.10011-0.10951-0.30220-0.29951
   0   0  14  873.00  122.42   1 0.59656-0.59680-0.72874 0.73904 0.33620 0.31247
   0   0  14  693.14  106.67   1 0.11677-0.11734-0.93289 0.94440 0.34069 0.30712
   0   0 -14  976.01  103.06   1-0.93776 0.93756 0.12055-0.13068-0.32567-0.32233
   0   0  1540067.39 2381.12   1 0.60037-0.60063-0.71453 0.72556 0.35915 0.33585
   0   0  1537757.25 2238.67   1 0.09691-0.09752-0.92645 0.93879 0.36370 0.33038
   0   0 -1543729.96 8325.91   1-0.92636 0.92615 0.14119-0.15203-0.34915-0.34514
   0   0  16  369.76  125.21   1 0.60360-0.60393-0.70000 0.71142 0.38163 0.35936
   0   0  16  551.47  167.43   1 0.07666-0.07732-0.91901 0.93217 0.38669 0.35366
   0   0 -16  299.83   60.96   1-0.91372 0.91349 0.16201-0.17359-0.37262-0.36795
   0   0  17  677.43  151.92   1 0.60658-0.60693-0.68438 0.69650 0.40456 0.38275
   0   0  17  719.66  123.38   1 0.05601-0.05670-0.91051 0.92449 0.40967 0.37695
   0   0 -17  209.08   75.96   1-0.89977 0.89952 0.18305-0.19534-0.39611-0.39075
   0   0  18 1135.20  178.84   1 0.60913-0.60950-0.66800 0.68084 0.42747 0.40615
   0   0  18  512.52  120.70   1 0.03492-0.03566-0.90089 0.91569 0.43262 0.40027
   0   0 -18  588.81   86.91   1-0.88441 0.88415 0.20431-0.21732-0.41959-0.41355
   0   0  19  372.33  156.05   1 0.61121-0.61160-0.65083 0.66438 0.45037 0.42957
   0   0  19  352.59  150.26   1 0.01364-0.01439-0.89050 0.90573 0.45476 0.42360
   0   0 -19  357.96  119.95   1-0.86712 0.86720 0.22713-0.24065-0.44329-0.43593
   0  -1   0   94.86   41.65   1 0.05906 0.05906-0.72226 0.72226-0.68908 0.68908
   0   1   0   95.93   44.93   1-0.05905-0.05905-0.60974 0.60974-0.79039 0.79039
   0   1   0  126.12   30.14   1-0.05907-0.05907-0.84692 0.84692 0.52841-0.52841
   0  -1   0  128.62   32.24   1 0.05905 0.05905-0.91182 0.91182 0.40631-0.40631
   0   1   0  107.28   49.12   1-0.05906-0.05906-0.63257 0.63257 0.77224-0.77224
   0  -1   0  151.85   27.63   1 0.05909 0.05909-0.62161 0.62161 0.78109-0.78109
   0  -1   1 1666.78   72.76   1 0.25339-0.13523-0.85058 0.85125-0.46075 0.50702
   0   1  -1 1359.35   54.62   1 0.16253-0.28070-0.79989 0.79924-0.57770 0.53142
   0   1   1  954.23   56.44   1 0.07684-0.19498-0.91908 0.91990 0.38650-0.34023
   0  -1  -1  898.13   65.04   1 0.16995-0.05180-0.94578 0.94496 0.27676-0.32303
   0   1  -1 1419.00   59.20   1-0.34065 0.22263-0.62188 0.62117 0.70513-0.75138
   0   1   1  844.02   63.51   1 0.23166-0.34982-0.58872 0.58943 0.77442-0.72813
   0   1   226881.82  214.30   1 0.13836-0.25655-0.93890 0.94054 0.31514-0.22260
   0   1   227728.93  201.59   1-0.60733 0.48927 0.44165-0.44021-0.66037 0.75287
   0   1  -227812.90  219.26   1-0.55941 0.44131-0.57053 0.56912 0.60128-0.69378
   0   1   3  424.05   50.18   1 0.60608-0.72433-0.46794 0.47003 0.64319-0.50438
   0  -1  -3  479.46   52.81   1 0.60689-0.48867-0.68260 0.68046 0.40710-0.54604
   0  -1   3  755.53   77.13   1 0.40483-0.28672-0.88986 0.89205-0.21037 0.34932
   0   1  -3  819.08   66.77   1 0.31236-0.43072-0.87342 0.87142-0.37357 0.23474
   0  -1   3  790.32   43.09   1-0.64773 0.76590 0.36922-0.36721 0.66641-0.52777
   0   1   3  384.50  110.15   1 0.16776-0.28599-0.94538 0.94785 0.27946-0.14064
   0  -1  -3  331.52   66.49   1 0.27874-0.16057-0.95082 0.94827 0.13501-0.27384
   0  -1   3  759.13   57.61   1 0.55931-0.44110-0.75422 0.75640-0.34397 0.48298
   0  -1  -3  402.33   72.15   1-0.61962 0.73771 0.43440-0.43656-0.65372 0.51496
   0   1   3  455.15   91.20   1-0.77469 0.65667 0.32239-0.32025-0.54397 0.68280
   0   1  -3 1075.70   94.21   1-0.70923 0.59117-0.50551 0.50336 0.49136-0.63018
   0  -1   3  894.89   77.03   1-0.55682 0.67503-0.57139 0.57351 0.60286-0.46412
   0   1   4 2628.24  136.75   1 0.61451-0.73275-0.58292 0.58577 0.53156-0.34631
   0  -1  -4 2686.49   73.40   1 0.57912-0.46090-0.77552 0.77258 0.25132-0.43666
   0  -1   4 2615.76  105.87   1 0.44143-0.32329-0.88675 0.88967-0.13714 0.32241
   0   1  -4 2025.43   86.98   1 0.33668-0.45482-0.88148 0.87856-0.33108 0.14581
   0   1   4 2746.72  135.26   1 0.18110-0.29937-0.94766 0.95095 0.26292-0.07783
   0  -1  -4 1883.05  104.15   1 0.31290-0.19471-0.94580 0.94239 0.08686-0.27197
   0  -1   4 2699.81   86.99   1 0.46136-0.34317-0.87454 0.87761-0.14938 0.33469
   0   1  -4 2141.66   60.06   1 0.62378-0.74209-0.58428 0.58133-0.51913 0.33368
   0  -1  -4 2522.88  228.43   1-0.71521 0.83333 0.37050-0.37337-0.59261 0.40760
   0   1   4 2610.55   83.54   1-0.87608 0.75809 0.21515-0.21226-0.43148 0.61663
   0   1  -4 2465.66  101.16   1-0.80753 0.68942-0.44081 0.43794 0.39188-0.57697
   0  -1   4 2884.66  109.28   1-0.63938 0.75770-0.53981 0.54263 0.54753-0.36253
   0   1   5 1229.43  127.41   1 0.61252-0.73077-0.63656 0.64013 0.46861-0.23705
   0  -1  -5 1075.78   63.22   1 0.55143-0.43319-0.82090 0.81722 0.14843-0.38010
   0  -1   5 1012.13   85.10   1 0.46784-0.34972-0.88026 0.88386-0.07907 0.31060
   0   1  -5  889.79   88.11   1 0.34922-0.46738-0.88421 0.88055-0.31018 0.07859
   0   1   5 1017.79  105.22   1 0.18535-0.30366-0.94830 0.95241 0.25760-0.02624
   0  -1  -5  894.28   79.31   1 0.34113-0.22291-0.93890 0.93465 0.04562-0.27700
   0  -1   5  995.21   80.57   1 0.39707-0.27887-0.91685 0.92069-0.04141 0.27304
   0   1  -5  809.86   60.36   1 0.59870-0.71702-0.66857 0.66488-0.44109 0.20927
   0  -1  -5 1139.79  144.87   1-0.77326 0.89129 0.32365-0.32720-0.54526 0.31388
   0   1   5 1134.40   74.92   1-0.93454 0.81657 0.12659-0.12297-0.33256 0.56399
   0   1  -5 1040.44   82.58   1-0.87312 0.75463-0.37818 0.37452 0.30762-0.53876
   0  -1   5 1059.62   89.34   1-0.69116 0.80932-0.51515 0.51873 0.50686-0.27549
   0   1   6  913.20   98.22   1 0.60976-0.72803-0.66326 0.66754 0.43389-0.15602
   0  -1  -6  802.54   64.61   1 0.52797-0.40995-0.84608 0.84176 0.07339-0.35122
   0  -1   6  648.87   76.10   1 0.48866-0.37054-0.87194 0.87626-0.03015 0.30798
   0   1  -6  841.11  100.92   1 0.35465-0.47284-0.88523 0.88084-0.30095 0.02305
   0   1   6  849.63  102.56   1 0.18395-0.30230-0.94810 0.95303 0.25935 0.01827
   0  -1   6  795.02   87.31   1 0.35061-0.23240-0.93602 0.94062 0.03055 0.24740
   0  -1  -6  636.93   79.58   1 0.36621-0.24814-0.93050 0.92589 0.00688-0.28484
   0   1  -6  687.25   67.88   1 0.58368-0.70203-0.70583 0.70140-0.40138 0.12320
   0  -1  -6 1045.42  123.44   1-0.80804 0.92608 0.29148-0.29575-0.51195 0.23430
   0   1   6  804.35   64.50   1-0.96755 0.84984 0.05258-0.04826-0.24713 0.52482
   0   1  -6  641.06   72.94   1-0.91652 0.79786-0.32500 0.32060 0.23315-0.51051
   0  -1   6 1031.86   84.75   1-0.72260 0.84082-0.49799 0.50229 0.47941-0.20177
   0   1   722573.12  576.64   1 0.60790-0.72620-0.67633 0.68132 0.41595-0.09176
   0  -1  -724110.33  526.87   1 0.50626-0.38826-0.86226 0.85722 0.01412-0.33825
   0  -1   719348.92  464.17   1 0.50573-0.38759-0.86259 0.86763 0.01272 0.31141
   0   1  -722034.83  509.85   1 0.35559-0.47379-0.88540 0.88028-0.29935-0.02486
   0   1   724828.93  586.72   1 0.17877-0.29716-0.94729 0.95305 0.26582 0.05808
   0  -1   723403.62  513.82   1 0.31280-0.19489-0.94582 0.95177 0.08701 0.23692
   0  -1  -720745.66  482.11   1 0.38807-0.27002-0.92122 0.91585-0.02713-0.29715
   0   1  -719543.90  432.73   1 0.57608-0.69444-0.72237 0.71720-0.38250 0.05795
   0  -1  -723462.81  597.02   1-0.82889 0.94693 0.27038-0.27536-0.48972 0.16579
   0   1   721683.71  474.96   1-0.98467 0.86699-0.00873 0.01376-0.17416 0.49812
   0   1  -721266.63  483.24   1-0.94597 0.82714-0.27725 0.27212 0.16812-0.49171
   0  -1   724002.96  532.13   1-0.74143 0.85970-0.48680 0.49182 0.46184-0.13793
   0   1   825767.24  568.45   1 0.60706-0.72538-0.68158 0.68729 0.40854-0.03804
   0  -1  -826935.92  388.79   1 0.48644-0.36845-0.87298 0.86723-0.03554-0.33489
   0  -1   824050.00  395.96   1 0.52018-0.40203-0.85250 0.85826 0.05145 0.31898
   0   1   825250.14  419.25   1 0.17090-0.28934-0.94596 0.95254 0.27558 0.09459
   0  -1   827509.64  397.49   1 0.28095-0.16306-0.95060 0.95741 0.13195 0.23826
   0  -1  -826938.06  409.03   1-0.84086 0.95890 0.25753-0.26323-0.47605 0.10584
   0   1   827970.00  390.04   1-0.99200 0.87434-0.06110 0.06685-0.11042 0.48067
   0   1  -824492.78  367.75   1-0.96630 0.84750-0.23277 0.22686 0.10989-0.47986
   0  -1   828415.73  407.17   1-0.75178 0.87010-0.48032 0.48605 0.45178-0.08159
   0   1   9 8528.73  423.68   1 0.60701-0.72534-0.68190 0.68832 0.40809 0.00872
   0  -1   9 7647.24  234.53   1 0.53272-0.41456-0.84178 0.84825 0.08722 0.32952
   0  -1  -9 8190.17  196.29   1 0.46788-0.34990-0.88025 0.87377-0.07898-0.33776
   0   1   9 8692.19  247.21   1 0.16102-0.27950-0.94407 0.95147 0.28773 0.12871
   0  -1   9 7832.94  193.78   1 0.25225-0.13439-0.95241 0.96006 0.17112 0.24537
   0   1  -9 7178.16  177.85   1 0.57368-0.69208-0.72731 0.72067-0.37668-0.04058
   0  -1  -9 8421.20  314.47   1-0.84686 0.96491 0.25087-0.25727-0.46891 0.05244
   0   1   9 7031.95  155.97   1-0.99290 0.87663-0.10728 0.11394-0.05124 0.46746
   0   1  -9 7327.96  184.95   1-0.97950 0.86055-0.19295 0.18630 0.05784-0.47406
   0   1  10  389.47   66.91   1 0.60751-0.72587-0.67882 0.68595 0.41245 0.05067
   0  -1  10  583.96  119.01   1 0.54378-0.42561-0.83048 0.83768 0.12080 0.34225
   0  -1  10  388.61  102.25   1 0.22551-0.10768-0.95209 0.96060 0.20654 0.25622
   0   1  10  198.70   86.58   1 0.14957-0.26809-0.94160 0.94983 0.30165 0.16106
   0   1 -10  339.49   83.10   1 0.57614-0.69455-0.72224 0.71486-0.38265-0.08098
   0  -1 -10  619.06   90.44   1-0.84860 0.96666 0.24890-0.25602-0.46680 0.00405
   0   1 -10  306.75   67.39   1-0.98771 0.86862-0.15592 0.14853 0.01022-0.47268
   0   1  11 2531.43  253.67   1 0.60838-0.72675-0.67323 0.68108 0.42027 0.08916
   0  -1  11 2091.17  163.01   1 0.55297-0.43501-0.81892 0.82701 0.15356 0.35611
   0   1  11 2448.59  192.60   1 0.13686-0.25541-0.93851 0.94756 0.31694 0.19205
   0  -1  11 2174.06  156.65   1 0.20002-0.08221-0.95008 0.95944 0.23941 0.26963
   0  -1 -11 2688.82  295.53   1-0.84713 0.96519 0.25057-0.25839-0.46859-0.04043
   0   1 -11 2067.00  128.87   1-0.99206 0.87282-0.12109 0.11296-0.03391-0.47478
   0   1  12  171.12   60.73   1 0.60944-0.72784-0.66567 0.67423 0.43064 0.12510
   0  -1  12  150.59   81.92   1 0.56184-0.44389-0.80647 0.81530 0.18419 0.37180
   0   1  12  106.21   91.12   1 0.12307-0.24167-0.93475 0.94462 0.33328 0.22198
   0  -1  12  177.33   78.00   1 0.17556-0.05795-0.94677 0.95663 0.26981 0.28545
   0  -1 -12  128.00   69.63   1-0.84307 0.96114 0.25509-0.26363-0.47343-0.08186
   0   1 -12  139.23   76.77   1-0.99312 0.87493-0.08763 0.07900-0.07762-0.47774
   0   1  13 4886.90  395.77   1 0.61058-0.72900-0.65648 0.66575 0.44295 0.15910
   0  -1  13 4372.91  224.71   1 0.56983-0.45190-0.79345 0.80301 0.21381 0.38852
   0   1  13 5011.36  270.89   1 0.10837-0.22701-0.93028 0.94097 0.35047 0.25106
   0  -1  13 4298.97  217.95   1 0.15134-0.03377-0.94201 0.95270 0.29951 0.30202
   0  -1 -13 4894.62  447.91   1-0.83684 0.95491 0.26191-0.27116-0.48071-0.12086
   0   1 -13 4486.62  209.28   1-0.99157 0.87336-0.05589 0.04654-0.11682-0.48483
   0   1  14  138.44   79.81   1 0.61170-0.73014-0.64588 0.65587 0.45677 0.19160
   0  -1  14  391.30  141.29   1 0.57705-0.45914-0.77983 0.79013 0.24261 0.40605
   0  -1  14  511.34  121.23   1 0.12739-0.00986-0.93598 0.94749 0.32819 0.31962
   0   1  14  454.62   98.70   1 0.09286-0.21155-0.92504 0.93655 0.36833 0.27947
   0  -1 -14  148.54   89.71   1-0.82868 0.94675 0.27060-0.28056-0.48995-0.15790
   0   1 -14  404.48   68.36   1-0.98771 0.86948-0.02525 0.01518-0.15419-0.49373
   0   1  15 9735.58  953.00   1 0.61272-0.73118-0.63403 0.64473 0.47177 0.22291
   0  -1  1510062.22  662.52   1 0.58356-0.46567-0.76559 0.77662 0.27075 0.42425
   0  -1  15 8762.65  579.07   1 0.10354 0.01394-0.92870 0.94103 0.35607 0.33801
   0   1  15 9047.55  602.50   1 0.07662-0.19534-0.91899 0.93133 0.38674 0.30734
   0  -1 -1510835.75  890.42   1-0.81874 0.93682 0.28084-0.29152-0.50078-0.19334
   0   1 -15 9675.66  612.77   1-0.98175 0.86349 0.00451-0.01530-0.19008-0.50412
   0   1  16  213.77   91.13   1 0.61355-0.73204-0.62101 0.63243 0.48773 0.25327
   0  -1  16  233.22  110.05   1 0.58942-0.47154-0.75072 0.76248 0.29832 0.44301
   0  -1  16  226.97   99.56   1 0.07965 0.03778-0.92017 0.93332 0.38332 0.35702
   0   1  16  557.88  187.96   1 0.05969-0.17845-0.91209 0.92525 0.40560 0.33475
   0  -1 -16   67.13   47.92   1-0.80709 0.92518 0.29240-0.30379-0.51292-0.22748
   0   1 -16  173.24   56.78   1-0.97383 0.85554 0.03360-0.04510-0.22474-0.51575
   0   1  17  221.22  104.45   1 0.61416-0.73266-0.60689 0.61902 0.50445 0.28285
   0  -1  17  223.63  114.68   1 0.59464-0.47678-0.73517 0.74767 0.32544 0.46223
   0   1  17  138.95   96.68   1 0.04212-0.16093-0.90428 0.91826 0.42484 0.36178
   0  -1  17  138.27   72.48   1 0.05564 0.06176-0.91035 0.92433 0.41007 0.37655
   0  -1 -17  154.12   74.52   1-0.79378 0.91186 0.30509-0.31719-0.52613-0.26054
   0   1 -17  214.86   68.69   1-0.96399 0.84570 0.06248-0.07478-0.25847-0.52838
   0   1  18   42.89   70.52   1 0.61448-0.73300-0.59170 0.60454 0.52181 0.31181
   0  -1  18   20.43   78.12   1 0.59925-0.48141-0.71893 0.73216 0.35217 0.48184
   0   1  18   67.46   87.78   1 0.02393-0.14278-0.89551 0.91031 0.44439 0.38851
   0  -1  18  183.67   90.21   1 0.03140 0.08595-0.89920 0.91400 0.43640 0.39649
   0  -1 -18   34.73   41.97   1-0.77878 0.89687 0.31877-0.33157-0.54025-0.29269
   0   1 -18   68.13   36.20   1-0.95233 0.83403 0.09064-0.10366-0.29126-0.54189
   0   1  19  255.01  126.10   1 0.61446-0.73300-0.57545 0.58901 0.53970 0.34023
   0  -1  19   66.06   67.19   1 0.60310-0.48533-0.70238 0.71593 0.37806 0.50188
   0   1  19  489.35  166.52   1 0.00536-0.12426-0.88610 0.90133 0.46344 0.41492
   0  -1  19  180.66  106.84   1 0.00715 0.11024-0.88706 0.90229 0.46158 0.41679
   0  -1 -19  153.54   79.69   1-0.76205 0.88014 0.33331-0.34683-0.55513-0.32410
   0   1 -19  218.92   68.23   1-0.93883 0.82051 0.11850-0.13224-0.32332-0.55611
   0  -2   0119560.0  569.79   1 0.11813 0.11813-0.76902 0.76902-0.62821 0.62821
   0   2   0114853.1  529.55   1-0.11815-0.11815-0.80322 0.80322 0.58384-0.58384
   0  -2   0118903.3  535.88   1 0.11810 0.11810-0.93329 0.93329 0.33913-0.33913
   0  -2   0115721.4  598.93   1 0.11819 0.11819-0.61256 0.61256 0.78153-0.78153
   0  -2   1 1624.11  107.13   1 0.22329 0.01293-0.83572 0.83638-0.50170 0.54798
   0   2  -1 1334.08   99.19   1 0.02135-0.25757-0.68878 0.68808-0.72465 0.67837
   0  -2  -1 2355.27   99.97   1-0.02970 0.26589-0.63991 0.63921-0.76787 0.72159
   0   2   1 2160.31  101.96   1-0.30099 0.06472-0.29701 0.29772-0.90619 0.95245
   0   2  -1 1553.77   64.94   1-0.25686 0.02070-0.66987 0.66914 0.69662-0.74284
   0   2   1 2073.50   92.89   1-0.02823-0.20810-0.86677 0.86757 0.49790-0.45167
   0  -2   1 1520.93   66.26   1 0.04263 0.19353-0.90452 0.90534 0.42428-0.37801
   0  -2  -1 2483.82  113.53   1 0.17286 0.06338-0.94630 0.94548 0.27316-0.31943
   0   2  -1 1569.36  125.10   1-0.26376 0.02783-0.63009 0.62938 0.73034-0.77659
   0  -2   1 1647.94  107.98   1-0.02737 0.26375-0.63040 0.63107 0.77578-0.72950
   0   2   1 2787.47  156.18   1 0.02810-0.26446-0.62545 0.62617 0.77975-0.73346
   0  -2  -1 2203.39  103.88   1 0.27163-0.03527-0.57822 0.57750 0.76933-0.81562
   0  -2  -2108958.3  499.27   1-0.21030 0.44651-0.42810 0.42664-0.87891 0.78651
   0  -2   2108009.3  447.61   1-0.06847 0.30469-0.84047 0.84208 0.53750-0.44504
   0   2   2104723.8  554.37   1 0.02928-0.26557-0.89816 0.89980 0.43868-0.34613
   0  -2  -2111992.3  570.59   1 0.21545 0.02078-0.95149 0.94979 0.21963-0.31218
   0   2  -2112453.7  634.89   1-0.39970 0.16366-0.61249 0.61107 0.68196-0.77447
   0  -2   2109926.8  580.55   1-0.15605 0.39257-0.63519 0.63652 0.75642-0.66387
   0  -2  -3 4775.80  192.15   1 0.58477-0.34811-0.35132 0.34923 0.73116-0.86997
   0  -2   3 3900.50  138.08   1 0.34945-0.11329-0.88425 0.88645-0.30978 0.44873
   0   2  -3 3044.59  121.63   1 0.17692-0.41330-0.80908 0.80711-0.56042 0.42159
   0   2  -3 3366.48  102.60   1-0.61917 0.38304 0.07566-0.07757 0.78160-0.92046
   0  -2   3 3698.86   58.49   1-0.23324 0.46950-0.69606 0.69824 0.67903-0.54039
   0   2   3 3501.37  118.77   1 0.06578-0.30211-0.91464 0.91711 0.39886-0.26004
   0  -2  -3 4275.62  133.24   1 0.25054-0.01428-0.95244 0.94989 0.17341-0.31224
   0   2   3 3604.15  321.88   1-0.55718 0.32109 0.46926-0.46710-0.68507 0.82383
   0   2  -3 3245.01  145.49   1-0.52039 0.28431-0.58279 0.58067 0.62413-0.76287
   0  -2  -4 2343.90  164.99   1 0.61430-0.37792-0.56662 0.56377 0.54914-0.73439
   0  -2   4 1788.12  117.19   1 0.38945-0.15327-0.88943 0.89236-0.23923 0.42449
   0   2  -4 1721.88   98.31   1 0.21740-0.45393-0.83257 0.82990-0.50945 0.32435
   0  -2  -4 1803.55   78.12   1-0.48995 0.72619 0.06060-0.06352-0.86964 0.68454
   0  -2   4 1773.80   43.54   1-0.42645 0.66273-0.43085 0.43367 0.79530-0.61050
   0   2   4 1687.93  121.30   1 0.08865-0.32502-0.92352 0.92681 0.37314-0.18805
   0  -2  -4 1933.36  113.99   1 0.28066-0.04438-0.95063 0.94723 0.13235-0.31746
   0  -2  -4 1817.45   92.43   1-0.38681 0.62282 0.54358-0.54652-0.74490 0.55981
   0   2   4 1502.69  224.34   1-0.67293 0.43681 0.40054-0.39767-0.62186 0.80687
   0   2  -4 1491.56  111.27   1-0.62245 0.38625-0.54700 0.54418 0.55976-0.74475
   0  -2   4 2090.68  123.44   1-0.35107 0.58733-0.62042 0.62327 0.70129-0.51629
   0   2   514736.10  324.38   1 0.55165-0.78804-0.22700 0.23057 0.80258-0.57080
   0  -2  -517134.55  403.19   1 0.60498-0.36857-0.69315 0.68958 0.39183-0.62339
   0  -2   517280.40  426.58   1 0.42093-0.18472-0.88925 0.89291-0.17900 0.41058
   0   2  -514906.46  365.84   1 0.24390-0.48052-0.84611 0.84277-0.47391 0.24253
   0  -2   516353.51  365.38   1-0.56556 0.80180-0.12418 0.12736 0.81530-0.58385
   0   2   515798.25  398.64   1 0.10228-0.33870-0.92828 0.93239 0.35752-0.12616
   0  -2  -517258.58  418.27   1 0.30732-0.07100-0.94686 0.94261 0.09486-0.32625
   0  -2   516651.46  353.59   1 0.54055-0.30415-0.78494 0.78859-0.30274 0.53442
   0  -2  -516388.22  387.74   1-0.46737 0.70335 0.51174-0.51541-0.72088 0.48953
   0   2   516138.35  447.02   1-0.76668 0.53064 0.32935-0.32580-0.55110 0.78247
   0   2  -516662.24  410.29   1-0.70713 0.47106-0.50666 0.50308 0.49320-0.72457
   0  -2   517108.24  400.86   1-0.41867 0.65504-0.60887 0.61244 0.67377-0.44252
   0   2   630620.25  722.76   1 0.58240-0.81878-0.33711 0.34138 0.73970-0.46157
   0  -2  -631662.67  657.04   1 0.58305-0.34664-0.76680 0.76239 0.26843-0.54643
   0  -2   631903.49  713.52   1 0.44659-0.21036-0.88578 0.89017-0.12623 0.40414
   0  -2   630356.30  661.37   1-0.62683 0.86298 0.11495-0.11089 0.77062-0.49291
   0   2   629858.02  679.22   1 0.10941-0.34586-0.93060 0.93554 0.34927-0.07164
   0  -2   632301.03  663.48   1 0.44886-0.21252-0.88445 0.88906-0.12751 0.40547
   0  -2  -632464.23  708.22   1-0.52930 0.76548 0.48337-0.48769-0.69726 0.41975
   0   2   632266.19  695.30   1-0.83907 0.60302 0.25949-0.25522-0.47813 0.75579
   0   2  -631043.10  693.02   1-0.77555 0.53943-0.46449 0.46019 0.42750-0.70514
   0  -2   632629.29  702.59   1-0.47030 0.70678-0.59743 0.60170 0.64952-0.37202
   0   2   7 5518.54  218.95   1 0.59679-0.83325-0.40927 0.41415 0.69016-0.36628
   0  -2  -7 4827.87  122.69   1 0.55821-0.32178-0.81179 0.80664 0.17141-0.49575
   0  -2   7 4470.44  178.84   1 0.46784-0.23164-0.88026 0.88530-0.07907 0.40320
   0  -2   7 5124.63  137.52   1-0.64559 0.88180 0.26866-0.26392 0.71485-0.39085
   0   2   7 5751.99  217.41   1 0.11178-0.34828-0.93135 0.93711 0.34651-0.02260
   0  -2   7 4554.06  116.11   1 0.37862-0.14226-0.92546 0.93084-0.01230 0.33658
   0  -2  -7 4404.45  250.32   1-0.57665 0.81286 0.45889-0.46393-0.67592 0.35215
   0   2   7 4972.69  143.03   1-0.89357 0.65757 0.19185-0.18678-0.40585 0.72986
   0   2  -7 4249.78  179.84   1-0.83041 0.59424-0.42187 0.41685 0.36391-0.68782
   0   2   8 4005.12  235.01   1 0.60439-0.84080-0.45568 0.46125 0.65349-0.28334
   0  -2  -8 3359.20  102.05   1 0.53480-0.29874-0.83980 0.83404 0.09337-0.46381
   0  -2   8 3443.90  179.11   1 0.48628-0.25007-0.87306 0.87881-0.03593 0.40637
   0  -2   8 3808.63   93.20   1-0.64779 0.88424 0.36338-0.35803 0.66955-0.29985
   0   2   8 3093.18  189.84   1 0.11057-0.34711-0.93097 0.93755 0.34792 0.02225
   0  -2   8 3822.37  120.50   1 0.32352-0.08755-0.94351 0.95031 0.07150 0.29871
   0  -2  -8 4226.36  425.99   1-0.61187 0.84811 0.43899-0.44475-0.65794 0.28791
   0   2   8 3419.61  113.56   1-0.93284 0.69686 0.12972-0.12393-0.33612 0.70641
   0   2  -8 2975.46  149.99   1-0.87479 0.63815-0.37638 0.37052 0.30506-0.67488
   0   2   912986.52  290.36   1 0.60825-0.84461-0.48556 0.49183 0.62789-0.21147
   0  -2   912568.69  301.07   1 0.50237-0.26614-0.86464 0.87112 0.00405 0.41269
   0  -2  -912408.17  217.19   1 0.51145-0.27540-0.85886 0.85238 0.02776-0.44451
   0  -2   913561.55  193.34   1-0.64591 0.88243 0.42155-0.41553 0.63646-0.22054
   0   2   912871.46  348.43   1 0.10658-0.34316-0.92969 0.93710 0.35256 0.06389
   0  -2   912736.59  215.22   1 0.27910-0.04315-0.95079 0.95844 0.13451 0.28198
   0  -2  -913570.50  467.38   1-0.63746 0.87372 0.42353-0.43001-0.64363 0.22735
   0   2  -912096.71  262.84   1-0.90910 0.67229-0.33523 0.32863 0.24729-0.66334
   0   2  10 1561.71  142.85   1 0.61022-0.84653-0.50429 0.51125 0.61099-0.14830
   0  -2  10 1539.22  177.84   1 0.51658-0.28035-0.85522 0.86242 0.04158 0.42146
   0  -2  10 1179.33   83.01   1-0.64328 0.87986 0.45686-0.45017 0.61438-0.15224
   0   2  10 1568.56  165.17   1 0.10036-0.33698-0.92763 0.93586 0.35974 0.10298
   0  -2  10 1277.03   97.01   1 0.24088-0.00495-0.95250 0.96101 0.18631 0.27646
   0  -2 -10 2020.79  267.48   1-0.65539 0.89169 0.41215-0.41934-0.63292 0.17038
   0   2 -10 1145.08  121.29   1-0.93582 0.69884-0.29527 0.28794 0.19248-0.65475
   0   2  11  392.95   59.41   1 0.61120-0.84745-0.51518 0.52284 0.60084-0.09189
   0  -2  11  227.83  114.88   1 0.52928-0.29303-0.84492 0.85284 0.07717 0.43218
   0  -2  11  246.30   53.54   1-0.64120 0.87785 0.47725-0.46989 0.60089-0.09255
   0   2  11  169.36   98.34   1 0.09232-0.32898-0.92484 0.93389 0.36896 0.14003
   0  -2  11  303.70   83.64   1 0.20661 0.02928-0.95076 0.96012 0.23100 0.27805
   0  -2 -11  275.56   73.98   1-0.66720 0.90353 0.40439-0.41230-0.62554 0.11675
   0   2 -11  490.05  111.97   1-0.95664 0.71979-0.25544 0.24731 0.13993-0.64863
   0   2  12 1322.71  139.23   1 0.61161-0.84782-0.52034 0.52870 0.59595-0.04073
   0  -2  12  900.18  134.83   1 0.54069-0.30444-0.83383 0.84247 0.11119 0.44446
   0  -2  12  721.71   74.18   1-0.64002 0.87673 0.48738-0.47935 0.59399-0.03943
   0   2  12 1833.72  214.90   1 0.08275-0.31946-0.92134 0.93121 0.37982 0.17544
   0  -2  12  903.29  101.19   1 0.17527 0.06044-0.94672 0.95659 0.27017 0.28509
   0  -2 -12  952.05  145.72   1-0.67402 0.91038 0.39981-0.40844-0.62115 0.06612
   0   2 -12  652.53   99.24   1-0.97178 0.73478-0.21789 0.20902 0.09033-0.64528
   0   2  1386855.67 4104.83   1 0.61168-0.84784-0.52115 0.53021 0.59517 0.00631
   0  -2  1379463.19 3705.24   1 0.55035-0.31426-0.82227 0.83183 0.14485 0.45748
   0   2  1387252.16 4061.42   1 0.07189-0.30864-0.91713 0.92782 0.39204 0.20949
   0  -2  1389043.02 4110.71   1 0.14529 0.09037-0.94060 0.95130 0.30682 0.29471
   0  -2 -1385953.76 3985.20   1-0.67670 0.91309 0.39799-0.40734-0.61940 0.01811
   0   2 -1375375.31 3499.42   1-0.98245 0.74531-0.18146 0.17185 0.04298-0.64418
   0   2  14   24.53   53.85   1 0.61147-0.84758-0.51854 0.52829 0.59767 0.05008
   0  -2  14  654.16  127.82   1 0.55968-0.32361-0.80968 0.81997 0.17654 0.47213
   0  -2  14  404.55  106.64   1 0.11643 0.11920-0.93279 0.94430 0.34109 0.30672
   0   2  14  488.89  148.96   1 0.05989-0.29668-0.91218 0.92369 0.40538 0.24242
   0  -2 -14  244.18   85.73   1-0.67586 0.91227 0.39856-0.40864-0.61996-0.02758
   0   2 -14  380.32  101.77   1-0.98927 0.75198-0.14603 0.13568-0.00237-0.64506
   0   2  15 3381.50  360.54   1 0.61102-0.84708-0.51312 0.52357 0.60278 0.09124
   0  -2  15 3740.29  231.51   1 0.56814-0.33208-0.79637 0.80741 0.20735 0.48765
   0   2  15 3171.18  228.06   1 0.04688-0.28371-0.90646 0.91880 0.41966 0.27442
   0  -2  15 3755.93  185.04   1 0.08825 0.14733-0.92338 0.93572 0.37359 0.32049
   0  -2 -15 3603.94  299.86   1-0.67194 0.90838 0.40122-0.41201-0.62250-0.07128
   0   2 -15 3067.87  156.67   1-0.99270 0.75526-0.11147 0.10038-0.04599-0.64769
   0   2  16  881.41  154.32   1 0.61032-0.84632-0.50534 0.51648 0.61002 0.13026
   0  -2  16  506.89  148.61   1 0.57579-0.33976-0.78235 0.79412 0.23743 0.50391
   0   2  16 1046.63  169.06   1 0.03297-0.26983-0.89995 0.91311 0.43473 0.30562
   0  -2  16  866.18  111.14   1 0.06048 0.17507-0.91242 0.92558 0.40474 0.33561
   0  -2 -16  712.43  125.06   1-0.66525 0.90172 0.40568-0.41720-0.62677-0.11326
   0   2 -16  650.08   82.96   1-0.99290 0.75674-0.07755 0.06604-0.09013-0.65036
   0   2  17  322.40  126.92   1 0.60934-0.84529-0.49550 0.50734 0.61901 0.16755
   0  -2  17  807.97  138.80   1 0.58270-0.34668-0.76761 0.78011 0.26688 0.52079
   0  -2  17  482.10   87.21   1 0.03285 0.20265-0.89990 0.91388 0.43485 0.35178
   0   2  17  885.46  167.63   1 0.01833-0.25531-0.89293 0.90655 0.44980 0.33610
   0  -2 -17  656.35  141.31   1-0.65602 0.89252 0.41174-0.42397-0.63253-0.15376
   0   2 -17  863.98  114.18   1-0.99039 0.75421-0.04436 0.03214-0.13093-0.65584
   0   2  18  538.00  136.86   1 0.60805-0.84395-0.48381 0.49635 0.62943 0.20339
   0  -2  18  549.77  151.60   1 0.58890-0.35290-0.75212 0.76536 0.29579 0.53821
   0   2  18  904.00  198.88   1 0.00283-0.23984-0.88473 0.89915 0.46608 0.36605
   0  -2 -18  521.63  182.02   1-0.64437 0.88090 0.41919-0.43215-0.63956-0.19298
   0   2 -18  400.23  113.51   1-0.98527 0.74906-0.01172-0.00122-0.17056-0.66249
   0   2  19  319.60   88.06   1 0.60640-0.84226-0.47043 0.48366 0.64106 0.23803
   0  -2  19  142.85   86.45   1 0.59442-0.35844-0.73587 0.74985 0.32425 0.55609
   0   2  19  386.74  205.61   1-0.01341-0.22363-0.87559 0.89081 0.48286 0.39551
   0  -2 -19   94.90   47.74   1-0.63039 0.86695 0.42789-0.44156-0.64769-0.23110
   0   2 -19   56.48   34.90   1-0.97766 0.74142 0.02049-0.03415-0.20917-0.67016
   0  -3   0  339.59  105.14   1 0.17719 0.17719-0.80925 0.80925-0.56009 0.56009
   0   3   0  104.25   72.21   1-0.17707-0.17707-0.47164 0.47164-0.86382 0.86382
   0   3   0  217.55   65.93   1-0.17708-0.17708-0.75264 0.75264 0.63416-0.63416
   0  -3   0   48.77   41.65   1 0.17715 0.17715-0.94703 0.94703 0.26783-0.26783
   0   3   0  203.61  142.69   1-0.17719-0.17719-0.63494 0.63494 0.75196-0.75196
   0  -3   0  318.44  101.29   1 0.17729 0.17729-0.60122 0.60122 0.77916-0.77916
   0  -3   1  802.80   95.05   1 0.24370 0.11059-0.84602 0.84668-0.47419 0.52046
   0  -3  -1  608.10   76.25   1 0.09331 0.26103-0.75015 0.74949-0.65464 0.60837
   0   3  -1  699.25   74.85   1-0.07434-0.27997-0.59342 0.59272-0.80145 0.75517
   0   3   1  492.42   75.86   1-0.29907-0.05534-0.30000 0.30071-0.90584 0.95210
   0   3  -1  730.07   60.94   1-0.27099-0.08322-0.65347 0.65275 0.70677-0.75298
   0   3   1  537.21   83.21   1-0.10724-0.24724-0.81185 0.81265 0.57392-0.52769
   0  -3   1  903.06   86.93   1 0.14170 0.21257-0.93973 0.94056 0.31114-0.26487
   0  -3  -1  600.88   63.58   1 0.20785 0.14644-0.95087 0.95002 0.22941-0.27569
   0   3  -1  785.66  139.35   1-0.27375-0.08009-0.62927 0.62855 0.72737-0.77362
   0   3   1  747.72  118.90   1-0.08084-0.27341-0.63369 0.63436 0.76934-0.72306
   0  -3   1  686.67   94.18   1 0.07957 0.27506-0.61873 0.61944 0.78156-0.73527
   0  -3  -1  614.48  103.51   1 0.27942 0.07513-0.57604 0.57532 0.76817-0.81446
   0  -3   2113667.0 2280.59   1 0.29649 0.05789-0.86815 0.86948-0.39799 0.49054
   0   3  -2100803.8 2034.00   1 0.00617-0.36050-0.67473 0.67333-0.73803 0.64548
   0  -3  -2116307.3 2316.12   1-0.00970 0.36398-0.65960 0.65821-0.75154 0.65899
   0   3   2101223.2 2017.34   1-0.42507 0.07068-0.07966 0.08112-0.90164 0.99419
   0   3  -2108683.4 2153.12   1-0.39040 0.03620-0.49075 0.48934 0.77893-0.87133
   0   3   2111390.8 2235.00   1-0.05610-0.29842-0.84892 0.85052 0.52552-0.43306
   0  -3   2109626.4 2167.92   1 0.09917 0.25506-0.92723 0.92888 0.36110-0.26856
   0  -3  -2112042.1 2242.27   1 0.23528 0.11904-0.95242 0.95072 0.19372-0.28627
   0   3   2117858.8 2363.41   1-0.38189 0.02775 0.54535-0.54388-0.74615 0.83869
   0   3  -2115465.6 2339.49   1-0.36814 0.01419-0.61786 0.61643 0.69477-0.78727
   0   3   2113872.0 2298.58   1 0.01209-0.36622-0.62679 0.62812 0.77908-0.68653
   0  -3   3 2405.32  159.56   1 0.33852 0.01568-0.88191 0.88411-0.32805 0.46700
   0   3  -3 1751.32  136.30   1 0.06658-0.42109-0.72856 0.72659-0.68172 0.54289
   0  -3  -3 1185.89   94.90   1-0.12602 0.48033-0.53427 0.53208-0.83586 0.69725
   0   3  -3 1501.04   59.43   1-0.52374 0.16966-0.23294 0.23098 0.81940-0.95805
   0   3   3 1044.04   92.69   1-0.01916-0.33540-0.87222 0.87462 0.48872-0.35003
   0  -3   3 1693.81   68.35   1 0.04558 0.30861-0.90587 0.90834 0.42108-0.28227
   0  -3  -3 1263.44  107.25   1 0.26030 0.09404-0.95213 0.94958 0.16025-0.29908
   0   3   3 1508.38  105.39   1-0.48175 0.12764 0.50545-0.50324-0.71584 0.85466
   0   3  -3 1760.23  152.36   1-0.45758 0.10352-0.60047 0.59833 0.65577-0.79453
   0   3   3 2055.24  188.76   1 0.09805-0.45253-0.61590 0.61804 0.78169-0.64282
   0  -3  -412269.43  308.67   1 0.59198-0.23696-0.38452 0.38173 0.70830-0.89337
   0  -3   410869.55  261.68   1 0.37331-0.01908-0.88801 0.89094-0.26844 0.45371
   0   3  -412063.73  267.50   1 0.11169-0.46623-0.76423 0.76160-0.63519 0.45008
   0  -3  -411412.32  212.44   1-0.24249 0.59685-0.38368 0.38076-0.89105 0.70624
   0   3  -410407.18  184.84   1-0.62820 0.27424 0.12292-0.12563 0.76827-0.95341
   0  -3   411647.65  162.15   1-0.02477 0.37907-0.86887 0.87207 0.49441-0.30949
   0   3   410435.99  255.37   1 0.00715-0.36176-0.88706 0.89027 0.46158-0.27666
   0   3  -412820.66  309.58   1-0.54077 0.18670-0.57659 0.57377 0.61245-0.79744
   0   3   412258.57  304.38   1 0.17660-0.53104-0.60137 0.60423 0.77920-0.59405
   0  -3  -529578.88  450.29   1 0.61394-0.25938-0.55493 0.55137 0.56134-0.79291
   0  -3   526832.44  454.67   1 0.40248-0.04823-0.88985 0.89351-0.21484 0.44643
   0  -3  -529045.59  394.76   1-0.34420 0.69859-0.22708 0.22357-0.91101 0.67969
   0  -3   525557.52  298.52   1-0.12104 0.47529-0.80088 0.80489 0.58645-0.35530
   0   3   526812.00  441.74   1 0.02564-0.38017-0.89636 0.90047 0.44257-0.21120
   0   3  -528017.13  473.65   1-0.61569 0.26151-0.54976 0.54624 0.56451-0.79575
   0   3   530669.08  507.23   1 0.24596-0.60036-0.58509 0.58867 0.77276-0.54131
   0  -3  -626832.84  453.00   1 0.60852-0.25394-0.67223 0.66795 0.42165-0.69953
   0  -3   625627.34  407.87   1 0.42740-0.07313-0.88868 0.89307-0.16602 0.44392
   0  -3  -627218.99  327.75   1-0.42216 0.77653-0.08540 0.08102-0.90248 0.62484
   0  -3   625294.22  231.92   1-0.24259 0.59703-0.68587 0.69022 0.68608-0.40881
   0   3   625214.83  407.61   1 0.03778-0.39234-0.90225 0.90718 0.42954-0.15191
   0  -3   627031.51  267.18   1 0.55113-0.19654-0.76823 0.77260-0.32567 0.60369
   0   3  -626304.79  428.75   1-0.68233 0.32804-0.51967 0.51544 0.51415-0.79164
   0  -3  -7 2008.62   74.24   1 0.58991-0.23533-0.74935 0.74420 0.30078-0.62512
   0  -3   7 2469.73  176.41   1 0.44904-0.09475-0.88527 0.89039-0.12098 0.44520
   0  -3  -7 2372.81  124.32   1-0.47712 0.83148 0.03078-0.03589-0.87829 0.55438
   0  -3   7 2080.82   53.30   1-0.36782 0.72230-0.52546 0.53040 0.76719-0.44379
   0   3   7 2007.80  143.05   1 0.04511-0.39971-0.90566 0.91141 0.42159-0.09768
   0  -3   7 1874.52   70.62   1 0.43666-0.08216-0.89328 0.89866-0.10659 0.43088
   0  -3  -7 2472.77  141.18   1-0.35525 0.70924 0.55458-0.55972-0.75248 0.42857
   0   3  -7 2187.78  221.08   1-0.74111 0.38704-0.48699 0.48197 0.46215-0.78606
   0  -3  -8 1768.19   88.61   1 0.56593-0.21133-0.80005 0.79416 0.19909-0.56976
   0  -3   8 2083.67  157.68   1 0.46784-0.11356-0.88026 0.88602-0.07907 0.44951
   0  -3  -8 2171.40  126.69   1-0.51434 0.86869 0.12107-0.12691-0.84899 0.47881
   0  -3   8 2287.67   82.81   1-0.46974 0.82409-0.35130 0.35653 0.80988-0.44016
   0   3   8 1852.95  192.02   1 0.04864-0.40328-0.90725 0.91383 0.41775-0.04757
   0  -3   8 2103.40   92.95   1 0.34221 0.01229-0.93863 0.94477 0.04312 0.32749
   0  -3  -8 2508.08  164.65   1-0.39676 0.75072 0.53995-0.54582-0.74231 0.37213
   0   3  -8 2914.30  211.09   1-0.79176 0.43763-0.45286 0.44712 0.40990-0.78009
   0   3   951983.46 1015.92   1 0.53928-0.89385-0.18935 0.19577 0.82055-0.40336
   0  -3  -949021.05  952.47   1 0.54172-0.18760-0.83273 0.82626 0.11438-0.53112
   0  -3   954077.53 1126.34   1 0.48478-0.13049-0.87373 0.88021-0.03953 0.45628
   0  -3   952821.12  988.89   1-0.53724 0.89164-0.19915 0.20504 0.81957-0.40363
   0   3   952390.66 1100.97   1 0.04908-0.40377-0.90745 0.91485 0.41726-0.00081
   0  -3   955321.81 1044.23   1 0.27052 0.08351-0.95152 0.95918 0.14632 0.27016
   0  -3  -956493.22 1142.22   1-0.43035 0.78429 0.52707-0.53367-0.73279 0.31634
   0   3  -950259.66 1041.97   1-0.83514 0.48096-0.41771 0.41126 0.35783-0.77429
   0   3  1029706.58  963.83   1 0.55563-0.91019-0.23976 0.24689 0.79610-0.33255
   0  -3 -1025987.83  841.72   1 0.51647-0.16236-0.85530 0.84811 0.04127-0.50432
   0  -3  1030660.96 1055.14   1 0.50000-0.14570-0.86602 0.87321-0.00198 0.46503
   0  -3  1025706.64  829.09   1-0.57843 0.93293-0.08414 0.09051 0.81137-0.34848
   0   3  1024178.52  852.54   1 0.04699-0.40172-0.90651 0.91474 0.41954 0.04317
   0  -3  1031499.89  996.00   1 0.21560 0.13841-0.95150 0.96001 0.21943 0.24334
   0  -3 -1029973.42  994.17   1-0.45691 0.81081 0.51620-0.52354-0.72440 0.26168
   0   3 -1030902.29 1042.44   1-0.87270 0.51808-0.37863 0.37130 0.30826-0.77053
   0   3  1111615.67  392.98   1 0.56645-0.92100-0.27630 0.28415 0.77638-0.26648
   0  -3  1111340.14  432.17   1 0.51375-0.15944-0.85726 0.86518 0.03392 0.47543
   0   3  1111709.79  465.00   1 0.04279-0.39756-0.90459 0.91364 0.42411 0.08487
   0  -3  1111734.11  370.29   1 0.17091 0.18294-0.94596 0.95500 0.27557 0.23342
   0  -3 -1112570.95  444.96   1-0.47726 0.83114 0.50743-0.51550-0.71744 0.20845
   0   3 -1110869.32  413.06   1-0.90341 0.54863-0.34269 0.33463 0.25767-0.76617
   0   3  12 1872.05  186.40   1 0.57356-0.92809-0.30217 0.31073 0.76138-0.20512
   0  -3  12 1541.30  177.95   1 0.52624-0.17192-0.84756 0.85620 0.06847 0.48718
   0   3  12 1711.40  200.74   1 0.03679-0.39160-0.90178 0.91165 0.43061 0.12465
   0  -3  12 1627.55  118.56   1 0.13152 0.22229-0.93711 0.94698 0.32329 0.23197
   0  -3 -12 1839.33  271.77   1-0.49217 0.84602 0.50076-0.50957-0.71203 0.15677
   0   3 -12 1216.04  144.57   1-0.92874 0.57378-0.30678 0.29798 0.20814-0.76287
   0   3  1324961.69 1739.67   1 0.57811-0.93264-0.31974 0.32901 0.75069-0.14808
   0  -3  1327682.70 1706.57   1 0.53763-0.18330-0.83699 0.84635 0.10188 0.50008
   0   3  1326338.94 1631.82   1 0.02923-0.38408-0.89813 0.90883 0.43873 0.16280
   0  -3  1323439.41 1403.09   1 0.09573 0.25804-0.92605 0.93674 0.36505 0.23648
   0  -3 -1326093.06 1656.80   1-0.50229 0.85611 0.49611-0.50566-0.70821 0.10667
   0   3 -1324168.24 1474.44   1-0.94922 0.59409-0.27102 0.26149 0.15975-0.76070
   0   3  14 1166.96  125.56   1 0.58085-0.93537-0.33073 0.34071 0.74378-0.09481
   0  -3  14 1359.88  164.26   1 0.54741-0.19319-0.82584 0.83614 0.13531 0.51336
   0   3  14 1535.04  191.57   1 0.02032-0.37532-0.89394 0.90516 0.44770 0.19951
   0  -3  14  828.96   74.32   1 0.06217 0.29156-0.91314 0.92465 0.40286 0.24494
   0  -3 -14 1268.87  188.46   1-0.50728 0.86170 0.49393-0.50401-0.70617 0.05863
   0   3 -14  741.09   98.82   1-0.96566 0.61077-0.23438 0.22403 0.11200-0.75945
   0   3  15  -42.49   37.51   1 0.58224-0.93674-0.33642 0.34712 0.74014-0.04481
   0  -3  15  238.34   93.41   1 0.55692-0.20271-0.81361 0.82464 0.16693 0.52807
   0   3  15    8.77  105.94   1 0.01022-0.36526-0.88870 0.90072 0.45835 0.23509
   0  -3 -15  108.00   84.03   1-0.50930 0.86375 0.49299-0.50378-0.70538 0.01158
   0   3 -15   -6.75   39.79   1-0.97776 0.62271-0.19911 0.18802 0.06583-0.75952
   0   3  16  641.24  159.72   1 0.58256-0.93705-0.33775 0.34916 0.73928 0.00239
   0  -3  16  597.22  131.55   1 0.56559-0.21141-0.80059 0.81236 0.19785 0.54348
   0   3  16  739.70  167.07   1-0.00095-0.35413-0.88265 0.89547 0.47002 0.26966
   0  -3 -16  595.85  173.08   1-0.50786 0.86233 0.49366-0.50518-0.70594-0.03409
   0   3 -16  469.96   83.53   1-0.98621 0.63102-0.16414 0.15231 0.02072-0.76066
   0   3  17  923.83  150.77   1 0.58199-0.93647-0.33540 0.34752 0.74080 0.04723
   0  -3  17  995.99  154.06   1 0.57350-0.21933-0.78678 0.79928 0.22818 0.55949
   0   3  17  929.19  212.00   1-0.01311-0.34200-0.87576 0.88938 0.48255 0.30335
   0  -3 -17  618.02  193.05   1-0.50417 0.85787 0.49524-0.50772-0.70749-0.07913
   0   3 -17  550.18   89.91   1-0.99130 0.63596-0.12946 0.11689-0.02336-0.76281
   0   3  18   51.11   41.18   1 0.58064-0.93511-0.32986 0.34269 0.74434 0.09004
   0  -3  18  256.42  124.16   1 0.58067-0.22652-0.77217 0.78541 0.25798 0.57603
   0   3  18  248.53  165.95   1-0.02619-0.32896-0.86801 0.88243 0.49585 0.33629
   0  -3 -18  221.87   80.98   1-0.49653 0.85021 0.49877-0.51198-0.71040-0.12249
   0   3 -18  187.02   62.07   1-0.99311 0.63904-0.09514 0.08220-0.06828-0.76476
   0  -4   0 5081.67  162.05   1 0.23613 0.23613-0.84230 0.84230-0.48451 0.48451
   0   4   0 5123.82  165.81   1-0.23610-0.23610-0.39268 0.39268-0.88885 0.88885
   0   4   0 5246.04  146.49   1-0.23611-0.23611-0.69296 0.69296 0.68121-0.68121
   0  -4   0 5398.82  150.08   1 0.23618 0.23618-0.95244 0.95244 0.19253-0.19253
   0   4   0 5305.56  246.59   1-0.23625-0.23625-0.63263 0.63263 0.73753-0.73753
   0  -4   1  233.80   53.35   1 0.28093 0.19142-0.86233 0.86300-0.42124 0.46751
   0  -4  -1  655.63   98.47   1 0.18324 0.28923-0.81298 0.81233-0.55269 0.50641
   0   4  -1  507.26   84.43   1-0.15419-0.31796-0.50034 0.49961-0.85198 0.80578
   0   4   1  646.89  113.34   1-0.32800-0.14454-0.25393 0.25463-0.90990 0.95617
   0   4  -1  419.44   51.25   1-0.30915-0.16311-0.60632 0.60559 0.73266-0.77887
   0   4   1  391.82   85.28   1-0.17741-0.29476-0.75233 0.75305 0.63444-0.58823
   0  -4   1  290.04   55.78   1 0.21909 0.25324-0.95174 0.95259 0.21490-0.16863
   0  -4  -1  578.74   80.97   1 0.25336 0.21902-0.95238 0.95153 0.16962-0.21590
   0   4  -1  633.38  134.84   1-0.30746-0.16429-0.62596 0.62525 0.71668-0.76293
   0   4   1  610.51  166.70   1-0.16544-0.30694-0.63511 0.63578 0.75448-0.70821
   0  -4   2 5624.02  182.07   1 0.31893 0.15353-0.87540 0.87674-0.36323 0.45579
   0  -4  -2 6093.58  165.48   1 0.12060 0.35183-0.77084 0.76952-0.62550 0.53295
   0   4  -2 6607.03  204.43   1-0.08509-0.38734-0.58168 0.58029-0.80894 0.71639
   0   4   2 5787.43  173.02   1-0.42233-0.05017-0.08507 0.08653-0.90243 0.99498
   0   4  -2 5446.75  120.48   1-0.39674-0.07548-0.48064 0.47923 0.78203-0.87443
   0   4   2 5804.46  182.60   1-0.13152-0.34115-0.79226 0.79387 0.59583-0.50336
   0  -4   2 5657.96  142.67   1 0.20230 0.27001-0.95033 0.95203 0.23651-0.14395
   0   4  -2 5108.29  242.72   1-0.37853-0.09333-0.61618 0.61475 0.69067-0.78317
   0   4   2 6591.02  243.14   1-0.09667-0.37558-0.63431 0.63564 0.76700-0.67445
   0  -4   3  486.73   81.56   1 0.35104 0.12120-0.88456 0.88675-0.30710 0.44605
   0  -4  -3  536.27   86.89   1 0.04800 0.42440-0.71281 0.71083-0.69971 0.56088
   0   4   3  338.12   51.75   1-0.50748 0.03497 0.10352-0.10132-0.85541 0.99423
   0   4  -3  453.36   44.88   1-0.49476 0.02270-0.29938 0.29742 0.81582-0.95447
   0   4   3  438.70   86.72   1-0.09564-0.37707-0.82076 0.82316 0.56320-0.42451
   0  -4   3  467.97   51.07   1 0.18614 0.28614-0.94832 0.95087 0.25695-0.11812
   0   4  -3  606.54  118.77   1-0.44781-0.02415-0.60271 0.60057 0.66045-0.79920
   0   4   3  275.40  106.50   1-0.03114-0.44098-0.63069 0.63269 0.77540-0.63657
   0  -4  -4 1282.28   72.86   1 0.57142-0.09859-0.29422 0.29137 0.76609-0.95151
   0  -4   4 1612.64  139.51   1 0.37918 0.09309-0.88864 0.89156-0.25794 0.44321
   0  -4  -4 1145.87   95.26   1-0.03335 0.50570-0.63625 0.63345-0.77076 0.58565
   0   4  -4 1301.98  161.27   1-0.58855 0.11639-0.05004 0.04750 0.80690-0.99206
   0   4   4 1499.85  150.74   1-0.06813-0.40462-0.84071 0.84391 0.53717-0.35225
   0  -4   4 1493.57   85.96   1 0.17107 0.30118-0.94599 0.94928 0.27538-0.09029
   0   4  -4 1387.46  178.25   1-0.51464 0.04270-0.58446 0.58164 0.62733-0.81232
   0   4   4 1547.51  183.26   1 0.02910-0.50174-0.62534 0.62820 0.77980-0.59465
   0  -4  -5   13.13   20.72   1 0.60561-0.13223-0.46440 0.46092 0.64618-0.87753
   0  -4   5   10.92   73.27   1 0.40388 0.06841-0.88986 0.89351-0.21219 0.44378
   0  -4  -5  359.85   98.74   1-0.11795 0.59029-0.54451 0.54102-0.83041 0.59903
   0   4  -5  103.07   24.49   1-0.64550 0.17357 0.26725-0.27064 0.71547-0.94690
   0   4   5  230.14  103.99   1-0.04740-0.42539-0.85467 0.85868 0.51699-0.28584
   0  -4   5  160.28   29.45   1 0.15858 0.31363-0.94357 0.94768 0.29072-0.05935
   0   4  -5  391.95  133.58   1-0.57748 0.10542-0.56428 0.56075 0.58999-0.82123
   0   4   5  205.98  144.53   1 0.08512-0.55772-0.61790 0.62148 0.78162-0.55018
   0  -4  -6 1006.23  106.21   1 0.61436-0.14163-0.59920 0.59492 0.51332-0.79120
   0  -4   6 1683.46  153.92   1 0.42579 0.04652-0.88884 0.89323-0.16927 0.44717
   0  -4  -6 1169.65  101.84   1-0.19941 0.67193-0.44262 0.43824-0.87425 0.59703
   0   4   6 1444.48  171.64   1-0.03218-0.44065-0.86434 0.86915 0.50186-0.22448
   0  -4   6 1161.97   48.38   1 0.15231 0.31989-0.94211 0.94721 0.29869-0.02103
   0  -4   6 1251.21   68.30   1 0.61844-0.14535-0.60566 0.61008-0.50070 0.77888
   0   4  -6 1253.89  177.65   1-0.63602 0.16385-0.54127 0.53704 0.54999-0.82748
   0   4   6  999.18  169.04   1 0.13563-0.60819-0.60945 0.61374 0.78112-0.50339
   0  -4  -7 2058.67  172.90   1 0.60403-0.13128-0.69792 0.69293 0.38476-0.70895
   0  -4   7 2727.95  213.36   1 0.44542 0.02691-0.88601 0.89113-0.12871 0.45293
   0  -4  -7 2876.66  165.22   1-0.27319 0.74571-0.33933 0.33441-0.90011 0.57626
   0   4   7 2933.09  245.83   1-0.02147-0.45140-0.87085 0.87646 0.49107-0.16745
   0  -4   7 2195.83   77.70   1 0.16414 0.30804-0.94459 0.95054 0.28426 0.03967
   0  -4   7 2226.34   83.43   1 0.46768 0.00508-0.86906 0.87416-0.16124 0.48560
   0   4  -7 3076.86  267.92   1-0.69012 0.21815-0.51568 0.51066 0.50772-0.83164
   0   4   7 2932.23  256.19   1 0.18040-0.65293-0.60056 0.60557 0.77895-0.45493
   0  -4  -8  321.92   47.32   1 0.58320-0.11045-0.76644 0.76056 0.26912-0.63980
   0  -4   8  798.22  155.38   1 0.46292 0.00942-0.88180 0.88755-0.09015 0.46059
   0  -4  -8  614.13   92.12   1-0.33482 0.80734-0.24272 0.23709-0.91048 0.54035
   0   4   8  854.21  157.60   1-0.01449-0.45842-0.87496 0.88137 0.48396-0.11412
   0   4  -8  538.39  117.31   1-0.73917 0.26714-0.48818 0.48244 0.46400-0.83419
   0   4   8  488.57  212.03   1 0.21941-0.69189-0.59171 0.59743 0.77571-0.40540
   0  -4  -919138.18  582.14   1 0.55727-0.08450-0.81312 0.80650 0.16814-0.58515
   0  -4   922213.04  746.18   1 0.47903-0.00667-0.87618 0.88266-0.05321 0.46996
   0  -4  -925487.00  783.09   1-0.38407 0.85657-0.15745 0.15112-0.90977 0.49338
   0   4   923167.77  788.35   1-0.01063-0.46231-0.87719 0.88440 0.48001-0.06394
   0   4  -923430.42  786.72   1-0.78331 0.31123-0.45901 0.45256 0.41919-0.83565
   0   4   926865.47  898.16   1 0.25277-0.72522-0.58331 0.58975 0.77190-0.35530
   0  -4  10 9326.61  618.62   1 0.49375-0.02138-0.86942 0.87661-0.01765 0.48071
   0  -4 -10 9567.37  594.85   1-0.42227 0.89474-0.08520 0.07789-0.90245 0.43972
   0   4  10 9401.99  634.08   1-0.00942-0.46357-0.87789 0.88590 0.47876-0.01646
   0   4 -1010357.67  677.65   1-0.82262 0.35049-0.42853 0.42135 0.37369-0.83642
   0   4  1010650.62  714.99   1 0.28075-0.75315-0.57566 0.58281 0.76797-0.30508
   0  -4  1114228.78  905.67   1 0.50726-0.03488-0.86162 0.86954 0.01673 0.49262
   0  -4 -1112313.72  753.02   1-0.45105 0.92352-0.02644 0.01840-0.89210 0.38309
   0   4  1112785.62  823.11   1-0.01045-0.46257-0.87729 0.88611 0.47983 0.02870
   0   4 -1113231.75  843.21   1-0.85811 0.38568-0.39362 0.38556 0.32970-0.83820
   0  -4  12  458.97  138.69   1 0.51970-0.04731-0.85287 0.86150 0.05013 0.50553
   0  -4 -12  212.99   86.49   1-0.47252 0.94498 0.02035-0.02912-0.88108 0.32580
   0   4  12   82.16   84.20   1-0.01343-0.45963-0.87557 0.88519 0.48288 0.07187
   0  -4 -12  150.58   71.88   1-0.32060 0.79251 0.56576-0.57457-0.75968 0.20442
   0   4 -12  185.46   95.39   1-0.88824 0.41564-0.36129 0.35249 0.28371-0.83843
   0  -4  13  201.25  121.80   1 0.53117-0.05877-0.84321 0.85257 0.08267 0.51928
   0  -4 -13   56.41   61.06   1-0.48832 0.96078 0.05674-0.06624-0.87081 0.26926
   0   4  13 -109.20   91.40   1-0.01812-0.45499-0.87284 0.88325 0.48766 0.11332
   0  -4 -13  326.29  105.66   1-0.33419 0.80607 0.56149-0.57103-0.75699 0.15546
   0   4 -13  258.49   88.29   1-0.91411 0.44135-0.32838 0.31885 0.23782-0.83877
   0  -4  14   97.35   90.42   1 0.54175-0.06935-0.83269 0.84277 0.11449 0.53377
   0  -4 -14  148.14   94.16   1-0.49974 0.97220 0.08423-0.09446-0.86206 0.21424
   0   4  14  439.71  205.42   1-0.02431-0.44884-0.86915 0.88036 0.49394 0.15327
   0  -4 -14  418.12  115.18   1-0.34367 0.81552 0.55842-0.56869-0.75501 0.10720
   0   4 -14   70.13   67.21   1-0.93595 0.46302-0.29504 0.28478 0.19217-0.83934
   0  -4  15  359.53  147.00   1 0.55091-0.07856-0.82156 0.83259 0.14672 0.54828
   0   4  15  721.08  191.99   1-0.03184-0.44134-0.86455 0.87657 0.50153 0.19192
   0  -4 -15   67.38   49.49   1-0.34932 0.82115 0.55656-0.56757-0.75379 0.05971
   0   4 -15  437.21   77.01   1-0.95434 0.48169-0.26034 0.24924 0.14645-0.84014
   0  -4  16  607.80  179.76   1 0.55990-0.08756-0.80935 0.82111 0.17734 0.56400
   0   4  16 1198.78  243.98   1-0.04058-0.43264-0.85906 0.87188 0.51025 0.22942
   0  -4 -16  761.28  130.01   1-0.35139 0.82318 0.55587-0.56762-0.75334 0.01299
   0   4 -16  419.80  101.13   1-0.96873 0.49592-0.22640 0.21457 0.10149-0.84143
   0  -4  17 5609.22  869.41   1 0.56817-0.09585-0.79631 0.80882 0.20748 0.58018
   0   4  17 5825.95  906.01   1-0.05043-0.42283-0.85268 0.86630 0.51998 0.26593
   0  -4 -17 6662.36  982.82   1-0.35004 0.82181 0.55632-0.56880-0.75363-0.03298
   0   4 -17 4699.92  703.76   1-0.97968 0.50673-0.19229 0.17972 0.05698-0.84316
   0  -5   0  204.56   72.69   1 0.29516 0.29516-0.86767 0.86767-0.40001 0.40001
   0   5   0  151.32   67.58   1-0.29514-0.29514-0.62414 0.62414 0.72342-0.72342
   0   5   0  337.13  113.03   1-0.29477-0.29477-0.62730 0.62730 0.72082-0.72082
   0  -5   1  104.22   53.70   1 0.32565 0.26477-0.87731 0.87798-0.35252 0.39879
   0  -5  -1  285.36   92.15   1 0.26064 0.32959-0.85385 0.85318-0.45055 0.40428
   0   5   1  459.81  103.16   1-0.36872-0.22196-0.18489 0.18559-0.91096 0.95722
   0   5  -1  165.20   59.79   1-0.35579-0.23440-0.54315 0.54245 0.76052-0.80672
   0   5   1  151.97   61.43   1-0.24397-0.34626-0.68435 0.68507 0.68712-0.64091
   0  -5   1  100.64   53.30   1 0.28892 0.30150-0.94969 0.95054 0.12085-0.07457
   0   5  -1   94.76  113.55   1-0.35090-0.23875-0.62045 0.61973 0.70135-0.74760
   0   5   1  406.70  153.21   1-0.23945-0.34999-0.63179 0.63250 0.73721-0.69096
   0  -5   2 1816.99  149.90   1 0.35242 0.23784-0.88482 0.88629-0.30475 0.39739
   0  -5  -2 2377.71  149.67   1 0.22135 0.36878-0.83469 0.83335-0.50427 0.41172
   0   5   2 2138.84  140.54   1-0.44299-0.14765-0.04332 0.04478-0.89547 0.98802
   0   5  -2 1864.32  103.74   1-0.42578-0.16446-0.43201 0.43060 0.79502-0.88742
   0   5   2 2622.33  170.48   1-0.20166-0.38853-0.72884 0.73029 0.65430-0.56188
   0  -5   2 1889.11  122.66   1 0.28550 0.30490-0.95010 0.95180 0.12563-0.03307
   0   5  -2 3140.46  306.65   1-0.40713-0.18264-0.61111 0.60969 0.67880-0.77130
   0   5   2 2530.45  244.92   1-0.18632-0.40407-0.63473 0.63606 0.74992-0.65737
   0  -5   310240.99  384.70   1 0.37661 0.21368-0.88838 0.89057-0.26256 0.40151
   0  -5  -3 9302.59  326.35   1 0.17722 0.41331-0.80927 0.80729-0.56006 0.42123
   0   5   3 8564.87  296.91   1-0.51141-0.07922 0.11352-0.11133-0.85179 0.99061
   0   5  -3 9791.90  320.86   1-0.50238-0.08765-0.28263 0.28067 0.81714-0.95579
   0   5   310503.69  392.23   1-0.16715-0.42299-0.76184 0.76402 0.62581-0.48717
   0  -5   3 9720.94  325.26   1 0.28636 0.30401-0.95000 0.95255 0.12443 0.01440
   0   5  -3 9063.07  389.61   1-0.46275-0.12713-0.59925 0.59711 0.65326-0.79201
   0   5   311329.95  497.49   1-0.13472-0.45553-0.63514 0.63713 0.76055-0.62172
   0  -5  -419292.86  585.46   1 0.56669 0.02435-0.27714 0.27429 0.77591-0.96133
   0  -5   420461.90  680.40   1 0.39846 0.19185-0.88979 0.89272-0.22245 0.40771
   0  -5  -419271.51  599.56   1 0.12691 0.46358-0.77542 0.77279-0.61855 0.43344
   0   5  -419010.02  593.32   1-0.57833-0.01179-0.08446 0.08191 0.81141-0.99656
   0   5   422042.06  732.88   1-0.13988-0.45102-0.78521 0.78841 0.60321-0.41829
   0  -5   419163.96  577.03   1 0.29402 0.29632-0.94900 0.95241 0.11370 0.07140
   0   5  -422369.76  783.22   1-0.51741-0.07240-0.58366 0.58084 0.62579-0.81078
   0   5   419798.02  687.40   1-0.08587-0.50426-0.63391 0.63657 0.76862-0.58352
   0  -5  -5 2270.50  240.76   1 0.60102-0.00923-0.43364 0.43016 0.67136-0.90270
   0  -5   5 2592.36  201.06   1 0.41834 0.17199-0.88942 0.89308-0.18412 0.41571
   0  -5  -5 3117.67  194.52   1 0.07110 0.51935-0.73231 0.72902-0.67724 0.44586
   0   5  -5 2138.73  175.20   1-0.63616 0.04631 0.17515-0.17853 0.75141-0.98284
   0   5   5 3127.13  233.87   1-0.11786-0.47307-0.80344 0.80745 0.58359-0.35244
   0  -5   5 2237.34  128.01   1 0.31379 0.27653-0.94562 0.94987 0.08558 0.14579
   0   5  -5 2861.94  265.93   1-0.57002-0.01990-0.56690 0.56338 0.59471-0.82595
   0   5   5 3454.00  290.36   1-0.04023-0.54977-0.63136 0.63468 0.77444-0.54306
   0  -5   6  826.10  132.64   1 0.43655 0.15381-0.88753 0.89192-0.14731 0.42521
   0  -5  -6  565.59   84.39   1 0.01033 0.58009-0.67862 0.67443-0.73441 0.45676
   0   5   6  220.73   68.97   1-0.10070-0.49027-0.81691 0.82172 0.56790-0.29051
   0   5  -6  832.09  193.47   1-0.62031 0.03027-0.54788 0.54365 0.56127-0.83876
   0   5   6  829.46  230.07   1 0.00182-0.59169-0.62783 0.63182 0.77834-0.50069
   0  -5   7  319.20   88.17   1 0.45330 0.13707-0.88431 0.88943-0.11180 0.43602
   0  -5  -7   68.08   46.75   1-0.05164 0.64205-0.61750 0.61262-0.78486 0.46093
   0   5   7  413.26  104.94   1-0.08768-0.50334-0.82670 0.83231 0.55575-0.23214
   0   5  -7  372.17  156.21   1-0.66790 0.07775-0.52675 0.52182 0.52576-0.84950
   0   5   7  302.63  168.01   1 0.03846-0.62918-0.62424 0.62924 0.78028-0.45626
   0  -5   8  184.31   96.68   1 0.46858 0.12183-0.88002 0.88577-0.07738 0.44782
   0  -5  -8  196.93   74.51   1-0.11247 0.70287-0.55084 0.54526-0.82699 0.45678
   0   5   8  103.25   75.33   1-0.07818-0.51288-0.83361 0.84002 0.54678-0.17694
   0   5  -8   77.93  155.29   1-0.71267 0.12275-0.50361 0.49787 0.48833-0.85851
   0   5   8  198.61  125.34   1 0.07244-0.66313-0.61976 0.62548 0.78143-0.41112
   0  -5   9  582.96  117.53   1 0.48294 0.10748-0.87454 0.88102-0.04394 0.46069
   0  -5  -9  237.50   60.10   1-0.16873 0.75946-0.48222 0.47564-0.85964 0.44381
   0   5   9  350.31  110.07   1-0.07172-0.51938-0.83820 0.84541 0.54062-0.12454
   0   5  -9  788.17  167.36   1-0.75408 0.16410-0.47885 0.47239 0.44951-0.86597
   0   5   9  603.05  209.09   1 0.10237-0.69301-0.61520 0.62164 0.78168-0.36508
   0  -5  10  303.26  134.14   1 0.49629 0.09413-0.86807 0.87527-0.01132 0.47437
   0  -5 -10  286.22   67.23   1-0.21925 0.81003-0.41597 0.40866-0.88254 0.42051
   0   5  10  729.48  140.51   1-0.06788-0.52326-0.84088 0.84889 0.53693-0.07463
   0   5 -10  298.59  127.43   1-0.79214 0.20211-0.45258 0.44541 0.40948-0.87221
   0   5  10  337.24  156.71   1 0.12823-0.71884-0.61080 0.61794 0.78133-0.31844
   0  -5  1113114.90  628.41   1 0.50874 0.08170-0.86067 0.86858 0.02060 0.48875
   0   5  1113270.08  646.28   1-0.06633-0.52484-0.84195 0.85077 0.53544-0.02691
   0   5 -1114181.45  676.14   1-0.82680 0.23671-0.42499 0.41710 0.36848-0.87749
   0   5  1115409.39  749.41   1 0.15011-0.74067-0.60672 0.61459 0.78060-0.27142
   0  -5  12 1423.38  239.39   1 0.52035 0.07010-0.85237 0.86100 0.05192 0.50373
   0   5  12 1469.77  223.09   1-0.06680-0.52442-0.84163 0.85125 0.53589 0.01886
   0   5 -12 1020.24  167.71   1-0.85886 0.26863-0.39287 0.38407 0.32863-0.88335
   0   5  12 1136.56  222.75   1 0.16809-0.75862-0.60314 0.61172 0.77971-0.22425
   0  -5  13 2175.23  262.18   1 0.53118 0.05927-0.84320 0.85256 0.08271 0.51925
   0   5  13 2203.83  241.88   1-0.06905-0.52221-0.84007 0.85049 0.53805 0.06293
   0   5 -13 2451.98  239.95   1-0.88666 0.29626-0.36312 0.35359 0.28629-0.88724
   0   5  13 3566.53  383.94   1 0.18231-0.77279-0.60015 0.60945 0.77882-0.17707
   0  -5  14  705.58  187.94   1 0.54129 0.04918-0.83320 0.84327 0.11304 0.53522
   0   5  14  890.63  160.18   1-0.07288-0.51841-0.83738 0.84859 0.54173 0.10548
   0   5 -14  522.27  127.56   1-0.91110 0.32053-0.33252 0.32226 0.24355-0.89073
   0   5  14  712.28  196.91   1 0.19288-0.78333-0.59784 0.60785 0.77805-0.13001
   0  -5  15  183.95   93.92   1 0.55012 0.04038-0.82255 0.83358 0.14410 0.55090
   0   5  15  253.60  107.45   1-0.07816-0.51318-0.83363 0.84565 0.54676 0.14668
   0   5  15  106.31  121.61   1 0.19994-0.79034-0.59626 0.60698 0.77749-0.08315
   0   6   0  259.50   78.85   1-0.35408-0.35408-0.54562 0.54562 0.75955-0.75955
   0   6   0  331.90  145.17   1-0.35373-0.35373-0.62004 0.62004 0.70029-0.70029
   0  -6   1  475.23  127.92   1 0.37404 0.33424-0.88810 0.88883-0.26714 0.31345
   0  -6  -1  203.51   62.24   1 0.33252 0.37577-0.87912 0.87845-0.34141 0.29513
   0   6  -1   17.20   33.20   1-0.40647-0.30175-0.46478 0.46407 0.78661-0.83281
   0   6   1  310.46   86.15   1-0.30850-0.39979-0.60716 0.60789 0.73223-0.68602
   0   6  -1  570.10  188.55   1-0.39927-0.30830-0.61257 0.61186 0.68215-0.72840
   0   6   1   13.21  128.90   1-0.30899-0.39836-0.62579 0.62650 0.71617-0.66992
   0  -6   2 4563.22  326.83   1 0.39258 0.31573-0.88959 0.89105-0.23344 0.32607
   0  -6  -2 3853.72  266.85   1 0.30899 0.39920-0.87236 0.87102-0.37881 0.28626
   0   6  -2 3901.44  256.12   1-0.46490-0.24305-0.36086 0.35956 0.80847-0.90091
   0   6   2 4434.45  314.53   1-0.26941-0.43883-0.65533 0.65678 0.70565-0.61323
   0   6  -2 5481.13  482.19   1-0.44516-0.26252-0.60330 0.60187 0.66170-0.75420
   0   6   2 5475.04  448.39   1-0.26549-0.44176-0.62995 0.63138 0.72984-0.63734
   0  -6   312146.83  423.48   1 0.40991 0.29842-0.88979 0.89198-0.20061 0.33956
   0  -6  -310796.09  350.16   1 0.28332 0.42478-0.86327 0.86126-0.41772 0.27889
   0   6  -310884.39  338.98   1-0.52745-0.18056-0.22387 0.22191 0.81955-0.95820
   0   6   312571.76  433.93   1-0.23641-0.47180-0.69264 0.69481 0.68143-0.54279
   0   6  -311369.32  485.34   1-0.49111-0.21645-0.59094 0.58883 0.63998-0.77873
   0   6   313453.05  520.30   1-0.22443-0.48395-0.63328 0.63528 0.74065-0.60183
   0  -6   442251.20 1211.68   1 0.42616 0.28219-0.88880 0.89173-0.16853 0.35379
   0  -6  -443553.28 4644.80   1 0.25518 0.45282-0.85140 0.84872-0.45825 0.27314
   0   6  -437016.28 1014.83   1-0.58902-0.11909-0.04839 0.04585 0.80666-0.99182
   0   6   444200.78 4728.03   1-0.20887-0.49929-0.72158 0.72448 0.66006-0.47522
   0   6  -448295.14 5176.31   1-0.53648-0.17121-0.57793 0.57511 0.61496-0.79995
   0   6   450974.19 5464.25   1-0.18461-0.52364-0.63478 0.63743 0.75031-0.56521
   0  -6   5 1260.35  150.96   1 0.44145 0.26693-0.88674 0.89040-0.13709 0.36868
   0  -6  -5 1378.67  104.05   1 0.22426 0.48364-0.83623 0.83289-0.50041 0.26903
   0   6   5 1424.27  172.01   1-0.18618-0.52193-0.74400 0.74762 0.64171-0.41065
   0   6  -5 1155.08  175.10   1-0.58091-0.12688-0.56305 0.55952 0.58779-0.81904
   0   6   5 2324.34  287.29   1-0.14712-0.56101-0.63520 0.63853 0.75819-0.52682
   0  -6   6  186.93   87.59   1 0.45587 0.25253-0.88368 0.88807-0.10621 0.38411
   0   6   6  333.56   92.54   1-0.16775-0.54031-0.76130 0.76565 0.62632-0.34904
   0   6  -6   89.65   88.80   1-0.62406-0.08385-0.54633 0.54210 0.55862-0.83611
   0   6   6  339.09  172.64   1-0.11222-0.59578-0.63477 0.63875 0.76450-0.48685
   0  -6   7  268.24  114.39   1 0.46931 0.23916-0.87977 0.88481-0.07573 0.39987
   0   6   7  282.82  107.56   1-0.15306-0.55496-0.77451 0.77959 0.61375-0.29026
   0   6  -7  342.17  141.58   1-0.66559-0.04243-0.52786 0.52292 0.52758-0.85132
   0   6   7  262.90  164.56   1-0.08013-0.62774-0.63366 0.63831 0.76944-0.44551
   0  -6   8  334.58  122.60   1 0.48216 0.22631-0.87488 0.88063-0.04579 0.41623
   0   6   8  196.04   92.23   1-0.14242-0.56679-0.78304 0.78945 0.60544-0.23560
   0   6  -8  293.16  150.93   1-0.70536-0.00245-0.50762 0.50188 0.49474-0.86492
   0   6   8   51.04  106.39   1-0.05101-0.65673-0.63208 0.63740 0.77321-0.40301
   0  -6   9  481.38  104.58   1 0.49433 0.21416-0.86912 0.87559-0.01622 0.43296
   0   6   9  271.15  114.70   1-0.13394-0.57531-0.79023 0.79745 0.59798-0.18190
   0   6  -9 1025.54  167.77   1-0.74291 0.03504-0.48588 0.47943 0.46042-0.87688
   0   6   9 1040.36  229.75   1-0.02499-0.68262-0.63021 0.63619 0.77601-0.35953
   0  -6  10  632.86  171.56   1 0.50584 0.20265-0.86252 0.86972 0.01303 0.45001
   0   6  10  369.05  131.02   1-0.12801-0.58127-0.79517 0.80318 0.59271-0.13041
   0   6 -10  559.94  153.78   1-0.77816 0.07023-0.46267 0.45549 0.42472-0.88746
   0   6  10  415.51  180.16   1-0.00212-0.70537-0.62821 0.63486 0.77803-0.31528
   0  -6  11 1247.11  212.56   1 0.51674 0.19177-0.85510 0.86302 0.04201 0.46734
   0   6  11  768.99  149.87   1-0.12435-0.58498-0.79818 0.80700 0.58943-0.08090
   0   6 -11 1650.27  260.03   1-0.81096 0.10297-0.43809 0.43020 0.38783-0.89683
   0   6  11 2792.46  429.26   1 0.01755-0.72491-0.62622 0.63353 0.77944-0.27041
   0  -6  12 1278.43  217.12   1 0.52704 0.18147-0.84688 0.85552 0.07074 0.48491
   0   6  12 1350.00  225.72   1-0.12270-0.58666-0.79953 0.80914 0.58795-0.03319
   0   6 -12 1207.00  204.30   1-0.84119 0.13316-0.41226 0.40365 0.34988-0.90516
   0   6  12 1430.00  293.90   1 0.03162-0.74035-0.62505 0.63363 0.77994-0.22447
   0  -7   0  153.72   82.13   1 0.41315 0.41315-0.88968 0.88968-0.19430 0.19430
   0   7   0  247.59   72.20   1-0.41309-0.41309-0.45373 0.45373 0.78960-0.78960
   0   7   0  787.72  195.03   1-0.41269-0.41269-0.61005 0.61005 0.67640-0.67640
   0  -7   1  169.14   66.01   1 0.42485 0.40148-0.88893 0.88966-0.17117 0.21749
   0   7   1  205.53   67.44   1-0.37178-0.45435-0.51952 0.52022 0.76933-0.72313
   0   7  -1  194.26  122.49   1-0.45045-0.37503-0.60211 0.60140 0.65920-0.70545
   0   7   1  335.11  185.11   1-0.37569-0.44957-0.61665 0.61736 0.69180-0.64555
   0  -7   2  381.90  123.11   1 0.43647 0.38988-0.88754 0.88901-0.14747 0.24010
   0   7   2  232.50   77.42   1-0.33545-0.49063-0.57188 0.57329 0.74861-0.65621
   0   7  -2  386.20  137.48   1-0.48870-0.33663-0.59158 0.59017 0.64124-0.73374
   0   7   2  445.74  179.61   1-0.33976-0.48540-0.62200 0.62343 0.70545-0.61295
   0  -7   3  420.52   99.94   1 0.44796 0.37842-0.88550 0.88770-0.12331 0.26226
   0   7   3  197.80   72.08   1-0.30401-0.52225-0.61293 0.61510 0.72930-0.59066
   0   7  -3  745.33  260.47   1-0.52716-0.29828-0.58078 0.57866 0.62031-0.75905
   0   7   3  175.59  137.48   1-0.30516-0.51988-0.62621 0.62835 0.71744-0.57869
   0  -7   4  183.06   90.98   1 0.45916 0.36734-0.88287 0.88575-0.09850 0.28372
   0   7   4  376.98  109.62   1-0.27699-0.54922-0.64634 0.64924 0.71099-0.52614
   0   7  -4  266.16  124.61   1-0.56547-0.26009-0.56848 0.56566 0.59755-0.78254
   0   7   4  702.54  248.14   1-0.27216-0.55277-0.62940 0.63225 0.72785-0.54285
   0  -7   5  256.99  115.66   1 0.47018 0.35634-0.87948 0.88308-0.07374 0.30526
   0   7   5  341.31  107.41   1-0.25409-0.57208-0.67301 0.67664 0.69460-0.46354
   0   7  -5  134.07   91.02   1-0.60333-0.22234-0.55466 0.55113 0.57300-0.80424
   0   7   5  214.20  132.55   1-0.24100-0.58383-0.63170 0.63526 0.73679-0.50554
   0  -7   6  229.03  110.21   1 0.48093 0.34560-0.87540 0.87972-0.04873 0.32656
   0   7   6  306.22  109.58   1-0.23493-0.59120-0.69424 0.69859 0.68031-0.40304
   0   7  -6  581.18  184.44   1-0.64047-0.18530-0.53933 0.53510 0.54672-0.82421
   0   7   6  509.12  180.91   1-0.21288-0.61325-0.63383 0.63782 0.74359-0.46594
   0  -7   7  409.64  150.69   1 0.49137 0.33516-0.87062 0.87566-0.02352 0.34766
   0   7   7  363.34  110.43   1-0.21912-0.60696-0.71103 0.71610 0.66814-0.34465
   0   7  -7  329.99  109.71   1-0.67664-0.14925-0.52250 0.51757 0.51878-0.84252
   0   7   7  558.14  187.10   1-0.18598-0.64002-0.63474 0.63940 0.75000-0.42607
   0  -7   8  236.63  108.97   1 0.50150 0.32504-0.86515 0.87090 0.00184 0.36859
   0   7   8  104.49   71.18   1-0.20634-0.61970-0.72414 0.72994 0.65805-0.28835
   0   7  -8  484.47  182.23   1-0.71168-0.11404-0.50416 0.49842 0.48921-0.85939
   0   7   8  -29.96  118.76   1-0.16144-0.66443-0.63515 0.64047 0.75532-0.38511
  -1   0  19   40.60   97.19   1 0.60409-0.60440-0.69764 0.62442 0.38518 0.49476
  -1   0  19  332.86  146.87   1 0.09330-0.09438-0.92519 0.85417 0.36783 0.51134
   1   0 -19  215.52   77.06   1-0.88057 0.88032 0.20936-0.13654-0.42514-0.45429
  -1   0  18  142.66  102.32   1 0.60009-0.60036-0.71564 0.64218 0.35739 0.47661
  -1   0  18  417.00  194.82   1 0.11805-0.11908-0.93327 0.86143 0.33919 0.49370
   1   0 -18  256.44   81.42   1-0.89549 0.89526 0.18915-0.11560-0.40287-0.43027
  -1   0  17  102.70   70.51   1 0.59518-0.59543-0.73340 0.65920 0.32843 0.45923
  -1   0  17  471.27  214.22   1 0.14264-0.14363-0.93996 0.86730 0.31002 0.47661
   1   0 -17  372.23  114.49   1-0.90907 0.90885 0.16923-0.09496-0.38071-0.40615
  -1   0  16  285.27  118.96   1 0.58951-0.58974-0.75046 0.67553 0.29879 0.44255
  -1   0  16  487.25  176.83   1 0.16715-0.16810-0.94527 0.87178 0.28021 0.46014
   1   0 -16  131.32   57.98   1-0.92139 0.92118 0.14962-0.07462-0.35868-0.38189
  -1   0  15  640.70  174.15   1 0.58302-0.58324-0.76686 0.69120 0.26831 0.42669
  -1   0  15  339.43  190.08   1 0.19163-0.19205-0.94907 0.87514 0.25005 0.44411
   1   0 -15  502.46  135.27   1-0.93251 0.93232 0.13032-0.05459-0.33680-0.35748
  -1   0  14  773.44  186.77   1 0.21628-0.21667-0.95155 0.87677 0.21855 0.42932
   1   0 -14  266.71   74.22   1-0.94249 0.94232 0.11134-0.03489-0.31512-0.33288
  -1   0  13  244.83   98.02   1 0.56727-0.56746-0.79783 0.72069 0.20410 0.39823
  -1   0  13  641.39  155.60   1 0.24115-0.24151-0.95250 0.87687 0.18595 0.41565
   1   0 -13  143.98   49.13   1-0.95140 0.95124 0.09271-0.01555-0.29366-0.30805
  -1   0  12  401.11  108.59   1 0.55776-0.55792-0.81244 0.73456 0.16983 0.38617
  -1   0  12    4.61   99.21   1 0.26637-0.26671-0.95180 0.87532 0.15200 0.40332
   1   0 -12  194.58   86.60   1-0.95927 0.95912 0.07447 0.00341-0.27248-0.28295
  -1   0  11  263.38   92.00   1 0.54764-0.54756-0.82606 0.74736 0.13304 0.37631
  -1   0  11   -8.36  101.27   1 0.29213-0.29244-0.94927 0.87193 0.11636 0.39268
   1   0 -11   36.94   50.71   1-0.96619 0.96601 0.05634 0.02234-0.25156-0.25752
  -1   0  10  158.74   78.23   1 0.53510-0.53504-0.83950 0.76008 0.09427 0.36878
  -1   0  10  173.80   97.01   1 0.31864-0.31893-0.94461 0.86642 0.07859 0.38417
   1   0 -10   89.40   48.81   1-0.97212 0.97196 0.03904 0.04036-0.23118-0.23162
  -1   0   9  280.96   91.24   1 0.52042-0.52036-0.85231 0.77217 0.05210 0.36463
  -1   0   9  151.75   90.23   1 0.34651-0.34647-0.93732 0.85754 0.03670 0.38023
   1   0  -9   89.81   48.21   1-0.97715 0.97701 0.02233 0.05779-0.21135-0.20516
  -1   0   8  720.27   89.22   1 0.50285-0.50281-0.86435 0.78348 0.00531 0.36513
   1   0  -8  972.31   99.27   1 0.30432-0.30506-0.87083 0.95220-0.38604 0.01583
  -1   0   8  892.65  126.44   1 0.37547-0.37544-0.92680 0.84625-0.00740 0.37802
   1   0  -8  447.93   66.44   1 0.56480-0.56485-0.74421 0.82507-0.35657-0.01412
   1   0  -8  537.52   78.66   1-0.98131 0.98121 0.00634 0.07450-0.19227-0.17796
  -1   0   8  650.20   69.38   1-0.95641 0.95742-0.25594 0.17528 0.14058 0.22937
  -1   0   7 1133.58   92.19   1 0.48123-0.48120-0.87527 0.79369-0.04801 0.37215
   1   0  -7 1261.10   96.51   1 0.29972-0.30037-0.86927 0.95131-0.39308 0.06915
  -1   0   7 1569.10  150.27   1 0.40636-0.40634-0.91196 0.83065-0.05637 0.38066
   1   0  -7 1137.36  110.43   1 0.56591-0.56595-0.74211 0.82369-0.35917 0.03481
   1   0  -7 1395.35  105.05   1-0.98467 0.98459-0.00870 0.09027-0.17419-0.14977
  -1   0   7 1376.96  101.62   1-0.96472 0.96558-0.23674 0.15535 0.11513 0.20858
  -1   0   6  133.95   71.28   1 0.45389-0.45383-0.88417 0.80196-0.11053 0.38843
   1   0  -6  167.12   66.78   1 0.28887-0.28942-0.86538 0.94808-0.40946 0.13181
  -1   0   6  -25.36   87.35   1 0.43987-0.43986-0.89104 0.80895-0.11205 0.39001
   1   0  -6   44.10   48.05   1 0.56995-0.56998-0.73432 0.81664-0.36866 0.09064
   1   0  -6  293.86   69.23   1-0.98726 0.98720-0.02251 0.10480-0.15751-0.12017
  -1   0   6  230.79   68.71   1-0.97209 0.97280-0.21699 0.13486 0.08915 0.18831
  -1   0   5   80.62   53.18   1 0.41638-0.41634-0.88954 0.80660-0.18799 0.41958
   1   0  -5   38.34   46.91   1 0.26801-0.26846-0.85705 0.94042-0.44003 0.20865
  -1   0   5   70.29   88.13   1 0.47686-0.47685-0.86079 0.77775-0.17784 0.40952
   1   0  -5  332.61  103.93   1 0.57840-0.57855-0.71746 0.80051-0.38819 0.15637
   1   0  -5  251.11   49.15   1-0.98913 0.98910-0.03457 0.11758-0.14287-0.08853
  -1   0   5  192.71   68.60   1-0.97851 0.97907-0.19649 0.11361 0.06242 0.16880
  -1   0   4  280.99   54.82   1 0.36170-0.36169-0.88642 0.80275-0.28882 0.47409
   1   0  -4  459.55   69.06   1 0.22982-0.23017-0.83911 0.92315-0.49302 0.30791
  -1   0   4  416.16  154.75   1 0.51839-0.51839-0.81559 0.73182-0.25702 0.44237
   1   0  -4  222.52   61.72   1 0.59176-0.59189-0.68663 0.77042-0.42230 0.23684
   1   0  -4  377.58   70.01   1-0.99035 0.99035-0.04400 0.12772-0.13138-0.05374
  -1   0   4  285.66   53.41   1-0.98397 0.98439-0.17490 0.09128 0.03453 0.15044
  -1   0   3  797.82   70.70   1 0.27499-0.27473-0.85995 0.77525-0.42994 0.56877
   1   0  -3  812.60   66.50   1 0.15897-0.15905-0.79756 0.88225-0.58191 0.44308
  -1   0   3  959.50   87.06   1 0.56497-0.56498-0.74389 0.65939-0.35696 0.49597
   1   0  -3  955.88   81.66   1 0.61154-0.61166-0.63003 0.71456-0.47861 0.33951
   1   0  -3  810.22   78.64   1-0.99092 0.99094-0.04910 0.13355-0.12513-0.01370
  -1   0   3  755.52   65.00   1-0.98842 0.98869-0.15161 0.06726 0.00472 0.13401
  -1   0   2  108.33   55.36   1 0.12072-0.12068-0.77092 0.68557-0.62537 0.71792
   1   0  -2  150.43   62.90   1 0.02392-0.02401-0.69112 0.77639-0.72234 0.62978
  -1   0   2  -43.33   43.72   1 0.61407-0.61397-0.62145 0.53618-0.48652 0.57925
   1   0  -2  312.54   56.78   1-0.99061 0.99066-0.04629 0.13145-0.12858 0.03602
  -1   0   2   58.03   29.07   1-0.99170 0.99182-0.12529 0.04020-0.02862 0.12111
  -1   0   1  -19.72   21.92   1-0.14562 0.14563-0.51083 0.42487-0.84725 0.89346
   1   0  -1  128.00   44.54   1-0.21732 0.21731-0.41860 0.50456-0.88178 0.83557
   1   0  -1   81.90   22.34   1-0.64683 0.64677 0.40323-0.31733 0.64731-0.69352
  -1   0   1  268.14   30.75   1-0.64795 0.64793 0.31772-0.40362 0.69224-0.64595
   1   0  -1    3.01   17.18   1-0.98786 0.98794-0.02619 0.11207-0.15306 0.10678
  -1   0   1  128.03   24.41   1-0.99313 0.99305-0.09286 0.00697-0.07113 0.11741
  -1   0   0   47.22   28.99   1-0.44294 0.44296-0.04342-0.04321-0.89549 0.89549
   1   0   0    8.87   15.99   1-0.61236 0.61240 0.04361 0.04296 0.78937-0.78937
  -1   0   0  298.06   30.63   1-0.59055 0.59050-0.04298-0.04360 0.80585-0.80585
   1   0   0   43.31   11.14   1-0.97035 0.97045 0.04445 0.04215-0.23756 0.23756
  -1   0   0  175.71   19.21   1-0.99013 0.99002-0.04212-0.04447-0.13366 0.13366
   1   0   1  622.33   74.72   1 0.58187-0.58206-0.33490 0.42249 0.74111-0.69476
  -1   0  -1  708.07  100.13   1 0.59817-0.59802-0.41693 0.32946 0.68436-0.73062
   1   0   1  413.43   31.66   1-0.45970 0.45981-0.37096 0.45821 0.80688-0.76066
   1   0   2  684.75   68.51   1 0.61206-0.61215-0.52621 0.61438 0.59032-0.49778
  -1   0  -2  388.70   64.69   1 0.61391-0.61379-0.61351 0.52532 0.49668-0.58931
   1   0   2  502.67   39.75   1-0.27356 0.27371-0.65043 0.73852 0.70858-0.61616
  -1   0  -2  351.53   35.29   1-0.17436 0.17421-0.75519 0.66709 0.63188-0.72431
   1   0   2  304.24   13.38   1-0.43805 0.43817-0.60485 0.69298 0.66502-0.57251
   1   0   3 6673.47  278.59   1 0.61378-0.61392-0.61654 0.70545 0.49309-0.35415
  -1   0  -3 6495.80  129.24   1 0.60041-0.60032-0.71439 0.62548 0.35937-0.49837
   1   0   3 6471.13  112.64   1-0.13924 0.13927-0.78576 0.87483 0.60265-0.46396
   1   0   4 2641.89  226.44   1 0.60988-0.61005-0.66226 0.75189 0.43524-0.24999
  -1   0  -4 2243.23   97.44   1 0.58095-0.58084-0.77157 0.68193 0.25916-0.44450
   1   0   4 2503.47   94.89   1-0.05716 0.05715-0.84821 0.93809 0.52656-0.34164
  -1   0  -4 1814.73   89.07   1 0.11819-0.11831-0.93332 0.84338 0.33903-0.52412
  -1   0  -4 1644.35   46.63   1-0.99319 0.99241-0.09836 0.00883-0.06239-0.12259
   1   0   4 2205.07   62.75   1-0.87910 0.88000-0.37167 0.46121 0.29838-0.11347
   1   0   5  295.74   49.93   1 0.60623-0.60641-0.68640 0.77673 0.40166-0.17009
  -1   0  -5  286.62   63.90   1 0.56117-0.56105-0.80747 0.71709 0.18183-0.41350
   1   0   5  277.94   63.78   1-0.00861 0.00856-0.87835 0.96903 0.47793-0.24678
  -1   0  -5  193.10   57.13   1 0.19961-0.19952-0.95004 0.85909 0.23993-0.47132
  -1   0  -5  203.10   37.94   1-0.99217 0.99193-0.06344-0.02675-0.10754-0.12385
   1   0   5  301.89   38.25   1-0.89263 0.89371-0.35608 0.44635 0.27639-0.04526
   1   0   6  322.73   61.40   1 0.60383-0.60404-0.69889 0.78994 0.38330-0.10542
  -1   0  -6  144.89   61.38   1 0.54293-0.54302-0.83141 0.74047 0.11816-0.39599
   1   0   6   94.66   51.90   1 0.01958-0.01967-0.89357 0.98505 0.44848-0.17110
  -1   0  -6  126.37   56.55   1 0.25982-0.25970-0.95215 0.86035 0.16090-0.43856
  -1   0  -6   92.21   45.74   1-0.98935 0.98909-0.03614-0.05477-0.14096-0.13672
   1   0   6  259.39   67.70   1-0.89414 0.89539-0.35426 0.44526 0.27384 0.00351
   1   0   7 1606.96  183.61   1 0.60264-0.60287-0.70446 0.79622 0.37490-0.05071
  -1   0  -7 1438.27   99.50   1 0.52495-0.52505-0.84866 0.75700 0.06479-0.38892
   1   0   7 1272.11  107.64   1 0.03532-0.03532-0.90108 0.99349 0.43219-0.10828
  -1   0  -7 1075.92   99.67   1 0.30669-0.30654-0.94697 0.85432 0.09576-0.41970
  -1   0  -7 1027.83   70.28   1-0.98523 0.98494-0.01151-0.08012-0.17081-0.15315
   1   0   7 1270.96   75.15   1-0.89021 0.89163-0.35897 0.45070 0.28044 0.04314
   1   0   8 3318.50  289.54   1 0.60241-0.60265-0.70551 0.79799 0.37328-0.00278
   1   0   8 2563.99  133.83   1 0.04235-0.04239-0.90439 0.99761 0.42459-0.05441
  -1   0  -8 2531.41  126.06   1 0.34580-0.34595-0.93754 0.84471 0.03776-0.40838
  -1   0  -8 2674.06  103.75   1-0.97998 0.97966 0.01175-0.10411-0.19874-0.17150
   1   0   8 2674.99   99.30   1-0.88309 0.88467-0.36721 0.45967 0.29206 0.07775
   1   0   9  814.11  102.44   1 0.60287-0.60314-0.70342 0.79661 0.37647 0.04033
   1   0   9  894.62   98.19   1 0.04361-0.04369-0.90497 0.99902 0.42322-0.00677
  -1   0  -9  651.56   88.09   1 0.37797-0.37814-0.92574 0.83214-0.01129-0.40564
  -1   0  -9  813.78   77.08   1-0.97363 0.97329 0.03426-0.12734-0.22552-0.19100
   1   0   9  901.97   72.99   1-0.87371 0.87546-0.37754 0.47074 0.30671 0.10932
   1   0  10  162.93   71.81   1 0.60381-0.60410-0.69898 0.79288 0.38318 0.07994
   1   0  10   89.11   75.33   1 0.04072-0.04084-0.90363 0.99850 0.42636 0.03635
  -1   0 -10  235.07   57.83   1-0.96619 0.96583 0.05635-0.15014-0.25156-0.21124
   1   0  10  279.23   59.84   1-0.86253 0.86446-0.38919 0.48312 0.32335 0.13891
   1   0  11  898.09  183.66   1 0.60507-0.60538-0.69268 0.78730 0.39252 0.11691
   1   0  11  985.06  116.76   1 0.03471-0.03487-0.90079 0.99648 0.43285 0.07613
  -1   0 -11  611.20   79.06   1-0.95743 0.95725 0.07891-0.17344-0.27765-0.23149
   1   0  11  397.40   52.63   1-0.84880 0.84944-0.40519 0.49975 0.33963 0.16937
   1   0  12  333.88  130.63   1 0.60650-0.60683-0.68485 0.78018 0.40388 0.15186
   1   0  12  300.23   96.83   1 0.02628-0.02648-0.89668 0.99319 0.44189 0.11337
  -1   0 -12  315.85   65.67   1-0.94772 0.94752 0.10063-0.19588-0.30280-0.25263
   1   0  13  249.73   85.13   1 0.60800-0.60835-0.67570 0.77174 0.41683 0.18523
   1   0  13  155.17  115.03   1 0.01588-0.01625-0.89167 0.98876 0.45239 0.14859
  -1   0 -13  272.71   61.05   1-0.93683 0.93661 0.12232-0.21829-0.32769-0.27402
   1   0  14   -1.41   77.33   1 0.60948-0.60985-0.66537 0.76213 0.43104 0.21733
   1   0  14  178.94   85.41   1 0.00395-0.00435-0.88534 0.98323 0.46492 0.18229
  -1   0 -14  204.16   54.69   1-0.92470 0.92447 0.14405-0.24074-0.35238-0.29561
   1   0  15 1063.22  252.35   1 0.61087-0.61126-0.65396 0.75143 0.44628 0.24841
   1   0  15  776.55  134.72   1-0.00934 0.00890-0.87793 0.97662 0.47869 0.21476
  -1   0 -15 1095.49  113.92   1-0.91126 0.91102 0.16586-0.26328-0.37693-0.31735
   1   0  16  480.76  167.48   1 0.61210-0.61251-0.64152 0.73971 0.46234 0.27865
   1   0  16  834.67  123.55   1-0.02383 0.02334-0.86943 0.96893 0.49346 0.24621
  -1   0 -16  958.39  102.44   1-0.89645 0.89620 0.18779-0.28593-0.40137-0.33921
   1   0  17  251.55  158.48   1 0.61313-0.61356-0.62811 0.72700 0.47910 0.30821
   1   0  17  251.18  134.83   1-0.03938 0.03885-0.85983 0.96012 0.50905 0.27685
  -1   0 -17   88.85   46.36   1-0.88018 0.87991 0.20988-0.30874-0.42571-0.36115
   1   0  18  107.20   49.28   1 0.61390-0.61436-0.61373 0.71334 0.49643 0.33719
   1   0  18   21.22   98.11   1-0.05590 0.05533-0.84906 0.95015 0.52532 0.30681
  -1   0 -18   53.48   42.77   1-0.86175 0.86181 0.23362-0.33296-0.45033-0.38262
   1   0  19  250.40  164.09   1 0.61438-0.61485-0.59840 0.69872 0.51424 0.36569
   1   0  19  437.87  151.38   1-0.07332 0.07272-0.83707 0.93897 0.54215 0.33621
  -1   0 -19   -2.75   22.63   1-0.84216 0.84223 0.25610-0.35615-0.47452-0.40471
  -1   1  19 1117.28  245.41   1 0.61325-0.73172-0.62619 0.55297 0.48144 0.39849
  -1  -1  19 1227.67  200.32   1 0.59180-0.47393-0.74392 0.67120 0.31037 0.56997
  -1  -1  19 1565.34  248.08   1 0.09812 0.01890-0.92687 0.85585 0.36230 0.51686
  -1   1  19 2238.49  337.40   1 0.07667-0.19585-0.91901 0.84799 0.38668 0.49248
   1  -1 -19 1105.44  296.95   1-0.78888 0.90699 0.30963-0.23661-0.53083-0.34839
   1   1 -19 1306.22  182.67   1-0.94268 0.82438 0.11097-0.03814-0.31470-0.56474
  -1   1  18  591.47  136.08   1 0.61181-0.73025-0.64473 0.57080 0.45825 0.37537
  -1  -1  18  698.91  139.28   1 0.58532-0.46744-0.76136 0.68790 0.27877 0.55523
  -1  -1  18  806.14  154.76   1 0.12646-0.00939-0.93572 0.86387 0.32928 0.50361
  -1   1  18  630.28  200.00   1 0.09824-0.21738-0.92691 0.85507 0.36217 0.47073
   1  -1 -18  512.20  106.25   1-0.80407 0.92217 0.29533-0.22161-0.51597-0.31697
   1   1 -18  446.38  123.77   1-0.95467 0.83639 0.08536-0.01181-0.28515-0.54800
  -1   1  17 1035.73  207.66   1 0.60986-0.72829-0.66242 0.58778 0.43503 0.35228
  -1  -1  17  661.37  144.75   1 0.57795-0.46005-0.77799 0.70379 0.24636 0.54131
  -1   1  17  667.30  234.45   1 0.11947-0.23857-0.93370 0.86103 0.33752 0.44910
  -1  -1  17  554.91  118.35   1 0.15487-0.03775-0.94278 0.87012 0.29524 0.49139
   1  -1 -17  582.33  163.61   1-0.81776 0.93586 0.28183-0.20739-0.50182-0.28486
   1   1 -17  559.57   99.99   1-0.96507 0.84685 0.05941 0.01495-0.25516-0.53161
  -1   1  16 1191.96  179.89   1 0.60743-0.72583-0.67931 0.60395 0.41176 0.32923
  -1  -1  16 1225.60  135.14   1 0.56962-0.45170-0.79382 0.71889 0.21299 0.52834
  -1   1  16  961.07  157.38   1 0.14038-0.25944-0.93941 0.86592 0.31272 0.42763
  -1  -1  16 1070.45  127.56   1 0.18347-0.06631-0.94802 0.87453 0.25996 0.48039
   1  -1 -16 1507.20  282.79   1-0.82999 0.94808 0.26922-0.19407-0.48849-0.25191
   1   1 -16 1403.30  118.02   1-0.97386 0.85567 0.03352 0.04156-0.22465-0.51584
  -1   1  15 2373.41  273.71   1 0.60453-0.72291-0.69543 0.61936 0.38846 0.30622
  -1  -1  15 2419.95  231.08   1 0.56023-0.44230-0.80887 0.73320 0.17850 0.51651
  -1   1  15 1850.86  247.33   1 0.16100-0.28002-0.94407 0.86976 0.28775 0.40632
  -1  -1  15 2078.92  213.75   1 0.21231-0.09463-0.95125 0.87732 0.22368 0.47047
   1  -1 -15 2307.33  385.70   1-0.84078 0.95887 0.25761-0.18176-0.47613-0.21799
   1   1 -15 1919.82  164.22   1-0.98107 0.86291 0.00737 0.06844-0.19351-0.50070
  -1   1  14 2241.92  268.21   1 0.60138-0.71974-0.71035 0.63395 0.36569 0.28298
  -1  -1  14 2361.12  225.37   1 0.54968-0.43172-0.82310 0.74669 0.14266 0.50601
  -1   1  14 2281.66  266.28   1 0.18137-0.30034-0.94770 0.87257 0.26258 0.38523
  -1  -1  14 2647.33  232.63   1 0.24181-0.12411-0.95250 0.87772 0.18507 0.46281
   1  -1 -14 2497.63  311.33   1-0.85013 0.96821 0.24717-0.17060-0.46495-0.18290
   1   1 -14 2185.40  186.84   1-0.98666 0.86853-0.01912 0.09566-0.16162-0.48631
  -1   1  13 3304.23  185.43   1 0.59761-0.71595-0.72504 0.64790 0.34229 0.26005
  -1  -1  13 3211.07  212.80   1 0.53850-0.42034-0.83611 0.75884 0.10451 0.49744
  -1   1  13 3038.08  207.18   1 0.20157-0.32003-0.95025 0.87462 0.23744 0.36416
  -1  -1  13 4057.34  223.60   1 0.27205-0.15433-0.95141 0.87577 0.14422 0.45738
   1  -1 -13 4151.23  474.27   1-0.85798 0.97606 0.23809-0.16080-0.45516-0.14641
   1   1 -13 3911.77  211.71   1-0.99059 0.87248-0.04608 0.12334-0.12883-0.47281
  -1   1  1213859.82  508.51   1 0.59341-0.71173-0.73906 0.66118 0.31881 0.23719
  -1  -1  1214430.64  547.58   1 0.52507-0.40692-0.84856 0.77057 0.06512 0.49053
  -1   1  1214643.83  587.45   1 0.22155-0.33999-0.95188 0.87540 0.21170 0.34361
  -1  -1  1214786.52  556.85   1 0.30329-0.18554-0.94757 0.87108 0.10059 0.45473
   1  -1 -1214524.57  562.63   1-0.86426 0.98234 0.23060-0.15261-0.44706-0.10824
   1   1 -1212810.57  471.88   1-0.99275 0.87467-0.07363 0.15161-0.09497-0.46039
  -1   1  11  122.49   52.94   1 0.58879-0.70709-0.75243 0.67382 0.29524 0.21442
  -1  -1  11  119.77   79.40   1 0.50978-0.39164-0.85998 0.78128 0.02334 0.48601
  -1   1  11  376.32  186.78   1 0.24140-0.35981-0.95250 0.87517 0.18561 0.32343
  -1  -1  11  540.92  165.77   1 0.33584-0.21807-0.94039 0.86306 0.05345 0.45559
   1  -1 -11  313.58  111.97   1-0.86882 0.98689 0.22504-0.14633-0.44102-0.06800
   1   1 -11  357.20   91.77   1-0.99299 0.87493-0.10194 0.18063-0.05980-0.44928
  -1   1  10  470.18   75.21   1 0.58374-0.70203-0.76517 0.68583 0.27155 0.19178
  -1  -1  10  469.59   91.56   1 0.49223-0.37410-0.87020 0.79077-0.02142 0.48447
  -1   1  10  478.21  110.20   1 0.26117-0.37955-0.95209 0.87390 0.15908 0.30368
  -1  -1  10  539.56  120.08   1 0.37034-0.25215-0.92889 0.84987 0.00052 0.46273
   1   1 -10  707.22   99.92   1 0.62229-0.74076-0.59051 0.66988-0.51384 0.05021
   1  -1 -10  835.13  101.82   1-0.87170 0.98963 0.22068-0.14135-0.43752-0.02534
   1   1 -10  775.67  109.08   1-0.99111 0.87219-0.13138 0.21056-0.02094-0.44151
  -1   1   9 1581.44   97.40   1 0.57827-0.69653-0.77733 0.69725 0.24769 0.16931
  -1  -1   9 1531.25  143.07   1 0.47184-0.35372-0.87890 0.79876-0.06993 0.48668
   1  -1  -9 1840.01  104.10   1 0.35368-0.23576-0.88505 0.96507-0.30261-0.11423
  -1   1   9 1407.60  146.82   1 0.28092-0.39928-0.95060 0.87157 0.13199 0.28449
  -1  -1   9 1706.14  160.89   1 0.40669-0.28850-0.91179 0.83200-0.05689 0.47383
   1   1  -9 1304.60  110.55   1 0.62456-0.74302-0.58092 0.66102-0.52196 0.10468
   1  -1  -9 1819.23  126.77   1-0.87194 0.98989 0.22038-0.14032-0.43719 0.02061
   1   1  -9 1225.25  102.16   1-0.98666 0.86789-0.16181 0.24173 0.01774-0.43395
  -1   1   8 3691.04  130.21   1 0.57234-0.69059-0.78893 0.70812 0.22359 0.14708
  -1  -1   8 3725.34  161.36   1 0.44813-0.32998-0.88547 0.80472-0.12294 0.49348
   1  -1  -8 4427.22  141.42   1 0.36029-0.24235-0.88619 0.96694-0.29126-0.07926
  -1   1   8 3852.55  188.52   1 0.30075-0.41908-0.94799 0.86810 0.10420 0.26601
  -1  -1   8 4326.96  165.77   1 0.44564-0.32747-0.88686 0.80631-0.12195 0.49256
   1   1  -8 3063.10  115.58   1 0.62847-0.74691-0.56310 0.64394-0.53659 0.16568
   1  -1  -8 3600.35  167.79   1-0.86900 0.98706 0.22482-0.14398-0.44078 0.07057
  -1   1   8 4718.05  150.54   1-0.99169 0.87393-0.05719-0.02365-0.11522 0.48547
   1   1  -8 4033.18  161.60   1-0.97927 0.86065-0.19379 0.27444 0.05892-0.42889
  -1   1   781420.06 1639.09   1 0.56593-0.68417-0.80003 0.71848 0.19912 0.12521
  -1  -1   775554.71 1556.32   1 0.41923-0.30110-0.88937 0.80789-0.18237 0.50659
   1  -1  -783272.63 1671.98   1 0.36443-0.24647-0.88684 0.96831-0.28407-0.04014
   1   1  -785086.00 1731.27   1 0.23101-0.34972-0.83972 0.92175-0.49141 0.16748
  -1   1   786183.33 1777.14   1 0.32079-0.43910-0.94413 0.86339 0.07547 0.24846
   1  -1  -782564.32 1684.54   1 0.50055-0.38242-0.83672 0.91831-0.22210-0.10225
  -1  -1   795776.00 1937.53   1 0.48760-0.36939-0.85040 0.76881-0.19762 0.52198
   1  -1  -793257.80 1918.98   1-0.86244 0.98049 0.23280-0.15125-0.44943 0.12551
  -1   1   784628.07 1708.25   1-0.98566 0.86787-0.01371-0.06785-0.16815 0.49211
   1   1  -784346.29 1718.17   1-0.96822 0.84975-0.22776 0.30915 0.10328-0.42700
  -1  -1   774984.89 1525.94   1-0.81577 0.93398-0.43420 0.35254 0.38206-0.05815
  -1   1   633895.14  704.58   1 0.55897-0.67718-0.81071 0.72842 0.17404 0.10395
  -1  -1   633874.03  741.04   1 0.38366-0.26556-0.88903 0.80682-0.24983 0.52773
   1  -1  -634930.33  723.09   1 0.36466-0.24667-0.88687 0.96908-0.28368 0.00578
   1   1  -635586.24  767.41   1 0.21324-0.33185-0.83031 0.91301-0.51488 0.23722
  -1  -1   639999.25  823.23   1-0.64008 0.75842 0.48688-0.56944 0.59433-0.31705
  -1   1   640036.77  874.73   1 0.34122-0.45950-0.93887 0.85728 0.04548 0.23218
   1  -1  -631526.11  686.13   1 0.49649-0.37834-0.84115 0.92347-0.21435-0.06366
  -1  -1   639544.42  838.50   1 0.53258-0.41438-0.79660 0.71429-0.28595 0.56397
   1  -1  -637884.84  814.73   1-0.85044 0.96849 0.24681-0.16455-0.46456 0.18690
  -1   1   634581.05  727.57   1-0.97336 0.85555 0.03511-0.11740-0.22653 0.50421
   1   1  -635636.67  768.34   1-0.95217 0.83373-0.26513 0.34734 0.15186-0.42922
   1  -1  -518775.73  179.65   1 0.35775-0.23974-0.88577 0.96871-0.29563 0.06405
  -1  -1   517545.58  242.46   1 0.33867-0.22060-0.88195 0.79901-0.32779 0.55938
   1   1  -519597.41  261.11   1 0.18583-0.30412-0.81456 0.89794-0.54949 0.31811
  -1  -1   520346.11  248.29   1 0.57958-0.46119-0.71491 0.63186-0.39111 0.62293
   1  -1  -519683.42  282.92   1-0.83045 0.94849 0.26874-0.18576-0.48798 0.25660
  -1   1   520694.01  227.27   1-0.95204 0.83403 0.09130-0.17425-0.29202 0.52346
   1   1  -518644.81  233.18   1-0.92988 0.81161-0.30496 0.38790 0.20567-0.43681
   1  -1  -410619.55  117.85   1 0.33675-0.21904-0.88017 0.96421-0.33449 0.14939
  -1  -1   410837.16  221.75   1 0.28072-0.16231-0.86225 0.77821-0.42154 0.60665
   1   1  -411557.81  213.39   1 0.14418-0.26243-0.78759 0.87163-0.59908 0.41397
  -1  -1   411749.10  180.09   1-0.64744 0.76550 0.30298-0.38684 0.69929-0.51415
  -1   1   410293.96  226.50   1 0.38475-0.50290-0.92275 0.83913-0.02189 0.20720
   1  -1  -412199.45  206.66   1 0.49601-0.37784-0.84166 0.92544-0.21344 0.02809
  -1  -1   411175.42  171.55   1 0.62244-0.50406-0.58988 0.50609-0.51438 0.69984
   1  -1  -410896.37  278.53   1-0.79808 0.91612 0.30105-0.21736-0.52193 0.33683
   1   1  -410959.93  188.82   1-0.89832 0.78022-0.34914 0.43281 0.26666-0.45157
  -1  -1   320583.22  264.32   1 0.20204-0.08372-0.82402 0.73932-0.52929 0.66812
   1   1  -320877.08  251.98   1 0.08145-0.19966-0.74073 0.82543-0.66683 0.52800
   1   1  -319495.10  167.29   1-0.64698 0.52883 0.39940-0.31484 0.64952-0.78816
  -1   1   320125.98  251.86   1 0.40869-0.52685-0.91068 0.82629-0.06014 0.19912
   1  -1  -321259.50  237.93   1 0.50241-0.38422-0.83466 0.91916-0.22566 0.08665
   1  -1  -319958.41  224.24   1-0.74592 0.86395 0.34670-0.26230-0.56867 0.42985
   1   1  -319439.68  221.96   1-0.85275 0.73482-0.39884 0.48325 0.33723-0.47591
   1   1  -2 8876.96  180.30   1-0.01130-0.10688-0.65805 0.74332-0.75288 0.66033
   1  -1  -2 9082.52   65.67   1-0.07638 0.19440-0.59120 0.67647-0.80289 0.71034
   1   1  -2 8694.63  228.10   1-0.62998 0.51203 0.13358-0.04837 0.76503-0.85760
  -1   1   2 8612.49  162.04   1 0.43573-0.55391-0.89392 0.80877-0.10501 0.19766
   1  -1  -210060.77  183.13   1 0.51677-0.39857-0.81764 0.90287-0.25378 0.16111
  -1   1   210251.41  220.72   1-0.77907 0.66104 0.31851-0.40361-0.53999 0.63254
  -1  -1   2 9781.47  164.17   1-0.66710 0.78520-0.52714 0.44179 0.52639-0.43390
   1   1  -166380.20  339.77   1-0.54682 0.42885-0.17384 0.25978 0.81899-0.86521
  -1   1   167736.04  356.33   1 0.46847-0.58666-0.86848 0.78256-0.16206 0.20839
   1  -1  -170133.74  366.36   1 0.54428-0.42607-0.77923 0.86519-0.31072 0.26439
  -1  -1   166607.47  351.72   1-0.55464 0.67263-0.57212 0.48606 0.60419-0.55794
  -1   1   0124828.8  482.93   1 0.52904-0.64714-0.84513 0.75851 0.07649-0.07649
  -1  -1   0128205.9  590.69   1-0.21683 0.33495-0.41926 0.33258-0.88158 0.88158
   1   1   0122523.8  566.55   1-0.30457 0.18640-0.29141 0.37808-0.90681 0.90681
  -1   1   0124434.3  516.40   1 0.51251-0.63073-0.82288 0.73619-0.24534 0.24534
   1  -1   0127735.2  524.19   1 0.59286-0.47468-0.68388 0.77062-0.42522 0.42522
  -1  -1  -1999998.719538.90   1-0.06651 0.18460-0.63299 0.54544 0.77129-0.81756
  -1  -1  -232779.99  230.29   1 0.55925-0.44085-0.25164 0.16334 0.78987-0.88258
  -1  -1  -231904.39  259.86   1-0.49525 0.61340 0.07331-0.16141-0.86564 0.77310
  -1  -1  -232329.25  249.14   1-0.07319 0.19127-0.83716 0.74889 0.54202-0.63448
  -1   1  -231231.66  245.19   1-0.23386 0.11556-0.63277 0.54455 0.73817-0.83072
  -1   1  -322841.96  212.94   1 0.49521-0.61334-0.86865 0.77987-0.01402-0.12489
   1   1   323906.56  172.62   1-0.61649 0.49842 0.43627-0.34758-0.65544 0.79419
  -1   1  -324210.66  217.73   1-0.48383 0.36563-0.59284 0.50397 0.64376-0.78251
   1  -1   325024.67  205.31   1-0.22011 0.33854-0.63350 0.72238 0.74177-0.60294
   1   1   4 2617.56  252.50   1 0.59064-0.70904-0.37802 0.46759 0.71290-0.52783
  -1  -1  -4 2721.44  245.62   1 0.61450-0.49619-0.58869 0.49906 0.52518-0.71044
   1  -1   4 2324.41  106.86   1 0.56183-0.44378-0.80649 0.89613 0.18416 0.00117
  -1   1  -4 2022.11   89.53   1 0.48497-0.60311-0.87365 0.78415-0.03908-0.14613
   1  -1   4 2170.36   49.82   1-0.17050 0.28880-0.75877 0.84831 0.62864-0.44379
   1   1   4 2467.77  116.10   1-0.05780-0.06036-0.84778 0.93766 0.52717-0.34225
  -1  -1  -4 1929.73  100.58   1 0.09883 0.01914-0.92711 0.83718 0.36149-0.54658
  -1   1  -4 2082.18   57.21   1 0.28167-0.39969-0.95053 0.86043 0.13095-0.31606
  -1  -1  -4 1887.44  147.60   1-0.49817 0.61607 0.49802-0.58749-0.70978 0.52469
   1   1   4 2325.71  154.25   1-0.81453 0.69651 0.28508-0.19570-0.50523 0.69033
  -1   1  -4 2165.41  106.06   1-0.66417 0.54586-0.52853 0.43895 0.52869-0.71368
   1  -1   4 1942.97   92.23   1-0.37696 0.49521-0.61644 0.70599 0.69129-0.50629
   1   1   5  116.46   25.36   1 0.60471-0.72307-0.45795 0.54821 0.65160-0.42026
  -1  -1  -5   48.48   29.52   1 0.60743-0.48910-0.67930 0.58896 0.41178-0.64335
   1  -1   5  164.14   82.27   1 0.56347-0.44544-0.80396 0.89434 0.19008 0.04158
  -1   1  -5   63.50   35.04   1 0.47459-0.59274-0.87790 0.78768-0.06358-0.16794
   1  -1   5  113.18   44.61   1-0.05569 0.17379-0.84919 0.93987 0.52512-0.29397
   1   1   5   87.37   60.21   1-0.02327-0.09492-0.86977 0.96045 0.49289-0.26174
  -1  -1  -5   51.65   45.84   1 0.16038-0.04236-0.94394 0.85318 0.28852-0.51988
  -1   1  -5  152.37   51.50   1 0.35917-0.47742-0.93310 0.84257 0.01762-0.24926
  -1  -1  -5   97.99   35.55   1-0.62513 0.74326 0.43109-0.52121-0.65066 0.41939
   1   1   5  185.86   48.41   1-0.91797 0.80002 0.15522-0.06503-0.36499 0.59642
  -1   1  -5  126.14   57.30   1-0.78585 0.66762-0.45718 0.36693 0.41642-0.64779
   1  -1   5  165.61   60.48   1-0.48485 0.60327-0.59258 0.68286 0.64324-0.41200
   1   1   6 5580.79  254.64   1 0.61071-0.72901-0.50955 0.60051 0.60612-0.32851
  -1  -1  -6 5040.11  154.88   1 0.59287-0.47458-0.74073 0.64962 0.31593-0.59394
   1  -1   6 5711.15  208.24   1 0.56632-0.44831-0.79940 0.89051 0.20056 0.07744
  -1   1  -6 4549.40  156.10   1 0.46400-0.58216-0.88147 0.79053-0.08773-0.19009
   1  -1   6 5530.04  147.25   1-0.00143 0.11949-0.88238 0.97386 0.47052-0.19314
   1   1   6 5631.18  200.22   1-0.00073-0.11750-0.88277 0.97425 0.46980-0.19242
  -1  -1  -6 4393.63  157.47   1 0.21114-0.09292-0.95116 0.85936 0.22518-0.50285
  -1   1  -6 4823.02  141.69   1 0.40253-0.52080-0.91402 0.82272-0.05018-0.22777
  -1  -1  -6 5264.11  225.43   1-0.70206 0.82021 0.38018-0.47102-0.60213 0.32461
   1   1   6 5116.43  140.43   1-0.96711 0.84950 0.05381 0.03710-0.24858 0.52627
  -1   1  -6 4862.13  155.86   1-0.86579 0.74691-0.38587 0.29487 0.31859-0.59596
   1  -1   6 5019.05  149.87   1-0.55537 0.67391-0.57187 0.66286 0.60374-0.32625
   1   1   7 1327.24  144.11   1 0.61309-0.73135-0.54283 0.63449 0.57396-0.25008
   1  -1   7  933.42   96.01   1 0.56987-0.45188-0.79337 0.88522 0.21398 0.11035
  -1  -1  -7  917.60   74.26   1 0.57518-0.45687-0.78355 0.69170 0.23495-0.55928
  -1   1  -7  787.95   82.15   1 0.45328-0.57156-0.88432 0.79260-0.11186-0.21235
   1  -1   7  834.36   75.66   1 0.02510 0.09300-0.89609 0.98849 0.44315-0.11924
   1   1   7  902.34  107.86   1 0.01317-0.13145-0.89025 0.98254 0.45526-0.13165
  -1  -1  -7  845.27   89.51   1 0.25428-0.13603-0.95235 0.85970 0.16839-0.49233
  -1   1  -7  651.49   66.39   1 0.43300-0.55128-0.89578 0.80371-0.10040-0.22388
  -1  -1  -7 1065.51  119.37   1-0.74858 0.86661 0.34453-0.43605-0.56649 0.24256
   1   1   7  973.26   66.65   1-0.98757 0.86999-0.02438 0.11601-0.15525 0.47922
  -1   1  -7  822.45   73.21   1-0.91679 0.79774-0.32461 0.23288 0.23261-0.55620
   1  -1   7 1103.53   84.55   1-0.60138 0.72003-0.55541 0.64711 0.57431-0.25058
   1   1   851701.87  855.06   1 0.61422-0.73262-0.56334 0.65582 0.55260-0.18209
   1  -1   849020.38  658.66   1 0.57381-0.45583-0.78620 0.87878 0.22940 0.14126
  -1  -1  -851443.02  649.33   1 0.55642-0.43809-0.81430 0.72172 0.16522-0.53589
   1   1   851058.05  673.28   1 0.02075-0.13907-0.89416 0.98725 0.44724-0.07740
  -1  -1  -851324.28  629.12   1-0.77594 0.89397 0.32129-0.41351-0.54284 0.17264
   1   1   847721.73  573.40   1-0.99311 0.87556-0.08710 0.17946-0.07828 0.44853
  -1   1  -845589.77  576.10   1-0.94989 0.83067-0.26969 0.17723 0.15797-0.52778
   1  -1   852193.59  635.96   1-0.63078 0.74955-0.54351 0.63591 0.55380-0.18381
   1   1   9 3168.98  309.91   1 0.61447-0.73289-0.57609 0.66928 0.53902-0.12220
   1  -1   9 3101.94  152.27   1 0.57792-0.45996-0.77804 0.87136 0.24625 0.17075
   1  -1   9 2955.31  124.42   1 0.03880 0.07922-0.90273 0.99678 0.42843-0.01198
   1   1   9 2641.26  160.36   1 0.02376-0.14194-0.89542 0.98947 0.44457-0.02812
  -1   1  -9 2324.28  118.02   1 0.47741-0.59573-0.86029 0.76704-0.17882-0.23820
  -1  -1  -9 3116.04  178.64   1-0.79161 0.90965 0.30711-0.40005-0.52823 0.11175
   1   1   9 2686.45   99.71   1-0.99010 0.87401-0.13997 0.23320-0.01006 0.42627
  -1   1  -9 2321.89  104.45   1-0.97148 0.85236-0.21874 0.12551 0.09144-0.50766
   1  -1   9 2584.61  113.32   1-0.64869 0.76756-0.53568 0.62878 0.54059-0.12435
   1   1  10 1856.75  222.40   1 0.61451-0.73295-0.58291 0.67682 0.53157-0.06844
   1  -1  10 1560.98  128.19   1 0.58209-0.46414-0.76901 0.86307 0.26415 0.19918
   1  -1  10 1401.59  113.17   1 0.03568 0.08230-0.90125 0.99612 0.43181 0.03091
   1   1  10 1269.54  112.23   1 0.02287-0.14109-0.89497 0.98984 0.44552 0.01719
  -1   1 -10 1220.89  100.23   1 0.49521-0.61355-0.84252 0.74855-0.21192-0.25144
  -1  -1 -10 2034.53  167.77   1-0.79953 0.91758 0.29968-0.39332-0.52051 0.05775
   1   1  10 1503.70   91.50   1-0.98176 0.86582-0.18428 0.27825 0.04662 0.41583
  -1   1 -10 1381.47   98.90   1-0.98424 0.86497-0.17369 0.07972 0.03298-0.49544
   1  -1  10 1693.59  118.18   1-0.65837 0.77736-0.53125 0.62506 0.53320-0.07072
   1   1  11   25.85   40.04   1 0.61451-0.73297-0.58535 0.67997 0.52888-0.01944
   1  -1  11  113.56   71.70   1 0.58620-0.46827-0.75918 0.85397 0.28285 0.22682
   1   1  11   93.88  102.32   1 0.01894-0.13738-0.89324 0.98873 0.44916 0.05936
   1  -1  11  -31.66   57.39   1 0.02869 0.08924-0.89787 0.99356 0.43931 0.06968
  -1   1 -11  184.08   83.50   1 0.51129-0.62964-0.82435 0.72964-0.24294-0.26676
  -1  -1 -11  116.50   59.08   1-0.80200 0.92005 0.29732-0.39168-0.51805 0.00902
  -1   1 -11   43.09   36.44   1-0.99102 0.87160-0.13218 0.03747-0.01992-0.48877
   1   1  11  172.78   56.60   1-0.96996 0.85416-0.22304 0.31775 0.09709 0.41161
   1   1  12  531.52  144.13   1 0.61451-0.73299-0.58440 0.67973 0.52993 0.02581
   1  -1  12  666.21  115.34   1 0.59019-0.47228-0.74858 0.84410 0.30216 0.25384
   1   1  12  482.02  160.63   1 0.01283-0.13131-0.89008 0.98637 0.45561 0.09914
   1  -1  12  338.11   64.53   1 0.01890 0.09900-0.89296 0.98947 0.44973 0.10553
  -1  -1 -12  398.67  105.41   1-0.80039 0.91844 0.29886-0.39393-0.51966-0.03564
  -1   1 -12  494.06   69.63   1-0.99313 0.87484-0.09298-0.00224-0.07097-0.48439
   1   1  13  271.05   96.82   1 0.61451-0.73301-0.58075 0.67679 0.53394 0.06811
   1  -1  13  237.32  115.11   1 0.59400-0.47610-0.73722 0.83348 0.32195 0.28038
   1  -1  13   28.13   60.14   1 0.00693 0.11084-0.88695 0.98404 0.46180 0.13918
   1   1  13  161.14   83.48   1 0.00477-0.12329-0.88578 0.98287 0.46406 0.13692
  -1  -1 -13  180.42   65.16   1-0.79553 0.91359 0.30345-0.39923-0.52443-0.07714
  -1   1 -13  280.36   69.59   1-0.99163 0.87331-0.05648-0.03946-0.11610-0.48555
   1   1  14  245.99   78.69   1 0.61445-0.73297-0.57486 0.67161 0.54034 0.10803
   1  -1  14  130.24   87.63   1 0.59758-0.47971-0.72514 0.82213 0.34213 0.30654
   1  -1  14  464.18   97.35   1-0.00668 0.12443-0.87944 0.97733 0.47595 0.17126
   1   1  14  400.30  126.25   1-0.00492-0.11363-0.88043 0.97832 0.47413 0.17308
  -1  -1 -14  262.04   75.08   1-0.78796 0.90602 0.31047-0.40696-0.53170-0.11614
  -1   1 -14  280.60   51.52   1-0.98712 0.86878-0.02174-0.07492-0.15844-0.48948
   1   1  15 1122.28  154.06   1 0.61431-0.73286-0.56705 0.66452 0.54868 0.14600
   1  -1  15 1087.27  157.13   1 0.60091-0.48305-0.71231 0.81004 0.36262 0.33238
   1   1  15 1291.03  172.50   1-0.01603-0.10255-0.87406 0.97275 0.48554 0.20790
   1  -1  15  823.94  114.24   1-0.02174 0.13944-0.87069 0.96938 0.49134 0.20210
  -1  -1 -15  792.38  159.47   1-0.77799 0.89605 0.31947-0.41667-0.54098-0.15314
  -1   1 -15  755.51   76.95   1-0.98002 0.86165 0.01159-0.10898-0.19855-0.49565
   1   1  16 7092.00  709.64   1 0.61404-0.73260-0.55757 0.65576 0.55861 0.18238
   1  -1  16 6254.78  739.38   1 0.60380-0.48605-0.69907 0.79725 0.38304 0.35795
   1   1  16 7952.93  432.48   1-0.02839-0.09023-0.86667 0.96616 0.49806 0.24161
   1  -1  16 7087.01  369.37   1-0.03802 0.15569-0.86068 0.96018 0.50771 0.23197
  -1  -1 -16 5790.09  489.92   1-0.76580 0.88387 0.33011-0.42803-0.55187-0.18853
  -1   1 -16 5897.90  297.52   1-0.97055 0.85216 0.04384-0.14195-0.23684-0.50364
   1   1  17  591.02  149.93   1 0.61335-0.73110-0.54796 0.64658 0.56880 0.21776
   1  -1  17  784.47  200.96   1 0.60652-0.48879-0.68477 0.78367 0.40399 0.38331
   1  -1  17  677.60  150.50   1-0.05540 0.17303-0.84939 0.94968 0.52484 0.26106
   1   1  17  737.29  152.59   1-0.04186-0.07681-0.85825 0.95854 0.51152 0.27439
  -1  -1 -17  705.49  151.21   1-0.75150 0.86957 0.34214-0.44076-0.56407-0.22260
  -1   1 -17  669.37  101.88   1-0.95878 0.84046 0.07567-0.17453-0.27388-0.51298
   1   1  18  127.80   72.68   1 0.61268-0.73038-0.53564 0.63496 0.58111 0.25171
   1  -1  18  484.98  186.89   1 0.60889-0.49118-0.66971 0.76932 0.42512 0.40850
   1  -1  18  158.22   92.09   1-0.07379 0.19138-0.83674 0.93783 0.54260 0.28954
   1   1  18  -20.73   79.07   1-0.05634-0.06237-0.84876 0.94986 0.52575 0.30638
  -1  -1 -18   82.25   42.36   1-0.73510 0.85318 0.35535-0.45469-0.57736-0.25559
  -1   1 -18   78.27   35.49   1-0.94494 0.82661 0.10639-0.20598-0.30943-0.52371
   1   1  19  335.35  126.57   1 0.61174-0.72939-0.52200 0.62202 0.59436 0.28473
   1   1  19  395.42  162.99   1-0.07176-0.04699-0.83817 0.94007 0.54065 0.33771
   1  -1  19  190.39   96.29   1-0.09312 0.21067-0.82265 0.92455 0.56085 0.31751
  -1   1 -19  109.52   46.72   1-0.92898 0.81063 0.13662-0.23693-0.34397-0.53546
  -1   2  19  161.44   61.64   1 0.61173-0.84739-0.52182 0.44827 0.59454 0.28456
  -1  -2  19   56.62   98.83   1 0.58008-0.34406-0.77348 0.70075 0.25539 0.62494
  -1   2  19  290.96  122.52   1 0.05123-0.28851-0.90841 0.83739 0.41492 0.46425
   1  -2 -19   88.44   60.75   1-0.67256 0.90915 0.40080-0.32794-0.62210-0.25670
   1   2 -19  127.62   49.87   1-0.97743 0.74130 0.02131 0.05162-0.21015-0.66918
  -1   2  18  190.76  106.09   1 0.61284-0.84854-0.53824 0.46400 0.57854 0.25428
  -1  -2  18  401.42  172.72   1 0.57199-0.33595-0.78958 0.71612 0.22221 0.61180
  -1  -2  18  291.25  123.20   1 0.11837 0.11680-0.93337 0.86153 0.33881 0.49408
  -1   2  18  518.37  130.21   1 0.06995-0.30719-0.91634 0.84450 0.39422 0.43868
   1  -2 -18  128.52   58.30   1-0.68579 0.92235 0.39173-0.31816-0.61337-0.21918
  -1   2  17  165.27   76.96   1 0.61381-0.85038-0.55148 0.47683 0.56489 0.22242
  -1  -2  17  176.02   85.27   1 0.56295-0.32689-0.80478 0.73058 0.18818 0.59948
  -1   2  17  652.38  169.23   1 0.08814-0.32534-0.92334 0.85067 0.37371 0.41291
  -1  -2  17   38.62   64.08   1 0.15129 0.08392-0.94199 0.86933 0.29958 0.48705
   1  -2 -17  123.93   64.93   1-0.69705 0.93358 0.38378-0.30949-0.60565-0.18064
   1   2 -17  382.50  104.45   1-0.98957 0.75349-0.03778 0.11216-0.13896-0.64781
  -1   2  16  263.29   74.59   1 0.61427-0.85082-0.56513 0.48977 0.55071 0.19028
  -1  -2  16  368.12  134.93   1 0.55287-0.31679-0.81906 0.74412 0.15320 0.58814
  -1   2  16  668.37  219.37   1 0.10581-0.34297-0.92945 0.85596 0.35344 0.38691
  -1  -2  16  302.01  128.91   1 0.18473 0.05053-0.94821 0.87472 0.25838 0.48197
   1  -2 -16  109.21   69.64   1-0.70630 0.94280 0.37709-0.30208-0.59910-0.14094
   1   2 -16  177.11   75.28   1-0.99245 0.75639-0.06779 0.14289-0.10218-0.63831
  -1   2  15  304.57   78.15   1 0.61448-0.85101-0.57722 0.50115 0.53779 0.15689
  -1  -2  15  862.38  142.43   1 0.54234-0.30609-0.83206 0.75624 0.11630 0.57827
  -1   2  15  643.86  172.08   1 0.12294-0.36006-0.93471 0.86040 0.33345 0.36063
  -1  -2  15  944.64  163.96   1 0.21871 0.01705-0.95171 0.87778 0.21540 0.47875
   1  -2 -15  326.60   67.16   1-0.71345 0.94992 0.37181-0.29607-0.59391-0.09988
   1   2 -15  364.25   73.81   1-0.99307 0.75704-0.09821 0.17403-0.06445-0.62975
  -1   2  1412439.92  944.59   1 0.61451-0.85102-0.58755 0.51077 0.52645 0.12192
  -1  -2  1412231.92  786.34   1 0.52987-0.29364-0.84439 0.76785 0.07890 0.56936
  -1   2  1412591.19  827.68   1 0.13951-0.37658-0.93919 0.86405 0.31377 0.33404
  -1  -2  1412407.41  772.59   1 0.25398-0.01819-0.95236 0.87758 0.16880 0.47908
   1  -2 -1413248.59  963.45   1-0.71874 0.95484 0.36797-0.29140-0.58990-0.05794
   1   2 -1411519.75  724.46   1-0.99134 0.75422-0.12914 0.20536-0.02377-0.62367
  -1   2  1310388.92  727.52   1 0.61442-0.85092-0.59587 0.51837 0.51711 0.08495
  -1  -2  1310705.32  585.87   1 0.51599-0.27976-0.85565 0.77839 0.03997 0.56199
  -1   2  1311035.49  614.93   1 0.15549-0.39253-0.94292 0.86696 0.29448 0.30706
  -1  -2  1311488.41  593.01   1 0.29061-0.05480-0.94947 0.87383 0.11849 0.48311
   1  -2 -1311454.73  673.86   1-0.72119 0.95728 0.36612-0.28884-0.58807-0.01350
   1   2 -1310519.25  547.35   1-0.98688 0.74992-0.16060 0.23756 0.01620-0.61739
  -1   2  1254937.62 1909.74   1 0.61430-0.85078-0.60176 0.52355 0.51038 0.04536
  -1  -2  1253369.93 1620.91   1 0.50048-0.26426-0.86574 0.78775-0.00075 0.55641
  -1   2  1257265.04 1751.20   1 0.17085-0.40785-0.94595 0.86917 0.27564 0.27962
  -1  -2  1256855.38 1691.80   1 0.32900-0.09315-0.94219 0.86570 0.06352 0.49180
   1  -2 -1257273.15 1713.17   1-0.72085 0.95694 0.36638-0.28838-0.58832 0.03302
   1   2 -1248853.39 1475.78   1-0.97955 0.74274-0.19275 0.27045 0.05757-0.61252
  -1   2  11 1098.73  163.95   1 0.61423-0.85068-0.60459 0.52567 0.50713 0.00230
  -1  -2  11 1076.67  141.60   1 0.48308-0.24687-0.87448 0.79578-0.04361 0.55297
  -1  -2  11  802.28   72.78   1-0.64782 0.88445 0.35750-0.43671 0.67269-0.16434
  -1   2  11  583.09  130.83   1 0.18554-0.42249-0.94833 0.87073 0.25736 0.25163
  -1  -2  11  638.02  110.43   1 0.36973-0.13339-0.92913 0.85088 0.00146 0.50813
   1  -2 -11 1146.90  170.53   1-0.71732 0.95340 0.36905-0.29034-0.59096 0.08193
   1   2 -11  775.74  105.71   1-0.96899 0.73232-0.22568 0.30412 0.10055-0.60926
  -1   2  10  718.41   84.79   1 0.61426-0.85070-0.60331 0.52368 0.50860-0.04547
  -1  -2  10  560.43  130.44   1 0.46342-0.22722-0.88165 0.80222-0.08903 0.55208
   1  -2 -10  594.78   85.01   1 0.37958-0.14364-0.88868 0.96796-0.25721-0.20595
  -1  -2  10  402.66   51.38   1-0.64824 0.88453 0.32962-0.40942 0.68638-0.22352
  -1   2  10  586.90  158.99   1 0.19963-0.43611-0.95004 0.87185 0.23991 0.22286
  -1  -2  10  450.42  103.04   1 0.41281-0.17648-0.90835 0.82933-0.06687 0.53013
   1  -2 -10  623.13  119.81   1-0.70959 0.94591 0.37467-0.29534-0.59673 0.13420
   1   2 -10  442.37   92.95   1-0.95473 0.71821-0.25951 0.33869 0.14536-0.60782
  -1   2   9  914.81  100.68   1 0.61442-0.85083-0.59619 0.51584 0.51675-0.09994
  -1  -2   9  438.58  100.10   1 0.44136-0.20514-0.88676 0.80675-0.13728 0.55413
   1  -2  -9  453.72   69.58   1 0.39413-0.15817-0.88966 0.96967-0.23055-0.18630
  -1  -2   9  425.34   60.49   1-0.64680 0.88304 0.28914-0.36962 0.70571-0.28914
  -1   2   9  544.07  111.75   1 0.21274-0.44919-0.95129 0.87225 0.22312 0.19337
  -1  -2   9  821.10  120.41   1 0.45869-0.22237-0.87673 0.79695-0.14467 0.56161
   1  -2  -9  955.66  148.42   1-0.69769 0.93398 0.38333-0.30328-0.60521 0.18893
   1   2  -9  681.56   91.71   1-0.93584 0.69926-0.29523 0.37523 0.19242-0.60846
  -1   2   8   74.48   43.30   1 0.61450-0.85089-0.58008 0.49901 0.53468-0.16417
   1  -2  -8  214.75   70.16   1 0.40880-0.17281-0.88981 0.97055-0.20275-0.16777
  -1  -2   8   72.22   89.24   1 0.41564-0.17944-0.88957 0.80883-0.18945 0.55998
  -1  -2   8  183.40   39.40   1-0.64265 0.87884 0.23209-0.31324 0.73015-0.35986
  -1   2   8  696.03  190.50   1 0.22487-0.46130-0.95206 0.87217 0.20738 0.16283
  -1  -2   8  194.16   93.26   1 0.50709-0.27069-0.82931 0.74845-0.23472 0.60542
   1  -2  -8  214.83   67.58   1-0.68013 0.91639 0.39565-0.31488-0.61715 0.24713
   1   2  -8  103.53   69.13   1-0.91215 0.67574-0.33108 0.41182 0.24155-0.61137
  -1   2   7  711.71   74.29   1 0.61369-0.85006-0.54884 0.46706 0.56757-0.24339
   1  -2  -7  316.15   44.13   1 0.42389-0.18788-0.88901 0.97049-0.17308-0.15113
  -1  -2   7  541.75   91.46   1 0.38573-0.14956-0.88919 0.80771-0.24606 0.57028
  -1  -2   7  309.55   45.76   1-0.63312 0.86926 0.15371-0.23554 0.75863-0.43463
  -1   2   7  193.39  138.82   1 0.23583-0.47222-0.95243 0.87169 0.19300 0.13094
  -1  -2   7  422.55   79.68   1 0.55666-0.32028-0.75887 0.67728-0.33798 0.66234
   1  -2  -7  552.79   91.89   1-0.65548 0.89172 0.41209-0.33060-0.63286 0.30909
   1   2  -7  253.72   67.42   1-0.88235 0.64611-0.36804 0.44951 0.29323-0.61682
  -1   2   6   28.29   22.96   1 0.60873-0.84504-0.48983 0.40723 0.62410-0.34649
   1  -2  -6   16.48   22.78   1 0.44009-0.20406-0.88697 0.96918-0.13993-0.13796
  -1  -2   6  337.43  114.91   1 0.35049-0.11435-0.88445 0.80225-0.30802 0.58593
  -1  -2   6   80.90   30.72   1-0.61353 0.84978 0.04891-0.13167 0.78814-0.51041
  -1   2   6  522.17  160.23   1 0.24533-0.48170-0.95250 0.87091 0.18038 0.09727
  -1  -2   6   37.99   70.27   1 0.60372-0.36706-0.65438 0.57207-0.45529 0.73348
   1  -2  -6   -2.31   53.47   1-0.62188 0.85808 0.43305-0.35084-0.65247 0.37495
  -1   2   6   98.95   56.69   1-0.87682 0.64078 0.21421-0.29644-0.43045 0.70817
   1   2  -6  255.09  109.56   1-0.84460 0.60855-0.40912 0.49149 0.34533-0.62297
  -1   2   566581.36 1319.74   1 0.58838-0.82474-0.36744 0.28414 0.72026-0.48892
   1  -2  -574335.93 1471.81   1 0.45905-0.22300-0.88284 0.96578-0.09921-0.13237
   1   2  -571758.58 1474.13   1 0.10922-0.34565-0.76238 0.84576-0.63784 0.40645
  -1  -2   577893.31 1552.40   1-0.57848 0.81467-0.08399 0.00059 0.81135-0.57991
  -1   2   574419.03 1538.91   1 0.25297-0.48932-0.95239 0.86995 0.17015 0.06123
   1  -2  -575176.03 1539.43   1 0.44292-0.20664-0.88885 0.97170-0.11727-0.11436
   1  -2  -575884.61 1555.54   1-0.57694 0.81312 0.45874-0.37581-0.67578 0.44452
  -1   2   577315.77 1572.80   1-0.82569 0.58964 0.27371-0.35669-0.49325 0.72463
   1   2  -574240.67 1526.04   1-0.79833 0.56233-0.44793 0.53102 0.40250-0.63387
   1  -2  -420779.67  419.90   1 0.48531-0.24918-0.87350 0.95724-0.03827-0.14694
   1   2  -420577.47  478.43   1 0.06785-0.30424-0.72962 0.81366-0.68046 0.49536
   1  -2  -422345.62  452.84   1-0.49990 0.73612 0.08462-0.00090-0.86193 0.67684
   1   2  -420949.56  448.46   1-0.64739 0.41141 0.30176-0.21790 0.69987-0.88501
  -1  -2   423224.94  484.81   1-0.52116 0.75726-0.23918 0.15520 0.81925-0.63439
  -1   2   422301.31  520.49   1 0.25812-0.49444-0.95222 0.86893 0.16321 0.02189
   1  -2  -423543.98  539.06   1 0.43723-0.20094-0.89289 0.97651-0.10756-0.07774
   1  -2  -422473.58  505.17   1-0.51782 0.75396 0.48894-0.40529-0.70198 0.51697
  -1   2   423799.17  524.45   1-0.76046 0.52441 0.33466-0.41834-0.55649 0.74160
   1   2  -421321.51  496.11   1-0.74104 0.50509-0.48704 0.57084 0.46222-0.64731
   1   2  -313435.38  223.66   1 0.01259-0.24890-0.68072 0.76530-0.73242 0.59360
   1   2  -313709.45  295.37   1-0.61553 0.37944 0.05812 0.02654 0.78596-0.92483
  -1   2   313104.49  215.07   1 0.25974-0.49604-0.95215 0.86801 0.16101-0.02218
   1  -2  -313273.69  198.01   1-0.44157 0.67766 0.52255-0.43822-0.72934 0.59053
  -1  -2   312477.59  192.73   1-0.43434 0.67059-0.60565 0.52109 0.66672-0.52797
   1   2  -210191.28  197.42   1-0.06088-0.17540-0.60780 0.69307-0.79174 0.69919
  -1   2   2 9946.72  175.79   1 0.25605-0.49232-0.95230 0.86730 0.16600-0.07345
   1  -2  -2 9386.91  167.03   1-0.34525 0.58137 0.55790-0.47284-0.75467 0.66213
  -1   2   210877.71  477.95   1-0.58032 0.34423 0.45689-0.54198-0.67414 0.76665
  -1  -2   2 9670.10  171.80   1-0.34780 0.58395-0.62089 0.53562 0.70250-0.61000
   1  -2  -121110.36  135.72   1 0.42957-0.19343-0.88844 0.97431-0.16162 0.11530
  -1  -2   122241.96  288.39   1 0.02684 0.20943-0.69376 0.60779-0.71970 0.76597
  -1   2   120197.28  151.75   1-0.08490-0.15122-0.58189 0.49592-0.80881 0.85509
   1   2  -120278.18  259.17   1-0.15384-0.08227-0.50077 0.58672-0.85179 0.80559
   1   2  -119990.06  192.83   1-0.44178 0.20572-0.40348 0.48936 0.80126-0.84746
  -1   2   120119.92  220.59   1 0.24364-0.47988-0.95251 0.86666 0.18263-0.13636
   1  -2  -121837.44  235.05   1 0.44016-0.20383-0.89083 0.97676-0.11254 0.06621
   1  -2   0  425.93   48.02   1 0.45780-0.22163-0.88318 0.96978-0.10197 0.10197
  -1   2   0  434.12   62.93   1 0.15832-0.39462-0.79713 0.71046-0.58267 0.58267
  -1  -2   0  478.14   82.38   1-0.08099 0.31726-0.58618 0.49951-0.80612 0.80612
   1   2   0  413.09   73.71   1-0.26364 0.02747-0.35322 0.43991-0.89762 0.89762
   1   2   0  608.87   64.95   1-0.34091 0.10491-0.56430 0.65089 0.75188-0.75188
  -1  -2   0  908.30   66.82   1-0.15101 0.38707-0.77632 0.68968 0.61197-0.61197
  -1   2   0  487.74   64.47   1 0.21518-0.45140-0.95147 0.86478 0.21997-0.21997
   1  -2   0  252.03   73.97   1 0.45636-0.22002-0.87861 0.96531-0.14057 0.14057
  -1   2   0  252.66   46.86   1-0.33908 0.10291 0.55991-0.64644-0.75598 0.75598
   1   2   0 1030.20  115.52   1-0.36133 0.12540-0.61891 0.70561 0.69741-0.69741
  -1  -2   0  664.23   74.63   1-0.09909 0.33543-0.63439 0.54750 0.76662-0.76662
  -1   2   0  309.91   75.17   1 0.09247-0.32882-0.61678 0.52994 0.78168-0.78168
   1  -2   122980.49  201.00   1 0.47541-0.23923-0.87759 0.96493-0.06168 0.10799
  -1   2  -120791.40  196.13   1 0.26472-0.50099-0.85563 0.76826-0.44474 0.39847
  -1  -2  -122810.77  254.13   1-0.19697 0.43319-0.44584 0.35842-0.87316 0.82696
   1   2   122625.24  245.12   1-0.37879 0.14248-0.16699 0.25435-0.91029 0.95655
   1   2   120948.06  222.50   1-0.25264 0.01663-0.67465 0.76202 0.69354-0.64733
  -1  -2  -122891.57  223.70   1-0.06762 0.30381-0.84106 0.75359 0.53668-0.58291
  -1   2  -121402.62  167.24   1 0.15070-0.38716-0.94186 0.85439 0.30029-0.34657
  -1   2  -120740.53  254.00   1-0.05589-0.18040-0.63239 0.54483 0.77263-0.81890
   1  -2   234843.53  281.26   1 0.48909-0.25290-0.87174 0.95980-0.02910 0.12171
   1   2   231632.72  268.32   1-0.48097 0.24470 0.03960 0.04849-0.87583 0.96838
   1   2   233931.51  298.66   1-0.18186-0.05409-0.74812 0.83621 0.63814-0.54572
  -1  -2  -234172.98  278.27   1 0.00388 0.23235-0.88530 0.79702 0.46499-0.55745
  -1   2  -231293.70  307.70   1-0.20778-0.02865-0.63404 0.54582 0.74485-0.83741
   1  -2   234898.62  300.63   1 0.07787 0.15855-0.61898 0.70724 0.78153-0.68895
  -1  -2  -232881.21  274.80   1 0.23651-0.00014-0.58751 0.49924 0.77388-0.86646
   1  -2   369649.17  439.42   1 0.50085-0.26465-0.86553 0.95431 0.00018 0.13873
   1   2   366728.20  456.85   1-0.12773-0.10853-0.79540 0.88448 0.59246-0.45377
  -1  -2  -366933.30  432.80   1 0.06530 0.17073-0.91445 0.82533 0.39939-0.53820
   1   2   370065.50  412.17   1-0.40889 0.17290 0.53541-0.44667-0.73901 0.87782
  -1   2  -366590.91  463.97   1-0.35379 0.11774-0.62003 0.53119 0.70027-0.83902
   1  -2   365695.42  418.45   1-0.04142 0.27799-0.63144 0.72033 0.77430-0.63548
  -1  -2  -4  865.53   85.76   1 0.59605-0.35924-0.40532 0.31576 0.69312-0.87820
   1  -2   4  811.77   81.02   1 0.51141-0.27520-0.85888 0.94838 0.02766 0.15755
  -1   2  -4  632.32   65.93   1 0.35862-0.59488-0.88592 0.79640-0.29415 0.10888
  -1  -2  -4  634.59   88.76   1-0.47355 0.70982 0.02269-0.11226-0.88046 0.69537
   1   2   4  585.80   89.15   1-0.08740-0.14890-0.82690 0.91678 0.55550-0.37058
  -1  -2  -4  345.87   58.04   1 0.11808 0.11799-0.93329 0.84335 0.33915-0.52424
   1   2   4  737.76  105.17   1-0.56529 0.32919 0.46500-0.37559-0.68133 0.86634
  -1   2  -4  741.38  111.94   1-0.48618 0.24999-0.59223 0.50265 0.64255-0.82754
   1  -2   4  623.97   72.25   1-0.14523 0.38193-0.63520 0.72475 0.75856-0.57346
   1   2   4  593.36   90.88   1 0.17452-0.41081-0.60180 0.69150 0.77933-0.59418
  -1  -2  -5  345.82   45.73   1 0.61266-0.37590-0.53531 0.44504 0.58144-0.81278
   1  -2   5  309.38   70.59   1 0.52112-0.28490-0.85176 0.94198 0.05406 0.17746
  -1   2  -5  387.46   62.82   1 0.36589-0.60218-0.88705 0.79679-0.28152 0.04994
   1   2   5  377.13   74.75   1-0.05802-0.17832-0.84763 0.93831 0.52739-0.29624
  -1  -2  -5  342.13   61.82   1 0.16404 0.07207-0.94467 0.85391 0.28402-0.51539
   1   2   5  261.54   49.51   1-0.69575 0.45962 0.38472-0.29459-0.60656 0.83782
  -1   2  -5  573.08   95.40   1-0.59938 0.36308-0.55618 0.46590 0.57566-0.80691
   1  -2   5  609.77   78.61   1-0.23198 0.46880-0.63288 0.72309 0.73867-0.50729
   1   2   6 3876.89  138.95   1 0.55290-0.78947-0.23095 0.32210 0.80060-0.52247
  -1  -2  -6 4551.63  246.49   1 0.61286-0.37635-0.63206 0.54101 0.47422-0.75210
   1  -2   6 4415.80  181.53   1 0.53016-0.29394-0.84413 0.93507 0.07974 0.19808
   1  -2   6 3998.98  115.41   1-0.64530 0.88152 0.26443-0.17379 0.71669-0.43898
   1  -2   6 4339.26   94.95   1-0.24356 0.48001-0.68480 0.77579 0.68681-0.40954
   1   2   6 4489.09  189.69   1-0.03717-0.19921-0.86122 0.95270 0.50685-0.22947
  -1  -2  -6 4083.93  147.32   1-0.37076 0.60666 0.54928-0.64021-0.74888 0.47125
   1   2   6 3493.53  241.06   1-0.79744 0.56140 0.30166-0.21086-0.52257 0.80022
  -1   2  -6 4579.18  189.96   1-0.69398 0.45780-0.51368 0.42271 0.50449-0.78213
   1  -2   6 4131.77  151.91   1-0.30330 0.53968-0.62641 0.71739 0.71805-0.44055
   1   2   7 1958.34   98.91   1 0.57261-0.80918-0.29863 0.39050 0.76349-0.43901
  -1  -2  -7 1899.18  144.79   1 0.60302-0.36649-0.70274 0.61097 0.37751-0.70170
   1  -2   7 1897.92  143.55   1 0.53864-0.30240-0.83597 0.92763 0.10493 0.21920
   1  -2   7 2016.18   58.63   1-0.09996 0.33614-0.81747 0.90976 0.56721-0.24360
   1   2   7 2032.19  140.18   1-0.02299-0.21343-0.86994 0.96222 0.49261-0.16899
  -1  -2  -7 1783.15   94.01   1-0.44057 0.67645 0.52296-0.61463-0.72965 0.40575
   1   2   7 1847.47   83.90   1-0.87236 0.63639 0.21986-0.12823-0.43662 0.76063
  -1   2  -7 2206.28  134.02   1-0.77017 0.53393-0.46820 0.37650 0.43315-0.75706
   1  -2   7 2121.63  118.69   1-0.35849 0.59498-0.61934 0.71102 0.69849-0.37474
   1   2   8 4239.16  336.22   1 0.58423-0.82084-0.34895 0.44130 0.73273-0.36259
  -1  -2  -8 4002.53  120.01   1 0.58797-0.35149-0.75462 0.66204 0.29126-0.66193
   1  -2   8 4129.35  191.50   1 0.54661-0.31037-0.82726 0.91964 0.12976 0.24067
   1  -2   8 4197.76   88.20   1-0.04817 0.28430-0.85417 0.94725 0.51775-0.14791
   1   2   8 4278.32  193.48   1-0.01405-0.22241-0.87521 0.96830 0.48352-0.11368
  -1  -2  -8 4276.11  338.63   1-0.49407 0.72992 0.49990-0.59230-0.71132 0.34115
   1   2   8 3951.85  113.43   1-0.92426 0.68831 0.14479-0.05243-0.35322 0.72351
  -1   2  -8 3823.84  162.58   1-0.83076 0.59447-0.42156 0.32915 0.36346-0.73365
   1   2   9  154.99   70.78   1 0.59204-0.82860-0.38479 0.47784 0.70810-0.29169
   1  -2   9  406.15  131.63   1 0.55354-0.31742-0.81818 0.91149 0.15545 0.26154
   1   2   9  214.03   87.64   1-0.00931-0.22719-0.87795 0.97183 0.47865-0.06258
   1  -2   9  423.64   49.03   1-0.02704 0.26313-0.86749 0.96138 0.49670-0.08063
  -1   2  -9  375.43   62.96   1 0.61872-0.85529-0.60460 0.51122-0.50163 0.08436
  -1  -2  -9  634.61   76.62   1-0.53308 0.76933 0.48151-0.57451-0.69567 0.27939
   1   2   9  187.88   44.20   1-0.95858 0.72264 0.07615 0.01692-0.27443 0.69101
  -1   2  -9  194.83   56.03   1-0.87924 0.64221-0.37152 0.27832 0.29816-0.71420
   1   2  1025348.50  719.50   1 0.59694-0.83345-0.41013 0.50387 0.68952-0.22683
   1  -2  1024821.69  589.87   1 0.56060-0.32450-0.80833 0.90238 0.17979 0.28354
   1  -2  1026712.24  539.17   1-0.02046 0.25651-0.87145 0.96614 0.49004-0.02774
   1   2  1026382.80  623.17   1-0.00796-0.22858-0.87872 0.97340 0.47726-0.01496
  -1  -2 -1025313.04  592.52   1-0.56211 0.79838 0.46668-0.56040-0.68281 0.22028
  -1   2 -1024475.86  549.82   1-0.91577 0.67857-0.32606 0.23213 0.23461-0.69688
   1   2  11 4731.71  450.64   1 0.59999-0.83645-0.42744 0.52188 0.67623-0.16728
   1  -2  11 4156.91  231.23   1 0.56724-0.33115-0.79789 0.89268 0.20397 0.30570
   1  -2  11 4144.93  179.79   1-0.02209 0.25811-0.87048 0.96596 0.49170 0.01682
   1   2  11 3673.29  255.25   1-0.00939-0.22719-0.87790 0.97339 0.47873 0.02979
  -1   2 -11 2888.05  141.48   1 0.61479-0.85140-0.61893 0.52407-0.48881-0.02118
  -1  -2 -11 4117.87  408.21   1-0.58239 0.81870 0.45575-0.55019-0.67312 0.16434
  -1   2 -11 3593.35  197.76   1-0.94344 0.70607-0.28193 0.18726 0.17442-0.68292
   1   2  12 3091.74  310.68   1 0.60180-0.83821-0.43852 0.53366 0.66747-0.11225
   1  -2  12 2446.25  167.98   1 0.57346-0.33740-0.78685 0.88237 0.22802 0.32797
   1   2  12 3377.82  245.23   1-0.01315-0.22347-0.87574 0.97203 0.48259 0.07216
   1  -2  12 2789.85  134.37   1-0.02892 0.26489-0.86635 0.96263 0.49859 0.05616
  -1   2 -12 1966.12  107.61   1 0.61618-0.85281-0.61398 0.51839-0.49328-0.06307
  -1  -2 -12 2479.67  294.63   1-0.59562 0.83195 0.44837-0.54352-0.66647 0.11144
  -1   2 -12 2606.56  160.82   1-0.96425 0.72708-0.23790 0.14245 0.11665-0.67160
   1   2  13 8370.41  666.25   1 0.60276-0.83912-0.44467 0.54050 0.66252-0.06103
   1  -2  13 7262.09  414.83   1 0.57928-0.34323-0.77519 0.87145 0.25198 0.35035
   1  -2  13 8916.60  448.65   1-0.03932 0.27525-0.85986 0.95695 0.50899 0.09199
   1   2  13 8472.64  477.56   1-0.01887-0.21778-0.87239 0.96948 0.48843 0.11255
  -1   2 -13 5514.26  285.09   1 0.61879-0.85543-0.60432 0.50799-0.50188-0.10084
  -1  -2 -13 7093.62  570.60   1-0.60306 0.83942 0.44412-0.53999-0.66262 0.06133
  -1   2 -13 7012.43  370.47   1-0.97848 0.74115-0.19660 0.10042 0.06257-0.66377
   1   2  1419988.61 1534.84   1 0.60309-0.83939-0.44682 0.54336 0.66077-0.01301
   1  -2  1419592.52 1222.50   1 0.58469-0.34866-0.76291 0.85990 0.27585 0.37281
   1  -2  1421483.01 1296.93   1-0.05235 0.28825-0.85142 0.94931 0.52186 0.12536
   1   2  1418435.22 1159.62   1-0.02630-0.21040-0.86794 0.96584 0.49595 0.15126
  -1  -2 -1418581.41 1164.50   1-0.60566 0.84205 0.44262-0.53921-0.66125 0.01371
  -1   2 -1418925.16 1155.86   1-0.98758 0.75011-0.15665 0.05973 0.01115-0.65860
   1   2  15  219.73   75.30   1 0.60291-0.83917-0.44567 0.54290 0.66171 0.03231
   1  -2  15  433.90  147.03   1 0.58969-0.35367-0.74997 0.84770 0.29966 0.39535
   1  -2  15  107.40   58.18   1-0.06744 0.30330-0.84118 0.93988 0.53651 0.15693
   1   2  15  434.12  174.05   1-0.03520-0.20154-0.86246 0.96115 0.50489 0.18856
  -1  -2 -15  174.24   74.67   1-0.60410 0.84052 0.44351-0.54083-0.66207-0.03171
  -1   2 -15  247.81   80.43   1-0.99229 0.75467-0.11792 0.02026-0.03790-0.65578
   1   2  16 1183.40  169.85   1 0.60230-0.83851-0.44171 0.53964 0.66491 0.07538
   1  -2  16 1602.73  168.88   1 0.59426-0.35827-0.73637 0.83484 0.32340 0.41794
   1  -2  16 1036.30  109.87   1-0.08423 0.32005-0.82923 0.92872 0.55251 0.18716
   1   2  16 1125.10  161.47   1-0.04541-0.19137-0.85596 0.95546 0.51503 0.22465
  -1  -2 -16  562.57  111.08   1-0.59889 0.83534 0.44651-0.54454-0.66479-0.07525
  -1   2 -16  506.91  117.33   1-0.99298 0.75672-0.08007-0.01803-0.08700-0.65348
   1   2  17  608.17  128.73   1 0.60129-0.83744-0.43532 0.53394 0.67002 0.11653
   1  -2  17 1106.43  159.25   1 0.59842-0.36244-0.72209 0.82129 0.34709 0.44058
   1   2  17 1201.57  173.51   1-0.05679-0.18002-0.84846 0.94875 0.52619 0.25971
  -1  -2 -17  541.42  124.50   1-0.59036 0.82684 0.45133-0.55008-0.66915-0.11714
  -1   2 -17  680.67   88.41   1-0.99027 0.75398-0.04330-0.05552-0.13223-0.65453
   1   2  18   56.20   58.28   1 0.59987-0.83598-0.42677 0.52609 0.67676 0.15607
   1  -2  18  276.97  100.63   1 0.60197-0.36612-0.70743 0.80704 0.37034 0.46328
   1   2  18  213.88  140.37   1-0.06925-0.16761-0.83993 0.94102 0.53825 0.29388
  -1  -2 -18  394.79  124.90   1-0.57874 0.81525 0.45776-0.55723-0.67491-0.15763
  -1   2 -18  308.61   92.48   1-0.98438 0.74807-0.00730-0.09223-0.17587-0.65717
   1   2  19  181.97   62.15   1 0.59805-0.83410-0.41626 0.51627 0.68487 0.19422
   1  -2  19  219.45  110.60   1 0.60526-0.36942-0.69171 0.79203 0.39394 0.48600
   1   2  19  418.15  154.02   1-0.08270-0.15420-0.83035 0.93225 0.55106 0.32730
  -1  -3  18   49.93   84.88   1 0.56225-0.20806-0.80584 0.73238 0.18568 0.64832
  -1   3  18  541.31  236.31   1 0.03498-0.39033-0.90092 0.82907 0.43256 0.40033
   1  -3 -18  336.10  124.12   1-0.55094 0.90550 0.47249-0.39892-0.68789-0.14465
  -1   3  17  210.41   76.53   1 0.59249-0.94666-0.38705 0.31211 0.70649 0.08007
  -1  -3  17  569.49  140.36   1 0.55232-0.19811-0.81976 0.74557 0.15138 0.63629
  -1   3  17  747.28  195.81   1 0.05042-0.40572-0.90805 0.83538 0.41580 0.37082
   1  -3 -17  209.93   98.91   1-0.55886 0.91339 0.46838-0.39409-0.68431-0.10199
   1   3 -17  431.36   88.97   1-0.99238 0.63722-0.11668 0.19068-0.03946-0.74671
  -1   3  16 2868.74  401.20   1 0.59355-0.94777-0.39234 0.31671 0.70267 0.03762
  -1  -3  16 4831.34  416.79   1 0.54204-0.18771-0.83239 0.75729 0.11536 0.62551
  -1   3  16 3926.10  395.06   1 0.06515-0.42041-0.91438 0.84089 0.39956 0.34079
   1  -3 -16 4362.71  539.92   1-0.56424 0.91874 0.46555-0.39054-0.68182-0.05822
   1   3 -16 3551.03  304.55   1-0.98893 0.63391-0.14836 0.22310 0.00058-0.74052
  -1   3  15  526.97  138.82   1 0.59389-0.94815-0.39404 0.31770 0.70144-0.00741
  -1  -3  15  684.42  135.73   1 0.53000-0.17568-0.84428 0.76845 0.07926 0.61531
  -1   3  15  945.95  177.63   1 0.07913-0.43435-0.91996 0.84565 0.38392 0.31016
  -1  -3  15  426.83  114.56   1 0.20184 0.15201-0.95028 0.87635 0.23710 0.45705
   1  -3 -15  588.06  147.50   1-0.56692 0.92139 0.46413-0.38840-0.68056-0.01322
   1   3 -15  498.28  131.20   1-0.98275 0.62788-0.18024 0.25572 0.04140-0.73509
  -1   3  14 1719.25  163.38   1 0.59336-0.94768-0.39136 0.31433 0.70338-0.05562
  -1  -3  14 1922.29  173.29   1 0.51676-0.16246-0.85509 0.77854 0.04207 0.60619
  -1   3  14 1651.97  208.97   1 0.09230-0.44748-0.92484 0.84970 0.36897 0.27883
  -1  -3  14 1973.11  135.73   1 0.24461 0.10926-0.95251 0.87772 0.18134 0.46653
   1  -3 -14 2443.83  330.53   1-0.56671 0.92114 0.46424-0.38779-0.68066 0.03312
   1   3 -14 1992.38  182.61   1-0.97365 0.61894-0.21234 0.28856 0.08306-0.73051
  -1   3  13 1170.21  164.25   1 0.59171-0.94608-0.38320 0.30547 0.70924-0.10775
  -1  -3  13 1232.63  183.12   1 0.50220-0.14790-0.86474 0.78747 0.00363 0.59833
  -1   3  13 1636.62  218.30   1 0.10460-0.45974-0.92905 0.85309 0.35484 0.24669
  -1  -3  13 1860.24  166.76   1 0.28961 0.06429-0.94960 0.87397 0.11989 0.48170
   1  -3 -13 1815.25  268.66   1-0.56331 0.91772 0.46604-0.38887-0.68225 0.08096
   1   3 -13 1080.07  136.50   1-0.96143 0.60686-0.24467 0.32163 0.12562-0.72681
  -1   3  12 8355.22  612.03   1 0.58848-0.94290-0.36790 0.28947 0.71995-0.16473
  -1  -3  1210153.23  671.37   1 0.48615-0.13186-0.87312 0.79513-0.03625 0.59191
  -1   3  12 9901.02  683.84   1 0.11593-0.47103-0.93264 0.85586 0.34167 0.21359
  -1  -3  12 9322.86  577.50   1 0.33733 0.01660-0.93998 0.86350 0.05125 0.50406
   1  -3 -12 9422.81  802.32   1-0.55638 0.91076 0.46968-0.39179-0.68544 0.13040
   1   3 -12 8904.96  576.46   1-0.94548 0.59074-0.27817 0.35597 0.16935-0.72408
  -1   3  11 1528.54  160.05   1 0.58283-0.93729-0.34296 0.26384 0.73667-0.22771
  -1  -3  11 1877.44  213.69   1 0.46840-0.11412-0.88008 0.80138-0.07780 0.58716
   1  -3 -11 1042.30   93.66   1 0.37973-0.02577-0.88869 0.96724-0.25695-0.25253
  -1  -3  11  755.18   90.50   1-0.59961 0.95412-0.00932-0.07024 0.80023-0.29105
  -1   3  11 1402.27  169.89   1 0.12618-0.48124-0.93564 0.85804 0.32962 0.17936
  -1  -3  11 1371.39  122.99   1 0.38826-0.03378-0.92113 0.84289-0.02742 0.53702
   1  -3 -11 1649.80  217.66   1-0.54547 0.89982 0.47529-0.39668-0.69032 0.18154
   1   3 -11 1012.46  123.88   1-0.92608 0.57151-0.31090 0.38944 0.21378-0.72228
  -1   3  10 3861.48  342.03   1 0.57391-0.92827-0.30352 0.22377 0.76058-0.29703
  -1  -3  10 4074.56  238.43   1 0.44899-0.09470-0.88528 0.80600-0.12110 0.58427
   1  -3 -10 3819.64  170.00   1 0.39938-0.04540-0.88981 0.96909-0.22071-0.24245
  -1  -3  10 3106.88  198.22   1-0.58354 0.93799-0.06725-0.01296 0.80929-0.34640
  -1   3  10 3635.58  242.75   1 0.13519-0.49021-0.93808 0.85966 0.31893 0.14378
  -1  -3  10 4283.28  215.14   1 0.44223-0.08776-0.88935 0.81034-0.11608 0.57934
   1  -3 -10 5074.74  633.62   1-0.53002 0.88434 0.48302-0.40369-0.69696 0.23443
   1   3 -10 3653.59  224.96   1-0.90256 0.54816-0.34379 0.42306 0.25920-0.72147
  -1   3   946018.45  890.63   1 0.55747-0.91184-0.24576 0.16531 0.79297-0.37578
  -1  -3   951991.46 1131.40   1 0.42700-0.07274-0.88872 0.80871-0.16683 0.58369
   1  -3  -945857.88  886.67   1 0.42036-0.06635-0.88929 0.96930-0.18013-0.23672
  -1  -3   944936.28  915.94   1-0.56030 0.91470-0.13963 0.05878 0.81643-0.39983
  -1   3   948654.15 1057.01   1 0.14276-0.49774-0.93999 0.86075 0.30987 0.10657
  -1  -3   954384.90 1062.37   1 0.49844-0.14386-0.83905 0.75892-0.21805 0.63509
   1  -3  -952626.16 1134.01   1-0.50992 0.86390 0.49254-0.41261-0.70524 0.28880
   1   3  -948536.04 1033.98   1-0.87446 0.52024-0.37674 0.45674 0.30557-0.72161
   1  -3  -816022.87  460.16   1 0.44366-0.08963-0.88635 0.96709-0.13244-0.23809
  -1  -3   817553.45  591.38   1 0.40232-0.04808-0.88985 0.80911-0.21514 0.58568
  -1  -3   815815.62  453.82   1-0.52733 0.88162-0.22417 0.14280 0.81955-0.44983
  -1   3   816068.24  548.55   1 0.14863-0.50356-0.94139 0.86132 0.30280 0.06737
  -1  -3   817445.99  524.02   1 0.55440-0.19983-0.76275 0.68189-0.33292 0.70362
   1  -3  -817356.04  564.13   1-0.48324 0.83725 0.50478-0.42412-0.71530 0.34513
   1   3  -816573.29  553.93   1-0.84068 0.48662-0.41273 0.49366 0.35056-0.72075
   1  -3  -7 8758.19  261.00   1 0.47046-0.11629-0.87938 0.96096-0.07310-0.25102
  -1  -3   7 8802.81  359.44   1 0.37444-0.02022-0.88814 0.80666-0.26643 0.59065
   1  -3  -7 9103.12  281.01   1-0.47542 0.82976 0.02692 0.05460-0.87934 0.55542
  -1  -3   7 8992.36  271.84   1-0.48342 0.83765-0.32347 0.24146 0.81342-0.48992
  -1   3   7 8128.74  319.06   1 0.15244-0.50733-0.94225 0.86136 0.29819 0.02571
  -1  -3   7 9186.32  307.46   1 0.60482-0.24990-0.65112 0.56954-0.45849 0.78304
   1  -3  -7 9655.06  351.06   1-0.44971 0.80375 0.51920-0.43781-0.72675 0.40285
   1   3  -7 9198.21  374.43   1-0.80188 0.44787-0.44522 0.52687 0.39845-0.72236
   1  -3  -6 1672.69   60.33   1 0.50537-0.15119-0.86282 0.94512 0.01179-0.28962
  -1  -3   6 1378.70  128.12   1 0.34270 0.01148-0.88285 0.80064-0.32112 0.59902
   1  -3  -6 1515.60   70.90   1-0.37874 0.73309-0.16706 0.24951-0.91029 0.63270
  -1  -3   6 1425.63   63.53   1-0.42701 0.78139-0.42986 0.34750 0.79553-0.51833
  -1   3   6 1230.45  170.52   1 0.15369-0.50855-0.94253 0.86081 0.29666-0.01902
   1  -3  -6 1455.31  122.06   1-0.40840 0.76247 0.53559-0.45346-0.73914 0.46151
   1   3  -6 1403.80  138.98   1-0.75687 0.40292-0.47704 0.55941 0.44672-0.72436
   1  -3  -543358.80  485.20   1 0.55300-0.19881-0.81945 0.90248 0.15057-0.38210
  -1  -3   541650.02  609.67   1 0.30692 0.04771-0.87169 0.78832-0.38202 0.61340
   1  -3  -541817.57  477.57   1-0.21072 0.56507-0.42754 0.51057-0.87909 0.64807
   1   3  -540486.12  500.43   1-0.64751 0.29356 0.30470-0.22151 0.69848-0.92991
  -1  -3   545173.72  535.68   1-0.36109 0.71541-0.53542 0.45236 0.76350-0.53249
  -1   3   543908.96  644.51   1 0.15171-0.50653-0.94209 0.85955 0.29906-0.06770
   1  -3  -545644.91  632.31   1-0.35839 0.71249 0.55352-0.47066-0.75177 0.52041
   1   3  -543933.26  633.06   1-0.70512 0.35122-0.50775 0.59084 0.49495-0.72632
   1  -3  -4 1230.96   38.31   1 0.60558-0.25109-0.69045 0.77421 0.39565-0.58098
  -1  -3   4  791.64  102.69   1 0.26484 0.08970-0.85569 0.77165-0.44458 0.62968
   1  -3  -4  994.04   48.45   1 0.01643 0.33775-0.68427 0.76814-0.72904 0.54393
   1   3  -4 1073.37  110.94   1-0.62158 0.26746 0.08785-0.00382 0.77840-0.96356
  -1  -3   4  867.98   65.64   1-0.28935 0.64364-0.63132 0.54758 0.71951-0.53466
  -1   3   4  724.44   95.81   1 0.14550-0.50027-0.94065 0.85730 0.30657-0.12148
   1   3  -4  593.98   91.01   1-0.64606 0.29198-0.53686 0.62080 0.54256-0.72756
   1  -3  -3 1531.35  101.01   1 0.58454-0.22967-0.35030 0.43499 0.73184-0.87064
  -1  -3   3 1283.52  135.53   1 0.21600 0.13844-0.83182 0.74711-0.51128 0.65011
   1  -3  -3 1220.79   49.12   1 0.20781 0.14649-0.82739 0.91208-0.52176 0.38292
   1   3  -3 1912.54  158.03   1-0.05342-0.30097-0.61564 0.70021-0.78621 0.64738
   1   3  -3 1480.10  138.33   1-0.56461 0.21054-0.12700 0.21168 0.81552-0.95439
  -1  -3   3 1576.64   73.49   1-0.21654 0.57079-0.71371 0.62924 0.66612-0.52748
  -1   3   3 1509.20  125.49   1 0.13356-0.48829-0.93765 0.85347 0.32087-0.18205
   1  -3  -3 1322.81  113.36   1 0.40816-0.05372-0.91098 0.99537-0.05928-0.07969
   1   3  -3 1799.37  153.36   1-0.57973 0.22577-0.56347 0.64812 0.58855-0.72729
  -1   3   3 1401.40  160.81   1 0.22974-0.58418-0.58919 0.50450 0.77463-0.63576
   1  -3  -2 8705.33  139.51   1 0.31238 0.04166-0.87343 0.95880-0.37354 0.28098
  -1  -3   2 9243.52  252.68   1 0.15931 0.19512-0.79778 0.71243-0.58151 0.67406
   1   3  -2 7424.54  206.71   1-0.11499-0.23939-0.54794 0.63321-0.82857 0.73602
  -1   3   2 8419.94  198.23   1-0.40963 0.05526-0.10976 0.02458-0.90562 0.99816
   1   3  -2 8350.85  172.30   1-0.48774 0.13376-0.31441 0.39970 0.81440-0.90683
  -1  -3   2 8614.88  158.32   1-0.14678 0.50100-0.77927 0.69420 0.60924-0.51678
  -1   3   2 8657.20  258.74   1 0.11359-0.46828-0.93192 0.84692 0.34440-0.25186
   1  -3  -2 8675.04  206.48   1 0.40479-0.05034-0.91281 0.99797-0.05383-0.03881
   1   3  -2 9317.55  250.58   1-0.50607 0.15222-0.58688 0.67223 0.63202-0.72451
  -1   3   2 9831.37  324.98   1 0.15042-0.50489-0.60666 0.52126 0.78059-0.68801
   1  -3  -165998.89 1314.16   1 0.36978-0.01559-0.88758 0.97344-0.27469 0.22837
  -1  -3   173201.15 1507.27   1 0.09389 0.26050-0.75060 0.66459-0.65404 0.70032
  -1   3   161501.54 1235.27   1-0.19576-0.15838-0.44743 0.36148-0.87262 0.91882
   1   3  -165852.99 1359.15   1-0.18815-0.16601-0.45738 0.54334-0.86913 0.82293
   1   3  -169327.77 1402.43   1-0.40599 0.05190-0.46556 0.55144 0.78639-0.83259
  -1  -3   169718.35 1402.15   1-0.08263 0.43689-0.83040 0.74453 0.55100-0.50477
  -1   3   168030.10 1379.25   1 0.08184-0.43649-0.92100 0.83517 0.38086-0.33458
   1  -3  -167741.63 1371.68   1 0.40488-0.05041-0.91277 0.99869-0.05397 0.00764
   1   3  -176722.51 1585.77   1-0.42565 0.07170-0.60746 0.69345 0.67067-0.71692
  -1   3   174362.10 1540.89   1 0.06216-0.41667-0.62119 0.53507 0.78118-0.73489
   1  -3   0  301.97   70.79   1 0.40524-0.05102-0.88985 0.97645-0.20958 0.20958
  -1  -3   0  460.14  130.85   1 0.01969 0.33467-0.68726 0.60060-0.72613 0.72613
  -1   3   0  295.82   80.04   1-0.03164-0.32260-0.63797 0.55130-0.76940 0.76940
   1   3   0  230.73  123.12   1-0.27137-0.08284-0.34183 0.42852-0.89972 0.89972
   1   3   0  389.01   83.13   1-0.32946-0.02456-0.58006 0.66664 0.74496-0.74496
  -1   3   0  268.41   76.13   1 0.03188-0.38648-0.89942 0.81278 0.43590-0.43590
  -1  -3   0  148.75   79.00   1-0.02479 0.37909-0.86885 0.78218 0.49443-0.49443
   1  -3   0  163.18   81.65   1 0.41033-0.05586-0.90976 0.99646-0.06282 0.06282
  -1   3   0  262.83   74.42   1-0.32551-0.02872 0.56423-0.65076-0.75873 0.75873
   1   3   0  626.87  167.79   1-0.33994-0.01389-0.62198 0.70867 0.70539-0.70539
  -1   3   0  582.34  165.73   1-0.03309-0.32120-0.63084 0.54395 0.77520-0.77520
  -1  -3   0  376.51   78.06   1 0.03500 0.31963-0.62465 0.53782 0.78011-0.78011
   1  -3   1 6349.97  180.09   1 0.43073-0.07649-0.88831 0.97564-0.15927 0.20559
  -1   3  -1 6966.07  207.95   1 0.07832-0.43278-0.73820 0.65088-0.67001 0.62373
  -1  -3  -1 6918.23  225.29   1-0.06208 0.41643-0.60653 0.51917-0.79262 0.74635
   1   3   1 7213.31  232.57   1-0.35949 0.00504-0.20100 0.28837-0.91123 0.95750
   1   3   1 6479.93  195.98   1-0.26291-0.09115-0.66292 0.75028 0.70100-0.65479
  -1   3  -1 6818.39  178.14   1-0.04772-0.30683-0.85446 0.76698 0.51731-0.56354
  -1  -3  -1 6211.29  181.76   1 0.02692 0.32714-0.89700 0.80953 0.44120-0.48748
   1  -3   1 6690.20  182.37   1 0.42470-0.07022-0.90118 0.98864-0.08649 0.13281
   1   3   1 6856.46  236.94   1-0.25064-0.10308-0.63106 0.71847 0.73412-0.68787
  -1   3  -1 6155.61  242.76   1-0.13348-0.22094-0.63513 0.54757 0.76078-0.80705
  -1  -3  -1 7434.54  233.86   1 0.14293 0.21167-0.60810 0.52055 0.78088-0.82717
   1  -3   219598.40  303.90   1 0.45080-0.09654-0.88489 0.97295-0.11721 0.20985
  -1   3  -217986.80  298.05   1 0.15075-0.50526-0.79207 0.70409-0.59151 0.49895
  -1  -3  -219822.23  327.51   1-0.14756 0.50188-0.50846 0.42031-0.84834 0.75593
   1   3   219421.58  324.21   1-0.44413 0.08973-0.04094 0.12905-0.89502 0.98756
   1   3   219382.09  321.93   1-0.20777-0.14624-0.72269 0.81079 0.65919-0.56676
  -1   3  -218106.08  237.24   1-0.17959-0.17472-0.75027 0.66218 0.63626-0.72868
  -1  -3  -218788.81  303.28   1 0.07336 0.28074-0.91771 0.82942 0.39040-0.48294
   1  -3   218110.28  242.52   1 0.45553-0.10103-0.87927 0.96750-0.13912 0.23177
  -1   3  -219239.11  365.94   1-0.23548-0.11907-0.63267 0.54445 0.73774-0.83029
   1   3   220813.48  362.99   1-0.16099-0.19321-0.63515 0.72337 0.75541-0.66286
  -1  -3  -220074.02  334.27   1 0.25682 0.09774-0.58224 0.49398 0.77138-0.86396
   1  -3   336616.79  489.56   1 0.46746-0.11319-0.88039 0.96917-0.07993 0.21885
  -1   3  -335035.49  492.70   1 0.19899-0.55352-0.82227 0.73355-0.53316 0.39433
  -1  -3  -337309.28  508.46   1-0.23164 0.58602-0.39891 0.31003-0.88724 0.74863
  -1   3  -334244.44  387.61   1-0.40709 0.05279-0.46374 0.37504 0.78690-0.92550
   1   3   336390.30  513.81   1-0.16342-0.19054-0.76524 0.85406 0.62264-0.48400
   1  -3   336217.63  410.15   1 0.52300-0.16840-0.80965 0.89852-0.26631 0.40532
  -1   3  -335565.53  536.24   1-0.33614-0.01781-0.62248 0.53365 0.70676-0.84551
   1   3   338717.48  545.37   1-0.07228-0.28179-0.63329 0.72217 0.77052-0.63170
  -1  -3  -4  489.79   55.35   1 0.56868-0.21387-0.28425 0.19452 0.77187-0.95729
   1  -3   4  502.33   74.24   1 0.48202-0.12774-0.87494 0.96444-0.04614 0.23136
  -1   3  -4  475.59   70.49   1 0.23117-0.58580-0.83980 0.75042-0.49120 0.30609
  -1  -3  -4  508.24  118.23   1-0.30887 0.66331-0.28465 0.19517-0.90750 0.72244
   1   3   4  620.09  134.54   1-0.12876-0.22569-0.79455 0.88443 0.59337-0.40845
   1   3   4  457.83   60.20   1-0.48311 0.12908 0.50484-0.41537-0.71535 0.90044
  -1   3  -4  556.95  153.54   1-0.43226 0.07819-0.60609 0.51654 0.66768-0.85268
   1   3   4  407.56  146.62   1 0.01214-0.36610-0.62679 0.71634 0.77908-0.59398
  -1  -3  -5 4316.75  198.81   1 0.59930-0.24413-0.42341 0.33315 0.67937-0.91071
   1  -3   5 3596.56  149.85   1 0.49501-0.14072-0.86876 0.95898-0.01453 0.24606
  -1  -3  -5 3755.46  154.49   1-0.37457 0.72900-0.17453 0.08435-0.91062 0.67929
   1   3   5 4500.86  195.83   1-0.10191-0.25258-0.81598 0.90666 0.56901-0.33786
   1   3   5 3329.29  293.71   1-0.58683 0.23270 0.45330-0.36318-0.67092 0.90219
  -1   3  -5 4192.78  235.32   1-0.52242 0.16825-0.58219 0.49190 0.62299-0.85423
   1   3   5 4378.31  203.55   1 0.08860-0.44305-0.61737 0.70778 0.78166-0.55021
  -1  -3  -650371.01  532.65   1 0.61280-0.25768-0.53758 0.44662 0.57919-0.85680
  -1  -3  -650679.89  560.57   1-0.42743 0.78182-0.07495-0.01607-0.90093 0.62329
   1   3   648740.60  591.32   1-0.08166-0.27287-0.83110 0.92258 0.55008-0.27270
  -1   3  -650501.69  636.10   1-0.60369 0.24940-0.55452 0.46353 0.57276-0.85025
   1   3   652637.83  610.13   1 0.15809-0.51250-0.60516 0.69628 0.78024-0.50251
  -1  -3  -7 6891.54  333.16   1 0.61315-0.25847-0.62783 0.53607 0.47943-0.80362
   1  -3   7 6363.66  258.02   1 0.51764-0.16333-0.85444 0.94609 0.04446 0.27967
  -1  -3  -7 7670.42  290.10   1-0.46796 0.82234 0.01019-0.10195-0.88368 0.55977
   1   3   7 6932.82  311.98   1-0.06686-0.28771-0.84159 0.93387 0.53595-0.21234
  -1   3  -7 7874.02  324.17   1-0.67601 0.32162-0.52281 0.43112 0.51928-0.84302
   1   3   7 7702.40  308.23   1 0.21872-0.57309-0.59188 0.68372 0.77577-0.45175
  -1  -3  -8 2018.81  169.48   1 0.60418-0.24948-0.69718 0.60471 0.38585-0.75636
   1  -3   8 2434.74  167.83   1 0.52767-0.17335-0.84634 0.93872 0.07254 0.29790
  -1  -3  -8 2259.13  156.44   1-0.49821 0.85258 0.08048-0.17297-0.86331 0.49312
   1   3   8 2744.41  184.22   1-0.05657-0.29804-0.84861 0.94169 0.52598-0.15614
  -1   3  -8 2628.57  198.80   1-0.73973 0.38554-0.48784 0.39543 0.46347-0.83366
   1   3   8 2858.50  183.86   1 0.27033-0.62466-0.57858 0.67113 0.76952-0.39921
   1  -3   9  586.35  138.93   1 0.53700-0.18267-0.83763 0.93073 0.09995 0.31679
   1   3   9  859.03  167.60   1-0.05004-0.30461-0.85294 0.94683 0.51959-0.10352
  -1   3  -9  853.65  146.46   1-0.79424 0.44000-0.45102 0.35789 0.40713-0.82359
   1   3  1085515.18 2690.52   1 0.53643-0.89118-0.18103 0.27504 0.82429-0.36074
   1  -3  1078139.96 2486.80   1 0.54570-0.19136-0.82832 0.92214 0.12684 0.33620
   1   3  1090266.86 2860.44   1-0.04666-0.30803-0.85515 0.94984 0.51626-0.05396
  -1  -3 -1087252.85 2741.79   1-0.34666 0.70051 0.55744-0.65131-0.75437 0.29165
  -1   3 -1076254.87 2414.67   1-0.84053 0.48624-0.41287 0.31902 0.35077-0.81350
   1   3  11 2801.94  174.48   1 0.54792-0.90266-0.21533 0.31005 0.80834-0.29843
   1  -3  11 2788.73  199.51   1 0.55324-0.19901-0.81856 0.91335 0.15446 0.35520
   1  -3  11 1949.23  140.94   1-0.59059 0.94519-0.04281 0.13640 0.80583-0.29665
   1  -3  11 2551.17   87.64   1-0.23338 0.58811-0.69591 0.79053 0.67914-0.17080
   1   3  11 3047.52  228.85   1-0.04595-0.30878-0.85561 0.95110 0.51556-0.00703
  -1  -3 -11 2859.37  158.31   1-0.37395 0.72778 0.54816-0.64276-0.74811 0.23912
  -1   3 -11 3125.93  195.78   1-0.88028 0.52527-0.37037 0.27570 0.29653-0.80502
   1   3  12  572.07  113.54   1 0.55605-0.91079-0.24112 0.33655 0.79539-0.23913
   1  -3  12  651.98  156.26   1 0.56082-0.20660-0.80800 0.90352 0.18057 0.37543
   1  -3  12  206.59   27.55   1-0.19860 0.55338-0.73188 0.82722 0.65184-0.09730
   1   3  12  658.64  150.39   1-0.04752-0.30725-0.85459 0.95088 0.51711 0.03764
  -1  -3 -12  385.86   74.76   1-0.39469 0.74849 0.54071-0.63605-0.74286 0.18759
  -1   3 -12  300.82  102.55   1-0.91209 0.55692-0.33117 0.23577 0.24167-0.79639
   1   3  13 1101.63  135.20   1 0.56169-0.91642-0.25985 0.35599 0.78547-0.18286
   1  -3  13  962.22  158.40   1 0.56788-0.21368-0.79680 0.89306 0.20640 0.39594
   1  -3  13  654.96  131.18   1-0.18635 0.54117-0.74383 0.83990 0.64185-0.04109
   1   3  13 1117.49  191.03   1-0.05107-0.30374-0.85226 0.94935 0.52060 0.08038
  -1  -3 -13 1293.60  129.96   1-0.40958 0.76335 0.53515-0.63122-0.73881 0.13728
  -1   3 -13  673.50  154.02   1-0.93777 0.58242-0.29196 0.19583 0.18799-0.78894
   1   3  1434653.91 1475.33   1 0.56543-0.92014-0.27270 0.36956 0.77840-0.12943
   1  -3  1429597.99 1289.54   1 0.57445-0.22027-0.78496 0.88196 0.23199 0.41667
   1   3  1433534.96 1475.29   1-0.05635-0.29850-0.84875 0.94664 0.52576 0.12145
  -1  -3 -1433008.17 1403.92   1-0.41925 0.77299 0.53143-0.62824-0.73607 0.08826
  -1   3 -1431671.11 1356.34   1-0.95835 0.60327-0.25168 0.15476 0.13492-0.78237
   1   3  15 3519.06  234.90   1 0.56767-0.92237-0.28062 0.37819 0.77394-0.07862
   1  -3  15 3180.88  241.90   1 0.58054-0.22637-0.77247 0.87020 0.25739 0.43761
   1   3  15 4193.13  299.13   1-0.06315-0.29173-0.84414 0.94283 0.53237 0.16107
  -1  -3 -15 3372.29  204.75   1-0.42421 0.77793 0.52949-0.62704-0.73462 0.04054
  -1   3 -15 2780.75  189.86   1-0.97347 0.61824-0.21290 0.11523 0.08380-0.77749
   1   3  16   64.39   46.69   1 0.56871-0.92340-0.28434 0.38263 0.77182-0.03014
   1  -3  16  300.82  128.16   1 0.58615-0.23200-0.75929 0.85776 0.28263 0.45870
   1   3  16  195.63  123.04   1-0.07133-0.28360-0.83847 0.93797 0.54024 0.19943
  -1  -3 -16  275.90   90.61   1-0.42490 0.77859 0.52922-0.62750-0.73441-0.00593
  -1   3 -16  108.71   68.26   1-0.98407 0.62870-0.17447 0.07606 0.03398-0.77391
   1   3  17  173.17   95.25   1 0.56873-0.92342-0.28443 0.38343 0.77177 0.01626
   1  -3  17  537.64  159.16   1 0.59129-0.23716-0.74543 0.84463 0.30773 0.47994
  -1  -3 -17  547.36   93.35   1-0.42163 0.77529 0.53050-0.62951-0.73537-0.05124
  -1   3 -17  337.76  110.22   1-0.99054 0.63502-0.13640 0.03726-0.01458-0.77159
   1   3  18 3080.95  477.81   1 0.56787-0.92254-0.28134 0.38105 0.77354 0.06084
   1  -3  18 2927.99  469.17   1 0.59595-0.24183-0.73085 0.83078 0.33270 0.50130
   1   3  18 3264.76  533.14   1-0.09126-0.26374-0.82404 0.92514 0.55911 0.27302
  -1   3 -18 2520.95  385.90   1-0.99306 0.63888-0.09878-0.00076-0.06375-0.76930
  -1  -4  17  235.48  125.09   1 0.54676-0.07440-0.82662 0.75242 0.13321 0.65446
  -1   4  17  493.77  223.18   1 0.00764-0.48106-0.88733 0.81428 0.46106 0.32484
   1  -4 -17  160.94   53.80   1-0.41528 0.88710 0.53296-0.45891-0.73721-0.04941
   1   4 -17  252.28   78.86   1-0.98368 0.51091-0.17621 0.25022 0.03622-0.82240
  -1  -4  16 6104.01  790.23   1 0.53631-0.06392-0.83831 0.76321 0.09790 0.64297
  -1   4  16 7255.73  930.28   1 0.01968-0.49306-0.89362 0.81977 0.44837 0.29130
   1  -4 -16 5350.30  666.87   1-0.41742 0.88927 0.53214-0.45735-0.73659-0.00375
   1   4 -16 4736.93  597.50   1-0.97511 0.50249-0.20782 0.28256 0.07716-0.81710
  -1  -4  15  586.65  167.82   1 0.52425-0.05186-0.84924 0.77342 0.06281 0.63176
  -1   4  15 1172.64  224.26   1 0.03073-0.50406-0.89887 0.82455 0.43713 0.25695
   1  -4 -15   56.85   44.01   1-0.41659 0.88846 0.53246-0.45694-0.73683 0.04275
   1   4 -15  147.70   58.00   1-0.96369 0.49122-0.23928 0.31476 0.11848-0.81217
  -1  -4  14  344.92  143.40   1 0.51112-0.03874-0.85908 0.78254 0.02688 0.62138
  -1   4  14  -27.01  103.79   1 0.04087-0.51416-0.90370 0.82856 0.42620 0.22160
   1  -4 -14  360.76  106.69   1-0.41259 0.88449 0.53400-0.45774-0.73797 0.09016
   1   4 -14  293.62   95.69   1-0.94897 0.47626-0.27150 0.34784 0.16039-0.80757
  -1  -4  13  559.54  206.98   1 0.49683-0.02447-0.86778 0.79052-0.00997 0.61194
   1  -4 -13  197.87   63.56   1-0.49108 0.96352 0.06329 0.01385-0.86881 0.26725
  -1   4  13  144.57   89.84   1 0.04991-0.52316-0.90782 0.83187 0.41636 0.18517
   1  -4 -13  221.11   70.40   1-0.40521 0.87715 0.53680-0.45981-0.74002 0.13849
   1   4 -13  248.19   95.61   1-0.93140 0.45885-0.30255 0.37962 0.20237-0.80332
  -1  -4  12  710.54  189.40   1 0.48128-0.00893-0.87525 0.79727-0.04789 0.60355
   1  -4 -12  660.01   95.41   1-0.47056 0.94301 0.01598 0.06189-0.88221 0.32693
  -1   4  12  483.48  131.24   1 0.05773-0.53093-0.91125 0.83447 0.40777 0.14749
   1  -4 -12  687.42   96.74   1-0.39419 0.86615 0.54089-0.46317-0.74299 0.18772
   1   4 -12  355.05  113.76   1-0.91051 0.43814-0.33332 0.41112 0.24465-0.79937
  -1  -4  11  546.92  193.95   1 0.46433 0.00801-0.88137 0.80267-0.08700 0.59636
   1  -4 -11  941.94  110.33   1-0.44075 0.91321-0.04793 0.12654-0.89634 0.38733
  -1   4  11  839.36  167.62   1 0.06417-0.53733-0.91397 0.83637 0.40065 0.10834
  -1  -4  11  822.15   94.30   1 0.38003 0.09258-0.92485 0.84661-0.01450 0.52409
   1  -4 -11  349.48  104.26   1-0.37921 0.85120 0.54630-0.46784-0.74682 0.23783
   1   4 -11  792.75  141.10   1-0.88614 0.41393-0.36373 0.44227 0.28714-0.79564
  -1  -4  10  369.76  101.25   1 0.44607 0.02625-0.88588 0.80660-0.12733 0.59050
   1  -4 -10 1081.96  105.33   1-0.39721 0.86968-0.13325 0.21289-0.90799 0.44534
  -1   4  10  776.46  165.58   1 0.06903-0.54216-0.91598 0.83755 0.39523 0.06748
  -1  -4  10  278.78   52.58   1 0.45102 0.02158-0.88280 0.80379-0.13124 0.59451
   1  -4 -10  932.08  129.02   1-0.35994 0.83195 0.55300-0.47380-0.75141 0.28869
   1   4 -10  309.90  105.28   1-0.85807 0.38604-0.39365 0.47292 0.32975-0.79202
   1  -4  -929404.25 1361.64   1 0.42282 0.04922-0.88910 0.96912-0.17523-0.24162
  -1  -4   935915.55 1717.76   1 0.42576 0.04654-0.88884 0.80883-0.16933 0.58619
   1  -4  -936199.96 1677.90   1-0.33446 0.80693-0.24332 0.32365-0.91045 0.49406
  -1  -4   933307.20 1541.11   1-0.32725 0.79982-0.58306 0.50282 0.74359-0.32779
  -1   4   934107.67 1642.46   1 0.07208-0.54517-0.91720 0.83796 0.39183 0.02462
  -1  -4   940165.67 1863.24   1 0.52122-0.04846-0.81198 0.73185-0.26270 0.67973
   1  -4  -937227.08 1771.42   1-0.33599 0.80804 0.56091-0.48098-0.75662 0.34017
   1   4  -935815.42 1714.58   1-0.82550 0.35349-0.42609 0.50631 0.37010-0.78656
   1  -4  -815561.08  463.69   1 0.45547 0.01660-0.88378 0.96452-0.10708-0.26345
  -1  -4   818128.81  649.20   1 0.40342 0.06885-0.88986 0.80911-0.21306 0.58360
   1  -4  -816732.38  505.06   1-0.24468 0.71724-0.38058 0.46142-0.89178 0.52216
  -1  -4   816783.57  505.39   1-0.28009 0.75262-0.64262 0.56178 0.71315-0.34345
  -1   4   817211.66  601.71   1 0.07299-0.54604-0.91757 0.83750 0.39081-0.02063
  -1  -4   818303.21  566.29   1 0.58425-0.11107-0.70455 0.62371-0.40281 0.77372
   1   4  -816991.87  599.97   1-0.78951 0.31755-0.45452 0.53545 0.41240-0.78258
   1  -4  -7  788.87   49.15   1 0.49581-0.02357-0.86833 0.94992-0.01253-0.31160
  -1  -4   7 1094.18  129.69   1 0.37875 0.09350-0.88860 0.80712-0.25871 0.58293
   1  -4  -7  670.06   58.88   1-0.12573 0.59824-0.53461 0.61618-0.83569 0.51226
  -1  -4   7  830.29   60.44   1-0.22991 0.70240-0.69964 0.61807 0.67648-0.35300
  -1   4   7  767.89  134.94   1 0.07136-0.54436-0.91691 0.83602 0.39264-0.06873
  -1  -4   7  841.44   76.23   1 0.62948-0.15632-0.55812 0.47655-0.54058 0.86513
   1   4  -7  670.62  173.52   1-0.74932 0.27741-0.48188 0.56353 0.45420-0.77811
  -1   4   7 1043.63  183.97   1 0.27310-0.74557-0.57781 0.49598 0.76911-0.44509
   1  -4  -6 1447.90   56.44   1 0.54820-0.07595-0.82540 0.90770 0.13484-0.41267
  -1  -4   6 1268.44  132.36   1 0.35140 0.12083-0.88463 0.80242-0.30648 0.58439
   1  -4  -6 1406.53   70.23   1 0.01456 0.45769-0.68255 0.76503-0.73068 0.45303
   1   4  -6 1253.86   70.62   1-0.64761 0.17537 0.37700-0.29444 0.66216-0.93943
  -1  -4   6 1365.47   69.34   1-0.17923 0.65167-0.75062 0.66832 0.63595-0.35868
  -1   4   6 1260.83  134.65   1 0.06663-0.53959-0.91499 0.83328 0.39791-0.12027
   1   4  -6 1996.68  206.97   1-0.70484 0.23298-0.50791 0.59028 0.49520-0.77284
  -1   4   6 1462.12  164.50   1 0.23282-0.70533-0.58843 0.50589 0.77429-0.49656
   1  -4  -5 2289.05   66.60   1 0.59923-0.12657-0.71901 0.80203 0.35203-0.58370
  -1  -4   5 2363.17  181.38   1 0.32156 0.15115-0.87617 0.79280-0.35905 0.59043
   1  -4  -5 2126.54   76.64   1 0.14924 0.32312-0.79104 0.87443-0.59326 0.36188
   1   4  -5 2156.12  137.34   1-0.63658 0.16472 0.17831-0.09512 0.75031-0.98174
  -1  -4   5 2086.26   89.19   1-0.12992 0.60217-0.79359 0.71093 0.59440-0.36325
  -1   4   5 2402.31  206.90   1 0.05810-0.53102-0.91141 0.82887 0.40737-0.17600
   1   4  -5 2256.59  228.85   1-0.65597 0.18391-0.53236 0.61560 0.53505-0.76629
  -1   4   5 2276.45  205.58   1 0.18659-0.65914-0.59923 0.51597 0.77852-0.54708
   1  -4  -4  166.30   34.61   1 0.60969-0.13646-0.49890 0.58289 0.61593-0.80100
  -1  -4   4  303.45  123.64   1 0.28745 0.18516-0.86484 0.78081-0.41159 0.59669
   1  -4  -4  179.28   45.47   1 0.24556 0.22634-0.84691 0.93095-0.47162 0.28652
   1   4  -4  359.04   51.73   1-0.59742 0.12532-0.01772 0.10175 0.80172-0.98688
  -1  -4   4  297.66   46.51   1-0.08281 0.55510-0.83027 0.74680 0.55116-0.36624
  -1   4   4  334.76  131.26   1 0.04477-0.51765-0.90550 0.82214 0.42196-0.23687
   1   4  -4  239.97  117.21   1-0.60304 0.13109-0.55477 0.63871 0.57320-0.75819
  -1   4   4  351.55  158.39   1 0.13435-0.60695-0.60969 0.52571 0.78116-0.59601
   1  -4  -3 7839.19  231.43   1 0.53982-0.06718-0.19093 0.27567 0.81983-0.95890
   1  -4  -3 6884.66  213.63   1 0.30932 0.16268-0.87246 0.95717-0.37830 0.23947
  -1  -4   3 6936.88  294.79   1 0.24920 0.22331-0.84863 0.76393-0.46659 0.60542
   1   4  -3 8021.11  268.44   1-0.53938 0.06738-0.19361 0.27824 0.81949-0.95814
  -1  -4   3 6995.78  225.27   1-0.03870 0.51104-0.86025 0.77598 0.50838-0.36969
  -1   4   3 7292.75  294.08   1 0.02530-0.49813-0.89619 0.81201 0.44294-0.30412
   1   4  -3 8664.17  378.10   1-0.54619 0.07435-0.57487 0.65951 0.60925-0.74800
  -1   4   3 7385.08  334.30   1 0.07626-0.54890-0.61921 0.53452 0.78150-0.64264
   1  -4  -2 1874.60   95.23   1 0.35271 0.11950-0.88488 0.97001-0.30426 0.21163
  -1  -4   2 1466.21  140.56   1 0.20627 0.26614-0.82643 0.74106-0.52388 0.61643
  -1   4   2 1605.01   95.75   1-0.41099-0.06150-0.10715 0.02197-0.90531 0.99786
   1   4  -2 1538.83   93.38   1-0.47363 0.00168-0.34352 0.42880 0.81096-0.90339
  -1  -4   2 1634.15   97.42   1 0.00227 0.47010-0.88442 0.79935 0.46667-0.37421
  -1   4   2 2173.17  160.29   1-0.00225-0.47057-0.88193 0.79686 0.47137-0.37891
   1   4  -2 2407.32  219.66   1-0.48584 0.01412-0.59232 0.67767 0.64272-0.73522
  -1   4   2 1703.60  195.02   1 0.01336-0.48554-0.62666 0.54110 0.77917-0.68662
   1  -4  -115687.42  213.72   1 0.38326 0.08896-0.88900 0.97487-0.25055 0.20423
  -1  -4   114162.25  290.21   1 0.15832 0.31420-0.79713 0.71112-0.58267 0.62895
  -1   4   114773.58  228.63   1-0.27255-0.19996-0.34029 0.25433-0.89995 0.94621
   1   4  -114208.21  230.57   1-0.40741-0.06470-0.46322 0.54910 0.78704-0.83324
  -1   4   114548.14  257.18   1-0.04052-0.43226-0.85910 0.77323 0.51019-0.46396
   1  -4  -115144.20  266.47   1 0.40660 0.06599-0.91184 0.99776-0.05675 0.01043
   1   4  -117122.33  386.60   1-0.42270-0.04915-0.60806 0.69405 0.67199-0.71824
  -1   4   114706.81  330.09   1-0.05514-0.41716-0.63234 0.54611 0.77272-0.72644
   1  -4   0  304.27   81.66   1 0.40724 0.06502-0.88984 0.97643-0.20576 0.20576
  -1  -4   0  169.28   84.00   1 0.10494 0.36754-0.75913 0.67246-0.64241 0.64241
  -1   4   0  290.72   81.19   1-0.15157-0.32057-0.50355 0.41687-0.85055 0.85055
   1   4   0  136.27   73.57   1-0.29921-0.17337-0.29978 0.38644-0.90586 0.90586
   1   4   0   65.32   39.75   1-0.34613-0.12592-0.55698 0.64356 0.75496-0.75496
  -1   4   0  201.44   72.59   1-0.09355-0.37919-0.82233 0.73566 0.56125-0.56125
  -1  -4   0  216.89   44.05   1 0.07544 0.39668-0.91853 0.83188 0.38807-0.38807
   1  -4   0  190.68   69.47   1 0.41106 0.06155-0.90935 0.99604-0.06400 0.06400
   1   4   0  -11.76   94.44   1-0.35768-0.11406-0.61946 0.70616 0.69880-0.69880
  -1   4   0   42.26   99.24   1-0.12740-0.34502-0.63505 0.54816 0.76188-0.76188
   1  -4   1  154.07   62.19   1 0.42715 0.04513-0.88870 0.97603-0.16654 0.21285
  -1  -4  -1  264.75  110.80   1 0.04638 0.42606-0.71140 0.62408-0.70124 0.65497
  -1   4  -1  208.07   79.58   1-0.05593-0.41642-0.61301 0.52565-0.78808 0.74181
   1   4   1  -18.46   62.84   1-0.36968-0.10290-0.18321 0.27057-0.91091 0.95718
   1   4   1    1.73   47.22   1-0.29202-0.18010-0.62802 0.71539 0.72131-0.67510
  -1   4  -1  134.04   51.54   1-0.16670-0.30563-0.76226 0.67489 0.62542-0.67164
   1  -4   1  199.02   71.55   1 0.42178 0.05084-0.90301 0.99047-0.08163 0.12795
   1   4   1  174.96   95.40   1-0.29172-0.17991-0.62761 0.71502 0.72180-0.67555
  -1   4  -1  245.67  126.98   1-0.20221-0.27034-0.63425 0.54669 0.74621-0.79248
   1  -4   2  284.24   87.41   1 0.44436 0.02793-0.88622 0.97428-0.13095 0.22359
  -1   4  -2  147.92  105.03   1 0.01694-0.48931-0.68474 0.59667-0.72858 0.63603
  -1  -4  -2  218.03  117.86   1-0.01655 0.48899-0.65293 0.56487-0.75723 0.66467
   1   4   2  292.13  100.74   1-0.43888-0.03364-0.05178 0.13989-0.89704 0.98959
  -1   4  -2  126.55   42.90   1-0.26923-0.20314-0.65554 0.56745 0.70552-0.79795
   1   4   2   81.12   52.94   1-0.24583-0.22624-0.68229 0.77038 0.68850-0.59608
   1  -4   2  222.82   58.42   1 0.44245 0.03018-0.88919 0.97742-0.11646 0.20911
  -1   4  -2   10.29   90.07   1-0.27806-0.19369-0.62889 0.54077 0.72606-0.81856
   1   4   2  135.96   85.75   1-0.22672-0.24561-0.63316 0.72138 0.74006-0.64751
   1  -4   3 1499.73  119.10   1 0.45957 0.01276-0.88276 0.97154-0.09761 0.23652
  -1   4  -3 1662.86  136.24   1 0.07119-0.54386-0.73238 0.64374-0.67715 0.53832
  -1  -4  -3 1381.82  133.81   1-0.08207 0.55449-0.58500 0.49624-0.80686 0.66803
   1   4   3 1184.07   90.93   1-0.50131 0.02878 0.08811 0.00072-0.86076 0.99958
  -1   4  -3 1182.86   59.41   1-0.40990-0.06243-0.45908 0.37039 0.78817-0.92677
   1   4   3 1165.85  105.99   1-0.20730-0.26472-0.72317 0.81198 0.65882-0.52018
   1  -4   3 1065.45   64.28   1 0.48064-0.00787-0.85723 0.94610-0.18475 0.32376
  -1   4  -3 1511.58  182.67   1-0.35387-0.11799-0.62002 0.53118 0.70024-0.83899
   1   4   3 1566.76  168.43   1-0.16243-0.30977-0.63514 0.72403 0.75511-0.61629
  -1  -4  -4 1846.27   96.52   1 0.55221-0.07918-0.22878 0.13905 0.80169-0.98711
   1  -4   4 1646.50  124.43   1 0.47340-0.00106-0.87834 0.96784-0.06633 0.25155
  -1  -4  -4 1444.58  121.32   1-0.14738 0.61986-0.50868 0.41907-0.84824 0.66343
  -1   4  -4 1039.37   97.74   1-0.58709 0.11490-0.05511-0.03401 0.80763-0.99279
   1   4   4 1783.05  140.67   1-0.17577-0.29621-0.75387 0.84341 0.63306-0.44822
  -1   4  -4 1513.34  178.92   1-0.42804-0.04393-0.60697 0.51742 0.66959-0.85459
   1   4   4 1571.62  178.12   1-0.10068-0.37140-0.63445 0.72399 0.76637-0.58127
  -1  -4  -5   60.03   24.27   1 0.58700-0.11342-0.36116 0.27090 0.72455-0.95589
   1  -4   5   38.72   64.75   1 0.48611-0.01376-0.87313 0.96335-0.03634 0.26786
  -1  -4  -5  275.78  122.19   1-0.21017 0.68270-0.42827 0.33793-0.87886 0.64784
   1   4   5  433.42  125.80   1-0.15039-0.32154-0.77686 0.86713 0.61144-0.38037
  -1   4  -5   70.64  128.39   1-0.49994 0.02789-0.58857 0.49829 0.63531-0.86655
   1   4   5  160.96  133.30   1-0.04248-0.42947-0.63152 0.72173 0.77419-0.54281
  -1  -4  -6 3231.68  275.17   1 0.60731-0.13378-0.47763 0.38667 0.63484-0.91245
   1  -4   6 3273.35  165.29   1 0.49789-0.02553-0.86720 0.95814-0.00731 0.28514
  -1  -4  -6 3825.06  191.88   1-0.26774 0.74033-0.34719 0.25612-0.89875 0.62153
   1   4   6 3722.56  208.30   1-0.13077-0.34191-0.79288 0.88436 0.59516-0.31778
  -1   4  -6 3759.80  276.64   1-0.56743 0.09527-0.56780 0.47681 0.59633-0.87382
   1   4   6 3926.36  251.78   1 0.01132-0.48315-0.62687 0.71775 0.77903-0.50138
  -1  -4  -7 1441.24  156.00   1 0.61447-0.14163-0.57582 0.48406 0.53930-0.86349
   1  -4   7 1463.10  156.36   1 0.50888-0.03651-0.86057 0.95223 0.02097 0.30316
  -1  -4  -7 1689.06  161.27   1-0.31886 0.79141-0.26874 0.17716-0.90890 0.58504
   1   4   7 1942.08  191.82   1-0.11539-0.35733-0.80542 0.89770 0.58135-0.25774
  -1   4  -7 2265.85  226.78   1-0.63029 0.15802-0.54372 0.45202 0.55415-0.87789
   1   4   7 1725.05  191.30   1 0.05843-0.53100-0.62170 0.71354 0.78107-0.45704
   1  -4   8  507.50   94.56   1 0.51917-0.04679-0.85328 0.94565 0.04866 0.32177
  -1  -4  -8  625.26  127.63   1-0.36190 0.83445-0.19683 0.10454-0.91119 0.54107
   1   4   8  402.29  143.41   1-0.10395-0.36881-0.81441 0.90749 0.57089-0.20105
  -1   4  -8  314.44  124.32   1-0.68838 0.21629-0.51658 0.42417 0.50918-0.87937
   1   4   8  230.56   97.57   1 0.10163-0.57416-0.61532 0.70788 0.78169-0.41138
   1  -4   9  678.29  103.36   1 0.52883-0.05644-0.84532 0.93842 0.07589 0.34085
  -1  -4  -9  918.52  122.68   1-0.39736 0.86991-0.13297 0.03998-0.90797 0.49158
   1   4   9  697.11  117.21   1-0.09590-0.37690-0.82056 0.91445 0.56344-0.14737
  -1   4  -9  689.39  133.66   1-0.74076 0.26862-0.48720 0.39407 0.46248-0.87894
   1   4   9  803.71  164.48   1 0.13934-0.61183-0.60877 0.70204 0.78101-0.36441
   1  -4  10 3983.00  299.05   1 0.53792-0.06551-0.83671 0.93052 0.10274 0.36031
  -1  -4 -10 5218.20  364.27   1-0.42602 0.89852-0.07777-0.01618-0.90136 0.43862
   1   4  10 5286.86  394.93   1-0.09078-0.38206-0.82441 0.91909 0.55866-0.09636
  -1   4 -10 4890.82  358.55   1-0.78767 0.31548-0.45586 0.36201 0.41442-0.87716
   1   4  10 4755.15  353.75   1 0.17156-0.64401-0.60242 0.69641 0.77951-0.31662
   1  -4  11 1229.02  161.74   1 0.54646-0.07405-0.82744 0.92198 0.12927 0.38008
  -1  -4 -11 1276.25  162.31   1-0.44861 0.92110-0.03158-0.06309-0.89316 0.38416
   1   4  11 1426.39  171.24   1-0.08819-0.38468-0.82632 0.92181 0.55624-0.04771
  -1   4 -11 1681.40  207.13   1-0.82916 0.35692-0.42295 0.32839 0.36550-0.87450
   1   4  11 1349.67  188.72   1 0.19843-0.67085-0.59660 0.69130 0.77761-0.26843
   1  -4  12  568.20  146.21   1 0.55392-0.08155-0.81767 0.91320 0.15674 0.39926
  -1  -4 -12  560.01  138.08   1-0.46621 0.93870 0.00632-0.10173-0.88464 0.32936
   1   4  12   28.32   85.22   1-0.08783-0.38508-0.82659 0.92287 0.55590-0.00114
  -1   4 -12  443.69  100.90   1-0.86642 0.39360-0.38522 0.28983 0.31766-0.87239
   1   4  12  403.67  133.86   1 0.22018-0.69255-0.59153 0.68694 0.77563-0.22016
   1  -4  13  309.67  125.56   1 0.56144-0.08908-0.80708 0.90333 0.18276 0.41957
  -1  -4 -13  440.18  128.12   1-0.47970 0.95219 0.03669-0.13283-0.87665 0.27510
   1   4  13  581.51  185.96   1-0.08943-0.38353-0.82540 0.92249 0.55740 0.04358
  -1   4 -13  444.11  112.28   1-0.89749 0.42451-0.35016 0.25403 0.26810-0.86905
   1   4  13  429.70  155.92   1 0.23704-0.70937-0.58737 0.68350 0.77382-0.17206
   1  -4  14  784.68  158.05   1 0.56847-0.09613-0.79581 0.89280 0.20861 0.44006
  -1  -4 -14  492.15  168.79   1-0.48983 0.96231 0.06032-0.15720-0.86972 0.22189
   1   4  14  657.21  197.46   1-0.09276-0.38023-0.82292 0.92081 0.56052 0.08669
  -1   4 -14  323.39  100.43   1-0.92375 0.45060-0.31443 0.21757 0.21862-0.86580
   1   4  14  817.00  191.91   1 0.24929-0.72158-0.58423 0.68107 0.77235-0.12430
   1  -4  15  368.21  138.75   1 0.57502-0.10270-0.78386 0.88159 0.23430 0.46070
  -1  -4 -15  200.99   99.05   1-0.49719 0.96966 0.07800-0.17560-0.86412 0.17002
   1   4  15  433.84  178.92   1-0.09765-0.37538-0.81924 0.91793 0.56507 0.12837
  -1   4 -15  316.82   87.37   1-0.94545 0.47213-0.27821 0.18062 0.16941-0.86282
   1   4  15  375.21  168.42   1 0.25717-0.72942-0.58215 0.67971 0.77133-0.07700
   1  -4  16  366.52  177.06   1 0.58111-0.10881-0.77121 0.86968 0.25987 0.48147
  -1  -4 -16  172.07   94.16   1-0.50224 0.97471 0.09040-0.18874-0.85998 0.11961
   1   4  16  294.40  190.93   1-0.10394-0.36914-0.81442 0.91391 0.57088 0.16879
  -1   4 -16  173.34   63.46   1-0.96321 0.49023-0.24043 0.14203 0.12000-0.85993
   1   4  16  -19.51   72.25   1 0.26090-0.73312-0.58115 0.67942 0.77083-0.03021
   1   4  17  778.37  206.17   1-0.11151-0.36161-0.80851 0.90880 0.57781 0.20809
   1   4  17  345.90  110.35   1 0.26067-0.73284-0.58121 0.68020 0.77086 0.01604
  -1  -5  15  145.32  104.84   1 0.52459 0.06586-0.84896 0.77313 0.06377 0.63080
  -1   5  15  447.69  131.73   1-0.02139-0.57009-0.87089 0.79624 0.49099 0.20245
   1   5 -15  148.99   67.29   1-0.94457 0.35405-0.27985 0.35546 0.17163-0.86503
  -1   5  15  434.60  156.65   1 0.27109-0.86145-0.57837 0.50226 0.76941-0.07507
  -1  -5  14  278.04  173.73   1 0.51217 0.07826-0.85836 0.78182 0.02970 0.61857
  -1   5  14  332.88  148.49   1-0.01397-0.57747-0.87526 0.79981 0.48343 0.16378
   1   5 -14  104.97   73.93   1-0.92703 0.33668-0.30944 0.38578 0.21178-0.85896
  -1   5  14  333.77  176.64   1 0.26508-0.85548-0.58001 0.50319 0.77026-0.12221
  -1  -5  13  120.98  125.32   1 0.49881 0.09161-0.86669 0.78943-0.00499 0.60696
  -1   5  13  319.49  125.30   1-0.00782-0.58359-0.87880 0.80254 0.47712 0.12386
   1   5 -13  386.81  121.64   1-0.90666 0.31648-0.33846 0.41553 0.25178-0.85273
  -1   5  13  310.54  203.16   1 0.25584-0.84628-0.58250 0.50496 0.77151-0.16975
  -1  -5  12  681.41  187.59   1 0.48442 0.10599-0.87389 0.79591-0.04039 0.59605
  -1   5  12  115.91   83.85   1-0.00307-0.58830-0.88147 0.80441 0.47221 0.08254
   1   5 -12  153.82   93.89   1-0.88340 0.29339-0.36685 0.44466 0.29155-0.84628
  -1   5  12  891.61  239.18   1 0.24320-0.83368-0.58580 0.50755 0.77309-0.21763
  -1  -5  11  740.61  164.60   1 0.46894 0.12147-0.87990 0.80120-0.07657 0.58593
  -1   5  11  610.92  128.64   1 0.00010-0.59143-0.88323 0.80537 0.46892 0.03960
   1   5 -11  574.95  135.13   1-0.85720 0.26736-0.39451 0.47305 0.33098-0.83948
  -1   5  11 1201.46  208.68   1 0.22701-0.81752-0.58987 0.51090 0.77492-0.26575
  -1  -5  10 4683.16  306.68   1 0.45250 0.13787-0.88450 0.80522-0.11354 0.57672
  -1   5  10 4361.34  283.60   1 0.00149-0.59278-0.88400 0.80534 0.46748-0.00517
   1   5 -10 4488.50  309.41   1-0.82741 0.23745-0.42446 0.50396 0.36771-0.83044
  -1   5  10 6346.07  432.07   1 0.20709-0.79765-0.59462 0.51493 0.77687-0.31398
  -1  -5   9  944.67  127.38   1 0.43448 0.15587-0.88783 0.80781-0.15159 0.56844
  -1   5   9  958.41  147.33   1 0.00084-0.59209-0.88364 0.80418 0.46815-0.05208
   1   5  -9 1194.89  157.73   1-0.79525 0.20534-0.45025 0.53047 0.40599-0.82245
  -1   5   9 1600.60  247.65   1 0.18329-0.77389-0.59994 0.51954 0.77875-0.36216
  -1  -5   8  171.16   87.30   1 0.41500 0.17532-0.88960 0.80886-0.19071 0.56124
  -1   5   8  246.32  120.70   1-0.00217-0.58903-0.88197 0.80171 0.47129-0.10145
   1   5  -8  295.84  148.43   1-0.76012 0.17025-0.47492 0.55586 0.44346-0.81365
  -1   5   8  256.46  179.84   1 0.15547-0.74611-0.60568 0.52456 0.78036-0.41005
  -1  -5   7  498.02  110.00   1 0.39389 0.19640-0.88965 0.80817-0.23100 0.55522
   1  -5  -7  675.08   50.19   1 0.26528 0.32513-0.85597 0.93804-0.44376 0.11982
  -1   5   7  696.75  124.72   1-0.00796-0.58320-0.87872 0.79765 0.47726-0.15365
   1   5  -7 1102.42  181.72   1-0.72205 0.13224-0.49831 0.57996 0.47992-0.80383
  -1   5   7 1015.23  226.33   1 0.12352-0.71419-0.61163 0.52980 0.78143-0.45741
  -1  -5   6  398.17  147.13   1 0.37098 0.21930-0.88773 0.80552-0.27258 0.55048
   1  -5  -6  214.82   29.74   1 0.31368 0.27610-0.87383 0.95653-0.37150 0.09384
   1   5  -6   43.44   27.36   1-0.64792 0.05809 0.31673-0.23422 0.69272-0.97044
  -1   5   6  405.19  137.02   1-0.01703-0.57409-0.87348 0.79161 0.48656-0.20918
   1   5  -6  680.19  212.73   1-0.68109 0.09104-0.52029 0.60282 0.51517-0.79265
  -1   5   6  745.91  212.06   1 0.08738-0.67810-0.61756 0.53501 0.78165-0.50391
   1  -5  -5  504.47   56.85   1 0.60958-0.01879-0.66463 0.74784 0.43204-0.66361
  -1  -5   5  963.34  156.60   1 0.34603 0.24422-0.88356 0.80062-0.31554 0.54713
   1  -5  -5  711.82   52.84   1 0.34505 0.24482-0.88206 0.96543-0.32076 0.08938
   1   5  -5  609.83   94.54   1-0.62903 0.03925 0.12780-0.04461 0.76680-0.99823
  -1   5   5  919.76  141.93   1-0.03004-0.56105-0.86566 0.78299 0.49972-0.26856
  -1  -5   5  723.27   67.60   1 0.05940 0.53062-0.91197 0.82943 0.40592-0.17456
   1   5  -5  439.32  132.99   1-0.63757 0.04764-0.54060 0.62383 0.54886-0.78010
  -1   5   5  974.88  176.01   1 0.04709-0.63784-0.62317 0.53991 0.78066-0.54921
   1  -5  -4  395.85   51.91   1 0.60179-0.01015-0.43844 0.52243 0.66754-0.85261
   1  -5  -4  356.66   42.60   1 0.36962 0.22059-0.88756 0.97123-0.27498 0.08971
  -1  -5   4  488.46  105.47   1 0.31937 0.27131-0.87553 0.79150-0.36254 0.54764
   1   5  -4  490.51   77.31   1-0.58965-0.00043-0.04615 0.13018 0.80633-0.99148
  -1   5   4  931.24  135.20   1-0.04781-0.54324-0.85440 0.77093 0.51740-0.33248
  -1  -5   4  321.82   46.37   1 0.07974 0.51032-0.92020 0.83684 0.38322-0.19813
   1   5  -4  999.03  202.60   1-0.59163 0.00181-0.55911 0.64305 0.58082-0.76581
  -1   5   4  867.86  202.14   1 0.00374-0.59379-0.62764 0.54341 0.77848-0.59338
   1  -5  -370273.13 2018.32   1 0.53801 0.05284-0.18562 0.27036 0.82224-0.96130
   1  -5  -364773.62 1863.51   1 0.38752 0.20271-0.88931 0.97371-0.24278 0.10382
  -1  -5   365837.89 1950.07   1 0.28954 0.30103-0.86563 0.78092-0.40846 0.54729
   1   5  -364642.39 1881.62   1-0.53817-0.05180-0.19676 0.28139 0.81954-0.95819
  -1   5   371720.49 2114.06   1-0.07144-0.51957-0.83839 0.75412 0.54035-0.40166
  -1  -5   355226.28 1602.55   1 0.10045 0.48965-0.92767 0.84349 0.35963-0.22081
   1   5  -379540.67 2378.84   1-0.54359-0.04611-0.57570 0.66034 0.61079-0.74954
  -1   5   372206.84 2167.71   1-0.04460-0.54557-0.63166 0.54677 0.77395-0.63512
   1  -5  -2 3344.65  141.20   1 0.40345 0.18680-0.88986 0.97499-0.21299 0.12036
  -1  -5   2 3195.41  196.93   1 0.25690 0.33358-0.85218 0.76680-0.45583 0.54838
  -1   5   2 3084.56  143.93   1-0.44270-0.14792-0.04391-0.04126-0.89559 0.98813
   1   5  -2 3154.71  149.27   1-0.48275-0.10716-0.32485 0.41014 0.81327-0.90570
  -1   5   2 2907.80  178.55   1-0.10234-0.48863-0.81565 0.73058 0.56941-0.47695
   1   5  -2 3357.31  285.57   1-0.49384-0.09575-0.59022 0.67557 0.63855-0.73104
  -1   5   2 3113.61  231.60   1-0.09641-0.49389-0.63431 0.54874 0.76704-0.67449
   1  -5  -1 1857.24  110.84   1 0.41810 0.17218-0.88944 0.97530-0.18460 0.13829
  -1  -5   1 1716.82  156.64   1 0.22118 0.36920-0.83460 0.74856-0.50448 0.55076
  -1   5   1 1366.61  112.62   1-0.34088-0.24977-0.23266 0.14670-0.91086 0.95712
   1   5  -1 1946.85  118.84   1-0.42779-0.16235-0.42851 0.51438 0.79584-0.84204
  -1   5   1 1858.20  131.83   1-0.14236-0.44857-0.78309 0.69722 0.60538-0.55915
   1   5  -1 1651.67  220.76   1-0.44296-0.14680-0.60378 0.68977 0.66273-0.70898
  -1   5   1 2487.89  232.93   1-0.15120-0.43923-0.63520 0.54898 0.75739-0.71112
   1  -5   0 1166.58  100.33   1 0.43180 0.15850-0.88818 0.97478-0.15709 0.15709
  -1  -5   0 1148.15  132.08   1 0.18244 0.40817-0.81249 0.72582-0.55368 0.55368
  -1   5   0  817.45   95.98   1-0.24580-0.34439-0.37898 0.29230-0.89215 0.89215
   1   5   0  996.99   87.97   1-0.37656-0.21352-0.51227 0.59885 0.77186-0.77186
  -1   5   0  980.13   93.67   1-0.19335-0.39698-0.73704 0.65040 0.64758-0.64758
   1   5   0 1068.23  195.07   1-0.39147-0.19818-0.61397 0.70067 0.68540-0.68540
  -1   5   0 1230.25  183.70   1-0.20839-0.38217-0.63401 0.54712 0.74470-0.74470
   1  -5   1  418.62   71.26   1 0.44474 0.14558-0.88614 0.97347-0.13015 0.17647
  -1  -5  -1  497.82  123.67   1 0.14021 0.45036-0.78484 0.69752-0.60362 0.55734
  -1   5  -1  588.00   91.41   1-0.16392-0.42622-0.48826 0.40085-0.85715 0.81095
   1   5   1  568.39   84.81   1-0.33050-0.25952-0.57865 0.66594 0.74560-0.69940
  -1   5  -1  603.58   66.91   1-0.25945-0.33093-0.66690 0.57954 0.69851-0.74472
   1  -5   1  316.01   67.32   1 0.44450 0.14626-0.88770 0.97516-0.11997 0.16630
   1   5   1  800.23  197.37   1-0.33995-0.24959-0.62197 0.70939 0.70539-0.65913
  -1   5  -1  780.28  217.11   1-0.26691-0.32265-0.62984 0.54243 0.72942-0.77567
   1  -5   2 1909.70  135.22   1 0.45704 0.13330-0.88338 0.97144-0.10364 0.19627
  -1  -5  -2 1459.90  130.89   1 0.09478 0.49575-0.75130 0.66331-0.65311 0.56056
  -1   5  -2 1579.40   89.84   1-0.34320-0.24709-0.56109 0.47310 0.75324-0.84564
   1   5   2 1709.64  120.60   1-0.29019-0.29994-0.63029 0.71838 0.72008-0.62765
   1  -5   2 1519.85   93.42   1 0.46362 0.12715-0.87265 0.96087-0.15340 0.24605
   1   5   2 2007.21  209.88   1-0.28903-0.30041-0.62787 0.71600 0.72265-0.63015
  -1   5  -2 1746.06  163.59   1-0.32685-0.26281-0.62368 0.53555 0.71006-0.80256
   1  -5   3  450.59   88.73   1 0.46869 0.12170-0.87998 0.96876-0.07714 0.21605
  -1  -5  -3  643.33   97.74   1 0.04658 0.54391-0.71158 0.62294-0.70105 0.56222
  -1   5  -3  573.48   53.46   1-0.44776-0.14259-0.39246 0.30376 0.80341-0.94201
   1   5   3  735.93   99.39   1-0.25560-0.33448-0.67130 0.76012 0.69571-0.55707
   1  -5   3  404.07   48.69   1 0.49500 0.09593-0.84274 0.93161-0.21153 0.35054
  -1   5  -3  345.22  166.17   1-0.38698-0.20279-0.61475 0.52591 0.68725-0.82600
   1   5   3 1141.02  199.11   1-0.23935-0.34997-0.63180 0.72064 0.73724-0.59849
   1  -5   419459.07  631.36   1 0.47987 0.11053-0.87583 0.96533-0.05122 0.23644
  -1  -5  -420323.65  661.81   1-0.00376 0.59427-0.66531 0.57585-0.74654 0.56144
  -1   5  -418049.92  530.62   1-0.56929-0.02088-0.11292 0.02380 0.81434-0.99949
   1   5   420552.36  677.24   1-0.22642-0.36362-0.70336 0.79290 0.67380-0.48895
   1  -5   417560.78  520.06   1 0.54903 0.04192-0.77167 0.86127-0.32105 0.50640
  -1   5  -421805.61  767.42   1-0.44653-0.14335-0.60299 0.51344 0.66105-0.84606
   1   5   421094.12  727.53   1-0.19245-0.39775-0.63457 0.72412 0.74851-0.56341
   1  -5   515376.94  770.42   1 0.49058 0.09983-0.87102 0.96124-0.02547 0.25700
  -1  -5  -513347.45  661.69   1-0.05477 0.64527-0.61423 0.52407-0.78722 0.55584
   1   5   514518.32  736.04   1-0.20217-0.38782-0.72833 0.81859 0.65471-0.42365
  -1   5  -515386.70  796.44   1-0.50525-0.08466-0.58711 0.49683 0.63246-0.86370
   1   5   513105.94  689.49   1-0.14711-0.44296-0.63520 0.72542 0.75819-0.52682
   1  -5   6 5967.26  355.30   1 0.50083 0.08959-0.86554 0.95648 0.00013 0.27769
  -1  -5  -6 4482.46  261.95   1-0.10520 0.69569-0.55917 0.46831-0.82234 0.54469
   1   5   6 5648.11  345.09   1-0.18235-0.40759-0.74766 0.83865 0.63855-0.36127
  -1   5  -6 5720.16  383.68   1-0.56157-0.02846-0.56980 0.47881 0.59996-0.87745
   1   5   6 5423.48  350.44   1-0.10468-0.48527-0.63457 0.72545 0.76574-0.48808
   1  -5   7  321.24  117.15   1 0.51064 0.07979-0.85940 0.95106 0.02563 0.29850
  -1  -5  -7   82.65   53.49   1-0.15312 0.74380-0.50166 0.40986-0.85140 0.52797
   1   5   7  467.74  145.61   1-0.16647-0.42343-0.76247 0.85419 0.62523-0.30174
  -1   5  -7  223.13  119.60   1-0.61535 0.02521-0.54990 0.45821 0.56474-0.88848
   1   5   7   34.91  104.72   1-0.06554-0.52428-0.63294 0.72448 0.77141-0.44748
   1  -5   8   88.48   82.52   1 0.52003 0.07041-0.85261 0.94499 0.05103 0.31940
  -1  -5  -8   41.34   54.38   1-0.19799 0.78873-0.44449 0.35196-0.87362 0.50399
   1   5   8  313.12  162.42   1-0.15406-0.43580-0.77363 0.86607 0.61461-0.24491
  -1   5  -8  139.54  146.43   1-0.66615 0.07589-0.52759 0.43519 0.52714-0.89713
   1   5   8  126.97  103.23   1-0.03001-0.55968-0.63061 0.72281 0.77551-0.40531
   1  -5   9  315.87  124.26   1 0.52900 0.06146-0.84517 0.93827 0.07636 0.34038
  -1  -5  -9  206.01   76.43   1-0.23857 0.82936-0.38921 0.29595-0.88971 0.47388
   1   5   9  457.97  132.87   1-0.14472-0.44509-0.78180 0.87496 0.60649-0.19059
  -1   5  -9  306.48   96.13   1-0.71387 0.12383-0.50294 0.40981 0.48726-0.90372
   1   5   9  323.00  149.11   1 0.00171-0.59129-0.62784 0.72071 0.77833-0.36185
   1  -5  10  519.61  132.04   1 0.53755 0.05291-0.83708 0.93089 0.10163 0.36142
  -1  -5 -10  665.10  103.64   1-0.27483 0.86551-0.33689 0.24319-0.90053 0.43788
   1   5  10  495.87  134.59   1-0.13876-0.45223-0.78616 0.88085 0.60223-0.13993
  -1   5 -10  801.60  168.43   1-0.75777 0.16767-0.47646 0.38261 0.44582-0.90856
   1   5  10  704.22  149.37   1 0.02733-0.61798-0.62554 0.71952 0.77970-0.31682
   1  -5  11 1300.29  165.53   1 0.54569 0.04478-0.82832 0.92286 0.12684 0.38251
  -1  -5 -11 1505.72  149.68   1-0.30564 0.89631-0.28974 0.19534-0.90698 0.39807
   1   5  11 1720.22  195.96   1-0.13459-0.45644-0.78969 0.88518 0.59855-0.09001
  -1   5 -11 1108.79  153.75   1-0.79791 0.20776-0.44825 0.35369 0.40298-0.91199
   1   5  11 1278.95  178.45   1 0.05092-0.64153-0.62268 0.71738 0.78081-0.27163
   1  -5  12  780.76  154.34   1 0.55289 0.03762-0.81902 0.91455 0.15329 0.40271
   1   5  12 1541.44  239.10   1-0.13255-0.45852-0.79140 0.88769 0.59674-0.04198
  -1   5 -12  652.18  138.82   1-0.83422 0.24402-0.41853 0.32325 0.35902-0.91430
   1   5  12 3036.90  439.86   1 0.07055-0.66112-0.62003 0.71544 0.78139-0.22592
   1  -5  13  297.04  125.44   1 0.56020 0.03030-0.80891 0.90517 0.17838 0.42395
   1   5  13  394.70  131.74   1-0.13243-0.45867-0.79150 0.88859 0.59664 0.00434
  -1   5 -13  628.17  110.15   1-0.86769 0.27707-0.38391 0.28778 0.31578-0.91674
   1   5  13  517.21  159.71   1 0.08625-0.67678-0.61773 0.71386 0.78164-0.17988
   1  -5  14  136.26  110.60   1 0.56710 0.02338-0.79812 0.89511 0.20345 0.44521
   1   5  14  148.71   89.30   1-0.13404-0.45711-0.79015 0.88804 0.59806 0.04915
  -1   5 -14  452.03  105.15   1-0.89622 0.30543-0.35173 0.25487 0.27029-0.91746
   1   5  14   92.62  138.12   1 0.09808-0.68857-0.61589 0.71274 0.78169-0.13365
   1  -5  15  184.87   78.52   1 0.57358 0.01688-0.78662 0.88435 0.22850 0.46650
   1   5  15  395.24  136.21   1-0.13720-0.45398-0.78749 0.88618 0.60086 0.09259
  -1   5 -15  143.63   75.26   1-0.92095 0.32999-0.31860 0.22100 0.22434-0.91774
   1   5  15   44.69   75.67   1 0.10611-0.69656-0.61459 0.71215 0.78167-0.08733
  -1  -6  12  362.34  159.48   1 0.49404 0.21444-0.86927 0.79128-0.01694 0.57260
  -1   6  12  549.45  146.67   1-0.06597-0.64354-0.84221 0.76515 0.53509 0.01966
   1   6 -12  331.51  113.96   1-0.86663 0.15898-0.38500 0.46281 0.31735-0.87208
  -1   6  12  519.83  207.78   1 0.10423-0.81291-0.61490 0.53665 0.78168-0.22621
  -1  -6  11 4470.08  598.20   1 0.48039 0.22808-0.87562 0.79692-0.05000 0.55936
  -1   6  11 5352.81  686.49   1-0.06555-0.64392-0.84249 0.76463 0.53469-0.02616
   1   6 -11 3910.58  524.67   1-0.84002 0.13210-0.41333 0.49211 0.35144-0.86044
  -1   6  11 5204.97  707.13   1 0.08870-0.79742-0.61736 0.53839 0.78166-0.27248
  -1  -6  10 5592.65  503.77   1 0.46586 0.24260-0.88090 0.80147-0.08354 0.54660
  -1   6  10 6539.10  576.88   1-0.06704-0.64239-0.84146 0.76280 0.53613-0.07382
   1   6 -10 5562.53  505.69   1-0.81171 0.10384-0.43748 0.51699 0.38693-0.84966
  -1   6  10 5155.91  500.62   1 0.07002-0.77878-0.62011 0.54042 0.78138-0.31849
  -1  -6   9 1801.24  225.82   1 0.45062 0.25777-0.88493 0.80492-0.11761 0.53446
  -1   6   9 2458.24  249.20   1-0.07069-0.63870-0.83892 0.75946 0.53963-0.12356
   1   6  -9 1981.24  229.71   1-0.78117 0.07335-0.46054 0.54076 0.42150-0.83796
  -1   6   9 1435.91  251.70   1 0.04815-0.75694-0.62304 0.54264 0.78070-0.36410
  -1  -6   8  151.70   78.80   1 0.43414 0.27422-0.88787 0.80713-0.15227 0.52281
  -1   6   8  188.73   84.90   1-0.07680-0.63255-0.83460 0.75433 0.54547-0.17563
   1   6  -8  466.62  179.76   1-0.74848 0.04072-0.48241 0.56335 0.45502-0.82521
  -1   6   8  499.04  253.90   1 0.02305-0.73189-0.62602 0.54491 0.77946-0.40915
  -1  -6   7   48.78   67.75   1 0.41659 0.29175-0.88952 0.80805-0.18757 0.51179
   1   6  -7  209.89  125.54   1-0.71378 0.00607-0.50299 0.58464 0.48735-0.81126
  -1   6   7  393.62  212.66   1-0.00377-0.70401-0.62836 0.54613 0.77790-0.45397
  -1  -6   6  237.55   79.00   1 0.39788 0.31044-0.88978 0.80757-0.22354 0.50144
  -1   6   6  158.03   86.37   1-0.09797-0.61130-0.81899 0.73713 0.56536-0.28798
   1   6  -6   21.07   80.60   1-0.67720-0.03071-0.52223 0.60475 0.51832-0.79581
  -1   6   6  415.16  204.74   1-0.03542-0.67249-0.63101 0.54811 0.77495-0.49730
  -1  -6   5 1108.49  154.76   1 0.37791 0.33039-0.88851 0.80557-0.26023 0.49181
   1   6  -5  813.41  114.03   1-0.63043-0.07724 0.13639-0.05320 0.76416-0.99559
  -1   6   5 1615.99  155.62   1-0.11403-0.59520-0.80651 0.72384 0.58011-0.34896
   1   6  -5 1297.49  197.31   1-0.63903-0.06877-0.53996 0.62320 0.54779-0.77903
  -1   6   5 1573.05  256.62   1-0.07014-0.63790-0.63318 0.54962 0.77081-0.53943
  -1  -6   4  117.85   65.30   1 0.35656 0.35171-0.88557 0.80190-0.29768 0.48295
   1   6  -4  195.76   50.99   1-0.59591-0.11215-0.02341 0.10745 0.80270-0.98786
  -1   6   4  216.83   78.97   1-0.13461-0.57459-0.78968 0.70621 0.59856-0.41364
   1   6  -4  257.79  155.75   1-0.59944-0.10825-0.55616 0.64010 0.57562-0.76062
  -1   6   4  658.29  192.17   1-0.10779-0.60039-0.63465 0.55042 0.76523-0.58013
  -1  -6   3 2700.23  202.45   1 0.33420 0.37445-0.87954 0.79484-0.33867 0.47750
   1   6  -3 2461.96  304.19   1-0.55198-0.15597-0.15971 0.24435 0.81841-0.95706
  -1   6   3 2897.08  176.07   1-0.15981-0.54845-0.76850 0.68403 0.61956-0.48092
   1   6  -3 3841.46  350.79   1-0.55872-0.14886-0.57076 0.65541 0.60171-0.74045
  -1   6   3 3804.37  289.91   1-0.14814-0.56016-0.63520 0.55031 0.75799-0.61917
   1  -6  -2  597.89  125.70   1 0.45826 0.25004-0.88306 0.96819-0.10097 0.00833
  -1  -6   2  797.54  132.08   1 0.30967 0.39888-0.87257 0.78720-0.37776 0.47031
   1   6  -2  625.74  136.58   1-0.50517-0.20273-0.27638 0.36167 0.81756-0.90999
  -1   6   2  862.69  114.94   1-0.19214-0.51616-0.73823 0.65303 0.64660-0.55417
   1   6  -2  859.83  245.45   1-0.51718-0.19028-0.58372 0.66907 0.62592-0.71841
  -1   6   2  541.14  175.34   1-0.19095-0.51748-0.63461 0.54905 0.74886-0.65631
   1  -6  -1 1043.68  107.41   1 0.46171 0.24661-0.88210 0.96797-0.09333 0.04701
  -1  -6   1 1292.84  170.86   1 0.28339 0.42506-0.86329 0.77725-0.41761 0.46389
   1   6  -1 1068.39  106.17   1-0.45860-0.24924-0.37308 0.45901 0.80653-0.85274
  -1   6   1 1110.73  111.87   1-0.23207-0.47628-0.69732 0.61140 0.67814-0.63193
   1   6  -1 1136.96  201.16   1-0.47530-0.23237-0.59619 0.68218 0.64702-0.69327
  -1   6   1 1136.05  191.53   1-0.23588-0.47268-0.63265 0.54643 0.73763-0.69136
   1  -6   0  128.78   51.22   1 0.46717 0.24127-0.88048 0.96710-0.08059 0.08059
  -1  -6   0  258.50   97.14   1 0.25526 0.45309-0.85143 0.76472-0.45814 0.45814
   1   6   0  147.24   56.18   1-0.41453-0.29358-0.45131 0.53789 0.79023-0.79023
  -1   6   0   97.11   39.28   1-0.28104-0.42736-0.64147 0.55482 0.71381-0.71381
   1   6   0  357.43  194.06   1-0.43333-0.27423-0.60586 0.69256 0.66719-0.66719
  -1   6   0  376.84  148.30   1-0.28196-0.42540-0.62854 0.54184 0.72486-0.72486
   1  -6   1   82.18   42.13   1 0.47368 0.23476-0.87823 0.96557-0.06568 0.11198
  -1  -6  -1   81.18   58.47   1 0.22519 0.48307-0.83671 0.74933-0.49919 0.45291
  -1   6  -1  188.10   56.78   1-0.34041-0.36785-0.56500 0.47771 0.75159-0.79779
   1   6   1  163.07   71.21   1-0.37422-0.33383-0.51582 0.60311 0.77063-0.72443
   1   6   1  447.45  189.03   1-0.39169-0.31576-0.61393 0.70134 0.68531-0.63906
  -1   6  -1   13.61  119.16   1-0.32998-0.37748-0.62328 0.53587 0.70895-0.75520
   1  -6   2  259.18   90.51   1 0.48093 0.22752-0.87540 0.96346-0.04872 0.14133
  -1  -6  -2  373.78  123.53   1 0.19315 0.51501-0.81885 0.73081-0.54051 0.44796
  -1   6  -2  215.41   60.17   1-0.41200-0.29632-0.45557 0.36757 0.78911-0.88151
   1   6   2  395.77  117.48   1-0.33818-0.36981-0.56810 0.65609 0.75025-0.65785
   1   6   2  290.15  133.45   1-0.35079-0.35656-0.62046 0.70859 0.70140-0.60889
  -1   6  -2  521.24  207.09   1-0.37886-0.32872-0.61612 0.52800 0.69053-0.78304
   1  -6   3 1155.60  123.93   1 0.48862 0.21985-0.87197 0.96075-0.03027 0.16918
  -1  -6  -3  990.90  106.71   1 0.15981 0.54881-0.79811 0.70947-0.58091 0.44208
  -1   6  -3  885.71   62.10   1-0.49575-0.21231-0.29722 0.20867 0.81601-0.95466
   1   6   3 1057.73  120.99   1-0.30657-0.40157-0.60965 0.69847 0.73098-0.59234
  -1   6  -3 1355.83  187.35   1-0.42810-0.27958-0.60696 0.51812 0.66956-0.80831
   1   6   3 1233.31  227.43   1-0.31101-0.39622-0.62556 0.71440 0.71549-0.57674
   1  -6   410667.21  404.39   1 0.49654 0.21193-0.86794 0.95744-0.01070 0.19592
  -1  -6  -410760.18  380.42   1 0.12427 0.58431-0.77351 0.68422-0.62147 0.43636
   1   6   411863.70  434.94   1-0.27922-0.42887-0.64366 0.73320 0.71254-0.52770
  -1   6  -411394.56  506.94   1-0.47723-0.23056-0.59570 0.50615 0.64604-0.83104
   1   6   412492.44  498.31   1-0.27276-0.43437-0.62935 0.71890 0.72767-0.54267
   1  -6   5 2047.48  167.77   1 0.50457 0.20391-0.86331 0.95353 0.00972 0.22179
  -1  -6  -5 2154.63  164.79   1 0.08733 0.62122-0.74543 0.65548-0.66083 0.42944
   1   6   5 2214.27  202.53   1-0.25591-0.45214-0.67095 0.76121 0.69593-0.46487
  -1   6  -5 1894.77  226.60   1-0.52615-0.18163-0.58108 0.49080 0.62088-0.85212
   1   6   5 2433.25  256.37   1-0.23737-0.47084-0.63256 0.72278 0.73723-0.50585
   1  -6   6 1048.01  143.89   1 0.51260 0.19589-0.85807 0.94900 0.03083 0.24699
  -1  -6  -6  640.88  102.15   1 0.04947 0.65904-0.71408 0.62347-0.69831 0.42064
   1   6   6  725.06  113.87   1-0.23633-0.47168-0.69272 0.78372 0.68137-0.40410
  -1   6  -6  392.90  141.49   1-0.57369-0.13420-0.56562 0.47463 0.59240-0.86989
   1   6   6 1174.42  223.65   1-0.20320-0.50488-0.63421 0.72509 0.74597-0.46832
  -1  -6  -7  824.53  114.31   1 0.01100 0.69756-0.67925 0.58769-0.73382 0.40989
   1   6   7  532.72  157.84   1-0.22015-0.48781-0.70996 0.80168 0.66894-0.34545
  -1   6  -7  901.12  167.15   1-0.61978-0.08823-0.54810 0.45640 0.56164-0.88538
   1   6   7 1660.54  239.34   1-0.17148-0.53647-0.63503 0.72658 0.75320-0.42927
   1  -6   8  683.08  135.55   1 0.52838 0.18013-0.84571 0.93809 0.07459 0.29584
   1   6   8  734.80  141.43   1-0.20704-0.50087-0.72343 0.81587 0.65861-0.28892
  -1   6  -8  820.09  161.32   1-0.66405-0.04407-0.52859 0.43619 0.52878-0.89877
   1   6   8  922.60  237.18   1-0.14246-0.56537-0.63519 0.72740 0.75909-0.38889
   1  -6   9  207.02  126.85   1 0.53603 0.17249-0.83859 0.93169 0.09706 0.31968
   1   6   9   58.56   65.43   1-0.19672-0.51114-0.73373 0.82690 0.65032-0.23441
  -1   6  -9  494.98  142.52   1-0.70640-0.00154-0.50706 0.41393 0.49384-0.91030
   1   6   9  452.38  186.58   1-0.11630-0.59139-0.63486 0.72773 0.76382-0.34734
   1  -6  10  570.80  126.89   1 0.54347 0.16506-0.83082 0.92464 0.11984 0.34320
   1   6  10  146.70   91.41   1-0.18891-0.51891-0.74136 0.83526 0.64395-0.18183
  -1   6 -10  295.89  154.86   1-0.74616 0.03817-0.48386 0.39002 0.45728-0.92001
   1   6  10  288.93  156.51   1-0.09315-0.61441-0.63419 0.72773 0.76754-0.30478
   1  -6  11  401.01  150.38   1 0.55018 0.15851-0.82248 0.91726 0.14430 0.36536
  -1   6 -11  558.32  156.48   1-0.78333 0.07528-0.45900 0.36444 0.41917-0.92817
   1   6  11  177.51  147.69   1-0.07312-0.63432-0.63333 0.72753 0.77041-0.26138
   1  -6  1210971.50 1317.70   1 0.55709 0.15158-0.81337 0.90890 0.16752 0.38848
   1   6  1211252.11 1355.05   1-0.17987-0.52787-0.75001 0.84536 0.63648-0.08194
  -1   6 -1213301.67 1590.88   1-0.81772 0.10962-0.43260 0.33732 0.37970-0.93498
   1   6  1211857.29 1424.77   1-0.05627-0.65103-0.63241 0.72728 0.77258-0.21727
  -1  -7   8  659.55  172.07   1 0.45857 0.36794-0.88303 0.80217-0.09981 0.47025
  -1   7   8  389.15  113.68   1-0.15015-0.67595-0.77708 0.69624 0.61122-0.24152
   1   7  -8 1018.77  227.00   1-0.75021-0.07544-0.48131 0.56225 0.45332-0.82351
  -1   7   8  346.64  183.05   1-0.09317-0.73262-0.63419 0.55262 0.76753-0.39733
  -1  -7   7  117.42   97.24   1 0.44461 0.38177-0.88617 0.80469-0.13043 0.45465
  -1   7   7  138.69   72.01   1-0.16153-0.66460-0.76695 0.68538 0.62103-0.29754
   1   7  -7  374.79  133.72   1-0.71914-0.10646-0.49997 0.58162 0.48254-0.80646
  -1   7   7   81.69  126.16   1-0.11790-0.70802-0.63489 0.55265 0.76354-0.43962
  -1  -7   6   49.68   70.13   1 0.42981 0.39655-0.88842 0.80621-0.16114 0.43904
  -1   7   6  446.82   95.92   1-0.17610-0.65008-0.75355 0.67126 0.63335-0.35607
   1   7  -6 -237.70  114.18   1-0.68686-0.13892-0.51738 0.59990 0.51042-0.78791
  -1   7   6  184.91  149.02   1-0.14512-0.68092-0.63520 0.55230 0.75858-0.48093
  -1  -7   5  510.27  142.88   1 0.41431 0.41203-0.88963 0.80669-0.19204 0.42363
  -1   7   5  274.05   98.72   1-0.19431-0.63192-0.73611 0.65309 0.64836-0.41730
   1   7  -5  491.08  183.71   1-0.65355-0.17212-0.53347 0.61671 0.53690-0.76814
  -1   7   5  989.28  276.29   1-0.17474-0.65143-0.63498 0.55141 0.75250-0.52112
  -1  -7   4  375.89  135.48   1 0.39810 0.42822-0.88978 0.80611-0.22313 0.40840
  -1   7   4  146.24   64.69   1-0.21669-0.60958-0.71355 0.62981 0.66624-0.48139
   1   7  -4   13.24  114.59   1-0.61943-0.20613-0.54824 0.63218 0.56189-0.74689
  -1   7   4  371.92  227.26   1-0.20662-0.61968-0.63408 0.54985 0.74514-0.56004
  -1  -7   3  781.55  138.89   1 0.38113 0.44516-0.88882 0.80441-0.25441 0.39336
  -1   7   3  802.17  106.60   1-0.24387-0.58245-0.68446 0.59999 0.68704-0.54841
   1   7  -3 1109.24  214.47   1-0.58471-0.24074-0.56167 0.64632 0.58534-0.72409
  -1   7   3 1188.96  236.38   1-0.23973-0.58521-0.63177 0.54721 0.73714-0.59839
  -1  -7   2  395.70  122.94   1 0.36340 0.46287-0.88668 0.80155-0.28586 0.37850
  -1   7   2  263.18   80.08   1-0.27657-0.54979-0.64684 0.56165 0.71070-0.61827
   1   7  -2  410.69  177.38   1-0.54965-0.27569-0.57375 0.65910 0.60719-0.69969
  -1   7   2  122.22  173.81   1-0.27561-0.54944-0.62911 0.54383 0.72681-0.63431
  -1  -7   1 1467.93  170.03   1 0.34488 0.48137-0.88332 0.79745-0.31747 0.36378
   1   7  -1 1418.21  138.14   1-0.49536-0.33046-0.29808 0.38402 0.81594-0.86215
  -1   7   1 1108.11  119.37   1-0.31544-0.51074-0.59878 0.51290 0.73617-0.68997
   1   7  -1 1870.44  272.52   1-0.51451-0.31072-0.58449 0.67055 0.62740-0.67365
  -1   7   1 1364.95  238.98   1-0.31313-0.51203-0.62532 0.53934 0.71478-0.66853
  -1  -7   0  264.21   92.62   1 0.32571 0.50071-0.87732 0.79061-0.35242 0.35242
   1   7   0  284.97   80.97   1-0.45689-0.36888-0.37635 0.46294 0.80598-0.80598
   1   7   0  596.96  183.24   1-0.47957-0.34555-0.59393 0.68069 0.64595-0.64595
  -1   7   0  388.74  167.12   1-0.35203-0.47325-0.62029 0.53359 0.70093-0.70093
  -1  -7  -1  285.04  108.39   1 0.30543 0.52089-0.87120 0.78382-0.38433 0.33805
   1   7   1  126.30   52.42   1-0.42109-0.40498-0.44012 0.52741 0.79307-0.74687
   1   7   1  316.46  207.69   1-0.44542-0.37994-0.60324 0.69065 0.66158-0.61533
  -1   7  -1  580.15  165.71   1-0.39200-0.43338-0.61388 0.52647 0.68518-0.73143
  -1  -7  -2  107.65   68.74   1 0.28433 0.54190-0.86365 0.77561-0.41623 0.32367
   1   7   2  537.92   93.09   1-0.38845-0.43757-0.49383 0.58183 0.77796-0.68556
   1   7   2  143.75  134.18   1-0.41182-0.41344-0.61021 0.69834 0.67678-0.58427
  -1   7  -2   57.61   77.86   1-0.43273-0.39276-0.60599 0.51786 0.66746-0.75996
   1  -7   3  180.44   68.67   1 0.51528 0.31125-0.85617 0.94495 0.03803 0.10087
   1   7   3  524.86  100.10   1-0.35922-0.46674-0.53815 0.62685 0.76245-0.62385
  -1   7  -3  244.32  121.08   1-0.47391-0.35169-0.59654 0.50770 0.64772-0.78647
   1   7   3  565.17  188.25   1-0.37926-0.44589-0.61606 0.70490 0.69038-0.55162
   1  -7   4 1880.67  210.70   1 0.51987 0.30667-0.85274 0.94224 0.05059 0.13463
   1   7   4 1805.67  195.22   1-0.33344-0.49247-0.57464 0.66404 0.74739-0.56259
  -1   7  -4 1610.17  198.95   1-0.51544-0.31011-0.58423 0.49465 0.62688-0.81188
   1   7   4 3394.19  407.50   1-0.34800-0.47704-0.62086 0.71041 0.70243-0.51743
   1  -7   5  272.08   86.98   1 0.52503 0.30152-0.84859 0.93881 0.06503 0.16649
   1   7   5  405.26  119.15   1-0.31099-0.51485-0.60458 0.69468 0.73332-0.50232
  -1   7  -5  547.85  174.57   1-0.55655-0.26911-0.57149 0.48120 0.60303-0.83427
   1   7   5  754.89  216.06   1-0.31829-0.50664-0.62472 0.71498 0.71302-0.48177
   1  -7   6   40.96   52.14   1 0.53059 0.29597-0.84375 0.93468 0.08097 0.19685
   1   7   6  219.04   91.01   1-0.29174-0.53432-0.62837 0.71936 0.72113-0.44386
  -1   7  -6  440.23  144.03   1-0.59710-0.22867-0.55705 0.46606 0.57719-0.85468
   1   7   6  208.59  165.97   1-0.29036-0.53446-0.62774 0.71872 0.72223-0.44473
   1  -7   7  578.54  120.92   1 0.53639 0.29018-0.83824 0.92990 0.09813 0.22600
   1   7   7  540.57  110.31   1-0.27541-0.55060-0.64822 0.73994 0.70989-0.38640
  -1   7  -7  595.39  166.80   1-0.63679-0.18909-0.54093 0.44924 0.54943-0.87316
   1   7   7  646.62  164.86   1-0.26441-0.56030-0.63004 0.72173 0.73015-0.40640
   1  -7   8  765.83  167.88   1 0.54233 0.28424-0.83207 0.92445 0.11629 0.25415
   1   7   8  568.14  131.75   1-0.26182-0.56415-0.66418 0.75662 0.70022-0.33052
  -1   7  -8  434.99  112.85   1-0.67535-0.15065-0.52314 0.43074 0.51982-0.88980
   1   7   8  395.84  164.77   1-0.24063-0.58397-0.63172 0.72412 0.73689-0.36689
  -2   0  19 5516.86  688.26   1 0.59385-0.59410-0.73767 0.57825 0.32118 0.55915
   2   0 -19 6104.46  742.40   1-0.88598 0.88576 0.20221-0.04281-0.41729-0.46214
  -2   0  18  867.64  142.66   1 0.58712-0.58735-0.75683 0.59667 0.28720 0.54680
  -2   0  18  472.35  167.97   1 0.19045-0.19098-0.94892 0.79084 0.25154 0.58145
   2   0 -18  514.02   85.96   1-0.89953 0.89932 0.18339-0.02327-0.39649-0.43666
  -2   0  17  535.23  127.13   1 0.57931-0.57952-0.77514 0.61424 0.25209 0.53558
  -2   0  17  313.03  173.63   1 0.21724-0.21774-0.95162 0.79269 0.21731 0.56940
   2   0 -17  171.17   56.00   1-0.91184 0.91165 0.16496-0.00411-0.37592-0.41093
  -2   0  16  651.28  111.36   1 0.57030-0.57050-0.79262 0.63099 0.21563 0.52571
  -2   0  16  728.57  146.86   1 0.24406-0.24454-0.95251 0.79273 0.18207 0.55836
   2   0 -16  831.39   96.10   1-0.92300 0.92282 0.14692 0.01464-0.35563-0.38494
  -2   0  15  915.77  114.26   1 0.55997-0.56014-0.80926 0.64689 0.17755 0.51745
  -2   0  15 1695.13  223.41   1 0.27100-0.27146-0.95149 0.79086 0.14566 0.54849
   2   0 -15 1400.81  148.70   1-0.93306 0.93289 0.12931 0.03297-0.33566-0.35862
  -2   0  14 3230.34  253.24   1 0.54810-0.54826-0.82502 0.66192 0.13753 0.51113
  -2   0  14 3520.26  319.33   1 0.29815-0.29858-0.94840 0.78692 0.10788 0.54000
   2   0 -14 3721.08  276.24   1-0.94208 0.94193 0.11217 0.05084-0.31607-0.33193
  -2   0  13  333.24   85.65   1 0.53525-0.53519-0.83936 0.67547 0.09472 0.50724
  -2   0  13  211.83  130.76   1 0.32561-0.32601-0.94302 0.78069 0.06846 0.53313
   2   0 -13  789.92  103.77   1-0.95010 0.94997 0.09554 0.06819-0.29692-0.30479
  -2   0  12  363.71  122.93   1 0.51946-0.51941-0.85305 0.68845 0.04946 0.50619
  -2   0  12  950.75  196.24   1 0.35360-0.35358-0.93503 0.77085 0.02605 0.52986
   2   0 -12  518.70  127.10   1-0.95719 0.95707 0.07949 0.08497-0.27832-0.27711
  -2   0  11  529.81  112.18   1 0.50100-0.50096-0.86544 0.70011 0.00057 0.50878
  -2   0  11  961.41  230.12   1 0.38200-0.38199-0.92399 0.75905-0.01758 0.52717
   2   0 -11  359.80  109.40   1-0.96337 0.96327 0.06410 0.10107-0.26037-0.24877
  -2   0  10  607.20   95.12   1 0.47916-0.47913-0.87612 0.71008-0.05289 0.51595
  -2   0  10  541.89  117.97   1 0.41105-0.41106-0.90935 0.74365-0.06399 0.52726
   2   0 -10  731.51  102.89   1-0.96868 0.96862 0.04936 0.11665-0.24335-0.21945
  -2   0   9  222.10   64.83   1 0.45332-0.45327-0.88431 0.71769-0.11177 0.52862
  -2   0   9  463.17  139.23   1 0.44087-0.44089-0.89032 0.72385-0.11376 0.53070
   2   0  -9  141.90   63.85   1-0.97317 0.97314 0.03572 0.13100-0.22725-0.18926
  -2   0   8 2730.09  132.17   1 0.42115-0.42112-0.88923 0.72189-0.17857 0.54910
   2   0  -8 2647.52  127.51   1 0.15657-0.15681-0.79597 0.96404-0.58473 0.21452
  -2   0   8 2627.02  168.17   1 0.47155-0.47158-0.86576 0.69851-0.16760 0.53822
   2   0  -8 3346.81  150.16   1-0.97689 0.97688 0.02325 0.14419-0.21245-0.15778
  -2   0   7  355.84   96.91   1 0.38077-0.38077-0.88879 0.72071-0.25507 0.57929
   2   0  -7  382.21  106.84   1 0.13272-0.13292-0.77958 0.94831-0.61207 0.28813
  -2   0   7  467.67  141.41   1 0.50301-0.50301-0.83398 0.66571-0.22682 0.55118
   2   0  -7  462.12   96.73   1 0.62207-0.62232-0.59139 0.75970-0.51309 0.18855
   2   0  -7  420.76   88.17   1-0.97985 0.97987 0.01224 0.15592-0.19933-0.12462
  -2   0   7  359.04  108.05   1-0.97100 0.97168-0.22013 0.05216 0.09326 0.23045
  -2   0   644922.95  944.70   1 0.32967-0.32916-0.87839 0.70897-0.34603 0.62369
   2   0  -644691.19  931.92   1 0.09755-0.09771-0.75345 0.92284-0.65021 0.37255
   2   0  -646757.42  983.57   1-0.98207 0.98212 0.00315 0.16573-0.18845-0.08923
  -2   0   650940.43 1057.08   1-0.97698 0.97752-0.20173 0.03302 0.06924 0.20823
  -2   0   5  797.34   90.97   1 0.26102-0.26060-0.85401 0.68393-0.45002 0.68140
   2   0  -5  331.54   63.81   1 0.04651-0.04664-0.71152 0.88157-0.70111 0.46973
  -2   0   5  411.29  139.18   1 0.56763-0.56766-0.73884 0.56911-0.36318 0.59486
   2   0  -5  575.08   89.20   1-0.98354 0.98361-0.00335 0.17296-0.18063-0.05076
  -2   0   5  904.35   83.83   1-0.98205 0.98243-0.18312 0.01368 0.04513 0.18609
  -2   0   4 3468.92  143.79   1 0.16881-0.16872-0.80395 0.63325-0.57022 0.75533
   2   0  -4 4287.44  148.24   1-0.02552 0.02534-0.64409 0.81463-0.76452 0.57941
  -2   0   4 4259.69  123.39   1-0.64196 0.64219 0.47032-0.64078 0.60554-0.42069
  -2   0   4 4049.86  153.92   1 0.59929-0.59910-0.66693 0.49640-0.44276 0.62821
   2   0  -4 4503.38  128.51   1-0.98415 0.98425-0.00622 0.17655-0.17718-0.00794
  -2   0   4 3384.95  106.32   1-0.98619 0.98642-0.16427-0.00591 0.02089 0.16408
  -2   0   310825.17  192.19   1 0.04553-0.04548-0.71067 0.53930-0.70204 0.84087
   2   0  -310337.32  159.76   1-0.12580 0.12564-0.53534 0.70658-0.83521 0.69638
  -2   0   312314.04  238.40   1 0.62665-0.62647-0.57161 0.40035-0.52967 0.66876
   2   0  -311509.22  175.38   1-0.98361 0.98374-0.00369 0.17474-0.18023 0.04138
  -2   0   310633.74  153.75   1-0.98940 0.98949-0.14513-0.02579-0.00352 0.14226
  -2   0   235351.56  295.62   1-0.10893 0.10908-0.55491 0.38297-0.82474 0.91729
   2   0  -232887.32  258.69   1-0.64430 0.64419 0.44498-0.27319 0.62198-0.71440
   2   0  -235125.15  251.35   1-0.98106 0.98121 0.00740 0.16436-0.19354 0.10097
  -2   0   235983.38  263.31   1-0.99167 0.99161-0.12560-0.04606-0.02823 0.12073
  -2   0   1116664.9  571.35   1-0.27677 0.27685-0.33377 0.16113-0.90110 0.94730
   2   0  -1116693.4  520.18   1-0.97394 0.97412 0.03326 0.13922-0.22434 0.17806
  -2   0   1116428.4  527.20   1-0.99297 0.99276-0.10552-0.06687-0.05344 0.09969
   2   0   055146.94  341.23   1-0.50067 0.50063 0.08652 0.08676-0.86129 0.86129
   2   0   057755.99  331.51   1-0.62167 0.62181 0.08706 0.08607 0.77842-0.77842
  -2   0   056718.12  293.70   1-0.99309 0.99289-0.08542-0.08778-0.08037 0.08037
   2   0   3238938.9  963.15   1-0.39941 0.39969-0.47632 0.65160 0.78331-0.64471
  -2   0  -3234003.9  960.50   1-0.24355 0.24330-0.68481 0.50935 0.68681-0.82544
   2   0   4 1420.70  139.36   1 0.60748-0.60767-0.47903 0.65537 0.63363-0.44856
  -2   0  -4  796.12   87.17   1 0.61090-0.61066-0.65369 0.47729 0.44663-0.63188
   2   0   4  744.69   68.21   1-0.32116 0.32149-0.59122 0.76721 0.73980-0.55500
  -2   0  -4  786.30   69.19   1-0.12195 0.12182-0.80014 0.62359 0.58728-0.77220
   2   0   4  819.86   23.54   1-0.01183 0.01189-0.62950 0.80603 0.77690-0.59175
   2   0   5 1763.16  189.16   1 0.61221-0.61235-0.52841 0.70546 0.58818-0.35684
  -2   0  -5 1732.53  202.66   1 0.60078-0.60062-0.71286 0.53578 0.36177-0.59344
   2   0   5 1613.76   95.71   1-0.25679 0.25714-0.66994 0.84685 0.69658-0.46552
  -2   0  -5 1217.44   76.56   1-0.01705 0.01695-0.87347 0.69611 0.48657-0.71772
  -2   0  -5 1359.32   40.85   1-0.98421 0.98388-0.00651-0.17028-0.17683-0.05457
   2   0   5 1207.85   41.26   1-0.49645 0.49679-0.59069 0.76765 0.63608-0.40483
   2   0   6 4016.03  301.96   1 0.61414-0.61443-0.56076 0.73858 0.55530-0.27743
  -2   0  -6 3437.50  136.04   1 0.58733-0.58716-0.75627 0.57847 0.28822-0.56622
   2   0   6 3193.16  132.82   1-0.20751 0.20791-0.72295 0.90059 0.65899-0.38172
  -2   0  -6 2616.52  110.64   1 0.07146-0.07180-0.91695 0.73872 0.39253-0.67016
  -2   0  -6 2945.38   84.28   1-0.97853 0.97816 0.01730-0.19482-0.20536-0.07231
   2   0   6 2974.19   86.88   1-0.64920 0.64986-0.53545 0.71320 0.54020-0.26271
   2   0   7 2111.28  240.46   1 0.61451-0.61482-0.58214 0.76067 0.53242-0.20823
   2   0   7 1558.74  108.73   1-0.17114 0.17158-0.75818 0.93654 0.62918-0.30569
  -2   0  -7 1331.73   85.09   1 0.14413-0.14443-0.94033 0.76128 0.30822-0.63213
  -2   0  -7 1688.25   71.04   1-0.97205 0.97166 0.03928-0.21752-0.23145-0.09250
   2   0   7 1774.65   72.48   1-0.71070 0.71119-0.50470 0.68307 0.49007-0.16616
   2   0   8 3696.84  300.26   1 0.61443-0.61475-0.59568 0.77492 0.51733-0.14683
   2   0   8 4183.75  155.48   1-0.14531 0.14529-0.78054 0.96030 0.60797-0.23813
  -2   0  -8 3721.86  130.61   1 0.20445-0.20430-0.95055 0.77035 0.23377-0.60399
  -2   0  -8 3733.04   99.21   1-0.96461 0.96419 0.06065-0.23961-0.25660-0.11364
   2   0   8 4147.03  107.22   1-0.73663 0.73718-0.48972 0.66880 0.46641-0.09622
   2   0  10  856.92  112.25   1 0.61415-0.61452-0.60715 0.78783 0.50415-0.04102
   2   0  10  391.96   71.24   1-0.11647 0.11637-0.80456 0.98592 0.58232-0.12002
  -2   0 -10  472.66   54.68   1-0.94609 0.94590 0.10402-0.28439-0.30671-0.15614
   2   0  10  620.29   69.57   1-0.74738 0.74803-0.48310 0.66362 0.45609 0.00663
   2   0  1115276.10  527.71   1 0.61414-0.61453-0.60748 0.78887 0.50377 0.00566
   2   0  1114822.40  376.31   1-0.11038 0.11024-0.80939 0.99155 0.57679-0.06826
  -2   0 -1114493.82  333.97   1-0.93533 0.93512 0.12513-0.30623-0.33090-0.17824
   2   0  1113384.28  299.81   1-0.74240 0.74311-0.48620 0.66743 0.46091 0.04809
   2   0  12 4084.07  393.27   1 0.61421-0.61462-0.60517 0.78727 0.50645 0.04929
   2   0  12 3645.22  206.22   1-0.10839 0.10821-0.81095 0.99392 0.57497-0.02021
  -2   0 -12 3635.97  170.69   1-0.92332 0.92310 0.14637-0.32819-0.35501-0.20041
   2   0  12 3262.37  156.35   1-0.73325 0.73401-0.49175 0.67370 0.46958 0.08569
   2   0  13  259.54  101.48   1 0.61433-0.61476-0.60069 0.78350 0.51162 0.09044
   2   0  13  281.19  107.88   1-0.10973 0.10951-0.80991 0.99367 0.57619 0.02479
  -2   0 -13  181.92   52.75   1-0.91002 0.90978 0.16778-0.35032-0.37908-0.22263
   2   0  13  147.06   51.20   1-0.72084 0.72165-0.49900 0.68167 0.48101 0.12054
   2   0  14  345.11  147.75   1 0.61445-0.61490-0.59436 0.77789 0.51882 0.12955
   2   0  14   25.09   62.69   1-0.11381 0.11356-0.80668 0.99124 0.57991 0.06730
  -2   0 -14  207.92   50.25   1-0.89533 0.89507 0.18938-0.37264-0.40312-0.24487
   2   0  15 1805.79  301.38   1 0.61451-0.61498-0.58641 0.77065 0.52771 0.16697
   2   0  15 1214.97  173.38   1-0.12021 0.11991-0.80155 0.98692 0.58571 0.10774
  -2   0 -15 1449.57  117.87   1-0.87916 0.87889 0.21119-0.39518-0.42715-0.26714
   2   0  1616636.33 1218.97   1 0.61448-0.61497-0.57701 0.76197 0.53801 0.20298
   2   0  1619878.62  892.16   1-0.12859 0.12825-0.79470 0.98086 0.59322 0.14645
  -2   0 -1616793.27  730.58   1-0.86064 0.86069 0.23495-0.41939-0.45176-0.28864
   2   0  1711565.62 1547.96   1 0.61430-0.61481-0.56629 0.75196 0.54949 0.23782
   2   0  1713014.01 1435.68   1-0.13869 0.13832-0.78622 0.97319 0.60217 0.18373
  -2   0 -1710341.24 1159.87   1-0.84113 0.84118 0.25724-0.44240-0.47573-0.31094
   2   0  18 2634.90  447.65   1 0.61392-0.61445-0.55432 0.74070 0.56197 0.27165
   2   0  18 3498.67  333.87   1-0.14995 0.15089-0.77725 0.96358 0.61105 0.22075
   2   0  19  273.64  120.88   1 0.61308-0.61251-0.54252 0.72931 0.57428 0.30482
  -2   1  19 7164.07 1238.83   1 0.60858-0.72696-0.67183 0.51185 0.42220 0.45773
  -2  -1  1910653.09 1284.79   1 0.57740-0.45950-0.77911 0.61969 0.24407 0.63626
  -2   1  19 9714.10 1184.88   1 0.14060-0.26007-0.93946 0.78179 0.31246 0.56670
  -2  -1  1910108.85 1226.23   1 0.17690-0.06016-0.94699 0.78932 0.26815 0.61102
   2  -1 -19 8203.90 1260.44   1-0.80371 0.92183 0.29568-0.13613-0.51634-0.36289
   2   1 -19 7854.64  942.97   1-0.94247 0.82420 0.11139 0.04800-0.31518-0.56425
  -2   1  18  205.99   86.70   1 0.60516-0.72352-0.69223 0.53152 0.39318 0.44044
  -2  -1  18  285.29  102.98   1 0.56816-0.45024-0.79633 0.63617 0.20746 0.62654
  -2  -1  18  390.23  165.65   1 0.20732-0.08976-0.95082 0.79275 0.23009 0.60289
  -2   1  18  -24.29  116.04   1 0.16417-0.28360-0.94470 0.78621 0.28387 0.54903
   2  -1 -18  244.31  176.16   1-0.81763 0.93574 0.28196-0.12170-0.50195-0.33099
   2   1 -18  269.07   74.84   1-0.95355 0.83529 0.08792 0.07219-0.28811-0.54503
  -2   1  17  309.46  121.66   1 0.60115-0.71952-0.71130 0.55041 0.36420 0.42347
  -2  -1  17  166.33   94.63   1 0.55769-0.43975-0.81252 0.65163 0.16962 0.61805
  -2   1  17  334.91  208.26   1 0.18754-0.30693-0.94861 0.78930 0.25485 0.53177
  -2  -1  17  239.31  145.11   1 0.23793-0.12034-0.95247 0.79354 0.19022 0.59649
   2  -1 -17  307.52  106.51   1-0.83019 0.94830 0.26901-0.10804-0.48826-0.29841
   2   1 -17   88.53   53.51   1-0.96322 0.84498 0.06449 0.09634-0.26083-0.52603
  -2   1  16  198.58   53.59   1 0.59612-0.71447-0.73026 0.56863 0.33369 0.40765
  -2  -1  16   85.73   68.99   1 0.54661-0.42846-0.82726 0.66554 0.12975 0.61112
  -2   1  16  462.37  194.80   1 0.21091-0.32948-0.95114 0.79136 0.22548 0.51495
  -2  -1  16  361.37  112.49   1 0.26875-0.15114-0.95165 0.79187 0.14875 0.59168
   2  -1 -16  164.85   64.23   1-0.84142 0.95952 0.25691-0.09523-0.47538-0.26501
   2   1 -16  303.01   72.01   1-0.97150 0.85342 0.04096 0.12073-0.23344-0.50704
  -2   1  15  814.52  106.08   1 0.59018-0.70852-0.74858 0.58622 0.30214 0.39286
  -2  -1  15  973.56  127.19   1 0.53328-0.41513-0.84125 0.67880 0.08887 0.60570
  -2   1  15 1150.14  185.44   1 0.23403-0.35257-0.95239 0.79176 0.19537 0.49879
  -2  -1  15  948.50  154.22   1 0.29990-0.18226-0.94812 0.78749 0.10541 0.58874
   2  -1 -15 1008.69  112.12   1-0.85135 0.96944 0.24578-0.08339-0.46345-0.23067
   2   1 -15  949.25  107.58   1-0.97846 0.86041 0.01753 0.14488-0.20564-0.48856
  -2   1  14 6764.60  442.38   1 0.58325-0.70156-0.76634 0.60323 0.26932 0.37934
  -2  -1  14 7344.80  495.16   1 0.51822-0.40008-0.85400 0.69084 0.04605 0.60222
  -2   1  14 7629.54  546.48   1 0.25709-0.37561-0.95226 0.79078 0.16459 0.48328
  -2  -1  14 6745.56  477.65   1 0.33148-0.21382-0.94155 0.78007 0.05987 0.58801
   2  -1 -14 8301.68  798.30   1-0.85997 0.97806 0.23574-0.07264-0.45262-0.19522
   2   1 -14 6372.44  424.28   1-0.98410 0.86607-0.00597 0.16911-0.17748-0.47044
  -2   1  1338396.33 1814.00   1 0.57517-0.69347-0.78357 0.61974 0.23489 0.36744
  -2  -1  1337150.40 1774.13   1 0.50115-0.38302-0.86535 0.70147 0.00094 0.60102
  -2   1  1341904.24 2014.59   1 0.28017-0.39866-0.95068 0.78835 0.13303 0.46857
  -2  -1  1343373.48 2065.74   1 0.36365-0.24548-0.93147 0.76806 0.01079 0.59144
   2  -1 -1340050.35 1902.93   1-0.86725 0.98534 0.22697-0.06315-0.44311-0.15846
   2   1 -1336888.16 1749.24   1-0.98840 0.87040-0.02960 0.19346-0.14891-0.45273
  -2   1  1246647.61 1504.61   1 0.56574-0.68402-0.80035 0.63578 0.19839 0.35761
  -2  -1  1248244.89 1578.65   1 0.48172-0.36360-0.87507 0.71046-0.04685 0.60251
  -2   1  1251970.71 1723.34   1 0.30333-0.42179-0.94756 0.78438 0.10054 0.45478
  -2  -1  1253816.25 1768.77   1 0.39640-0.27825-0.91718 0.75301-0.04035 0.59627
   2  -1 -1250118.16 1630.11   1-0.87334 0.99127 0.21862-0.05416-0.43527-0.12016
   2   1 -1249908.29 1626.34   1-0.99135 0.87337-0.05343 0.21801-0.11984-0.43552
  -2   1  1142842.33  883.89   1 0.55464-0.67290-0.81672 0.65141 0.15917 0.35050
  -2  -1  1142899.94  942.77   1 0.45945-0.34134-0.88279 0.71746-0.09786 0.60722
  -2   1  1142454.25  935.52   1 0.32665-0.44509-0.94276 0.77873 0.06694 0.44210
  -2  -1  1147365.72 1010.33   1 0.42985-0.31170-0.89787 0.73293-0.09508 0.60468
   2  -1 -1147846.69 1008.79   1-0.87770 0.99564 0.21308-0.04789-0.42921-0.07993
   2   1 -1143413.55  915.97   1-0.99290 0.87495-0.07752 0.24282-0.09016-0.41892
  -2   1  10 4157.44  184.09   1 0.54231-0.66034-0.83210 0.66605 0.11620 0.34684
  -2  -1  10 4194.75  232.93   1 0.43411-0.31600-0.88788 0.72200-0.15234 0.61551
  -2   1  10 4788.83  307.71   1 0.35041-0.46855-0.93608 0.77037 0.03086 0.43240
  -2  -1  10 4602.84  259.21   1 0.46397-0.34583-0.87235 0.70664-0.15401 0.61728
   2  -1 -10 4911.79  230.38   1-0.88038 0.99834 0.20961-0.04370-0.42541-0.03744
   2   1 -10 3803.58  197.06   1-0.99299 0.87506-0.10197 0.26799-0.05976-0.40304
  -2   1   9 6313.67  178.92   1 0.52620-0.64424-0.84761 0.68084 0.06833 0.34841
  -2  -1   9 5959.11  233.18   1 0.40413-0.28604-0.88986 0.72325-0.21170 0.62855
   2  -1  -9 5744.35  160.09   1 0.19922-0.08196-0.82241 0.98981-0.53286 0.11638
  -2   1   9 6920.54  296.54   1 0.37437-0.49252-0.92726 0.76078-0.00569 0.42263
  -2  -1   9 6810.52  233.90   1 0.49853-0.38034-0.83894 0.67212-0.21824 0.63527
   2  -1  -9 6893.82  213.36   1-0.88111 0.99908 0.20866-0.04203-0.42437 0.00779
   2   1  -9 5697.21  191.97   1-0.99155 0.87297-0.12693 0.29342-0.02656-0.38964
  -2   1   8 7553.06  186.49   1 0.50590-0.62396-0.86248 0.69500 0.01317 0.35726
  -2  -1   8 7762.47  233.19   1 0.36879-0.25072-0.88745 0.72010-0.27644 0.64697
   2  -1  -8 7205.32  176.05   1 0.18317-0.06528-0.81294 0.98102-0.55278 0.18256
  -2  -1   8 8185.14  186.96   1-0.64612 0.76458 0.41795-0.58574 0.63862-0.26891
  -2   1   8 8386.38  303.14   1 0.39885-0.51702-0.91594 0.74869-0.04427 0.41489
  -2  -1   8 8036.48  244.70   1 0.53334-0.41516-0.79553 0.62798-0.28753 0.65823
   2  -1  -8 8807.41  235.52   1-0.87947 0.99746 0.21079-0.04344-0.42671 0.05642
   2   1  -8 7924.16  224.75   1-0.98829 0.86986-0.15241 0.31964 0.00574-0.37571
  -2   1   7  782.52   77.62   1 0.47917-0.59723-0.87612 0.70792-0.05289 0.37702
  -2  -1   7  993.14  156.04   1 0.32748-0.20880-0.87780 0.70906-0.34958 0.67351
   2  -1  -7  598.50   65.39   1 0.15634-0.03841-0.79582 0.96455-0.58499 0.26105
  -2  -1   7  757.72   70.58   1-0.64759 0.76598 0.37845-0.54690 0.66136-0.33787
  -2   1   7 1248.67  163.67   1 0.42404-0.54222-0.90160 0.73359-0.08538 0.40967
  -2  -1   7  689.74  107.87   1 0.56748-0.44932-0.73912 0.57085-0.36283 0.68719
   2  -1  -7  783.88   92.35   1-0.87482 0.99282 0.21676-0.04868-0.43323 0.10923
   2   1  -7  729.08   98.18   1-0.98310 0.86482-0.17871 0.34668 0.03944-0.36316
  -2   1   6122378.4 2432.77   1 0.44229-0.56036-0.88660 0.71779-0.13533 0.41323
  -2  -1   6124081.2 2505.56   1 0.27669-0.15812-0.86065 0.69123-0.42745 0.70511
   2  -1  -6124422.9 2471.35   1 0.11245 0.00550-0.76480 0.93420-0.63436 0.35670
   2   1  -6119760.8 2410.72   1 0.06302-0.18132-0.72560 0.89499-0.68522 0.40755
   2  -1  -6122050.9 2460.20   1-0.86609 0.98415 0.22838-0.05959-0.44465 0.16700
   2   1  -6113425.1 2289.26   1-0.97566 0.85752-0.20609 0.37480 0.07491-0.35239
  -2  -1   698424.41 1984.76   1-0.85328 0.97150-0.39833 0.22953 0.33650-0.05913
  -2   1   5 1909.61   88.79   1 0.38555-0.50365-0.88917 0.71964-0.24638 0.47796
  -2  -1   5 1839.30  125.88   1 0.21500-0.09652-0.83127 0.66119-0.51259 0.74397
   2  -1  -5 2110.98  100.23   1 0.04059 0.07740-0.70636 0.87641-0.70668 0.47530
   2   1  -5 2378.13  131.37   1 0.02128-0.13958-0.68872 0.85856-0.72471 0.49333
  -2  -1   5 2034.47  228.56   1-0.64440 0.76245 0.25232-0.42208 0.72185-0.49042
  -2   1   5 1701.32  134.93   1 0.47730-0.59550-0.86039 0.69065-0.17863 0.41031
   2  -1  -5 2225.62  123.67   1 0.58922-0.47119-0.69287 0.86266-0.41561 0.18379
  -2  -1   5 2445.36  147.13   1 0.62678-0.50832-0.57101 0.40122-0.53016 0.76198
   2  -1  -5 2706.05  310.81   1-0.85183 0.96988 0.24523-0.07572-0.46286 0.23148
  -2   1   5 2882.78  130.30   1-0.96763 0.84968 0.05236-0.22197-0.24687 0.47828
   2   1  -5 2405.08  133.80   1-0.96546 0.84747-0.23490 0.40435 0.11269-0.34392
  -2  -1   5 2118.52  137.61   1-0.84717 0.96521-0.40672 0.23696 0.34185-0.11048
  -2   1   417346.50  167.25   1 0.29197-0.40973-0.86652 0.69577-0.40481 0.58992
  -2  -1   420583.51  320.94   1 0.13992-0.02170-0.78464 0.61393-0.60394 0.78905
   2  -1  -417269.55  173.29   1-0.07558 0.19350-0.59207 0.76261-0.80233 0.61723
   2   1  -417577.04  206.77   1-0.64383 0.52563 0.45060-0.28014 0.61840-0.80326
  -2  -1   420405.95  330.37   1-0.63367 0.75166 0.15745-0.32789 0.75740-0.57225
  -2   1   418697.86  277.07   1 0.50593-0.62415-0.83065 0.66019-0.23248 0.41782
   2  -1  -418624.49  251.96   1 0.59891-0.48086-0.66798 0.83851-0.44169 0.25623
   2  -1  -421097.73  394.92   1-0.82936 0.94741 0.26989-0.09967-0.48920 0.30409
  -2  -1   419830.34  240.36   1-0.83571 0.95369-0.41721 0.24673 0.35710-0.17200
  -2  -1   3  564.96  115.00   1 0.04956 0.06861-0.71415 0.54279-0.69822 0.83705
  -2   1   3  257.40   63.90   1 0.12235-0.24043-0.77211 0.60075-0.62359 0.76242
   2   1  -3  599.82   93.23   1-0.10629-0.01197-0.55793 0.72917-0.82305 0.68422
   2  -1  -3  213.36   35.05   1-0.25437 0.37245-0.36670 0.53789-0.89488 0.75627
   2   1  -3  812.35   99.51   1-0.64746 0.52952 0.30354-0.13243 0.69903-0.83789
  -2  -1   3  688.63   81.42   1-0.61096 0.72902 0.03742-0.20867 0.79077-0.65190
  -2   1   3  327.83  135.99   1 0.53616-0.65439-0.79145 0.62026-0.29346 0.43247
   2  -1  -3  214.48   52.21   1 0.61193-0.49387-0.62872 0.79999-0.47982 0.34073
   2  -1  -3  595.40   92.95   1-0.79445 0.91250 0.30446-0.13353-0.52548 0.38666
  -2   1   3  276.89   49.30   1-0.91809 0.80003 0.15504-0.32601-0.36478 0.50364
   2   1  -3  658.26   89.81   1-0.93330 0.81559-0.29946 0.47046 0.19817-0.33685
  -2  -1   3  673.50   79.40   1-0.81559 0.93352-0.43435 0.26315 0.38228-0.24346
  -2  -1   2  295.44  102.02   1-0.05537 0.17362-0.61361 0.44167-0.78766 0.88021
   2   1  -2  545.09  145.64   1-0.19365 0.07557-0.45020 0.62212-0.87167 0.77926
  -2   1   2  393.99   59.91   1-0.15053 0.03250-0.50484 0.33292-0.84998 0.94239
   2  -1  -2  416.43   52.97   1-0.45717 0.57525-0.01338 0.18521-0.88927 0.79673
   2   1  -2  336.28   50.55   1-0.62968 0.51180 0.13174 0.04004 0.76559-0.85817
  -2  -1   2  575.63   62.65   1-0.57167 0.68967-0.10560-0.06628 0.81365-0.72107
  -2   1   2  388.74  117.22   1 0.56790-0.68614-0.73831 0.56639-0.36382 0.45650
   2  -1  -2  448.17  105.27   1 0.62766-0.50957-0.56696 0.73896-0.53347 0.44074
   2  -1  -2  676.29   95.94   1-0.74021 0.85825 0.35129-0.17965-0.57329 0.48074
  -2   1   2  482.59   61.57   1-0.87488 0.75681 0.21669-0.38838-0.43316 0.52573
   2   1  -2  310.47   59.47   1-0.90815 0.79061-0.33649 0.50823 0.24905-0.34150
  -2  -1   2  401.15   64.63   1-0.78143 0.89931-0.46035 0.28844 0.42121-0.32867
  -2   1   1  851.78   72.75   1 0.58022-0.69803-0.32818 0.15514 0.74540-0.69905
  -2  -1   1  918.38  119.23   1-0.17056 0.28868-0.47992 0.30728-0.86056 0.90677
   2   1  -1 1015.25  110.57   1-0.29267 0.17445-0.30988 0.48251-0.90460 0.85833
  -2   1   1  791.90   68.95   1-0.42167 0.30359-0.08637-0.08618-0.90262 0.94889
  -2   1   1  640.09   54.39   1-0.64211 0.52418 0.46883-0.64130 0.60653-0.56031
   2   1  -1 1177.01  141.25   1-0.58784 0.46990-0.05250 0.22502 0.80726-0.85355
  -2  -1   1 1048.10   71.31   1-0.51110 0.62902-0.26285 0.09031 0.81833-0.77212
  -2   1   1  690.01  102.36   1 0.60058-0.71868-0.66336 0.49062-0.44636 0.49272
   2  -1  -1 1097.66   97.08   1-0.65549 0.77356 0.41208-0.23975-0.63286 0.58660
  -2   1   1  817.62  121.80   1-0.81234 0.69430 0.28726-0.45961-0.50752 0.55380
   2   1  -1 1055.08   83.00   1-0.87258 0.75521-0.37876 0.55123 0.30844-0.35467
  -2  -1   1  838.64   74.82   1-0.72298 0.84080-0.49777 0.32514 0.47907-0.43280
  -2   1   0135424.4  568.60   1 0.61314-0.73115-0.54380 0.37024 0.57299-0.57299
   2   1   0129651.2  659.59   1-0.39301 0.27480-0.14106 0.31439-0.90864 0.90864
   2   1   0129729.0  615.78   1-0.52477 0.40691-0.23043 0.40362 0.81945-0.81945
  -2  -1   0129308.5  577.93   1-0.61998 0.73787-0.54801 0.37450 0.56150-0.56150
   2   1   1565464.0 2111.75   1-0.48096 0.36279 0.03958 0.13444-0.87584 0.92211
  -2  -1  -1652289.812768.72   1-0.34109 0.45895-0.56406 0.39018 0.75199-0.79819
  -2  -1  -2635617.812445.50   1 0.54655-0.42795-0.21112 0.03595 0.81037-0.90308
  -2   1  -2603365.5 2212.76   1 0.59601-0.71405-0.73065 0.55578 0.33304-0.42571
  -2  -1  -2612438.011999.52   1-0.46466 0.58283 0.00291-0.17766-0.88548 0.79293
  -2   1  -2609413.6 2162.82   1-0.52481 0.40662-0.23033 0.05584 0.81945-0.91188
  -2  -1  -2602369.1 2238.32   1-0.24618 0.36403-0.68190 0.50716 0.68876-0.78119
  -2  -1  -3140583.2  671.79   1 0.58669-0.46803-0.35975 0.18410 0.72551-0.86431
   2   1   3141741.8  698.46   1-0.31010 0.19235-0.60573 0.78101 0.73274-0.59414
  -2   1  -3134337.2  567.77   1-0.35542 0.23712-0.54367 0.36839 0.76031-0.89891
   2   1   3136249.4  540.76   1-0.37539 0.25760-0.61670 0.79223 0.69192-0.55317
  -2   1  -3139024.9  622.04   1-0.20402 0.08567-0.63418 0.45841 0.74577-0.88460
   2  -1   3137588.6  595.72   1 0.23617-0.11794-0.58759 0.76340 0.77392-0.63505
   2   1   4  438.46   65.39   1 0.55521-0.67378-0.23836 0.41496 0.79681-0.61140
  -2  -1  -4  681.78   84.49   1 0.60763-0.48903-0.48031 0.30397 0.63251-0.81758
   2  -1   4  726.61   93.46   1 0.61095-0.49304-0.65321 0.82961 0.44725-0.26200
  -2   1  -4  333.15   43.59   1 0.56381-0.68182-0.80343 0.62710 0.19131-0.37664
   2  -1   4  301.74   34.62   1-0.49438 0.61268-0.30021 0.47601 0.81575-0.63089
   2   1   4  574.64   81.56   1-0.25364 0.13588-0.67353 0.84971 0.69427-0.50942
  -2   1  -4  217.21   32.54   1-0.16072 0.04237-0.76768 0.59150 0.62034-0.80518
  -2  -1  -4  433.41   62.44   1-0.07149 0.18950-0.83836 0.66181 0.54040-0.72532
   2   1   4  356.32   39.44   1-0.71232 0.59432 0.37278-0.19687-0.59465 0.77975
  -2   1  -4  232.19   47.68   1-0.46388 0.34574-0.59898 0.42273 0.65270-0.83770
   2   1   4  490.21   43.05   1-0.07503-0.04273-0.63342 0.80986 0.77015-0.58505
   2  -1   4  300.71   43.49   1 0.04446 0.07380-0.62350 0.80003 0.78055-0.59539
   2   1   5 1248.40  134.15   1 0.57749-0.69606-0.31729 0.49461 0.75220-0.52043
  -2  -1  -5 1266.44  149.40   1 0.61446-0.49604-0.57499 0.39788 0.54020-0.77176
   2  -1   5 1480.80  145.07   1 0.60827-0.49038-0.67393 0.85104 0.41929-0.18773
  -2   1  -5  821.50   72.65   1 0.54818-0.66617-0.82493 0.64785 0.13777-0.36944
   2  -1   5  905.78   58.05   1-0.39875 0.51716-0.47739 0.65409 0.78299-0.55199
   2   1   5 1087.31   90.53   1-0.20850 0.09079-0.72195 0.89886 0.65977-0.42871
  -2   1  -5  693.90   48.90   1 0.00555-0.12379-0.88620 0.70885 0.46325-0.69440
  -2  -1  -5  846.63   78.21   1 0.00262 0.11543-0.88461 0.70726 0.46631-0.69746
   2   1   5  852.52   45.05   1-0.91050 0.79257 0.16704 0.00970-0.37826 0.60969
  -2   1  -5  763.29   65.19   1-0.66162 0.54320-0.52973 0.35269 0.53068-0.76192
   2  -1   5  753.01   54.61   1-0.12256 0.24117-0.63498 0.81208 0.76274-0.53136
   2   1   5 1044.06   62.64   1 0.21208-0.33017-0.59346 0.77070 0.77641-0.54497
   2   1   6  104.04   26.87   1 0.59031-0.70881-0.37646 0.55420 0.71400-0.43639
  -2  -1  -6  104.42   48.25   1 0.61151-0.49307-0.64790 0.47008 0.45417-0.73205
   2  -1   6  -70.68   60.23   1 0.60633-0.48847-0.68581 0.86363 0.40250-0.12463
  -2   1  -6  277.84   63.56   1 0.53356-0.65175-0.84099 0.66343 0.08969-0.36752
   2  -1   6  329.88   54.00   1-0.31783 0.43631-0.59562 0.77302 0.73770-0.46049
   2   1   6  251.86   86.13   1-0.17352 0.05585-0.75597 0.93361 0.63118-0.35391
  -2   1  -6  202.05   41.59   1 0.13058-0.24902-0.93685 0.75862 0.32442-0.60205
  -2  -1  -6  201.20   76.85   1 0.06844 0.04931-0.91574 0.73751 0.39589-0.67353
  -2  -1  -6  193.60   36.95   1-0.41486 0.53265 0.53313-0.71060-0.73733 0.45969
   2   1   6  189.33   40.49   1-0.97880 0.86129 0.01627 0.16124-0.20414 0.48183
  -2   1  -6  134.97   47.24   1-0.79506 0.67672-0.45040 0.27275 0.40621-0.68385
   2  -1   6  252.64   36.74   1-0.25409 0.37246-0.63082 0.80849 0.73314-0.45563
   2   1   7 1167.58  151.68   1 0.59857-0.71702-0.41920 0.59764 0.68262-0.35874
  -2  -1  -7  846.82  133.08   1 0.60268-0.48422-0.70428 0.52574 0.37517-0.69936
   2  -1   7  960.46  144.95   1 0.60522-0.48738-0.69188 0.87041 0.39369-0.06950
   2  -1   7  728.67   55.86   1-0.25628 0.37477-0.67053 0.84889 0.69620-0.37272
   2   1   7 1044.96  110.11   1-0.14719 0.02957-0.77966 0.95802 0.60865-0.28517
  -2  -1  -7  451.64   67.54   1 0.12582-0.00801-0.93554 0.75648 0.33004-0.65395
  -2   1  -7  571.59   57.72   1 0.22001-0.33798-0.95179 0.77245 0.21372-0.53766
  -2  -1  -7  891.54  101.64   1-0.54050 0.65866 0.47781-0.65589-0.69249 0.36872
   2   1   7  858.95   50.36   1-0.99308 0.87560-0.08480 0.26304-0.08114 0.40510
  -2   1  -7  600.19   57.08   1-0.88093 0.76166-0.36963 0.19130 0.29549-0.61908
   2  -1   7  936.01   65.81   1-0.34845 0.46692-0.62080 0.79919 0.70227-0.37851
   2   1   8  750.24   82.46   1 0.60356-0.72196-0.44998 0.62912 0.65819-0.28804
   2  -1   8  536.45   85.02   1 0.60483-0.48701-0.69391 0.87316 0.39070-0.02020
   2  -1   8  340.05   46.86   1-0.21267 0.33121-0.71769 0.89678 0.66308-0.29338
   2   1   8  775.63  105.18   1-0.12823 0.01006-0.79499 0.97475 0.59290-0.22306
  -2   1  -8  332.46   74.32   1 0.28737-0.40532-0.94988 0.76968 0.12302-0.49324
  -2  -1  -8  540.50   74.80   1-0.61755 0.73574 0.43564-0.61444-0.65486 0.28483
   2   1   8  436.39   40.49   1-0.98726 0.87120-0.15852 0.33759 0.01354 0.35642
  -2   1  -8  376.49   53.31   1-0.93289 0.81345-0.30012 0.12105 0.19907-0.56888
   2  -1   8  333.22   54.11   1-0.41494 0.53352-0.60961 0.78871 0.67541-0.30541
   2   1   913596.01  379.20   1 0.60657-0.72492-0.47171 0.65154 0.63996-0.22354
   2  -1   914117.64  412.24   1 0.60502-0.48721-0.69297 0.87293 0.39209 0.02471
   2   1   913100.87  271.91   1-0.11500-0.00321-0.80574 0.98630 0.58099-0.16492
  -2   1  -911432.24  207.55   1 0.33961-0.45754-0.93934 0.75829 0.04787-0.46437
  -2  -1  -911636.70  295.78   1-0.66406 0.78228 0.40647-0.58600-0.62752 0.21125
   2   1   912533.72  174.93   1-0.97340 0.85749-0.21310 0.39290 0.08406 0.33214
   2  -1   912141.14  188.91   1-0.46060 0.57929-0.59976 0.77957 0.65431-0.23805
   2   1  10  622.05   94.67   1 0.60836-0.72666-0.48651 0.66704 0.62705-0.16436
   2  -1  10  873.45  112.38   1 0.60563-0.48784-0.68973 0.87040 0.39683 0.06629
   2  -1  10  621.38   72.30   1-0.16323 0.28186-0.76542 0.94595 0.62247-0.16035
   2   1  10  375.35   93.78   1-0.10656-0.01168-0.81239 0.99375 0.57329-0.11098
  -2   1 -10  677.14   68.64   1 0.38291-0.50129-0.92358 0.74252-0.01901-0.44425
  -2  -1 -10  513.51   59.93   1-0.69166 0.80991 0.38762-0.56786-0.60938 0.14685
  -2   1 -10  610.31   64.17   1-0.98252 0.86307-0.18117 0.00063 0.04261-0.50507
   2   1  10  326.91   49.66   1-0.95532 0.83983-0.25858 0.43912 0.14312 0.31914
   2  -1  10  873.78   93.26   1-0.49277 0.61175-0.59051 0.77107 0.63912-0.17663
   2   1  11 2772.98  336.44   1 0.60938-0.72763-0.49591 0.67713 0.61864-0.10968
   2  -1  11 2642.76  281.70   1 0.60654-0.48877-0.68464 0.86603 0.40418 0.10525
   2  -1  11 2363.92  124.48   1-0.15147 0.27015-0.77592 0.95717 0.61237-0.10404
   2   1  11 2875.17  174.14   1-0.10207-0.01621-0.81586 0.99802 0.56915-0.06062
  -2   1 -11 1975.53  122.65   1 0.41774-0.53612-0.90546 0.72363-0.07495-0.43464
  -2  -1 -11 2512.17  248.84   1-0.70697 0.82525 0.37660-0.55757-0.59863 0.08984
  -2   1 -11 2804.56  125.19   1-0.99110 0.87150-0.13145-0.04982-0.02085-0.48785
   2   1  11 2398.48  102.09   1-0.93570 0.82038-0.29547 0.47673 0.19274 0.31574
   2  -1  11 2633.59  124.07   1-0.51171 0.63080-0.58530 0.76657 0.62894-0.12021
   2   1  12 1233.28  140.54   1 0.60990-0.72810-0.50102 0.68294 0.61399-0.05877
   2  -1  12 1058.31  146.68   1 0.60764-0.48990-0.67801 0.86011 0.41360 0.14214
   2  -1  12  948.14   94.79   1-0.14579 0.26376-0.78013 0.96309 0.60838-0.05362
   2   1  12  954.73  133.00   1-0.10086-0.01746-0.81679 0.99975 0.56803-0.01327
  -2  -1 -12 1062.01  147.42   1-0.71435 0.83239 0.37127-0.55288-0.59316 0.03786
  -2   1 -12  956.77   85.22   1-0.99309 0.87470-0.08539-0.09644-0.08041-0.47495
   2   1  12  925.23   78.70   1-0.91464 0.79949-0.32764 0.50963 0.23679 0.31792
   2   1  13  456.05  137.62   1 0.61006-0.72821-0.50264 0.68526 0.61250-0.01101
   2  -1  13  463.55  114.19   1 0.60884-0.49112-0.67002 0.85284 0.42469 0.17736
   2  -1  13  439.44  111.00   1-0.14464 0.26258-0.78112 0.96488 0.60738-0.00639
   2   1  13  307.53   79.95   1-0.10240-0.01596-0.81561 0.99937 0.56946 0.03152
  -2  -1 -13  210.73   69.08   1-0.71502 0.83307 0.37077-0.55309-0.59267-0.00890
  -2   1 -13  346.56   65.86   1-0.99028 0.87187-0.04341-0.13913-0.13209-0.46955
   2   1  13  227.26   53.80   1-0.89233 0.77735-0.35645 0.53918 0.27690 0.32404
   2   1  14 1689.60  228.16   1 0.60993-0.72803-0.50137 0.68469 0.61367 0.03408
   2  -1  14 1674.90  280.02   1 0.61006-0.49236-0.66084 0.84437 0.43715 0.21122
   2  -1  14 1683.85  150.56   1-0.14718 0.26507-0.77892 0.96349 0.60959 0.03762
   2   1  14 1605.70  166.66   1-0.10628-0.01212-0.81260 0.99717 0.57303 0.07418
  -2  -1 -14 1585.61  235.39   1-0.71090 0.82896 0.37384-0.55686-0.59569-0.05216
  -2   1 -14 1464.91  118.39   1-0.98370 0.86526-0.00411-0.17916-0.17972-0.46820
   2   1  15 1911.63  233.25   1 0.60956-0.72761-0.49765 0.68165 0.61706 0.07695
   2  -1  15 1805.08  220.11   1 0.61124-0.49355-0.65055 0.83479 0.45073 0.24395
   2  -1  15 1874.80  148.17   1-0.15253 0.27139-0.77498 0.95914 0.61329 0.07988
   2   1  15 2345.80  175.94   1-0.11218-0.00626-0.80797 0.99334 0.57843 0.11501
  -2  -1 -15 1412.55  219.41   1-0.70239 0.82079 0.37994-0.56378-0.60190-0.09189
  -2   1 -15 1665.58  108.06   1-0.97398 0.85552 0.03311-0.21710-0.22416-0.47005
   2   1  16 1079.46  178.59   1 0.60894-0.72694-0.49178 0.67649 0.62235 0.11794
   2  -1  16 1293.95  187.71   1 0.61230-0.49464-0.63923 0.82418 0.46525 0.27575
   2  -1  16 1711.97  168.30   1-0.16055 0.27945-0.76784 0.95273 0.62018 0.11920
   2   1  16 1510.57  170.24   1-0.11984 0.00135-0.80185 0.98802 0.58537 0.15430
  -2  -1 -16  823.84  138.49   1-0.69094 0.80936 0.38813-0.57269-0.60988-0.13016
  -2   1 -16  902.76   86.08   1-0.96134 0.84301 0.06931-0.25402-0.26646-0.47411
   2   1  17  284.04  102.46   1 0.60807-0.72602-0.48403 0.66943 0.62924 0.15731
   2  -1  17  431.20  164.85   1 0.61321-0.49557-0.62692 0.81259 0.48055 0.30676
   2  -1  17  332.28  127.86   1-0.17069 0.28964-0.75859 0.94420 0.62880 0.15679
   2   1  17  585.94  139.95   1-0.12905 0.01053-0.79431 0.98128 0.59363 0.19227
  -2  -1 -17  222.04   69.07   1-0.67636 0.79481 0.39822-0.58351-0.61963-0.16666
  -2   1 -17  421.48  102.04   1-0.94627 0.82793 0.10366-0.28909-0.30629-0.48057
   2   1  18  125.27   78.62   1 0.60693-0.72482-0.47456 0.66066 0.63751 0.19532
   2  -1  18  150.57   97.82   1 0.61391-0.49629-0.61365 0.80003 0.49652 0.33710
   2   1  18  317.06  158.93   1-0.13966 0.02110-0.78540 0.97317 0.60302 0.22911
   2  -1  18  185.75  104.81   1-0.18269 0.30169-0.74733 0.93367 0.63883 0.19298
   2   1  19   99.21   49.54   1 0.60548-0.72333-0.46350 0.65030 0.64694 0.23215
   2  -1  19  206.99  108.12   1 0.61436-0.49676-0.59943 0.78652 0.51306 0.36687
   2   1  19  331.43  169.43   1-0.15103 0.03395-0.77630 0.96336 0.61199 0.26603
  -2   2  18   75.36   74.95   1 0.61451-0.85102-0.58702 0.42632 0.52704 0.30658
  -2   2  18  416.31  212.07   1 0.13061-0.36814-0.93686 0.77837 0.32437 0.50852
  -2  -2  18   20.45   68.50   1 0.21174 0.02391-0.95121 0.79313 0.22441 0.60857
   2  -2 -18   64.15   56.82   1-0.71120 0.94778 0.37348-0.21338-0.59555-0.23699
   2   2 -18  155.04   62.61   1-0.98241 0.74640 0.00171 0.15854-0.18672-0.64632
  -2   2  17  177.46   80.55   1 0.61420-0.85070-0.60550 0.44408 0.50608 0.28123
  -2  -2  17  579.47  118.34   1 0.54116-0.30493-0.83333 0.67232 0.11266 0.67452
  -2   2  17  630.54  232.98   1 0.15087-0.38836-0.94190 0.78259 0.30009 0.48654
   2  -2 -17  374.10  127.63   1-0.72225 0.95837 0.36531-0.20434-0.58727-0.19940
   2   2 -17  116.39   60.81   1-0.98772 0.75174-0.02527 0.18626-0.15416-0.63260
  -2   2  16  276.57   79.78   1 0.61345-0.84992-0.62290 0.46077 0.48545 0.25555
  -2  -2  16  393.41  136.51   1 0.52774-0.29152-0.84628 0.68455 0.07275 0.66813
  -2   2  16  475.87  226.18   1 0.17077-0.40822-0.94593 0.78580 0.27574 0.46461
  -2  -2  16  555.59  180.90   1 0.28237-0.04666-0.95045 0.79067 0.12998 0.61044
   2  -2 -16  185.94   77.18   1-0.73120 0.96731 0.35841-0.19673-0.58041-0.15999
   2   2 -16  356.49  105.68   1-0.99125 0.75530-0.05241 0.21412-0.12108-0.61940
  -2   2  15 1175.82  232.00   1 0.61230-0.84875-0.63924 0.47640 0.46523 0.22945
  -2  -2  15 1348.30  161.78   1 0.51281-0.27660-0.85792 0.69547 0.03140 0.66317
  -2   2  15 1782.91  261.09   1 0.19033-0.42774-0.94899 0.78804 0.25134 0.44274
  -2  -2  15 1785.39  190.30   1 0.31837-0.08264-0.94466 0.78403 0.07897 0.61518
   2  -2 -15 1530.68  215.31   1-0.73831 0.97442 0.35281-0.19042-0.57481-0.11931
   2   2 -15 1490.84  133.76   1-0.99297 0.75704-0.07976 0.24218-0.08739-0.60681
  -2   2  14 5053.80  513.65   1 0.61081-0.84724-0.65451 0.49095 0.44555 0.20282
  -2  -2  14 5023.73  390.22   1 0.49619-0.25998-0.86813 0.70497-0.01159 0.65986
  -2   2  14 5947.54  478.07   1 0.20984-0.44645-0.95105 0.78957 0.22686 0.42101
  -2  -2  14 6793.49  495.77   1 0.35493-0.11861-0.93458 0.77194 0.02404 0.62452
   2  -2 -14 6185.98  672.94   1-0.74348 0.97959 0.34867-0.18557-0.57065-0.07719
   2   2 -14 4885.14  353.81   1-0.99290 0.75597-0.10734 0.27013-0.05117-0.59626
  -2   2  13  422.79   73.92   1 0.60903-0.84545-0.66866 0.50439 0.42656 0.17549
  -2  -2  13  477.18  118.88   1 0.47764-0.24145-0.87673 0.71285-0.05647 0.65844
  -2   2  13  634.90  225.89   1 0.22879-0.46537-0.95223 0.78990 0.20225 0.39934
  -2  -2  13  657.51  182.20   1 0.39220-0.15589-0.91926 0.75585-0.03365 0.63590
   2  -2 -13  466.08   83.26   1-0.74656 0.98266 0.34618-0.18237-0.56815-0.03342
   2   2 -13  344.77   92.20   1-0.99068 0.75389-0.13523 0.29876-0.01607-0.58512
  -2  -2  1238186.81 1218.23   1 0.45689-0.22070-0.88347 0.71887-0.10350 0.65917
  -2   2  1241496.25 1324.75   1 0.24745-0.48401-0.95249 0.78931 0.17755 0.37777
  -2  -2  1242924.85 1328.44   1 0.43009-0.19380-0.89771 0.73354-0.09550 0.65142
   2  -2 -1240265.31 1278.32   1-0.74729 0.98339 0.34558-0.18105-0.56755 0.01224
   2   2 -1233458.70 1040.72   1-0.98633 0.74970-0.16352 0.32779 0.01993-0.57488
  -2   2  1137907.60 1441.15   1 0.60497-0.84134-0.69322 0.52752 0.39172 0.11771
  -2  -2  1140415.83 1348.88   1 0.43393-0.19775-0.88790 0.72275-0.15271 0.66220
   2  -2 -1134365.46 1104.14   1 0.21969 0.01544-0.83380 0.99987-0.50645-0.00258
  -2   2  1144637.99 1504.88   1 0.26584-0.50238-0.95184 0.78780 0.15272 0.35632
  -2  -2  1144162.88 1456.76   1 0.46846-0.23218-0.86849 0.70355-0.16205 0.67164
   2  -2 -1140921.16 1357.43   1-0.74538 0.98147 0.34713-0.18190-0.56911 0.06008
   2   2 -1137399.12 1240.31   1-0.97968 0.74319-0.19228 0.35729 0.05697-0.56568
  -2   2  10 6032.88  469.06   1 0.60291-0.83926-0.70322 0.53681 0.37677 0.08634
  -2  -2  10 5364.12  260.28   1 0.40762-0.17146-0.88983 0.72395-0.20502 0.66819
   2  -2 -10 4805.42  164.40   1 0.21617 0.01905-0.83191 0.99865-0.51106 0.04830
  -2   2  10 5850.51  307.05   1 0.28398-0.52048-0.95028 0.78539 0.12775 0.33502
  -2  -2  10 5850.59  237.43   1 0.50680-0.27042-0.82964 0.66356-0.23416 0.69753
   2  -2 -10 6405.29  501.65   1-0.74038 0.97647 0.35116-0.18521-0.57315 0.11040
   2   2 -10 6270.54  259.79   1-0.97047 0.73413-0.22161 0.38736 0.09520-0.55766
  -2   2   9  310.64   53.98   1 0.60137-0.83776-0.71039 0.54361 0.36563 0.05137
  -2  -2   9  566.76  163.35   1 0.37775-0.14162-0.88850 0.72188-0.26050 0.67736
   2  -2  -9  101.30   60.00   1 0.20614 0.02918-0.82636 0.99377-0.52404 0.10756
  -2  -2   9   66.83   20.72   1-0.63800 0.87417 0.18938-0.35643 0.74638-0.32980
  -2   2   9  510.16  179.14   1 0.30188-0.53836-0.94780 0.78207 0.10260 0.31388
  -2  -2   9  213.14  123.16   1 0.54455-0.30818-0.77881 0.61199-0.31130 0.72833
   2  -2  -9  286.57   67.57   1-0.73171 0.96780 0.35801-0.19135-0.58001 0.16353
   2   2  -9  275.56  109.15   1-0.95839 0.72220-0.25159 0.41808 0.13480-0.55101
  -2   2   8  776.28   70.46   1 0.60020-0.83656-0.71522 0.54771 0.35805 0.01261
  -2  -2   8  518.80  120.09   1 0.34366-0.10755-0.88306 0.71572-0.31951 0.69005
   2  -2  -8  667.52   66.80   1 0.18544 0.05057-0.81433 0.98240-0.54997 0.17976
  -2  -2   8  363.66   77.06   1-0.63080 0.86692 0.13865-0.30637 0.76345-0.39316
  -2   2   8  760.66  149.60   1 0.31956-0.55602-0.94440 0.77782 0.07725 0.29296
  -2  -2   8  715.94  129.35   1 0.58063-0.34388-0.71263 0.54505-0.39372 0.76463
   2  -2  -8  762.20  113.52   1-0.71858 0.95466 0.36810-0.20072-0.59003 0.21982
   2   2  -8  505.33   92.85   1-0.94283 0.70664-0.28303 0.45037 0.17591-0.54572
  -2   2   7  920.70   60.20   1 0.60026-0.83661-0.71497 0.54672 0.35845-0.03411
  -2  -2   7 1156.29  164.58   1 0.30531-0.06857-0.87116 0.70242-0.38451 0.70844
   2  -2  -7  900.27   71.42   1 0.14673 0.08932-0.78934 0.95808-0.59615 0.27221
  -2  -2   7  779.67  104.55   1-0.61888 0.85514 0.07423-0.24293 0.78196-0.45794
  -2   2   7  834.06  141.08   1 0.33706-0.57349-0.94006 0.77262 0.05164 0.27229
  -2  -2   7  872.10  123.19   1 0.61202-0.37528-0.62843 0.46012-0.48009 0.80464
   2  -2  -7 1152.04  146.21   1-0.69955 0.93580 0.38199-0.21398-0.60390 0.28013
   2   2  -7 1087.42  115.93   1-0.92366 0.68764-0.31457 0.48264 0.21881-0.54240
  -2   2   637739.73  484.54   1 0.60280-0.83913-0.70414 0.53515 0.37524-0.09724
   2  -2  -639847.66  470.22   1 0.07121 0.16488-0.73239 0.90179-0.67714 0.39947
  -2  -2   642197.08  579.22   1-0.60089 0.83709-0.00435-0.16498 0.79931-0.52158
  -2   2   641099.84  626.15   1 0.35457-0.59090-0.93470 0.76592 0.02459 0.25336
   2  -2  -640517.05  586.86   1-0.67398 0.91021 0.39984-0.23110-0.62118 0.34366
   2   2  -637132.73  541.25   1-0.89998 0.66413-0.34705 0.51586 0.26375-0.54111
  -2   2   5  389.72   30.43   1 0.60976-0.84601-0.66323 0.49325 0.43394-0.20238
  -2  -2   5  494.44  108.75   1 0.20798 0.02856-0.82739 0.65731-0.52169 0.75307
   2  -2  -5  206.45   42.72   1-0.09193 0.32794-0.57410 0.74395-0.81360 0.58222
   2   2  -5  556.71   50.41   1-0.64717 0.41093 0.39410-0.22430 0.65257-0.88363
  -2  -2   5  595.00   65.23   1-0.57423 0.81038-0.09758-0.07239 0.81285-0.58140
  -2   2   5  368.64  165.83   1 0.37179-0.60813-0.92831 0.75876-0.00170 0.23333
   2  -2  -5  395.11   70.41   1 0.54507-0.30869-0.77799 0.94772-0.31243 0.08075
   2  -2  -5  317.93   95.36   1-0.63968 0.87588 0.42214-0.25269-0.64233 0.41106
   2   2  -5  482.26   87.82   1-0.87089 0.63520-0.38055 0.55009 0.31099-0.54213
  -2  -2   4150703.1 1739.45   1 0.14772 0.08862-0.79001 0.61931-0.59502 0.78012
   2   2  -4140269.0 2786.91   1-0.64382 0.40792 0.24524-0.07481 0.72480-0.90994
  -2  -2   4150930.3 1656.70   1-0.53602 0.77207-0.20230 0.03173 0.81960-0.63474
  -2   2   4156517.4 1791.97   1 0.38897-0.62532-0.92080 0.75049-0.02854 0.21384
   2  -2  -4147502.7 1661.94   1 0.55108-0.31469-0.76831 0.93877-0.32555 0.14021
   2  -2  -4135519.5 2744.03   1-0.59436 0.83052 0.44908-0.27891-0.66712 0.48211
  -2   2   4155302.6 1745.34   1-0.82967 0.59361 0.26956-0.43978-0.48885 0.67395
   2   2  -4144733.4 1641.42   1-0.83502 0.59914-0.41781 0.58829 0.35798-0.54307
  -2  -2   3  440.19   94.78   1 0.07880 0.15750-0.73859 0.56723-0.66952 0.80835
   2   2  -3  589.55  112.68   1-0.12239-0.11397-0.53934 0.71058-0.83314 0.69431
   2   2  -3  585.02   83.52   1-0.62064 0.38478 0.08180 0.08931 0.77981-0.91867
  -2  -2   3  692.49   57.96   1-0.48690 0.72290-0.31617 0.14494 0.81421-0.67557
  -2   2   3  558.49  105.25   1 0.40620-0.64256-0.91205 0.74097-0.05611 0.19509
   2  -2  -3  583.26   81.68   1 0.56086-0.32446-0.75144 0.92263-0.34750 0.20849
   2  -2  -3 1028.72  145.00   1-0.53526 0.77140 0.48043-0.30953-0.69475 0.55599
  -2   2   3  426.65   85.15   1-0.77441 0.53836 0.32263-0.49356-0.54422 0.68305
   2   2  -3  928.31  111.46   1-0.79138 0.55555-0.45314 0.62433 0.41032-0.54914
  -2  -2   3  556.56   83.22   1-0.55133 0.78743-0.57320 0.40180 0.60618-0.46743
  -2  -2   2 3501.22  181.41   1 0.00163 0.23471-0.67045 0.49851-0.74194 0.83449
   2   2  -2 3323.33  144.26   1-0.18977-0.04635-0.45528 0.62719-0.86988 0.77748
   2   2  -2 3800.49  206.23   1-0.57841 0.34242-0.08422 0.25611 0.81138-0.90396
  -2  -2   2 3846.62  128.37   1-0.42632 0.66238-0.43107 0.25931 0.79524-0.70284
  -2   2   2 3119.35  166.78   1 0.42364-0.66002-0.90185 0.73000-0.08472 0.17737
   2  -2  -2 3219.84  154.11   1 0.57566-0.33933-0.72324 0.89525-0.38147 0.28874
   2  -2  -2 3844.67  165.49   1-0.45931 0.69548 0.51518-0.34358-0.72361 0.63106
  -2   2   2 2621.03  275.29   1-0.70688 0.47078 0.37667-0.54828-0.59869 0.69119
   2   2  -2 4335.98  161.49   1-0.73786 0.50208-0.48897 0.66089 0.46524-0.55779
  -2  -2   2 3890.63  158.26   1-0.48526 0.72125-0.59247 0.42036 0.64302-0.55053
   2  -2  -1  806.87   49.04   1 0.58402-0.34765-0.34807 0.52093 0.73331-0.77958
  -2   2   1  691.82   41.32   1 0.43213-0.66836-0.88814 0.71567-0.15641 0.20273
  -2  -2   1  967.70  124.09   1-0.08285 0.31919-0.58414 0.41151-0.80740 0.85368
   2   2  -1  859.29   89.58   1-0.26583 0.02965-0.35000 0.52265-0.89823 0.85203
   2   2  -1 1024.92   78.35   1-0.52111 0.28522-0.23931 0.41184 0.81925-0.86546
  -2  -2   1 1292.31   77.94   1-0.35807 0.59408-0.53983 0.36737 0.76181-0.71561
  -2   2   1  616.24   78.90   1 0.44153-0.67791-0.88986 0.71724-0.11488 0.16121
   2  -2  -1  707.59   83.61   1 0.59562-0.35928-0.67678 0.84952-0.43265 0.38629
   2  -2  -1 1025.75   92.54   1-0.36398 0.60018 0.55162-0.37929-0.75048 0.70421
  -2   2   1  543.81   88.91   1-0.62674 0.39067 0.43011-0.60244-0.64975 0.69601
   2   2  -1  944.66   91.72   1-0.67247 0.43659-0.52455 0.69736 0.52213-0.56838
  -2  -2   1  896.47   77.59   1-0.39645 0.63258-0.61308 0.44040 0.68333-0.63708
   2  -2   0 2382.37  174.68   1 0.61450-0.37836-0.58874 0.76228 0.52512-0.52512
  -2   2   0 1693.07   62.31   1 0.46471-0.70092-0.88125 0.70801-0.08613 0.08613
  -2  -2   0 1542.27  137.98   1-0.17052 0.40675-0.47997 0.30659-0.86055 0.86055
   2   2   0 1674.01  119.43   1-0.34602 0.10966-0.22402 0.39735-0.91108 0.91108
   2   2   0 1571.61   85.30   1-0.45730 0.22146-0.37556 0.54875 0.80611-0.80611
  -2  -2   0 1862.86   93.37   1-0.28546 0.52145-0.63610 0.46282 0.71685-0.71685
  -2   2   0 1749.86  105.11   1 0.46029-0.69669-0.87542 0.70204-0.14749 0.14749
   2  -2   0 1519.13   82.86   1 0.62051-0.38415-0.59767 0.77115-0.50769 0.50769
  -2   2   0 1355.51  173.55   1-0.53409 0.29804 0.48101-0.65406-0.69524 0.69524
   2   2   0 1761.25  118.92   1-0.59289 0.35713-0.55864 0.73216 0.57998-0.57998
  -2  -2   0 1521.52   94.74   1-0.28017 0.51620-0.62870 0.45530 0.72541-0.72541
  -2   2   0 1666.12  117.26   1 0.24770-0.48401-0.58464 0.41097 0.77254-0.77254
   2  -2   1 4426.30  184.02   1 0.60743-0.37131-0.67929 0.85355 0.41179-0.36548
  -2   2  -1 3567.41   86.76   1 0.47326-0.70947-0.87839 0.70443-0.06666 0.02035
  -2  -2  -1 4041.17  161.88   1-0.25637 0.49266-0.36381 0.18970-0.89549 0.84929
   2   2   1 3788.85  131.98   1-0.42384 0.18754-0.08208 0.25611-0.90200 0.94827
  -2   2  -1 3969.82   80.78   1-0.64327 0.40725 0.45690-0.63071 0.61435-0.66056
   2   2   1 3824.25  119.12   1-0.39274 0.15685-0.48703 0.66090 0.78009-0.73389
  -2   2  -1 3730.06  106.50   1 0.48057-0.71701-0.85730 0.68319-0.18461 0.13827
  -2   2  -1 3352.89   99.05   1-0.43071 0.19446 0.52693-0.70072-0.73268 0.68641
   2   2   1 4629.91  145.70   1-0.49747 0.26182-0.58924 0.76347 0.63663-0.59038
  -2  -2  -1 3753.58  106.57   1-0.13280 0.36909-0.63512 0.46068 0.76090-0.80718
  -2   2  -1 3634.97  128.65   1 0.11256-0.34890-0.61352 0.43914 0.78161-0.82790
   2  -2   2 1588.02   83.47   1 0.59858-0.36239-0.72147 0.89634 0.34808-0.25541
  -2   2  -2 1290.94   72.51   1 0.47398-0.71020-0.87813 0.70345-0.06499-0.02761
  -2  -2  -2 1350.22  115.65   1-0.33492 0.57126-0.24256 0.06782-0.91048 0.81795
   2   2   2 1085.88  101.98   1-0.49215 0.25586 0.06585 0.10890-0.86801 0.96055
  -2   2  -2 1245.39   88.23   1-0.63918 0.40310 0.19917-0.37367 0.74281-0.83538
   2   2   2 1363.03   98.75   1-0.33332 0.09749-0.57480 0.74937 0.74732-0.65492
  -2  -2  -2 1285.92   88.52   1-0.14230 0.37838-0.78314 0.60819 0.60533-0.69779
  -2   2  -2 1154.08   60.90   1 0.50438-0.74084-0.83242 0.65759-0.22947 0.13679
  -2   2  -2 1152.21   71.70   1-0.32102 0.08474 0.56563-0.74016-0.75960 0.66706
   2   2   2 1285.30  103.60   1-0.38703 0.15122-0.61474 0.78957 0.68723-0.59473
  -2   2  -2 1128.03   95.17   1-0.03696-0.19938-0.63113 0.45602 0.77479-0.86734
  -2  -2  -2  869.18   73.03   1 0.04511 0.19130-0.62342 0.44832 0.78058-0.87315
  -2  -2  -359053.26 1203.81   1 0.54584-0.30904-0.20897 0.03308 0.81140-0.95047
   2  -2   357066.02 1167.57   1 0.59227-0.35609-0.74254 0.91814 0.31279-0.17379
  -2   2  -348520.39  998.94   1 0.47099-0.70722-0.87920 0.70380-0.07188-0.06703
  -2  -2  -357851.74 1206.66   1-0.40159 0.63793-0.12505-0.05038-0.90723 0.76844
  -2   2  -347320.36  938.47   1-0.51361 0.27739-0.25703 0.08188 0.81861-0.95726
   2   2   350213.11 1043.76   1-0.28127 0.04541-0.64119 0.81665 0.71396-0.57533
  -2  -2  -357241.06 1178.10   1-0.07671 0.31283-0.83466 0.65891 0.54538-0.68407
   2   2   356317.40 1145.21   1-0.26332 0.02762-0.63012 0.80566 0.73047-0.59172
  -2   2  -351862.94 1074.61   1-0.19210-0.04438-0.63458 0.45880 0.74860-0.88742
   2  -2   357579.70 1181.45   1 0.20990 0.02651-0.59397 0.76978 0.77661-0.63775
  -2  -2  -350282.00 1024.17   1 0.24277-0.00639-0.58591 0.41010 0.77314-0.91201
  -2  -2  -457998.58 1184.38   1 0.58276-0.34597-0.33861 0.16201 0.73873-0.92415
   2  -2   461058.17 1257.89   1 0.58849-0.35233-0.75322 0.92956 0.29379-0.10846
  -2   2  -450390.34 1046.04   1 0.46585-0.70209-0.88090 0.70478-0.08356-0.10165
  -2  -2  -461269.32 1281.78   1-0.45484 0.69112-0.01837-0.15783-0.89038 0.70528
   2   2   449323.08 1034.82   1-0.23769 0.00188-0.69124 0.86742 0.68241-0.49756
  -2  -2  -459149.57 1218.91   1-0.01636 0.25253-0.87387 0.69732 0.48587-0.67079
   2   2   460131.24 1213.03   1-0.43839 0.20248 0.52384-0.34784-0.73033 0.91542
  -2   2  -456873.97 1179.36   1-0.34401 0.10795-0.62142 0.44517 0.70390-0.88891
   2   2   458390.52 1183.93   1-0.13485-0.10105-0.63514 0.81158 0.76052-0.57542
   2  -2   457065.60 1166.70   1 0.10366 0.13280-0.61500 0.79152 0.78168-0.59652
  -2  -2  -522068.76  545.62   1 0.60359-0.36663-0.45020 0.27316 0.65801-0.88935
   2  -2   522396.08  513.48   1 0.58669-0.35054-0.75794 0.93501 0.28515-0.05348
  -2   2  -520333.93  472.65   1 0.45930-0.69555-0.88283 0.70599-0.09820-0.13332
  -2  -2  -521858.76  526.54   1-0.49520 0.73148 0.07318-0.25013-0.86568 0.63432
   2   2   522586.00  528.01   1-0.20224-0.03352-0.72826 0.90517 0.65477-0.42371
  -2   2  -519955.65  400.61   1 0.25784-0.49396-0.95223 0.77459 0.16358-0.39496
   2   2   520976.32  449.18   1-0.61328 0.37717 0.43816-0.26152-0.65718 0.88844
  -2   2  -521310.63  498.34   1-0.48352 0.24723-0.59292 0.41588 0.64392-0.87516
   2   2   522028.58  485.05   1-0.00703-0.22874-0.62867 0.80577 0.77763-0.54626
   2  -2   521012.62  469.28   1 0.00603 0.23070-0.62741 0.80452 0.77865-0.54728
  -2  -2  -6 1793.09  192.75   1 0.61309-0.37618-0.54283 0.36509 0.57396-0.85157
   2  -2   6 1916.46  117.90   1 0.58633-0.35020-0.75884 0.93665 0.28348-0.00547
   2   2   6 2221.38  142.89   1-0.17411-0.06161-0.75542 0.93305 0.63167-0.35440
  -2   2  -6 1464.38   45.62   1 0.41092-0.64739-0.90943 0.73144-0.06378-0.21417
   2   2   6 1592.12  142.71   1-0.75365 0.51762 0.34036-0.16303-0.56227 0.83993
  -2   2  -6 1626.58  119.18   1-0.60339 0.36698-0.55464 0.37689 0.57296-0.85045
   2  -2   6 1621.11   95.67   1-0.07876 0.31563-0.63360 0.81137 0.76963-0.49198
   2   2   6 1606.65  102.71   1 0.10774-0.34400-0.61432 0.79228 0.78165-0.50392
   2   2   7 2414.21  120.56   1 0.54588-0.78265-0.20909 0.38783 0.81134-0.48686
   2  -2   7 3217.99  161.35   1 0.58701-0.35090-0.75710 0.93565 0.28669 0.03763
   2  -2   7 2812.51   63.39   1-0.50594 0.74237-0.27465 0.45241 0.81767-0.49416
   2   2   7 2617.33  150.77   1-0.15236-0.08331-0.77513 0.95349 0.61314-0.28966
  -2   2  -7 2202.22   64.89   1 0.46616-0.70268-0.87038 0.69190-0.15851-0.16583
   2   2   7 2138.72  183.32   1-0.85502 0.61898 0.24155-0.06351-0.45890 0.78282
  -2   2  -7 2354.17  136.10   1-0.70374 0.46745-0.50850 0.33013 0.49614-0.82005
   2  -2   7 1996.13   99.77   1-0.15019 0.38719-0.63520 0.81364 0.75759-0.43366
   2   2   7 2977.64  149.06   1 0.20800-0.44422-0.59441 0.77308 0.77679-0.45277
   2   2   8  255.88   75.29   1 0.56089-0.79765-0.25713 0.43659 0.78694-0.41610
   2  -2   8  299.13   99.45   1 0.58843-0.35233-0.75340 0.93268 0.29348 0.07719
   2  -2   8  238.90   28.90   1-0.41011 0.64672-0.45873 0.63754 0.78827-0.41866
   2   2   8  579.66  137.01   1-0.13633-0.09998-0.78822 0.96798 0.60009-0.23025
  -2   2  -8   97.26   32.99   1 0.49641-0.73294-0.84124 0.66204-0.21419-0.15650
   2   2   8  183.16   34.56   1-0.92305 0.68712 0.14683 0.03208-0.35553 0.72582
  -2   2  -8  190.51   52.31   1-0.78395 0.54760-0.45855 0.27947 0.41849-0.78868
   2  -2   8  186.02   59.91   1-0.20854 0.44567-0.63401 0.81311 0.74467-0.37446
   2   2   9 2685.39  146.09   1 0.57144-0.80819-0.29430 0.47447 0.76604-0.34885
   2  -2   9 2694.86  161.23   1 0.59034-0.35426-0.74814 0.92816 0.30293 0.11406
   2  -2   9 2536.42   97.26   1-0.34058 0.57725-0.56476 0.74427 0.75169-0.33588
   2   2   9 2302.50  162.46   1-0.12471-0.11164-0.79789 0.97845 0.58975-0.17368
  -2   2  -9 2146.37  108.91   1 0.51786-0.75441-0.81626 0.63633-0.25597-0.16106
  -2  -2  -9 2614.41  121.03   1-0.35272 0.58849 0.55543-0.73510-0.75304 0.33659
   2   2   9 2271.70  102.37   1-0.96422 0.72892 0.06168 0.11799-0.25781 0.67434
  -2   2  -9 2627.52  165.12   1-0.84684 0.61044-0.40703 0.22723 0.34230-0.75876
   2   2  10 1454.81  167.84   1 0.57881-0.81555-0.32251 0.50339 0.74896-0.28541
   2  -2  10  861.73  123.67   1 0.59259-0.35653-0.74159 0.92234 0.31444 0.14889
   2  -2  10  820.07   55.63   1-0.29284 0.52953-0.62700 0.80753 0.72187-0.25975
   2   2  10  949.62  118.88   1-0.11699-0.11940-0.80414 0.98550 0.58280-0.12050
  -2   2 -10  800.17   68.31   1 0.53516-0.77171-0.79291 0.61225-0.29134-0.17202
  -2  -2 -10 1017.12   91.21   1-0.40162 0.63736 0.53814-0.71855-0.74100 0.27828
   2   2  10  802.15   75.12   1-0.98541 0.75014-0.01240 0.19280-0.16973 0.63254
  -2   2 -10  626.96   92.90   1-0.89622 0.65880-0.35174 0.17121 0.27030-0.73257
   2   2  1159611.00 1991.51   1 0.58390-0.82063-0.34340 0.52499 0.73561-0.22571
   2  -2  1161593.16 1982.84   1 0.59503-0.35898-0.73391 0.91540 0.32757 0.18210
   2  -2  1157747.27 1802.00   1-0.26204 0.49877-0.66392 0.84518 0.70038-0.19204
   2   2  1164851.27 2083.28   1-0.11260-0.12383-0.80764 0.98981 0.57881-0.07027
  -2   2 -1149245.30 1544.87   1 0.55006-0.78663-0.77000 0.58861-0.32330-0.18640
  -2  -2 -1158019.80 1825.64   1-0.43773 0.67344 0.52411-0.70525-0.73054 0.22154
   2   2  1150885.60 1597.97   1-0.99290 0.75766-0.07758 0.25870-0.09008 0.59917
  -2   2 -1155752.68 1772.61   1-0.93207 0.69448-0.30146 0.12020 0.20090-0.70939
   2   2  12 2904.17  271.52   1 0.58664-0.82325-0.35957 0.54148 0.72563-0.17041
   2  -2  12 3043.75  231.90   1 0.59756-0.36153-0.72523 0.90745 0.34197 0.21402
   2  -2  12 2663.83  157.41   1-0.24297 0.47975-0.68546 0.86744 0.68637-0.13182
   2   2  12 2802.46  225.17   1-0.11104-0.12543-0.80888 0.99184 0.57739-0.02262
  -2  -2 -12 2728.61  140.33   1-0.46329 0.69898 0.51349-0.69536-0.72227 0.16701
  -2   2 -12 2020.18  147.86   1-0.95857 0.72121-0.25121 0.06919 0.13429-0.68924
   2   2  13  483.27   95.86   1 0.58885-0.82540-0.36960 0.55221 0.71878-0.11729
   2  -2  13  570.09  135.39   1 0.60010-0.36409-0.71562 0.89858 0.35742 0.24491
   2  -2  13  535.98   64.84   1-0.23246 0.46928-0.69691 0.87962 0.67843-0.07767
   2   2  13  819.61  147.14   1-0.11192-0.12459-0.80818 0.99194 0.57819 0.02279
  -2  -2 -13  488.32  106.10   1-0.48018 0.71583 0.50614-0.68875-0.71640 0.11487
  -2   2 -13  582.50   81.21   1-0.97624 0.73874-0.20420 0.02144 0.07245-0.67364
   2   2  14 2185.90  245.22   1 0.59010-0.82660-0.37546 0.55877 0.71470-0.06694
   2  -2  14 1918.99  273.62   1 0.60245-0.36659-0.70533 0.88886 0.37356 0.27481
   2  -2  14 1570.26  126.77   1-0.22836 0.46523-0.70130 0.88473 0.67529-0.02832
   2   2  14 1816.77  203.53   1-0.11493-0.12162-0.80579 0.99036 0.58093 0.06628
  -2  -2 -14 1532.49  201.14   1-0.48985 0.72547 0.50181-0.68516-0.71289 0.06509
  -2   2 -14 1354.70  125.79   1-0.98718 0.74953-0.15893-0.02456 0.01406-0.66150
   2   2  15 6580.37  552.09   1 0.59059-0.82704-0.37779 0.56180 0.71306-0.01903
   2  -2  15 7020.05  762.42   1 0.60481-0.36898-0.69402 0.87826 0.39054 0.30414
   2  -2  15 6462.98  312.43   1-0.22922 0.46613-0.70038 0.88454 0.67595 0.01722
   2   2  15 8066.11  427.62   1-0.11980-0.11679-0.80188 0.98725 0.58533 0.10811
  -2  -2 -15 6149.60  499.03   1-0.49341 0.72901 0.50020-0.68427-0.71157 0.01749
  -2   2 -15 6991.46  336.82   1-0.99247 0.75467-0.11528-0.06895-0.04122-0.65246
   2   2  16 3874.02  566.05   1 0.59044-0.82684-0.37708 0.56178 0.71356 0.02672
   2  -2  16 4314.25  657.51   1 0.60701-0.37119-0.68188 0.86683 0.40812 0.33287
   2   2  16 4872.94  585.88   1-0.12632-0.11031-0.79657 0.98274 0.59119 0.14848
  -2  -2 -16 3026.89  422.23   1-0.49167 0.72724 0.50099-0.68580-0.71222-0.02812
  -2   2 -16 4438.28  502.73   1-0.99271 0.75635-0.07283-0.11188-0.09596-0.64452
   2   2  17  192.24  102.97   1 0.58973-0.82608-0.37370 0.55910 0.71593 0.07062
   2  -2  17  155.77   87.42   1 0.60900-0.37320-0.66892 0.85458 0.42621 0.36110
   2   2  17  188.09  115.01   1-0.13431-0.10236-0.78992 0.97689 0.59830 0.18760
  -2   2 -17   93.05   42.77   1-0.98874 0.75235-0.03186-0.15356-0.14616-0.64060
   2   2  18  631.41  170.76   1 0.58849-0.82479-0.36794 0.55404 0.71992 0.11290
   2  -2  18  545.54  177.43   1 0.61074-0.37496-0.65514 0.84152 0.44473 0.38889
   2   2  18  558.86  173.67   1-0.14364-0.09306-0.78198 0.96975 0.60651 0.22562
  -2   2 -18  240.57   69.73   1-0.98091 0.74449 0.00802-0.19418-0.19429-0.63876
  -2  -3  18  227.23  120.12   1 0.54252-0.18821-0.83186 0.67158 0.11687 0.71662
  -2   3  18  296.09  206.68   1 0.09103-0.44667-0.92438 0.76589 0.37042 0.46247
   2  -3 -18   55.98   69.84   1-0.58779 0.94237 0.45277-0.29267-0.67044-0.16210
   2   3 -18  242.58   77.59   1-0.99259 0.63872-0.07037 0.23064-0.09899-0.73405
  -2   3  17  563.62  201.95   1 0.10842-0.46401-0.93029 0.77098 0.35042 0.43620
   2  -3 -17   64.39   42.15   1-0.59569 0.95024 0.44832-0.28751-0.66644-0.11985
   2   3 -17  414.27  115.28   1-0.99305 0.63920-0.09928 0.26026-0.06312-0.72365
  -2  -3  16  444.66  114.19   1 0.51576-0.16147-0.85582 0.69410 0.03935 0.70153
  -2   3  16  312.78  149.01   1 0.12526-0.48081-0.93538 0.77524 0.33071 0.40964
  -2  -3  16  233.30   82.72   1 0.28025 0.07354-0.95067 0.79090 0.13292 0.60750
   2  -3 -16   91.06   60.77   1-0.60137 0.95589 0.44509-0.28355-0.66350-0.07654
   2   3 -16  204.40   81.26   1-0.99144 0.63660-0.12808 0.28939-0.02510-0.71482
  -2   3  15  159.05   73.57   1 0.60346-0.95752-0.44928 0.28617 0.65876 0.03525
  -2  -3  15  257.11  130.20   1 0.50036-0.14607-0.86581 0.70337-0.00107 0.69565
  -2   3  15  109.93  132.91   1 0.14154-0.49705-0.93969 0.77874 0.31133 0.38274
  -2  -3  15  288.96  123.38   1 0.32242 0.03139-0.94376 0.78313 0.07310 0.62105
   2  -3 -15   53.30   49.68   1-0.60470 0.95919 0.44317-0.28091-0.66176-0.03203
   2   3 -15  149.09   63.22   1-0.98750 0.63282-0.15713 0.31918 0.01176-0.70545
  -2   3  14  159.58   55.12   1 0.60371-0.95783-0.45097 0.28717 0.65737-0.00962
  -2  -3  14  214.38  126.82   1 0.48343-0.12916-0.87433 0.71117-0.04277 0.69105
  -2   3  14  643.09  183.13   1 0.15724-0.51272-0.94329 0.78151 0.29235 0.35546
  -2  -3  14  347.60  129.03   1 0.36512-0.01066-0.93092 0.76828 0.00855 0.64002
   2  -3 -14  162.30   64.17   1-0.60551 0.95998 0.44270-0.27972-0.66133 0.01378
   2   3 -14  124.91   59.04   1-0.98125 0.62671-0.18630 0.34909 0.04923-0.69667
  -2   3  13  450.85  125.13   1 0.60317-0.95734-0.44739 0.28288 0.66031-0.05882
  -2  -3  13  573.39  170.87   1 0.46481-0.11054-0.88123 0.71734-0.08592 0.68789
  -2   3  13  906.97  217.65   1 0.17233-0.52777-0.94621 0.78361 0.27381 0.32772
  -2  -3  13  330.80  110.71   1 0.40859-0.05414-0.91074 0.74733-0.05998 0.66223
   2  -3 -13  625.65  176.31   1-0.60358 0.95802 0.44381-0.28012-0.66234 0.06105
   2   3 -13  308.41   94.25   1-0.97256 0.61817-0.21562 0.37915 0.08735-0.68855
  -2   3  12  145.60   59.14   1 0.60149-0.95571-0.43659 0.27139 0.66901-0.11379
  -2  -3  12  132.24   99.95   1 0.44462-0.09037-0.88617 0.72175-0.13041 0.68622
  -2   3  12  470.79  187.08   1 0.18678-0.54218-0.94851 0.78508 0.25580 0.29946
  -2  -3  12  385.52  166.59   1 0.45239-0.09796-0.88174 0.71757-0.13363 0.68955
   2  -3 -12  243.25   61.97   1-0.59862 0.95302 0.44666-0.28225-0.66493 0.10989
   2   3 -12  337.75  102.45   1-0.96124 0.60700-0.24510 0.40937 0.12618-0.68114
  -2   3  11  494.68   64.76   1 0.59788-0.95215-0.41529 0.24939 0.68561-0.17666
  -2  -3  11  420.58   96.85   1 0.42196-0.06773-0.88917 0.72402-0.17694 0.68643
   2  -3 -11  512.64   69.61   1 0.19680 0.15722-0.82109 0.98720-0.53579 0.02674
  -2   3  11  396.92  124.66   1 0.20092-0.55555-0.95018 0.78615 0.23827 0.27077
  -2  -3  11  583.67  109.01   1 0.49579-0.14123-0.84191 0.67655-0.21301 0.72272
   2  -3 -11  860.59  139.08   1-0.59025 0.94462 0.45139-0.28626-0.66921 0.16042
   2   3 -11  433.19  109.92   1-0.94687 0.59253-0.27554 0.44068 0.16581-0.67431
  -2   3  10  128.79   47.67   1 0.59052-0.94484-0.37744 0.21084 0.71331-0.25063
  -2  -3  10  682.57  221.93   1 0.39687-0.04267-0.88975 0.72387-0.22543 0.68860
   2  -3 -10  361.20   69.14   1 0.18765 0.16641-0.81566 0.98243-0.54724 0.08447
  -2   3  10  285.71  169.46   1 0.21394-0.56854-0.95138 0.78650 0.22158 0.24119
  -2  -3  10  472.64  123.04   1 0.53798-0.18343-0.78879 0.62271-0.29727 0.76064
   2  -3 -10  275.27  100.32   1-0.57802 0.93236 0.45815-0.29230-0.67526 0.21273
   2   3 -10  509.59  140.19   1-0.92966 0.57549-0.30531 0.47119 0.20615-0.66842
  -2   3   9  791.84   74.99   1 0.57554-0.92970-0.30971 0.14238 0.75685-0.33965
  -2  -3   9 1195.76  184.03   1 0.36901-0.01483-0.88748 0.72086-0.27605 0.69291
   2  -3  -9 1090.00   79.56   1 0.16574 0.18837-0.80198 0.96940-0.57389 0.15740
  -2  -3   9  640.89   80.84   1-0.56180 0.91615-0.13528-0.03214 0.81613-0.39953
  -2   3   9  824.19  151.85   1 0.22610-0.58068-0.95211 0.78638 0.20577 0.21072
  -2  -3   9  663.17  121.80   1 0.57749-0.22248-0.71939 0.55255-0.38595 0.80323
   2  -3  -9 1294.08  208.53   1-0.56136 0.91568 0.46707-0.30050-0.68315 0.26688
   2   3  -9  873.33  130.11   1-0.90909 0.55509-0.33523 0.50184 0.24730-0.66334
  -2  -3   822797.39  581.61   1 0.33797 0.01618-0.88179 0.71444-0.32896 0.69950
   2  -3  -821578.26  427.41   1 0.11690 0.23724-0.76811 0.93619-0.62954 0.25932
  -2  -3   820806.36  436.78   1-0.53844 0.89268-0.19605 0.02809 0.81953-0.44981
  -2   3   823678.10  609.83   1 0.23730-0.59185-0.95246 0.78587 0.19104 0.17916
  -2  -3   825109.46  569.21   1 0.61103-0.25603-0.63171 0.46414-0.47703 0.84794
   2  -3  -824867.14  763.36   1-0.53962 0.89390 0.47825-0.31095-0.69287 0.32285
   2   3  -822510.40  559.91   1-0.88482 0.53099-0.36524 0.53258 0.28927-0.65909
  -2  -3   7 2838.02  217.44   1 0.30407 0.05072-0.87075 0.70201-0.38642 0.71035
   2  -3  -7 2722.02   89.22   1-0.01527 0.36936-0.65419 0.82263-0.75617 0.43224
  -2  -3   7 2904.77  123.38   1-0.50935 0.86353-0.26688 0.09827 0.81812-0.49461
  -2   3   7 2956.86  212.71   1 0.24737-0.60190-0.95249 0.78505 0.17765 0.14628
   2  -3  -7 3888.97  378.30   1-0.51199 0.86625 0.49172-0.32370-0.70432 0.38054
   2   3  -7 2539.59  195.99   1-0.85645 0.50279-0.39525 0.56332 0.33205-0.65564
  -2  -3   6 3229.63  190.68   1 0.26525 0.08945-0.85586 0.68645-0.44398 0.72164
   2   3  -6 3098.15  116.67   1-0.64711 0.29285 0.39573-0.22660 0.65163-0.92891
  -2  -3   6 2987.25   96.88   1-0.47334 0.82747-0.34411 0.17485 0.81088-0.53359
  -2   3   6 2838.60  205.01   1 0.25610-0.61060-0.95229 0.78401 0.16593 0.11173
   2  -3  -6 3431.33  163.98   1-0.47783 0.83195 0.50718-0.33852-0.71724 0.43961
   2   3  -6 3305.55  205.27   1-0.82324 0.46935-0.42800 0.59705 0.37292-0.65056
  -2  -3   5 1198.90  142.08   1 0.22179 0.13282-0.83492 0.66484-0.50369 0.73507
   2   3  -5 1186.25  122.73   1-0.64440 0.29052 0.25228-0.08252 0.72187-0.95330
  -2  -3   5  885.68   63.41   1-0.42987 0.78413-0.42484 0.25520 0.79668-0.56568
  -2   3   5 1099.72  142.74   1 0.26319-0.61766-0.95199 0.78285 0.15634 0.07504
   2  -3  -5  745.11   95.69   1-0.43562 0.78976 0.52496-0.35557-0.73119 0.49983
   2   3  -5 1195.74  153.61   1-0.78540 0.43156-0.45751 0.62727 0.41692-0.64828
  -2  -3   4 5398.20  219.84   1 0.17318 0.18128-0.80673 0.63603-0.56495 0.75006
   2   3  -4 5711.06  264.65   1-0.62403 0.27021 0.09947 0.07095 0.77503-0.96018
  -2  -3   4 6036.58  143.63   1-0.38081 0.73502-0.50573 0.33539 0.77408-0.58928
  -2   3   4 5891.18  214.09   1 0.26818-0.62263-0.95169 0.78170 0.14952 0.03558
   2  -3  -4 5192.28  195.67   1-0.38472 0.73889 0.54434-0.37421-0.74544 0.56035
   2   3  -4 6498.55  248.49   1-0.74207 0.38828-0.48640 0.65688 0.46123-0.64632
  -2  -3   3  648.34  145.84   1 0.11923 0.23520-0.76983 0.59846-0.62701 0.76584
   2   3  -3 1066.80  131.64   1-0.58780 0.23378-0.05266 0.22391 0.80728-0.94615
  -2  -3   3  788.65   70.46   1-0.32716 0.68131-0.58317 0.41212 0.74354-0.60494
  -2   3   3  675.67  120.14   1 0.27044-0.62486-0.95153 0.78069 0.14643-0.00760
   2  -3  -3  411.49   73.21   1 0.52683-0.17226-0.80455 0.97574-0.27410 0.13509
   2  -3  -3 1380.18  132.35   1-0.32429 0.67850 0.56461-0.39375-0.75897 0.62015
   2   3  -3  567.23  121.52   1-0.69280 0.33907-0.51430 0.68549 0.50548-0.64430
  -2  -3   2 2784.30  174.44   1 0.05987 0.29452-0.72295 0.55093-0.68829 0.78085
   2   3  -2 3094.46  120.11   1-0.53913 0.18521-0.19426 0.36614 0.81950-0.91193
  -2  -3   2 3121.69  110.87   1-0.27078 0.62493-0.65371 0.48188 0.70663-0.61420
  -2   3   2 2962.23  167.40   1 0.26894-0.62333-0.95164 0.77995 0.14849-0.05594
   2   3  -2 3043.60  183.42   1-0.63736 0.28350-0.54069 0.71280 0.54901-0.64151
  -2   3   2 2639.33  169.24   1 0.25378-0.60820-0.58305 0.41081 0.77178-0.67920
   2  -3  -115964.68  214.90   1 0.60746-0.25314-0.67915 0.85198 0.41199-0.45830
  -2   3   113714.13  196.68   1 0.01567-0.36984-0.68357 0.51094-0.72971 0.77598
  -2  -3   114492.17  356.63   1-0.00410 0.35854-0.66499 0.49235-0.74683 0.79311
   2   3  -117259.53  344.86   1-0.27141-0.08281-0.34177 0.51441-0.89973 0.85353
   2   3  -114200.31  253.31   1-0.48470 0.13083-0.32080 0.49334 0.81372-0.85993
  -2  -3   116450.10  273.88   1-0.21375 0.56784-0.71659 0.54403 0.66392-0.61771
  -2   3   114866.43  277.37   1 0.26197-0.61633-0.95205 0.77951 0.15799-0.11171
   2  -3  -113551.58  253.22   1 0.55242-0.19782-0.76609 0.93874-0.32851 0.28217
   2   3  -114730.32  305.59   1-0.57543 0.22168-0.56501 0.73782 0.59130-0.63754
  -2   3   114944.78  307.68   1 0.17311-0.52758-0.60210 0.42915 0.77942-0.73313
   2  -3   049293.03  573.64   1 0.58835-0.23396-0.75361 0.92701 0.29309-0.29309
  -2   3   044440.12  536.07   1 0.17564-0.53010-0.80828 0.63495-0.56198 0.56198
  -2  -3   045149.60  635.45   1-0.07190 0.42633-0.59604 0.42271-0.79972 0.79972
   2   3   044005.82  577.30   1-0.42842 0.07445-0.42739 0.60055 0.79610-0.79610
  -2  -3   047594.80  600.79   1-0.15765 0.51170-0.77044 0.59716 0.61770-0.61770
  -2   3   046510.60  590.73   1 0.24649-0.60083-0.95250 0.77911 0.17883-0.17883
   2  -3   045325.17  560.22   1 0.57461-0.22001-0.72540 0.89888-0.37894 0.37894
   2   3   048038.52  656.02   1-0.50720 0.15356-0.58657 0.76009 0.63140-0.63140
  -2   3   046672.11  645.66   1 0.08306-0.43757-0.61821 0.44454 0.78160-0.78160
   2  -3   120833.54  293.06   1 0.57603-0.22166-0.78188 0.95601 0.23840-0.19207
  -2   3  -118065.91  270.79   1 0.25512-0.60950-0.85137 0.67728-0.45833 0.41205
  -2  -3  -120515.57  374.60   1-0.14095 0.49529-0.51648 0.34237-0.84461 0.79841
   2   3   120881.31  358.94   1-0.40220 0.04771-0.12390 0.29793-0.90712 0.95339
   2   3   120187.83  333.41   1-0.37492 0.02100-0.51475 0.68863 0.77100-0.72480
  -2   3  -119463.28  282.20   1 0.21639-0.57071-0.95156 0.77732 0.21840-0.26468
   2  -3   119836.30  283.10   1 0.60392-0.24930-0.65378 0.82800-0.45588 0.50225
   2   3   120028.28  348.32   1-0.43368 0.07985-0.60579 0.77990 0.66703-0.62078
  -2   3  -119013.80  359.04   1-0.01477-0.33958-0.62936 0.45491 0.77697-0.82324
  -2  -3  -120380.11  331.22   1 0.01665 0.33776-0.62631 0.45187 0.77938-0.82566
   2  -3   2 3294.23  126.94   1 0.56922-0.21487-0.79452 0.96938 0.21147-0.11880
  -2   3  -2 2571.77  108.16   1 0.29897-0.65344-0.86901 0.69426-0.39423 0.30168
  -2  -3  -2 3823.87  202.92   1-0.20882 0.56321-0.43008 0.25524-0.87830 0.78589
   2   3   2 2640.73  150.27   1-0.46353 0.10911 0.00042 0.17432-0.88607 0.97862
   2   3   2 2552.99  130.88   1-0.32631-0.02754-0.58432 0.75890 0.74302-0.65062
  -2   3  -2 2531.08   87.06   1 0.15547-0.51029-0.94291 0.76797 0.29450-0.38705
   2   3   2 3420.91  171.35   1-0.35552 0.00180-0.61978 0.79460 0.69962-0.60712
  -2   3  -2 2497.88  158.08   1-0.11827-0.23620-0.63490 0.45979 0.76348-0.85603
  -2  -3  -2 2996.83  143.32   1 0.13561 0.21900-0.60946 0.43436 0.78112-0.87370
   2  -3   3 6775.29  178.53   1 0.56605-0.21172-0.79984 0.97545 0.19955-0.06055
  -2   3  -3 5512.85  154.05   1 0.32469-0.67926-0.87705 0.70162-0.35405 0.21522
  -2  -3  -3 6658.42  221.25   1-0.27259 0.62703-0.34001 0.16445-0.90004 0.76143
   2   3   3 5768.59  176.75   1-0.51661 0.16219 0.12700 0.04848-0.84674 0.98556
  -2   3  -3 4905.23  174.74   1-0.64002 0.28597 0.20647-0.38165 0.74009-0.87895
   2   3   3 6658.10  200.37   1-0.28369-0.07021-0.63825 0.81371 0.71564-0.57700
  -2   3  -3 5328.75   90.60   1 0.01716-0.37193-0.89206 0.71630 0.45158-0.59039
   2   3   3 6892.29  213.51   1-0.27462-0.07898-0.62919 0.80473 0.72711-0.58835
  -2   3  -3 5910.62  227.99   1-0.22411-0.13049-0.63330 0.45752 0.74074-0.87956
  -2  -3  -3 6569.94  185.77   1 0.26187 0.09269-0.58088 0.40507 0.77070-0.90957
  -2  -3  -414840.40  259.68   1 0.55868-0.20367-0.24975 0.07314 0.79088-0.97630
   2  -3   413852.87  273.38   1 0.56529-0.21097-0.80108 0.97742 0.19673-0.01139
  -2   3  -413013.80  255.30   1 0.33960-0.69398-0.88216 0.70604-0.32627 0.14100
  -2  -3  -413463.84  317.93   1-0.33022 0.68469-0.25030 0.07416-0.91010 0.72504
   2   3   412518.18  284.15   1-0.24752-0.10634-0.68040 0.85659 0.68976-0.50491
   2   3   413896.16  247.68   1-0.38842 0.03445 0.54300-0.36700-0.74449 0.92958
  -2   3  -412929.11  302.09   1-0.32946-0.02450-0.62335 0.44710 0.70914-0.89414
   2   3   413763.23  292.32   1-0.19448-0.15954-0.63451 0.81095 0.74804-0.56294
  -2  -3  -5 5686.38  392.76   1 0.58735-0.23198-0.36274 0.18570 0.72348-0.95482
   2  -3   5 5371.73  169.12   1 0.56614-0.21184-0.79971 0.97678 0.19986 0.03180
  -2  -3  -5 4785.74  203.77   1-0.37969 0.73415-0.16537-0.01147-0.91021 0.67888
   2   3   5 5563.26  194.47   1-0.21747-0.13635-0.71274 0.88965 0.66685-0.43579
   2   3   5 4640.61  385.86   1-0.51133 0.15723 0.49203-0.31538-0.70458 0.93584
  -2   3  -5 5264.52  238.32   1-0.43030 0.07623-0.60650 0.42954 0.66857-0.89982
   2   3   5 5633.06  191.90   1-0.11508-0.23882-0.63483 0.81194 0.76402-0.53264
   2  -3   6 1059.20  110.82   1 0.56807-0.21379-0.79649 0.97430 0.20710 0.07090
  -2  -3  -6 1300.17  125.27   1-0.42088 0.77528-0.08794-0.08973-0.90284 0.62520
   2   3   6 1297.30  132.01   1-0.19303-0.16074-0.73736 0.91499 0.64732-0.37005
   2   3   6 1021.13  134.21   1-0.62431 0.27018 0.43158-0.25422-0.65112 0.92864
  -2   3  -6 1528.24  174.26   1-0.52539 0.17111-0.58131 0.40356 0.62131-0.89880
   2   3   6 1639.33  153.16   1-0.03992-0.31385-0.63134 0.80911 0.77447-0.49682
   2  -3   721155.81  646.99   1 0.57073-0.21647-0.79185 0.97040 0.21729 0.10703
  -2  -3  -721926.89  672.96   1-0.45406 0.80846-0.02003-0.15837-0.89074 0.56682
   2   3   721917.86  681.22   1-0.17360-0.18012-0.75589 0.93425 0.63125-0.30777
   2   3   718728.74  592.54   1-0.72326 0.36922 0.36454-0.18650-0.58650 0.91043
  -2   3  -722691.79  697.99   1-0.61090 0.25651-0.55168 0.37323 0.56783-0.89156
   2   3   721392.38  653.17   1 0.02709-0.38151-0.62557 0.80424 0.77969-0.45567
   2  -3   8 1823.38  124.54   1 0.57388-0.21963-0.78606 0.96534 0.22969 0.14097
  -2  -3  -8 2167.09  177.37   1-0.48029 0.83468 0.03802-0.21716-0.87628 0.50609
   2   3   8 1819.33  172.00   1-0.15858-0.19510-0.76961 0.94869 0.61850-0.24880
   2   3   8 1229.90  190.53   1-0.80537 0.45132 0.29408-0.11532-0.51467 0.88487
  -2   3  -8 2155.20  194.12   1-0.68684 0.33234-0.51738 0.33823 0.51043-0.88042
   2   3   8 2360.62  169.58   1 0.08817-0.44255-0.61744 0.79683 0.78165-0.41134
   2  -3   9  837.93  103.81   1 0.57733-0.22310-0.77926 0.95927 0.24378 0.17322
  -2  -3  -9 1395.01  165.99   1-0.50068 0.85507 0.08654-0.26640-0.86129 0.44483
   2   3   9 1126.45  139.52   1-0.14740-0.20624-0.77948 0.95929 0.60883-0.19292
  -2   3  -9 1162.46  153.18   1-0.75343 0.39913-0.47926 0.29946 0.45014-0.86660
   2   3   9  864.20  104.88   1 0.14107-0.49540-0.60845 0.78855 0.78095-0.36435
   2  -3  10 4216.95  241.12   1 0.58095-0.22674-0.77156 0.95231 0.25918 0.20415
  -2  -3 -10 5145.38  293.36   1-0.51633 0.87071 0.12626-0.30686-0.84702 0.38429
   2   3  10 5391.23  287.61   1-0.13999-0.21455-0.78511 0.96647 0.60331-0.14101
  -2   3 -10 4926.36  264.61   1-0.80984 0.45548-0.43898 0.25847 0.38916-0.85189
   2   3  10 5118.85  249.17   1 0.18563-0.53993-0.59944 0.78025 0.77859-0.31570
   2   3  1146345.43 2179.37   1 0.52808-0.88302-0.15739 0.33898 0.83447-0.32457
   2  -3  1140660.32 1926.32   1 0.58464-0.23044-0.76303 0.94451 0.27563 0.23404
   2   3  1147992.59 2267.30   1-0.13511-0.21947-0.78925 0.97141 0.59901-0.09048
  -2   3 -1140797.25 1922.67   1-0.85843 0.50320-0.39330 0.21204 0.32925-0.83774
   2   3  1146022.70 2154.48   1 0.22209-0.57635-0.59107 0.77260 0.77544-0.26626
   2   3  12  317.36  108.89   1 0.53693-0.89186-0.18248 0.36479 0.82365-0.26739
   2  -3  12   69.11   87.10   1 0.58831-0.23413-0.75370 0.93593 0.29292 0.26308
   2   3  12   37.93   97.98   1-0.13279-0.22183-0.79120 0.97416 0.59695-0.04219
  -2   3 -12  211.34   60.14   1-0.89713 0.54173-0.35062 0.16862 0.26873-0.82346
   2   3  12  228.65  111.53   1 0.25094-0.60516-0.58379 0.76604 0.77214-0.21667
   2   3  13 8436.06  329.21   1 0.54340-0.89833-0.20159 0.38461 0.81490-0.21228
   2  -3  13 7352.86  329.30   1 0.59191-0.23775-0.74362 0.92657 0.31091 0.29142
   2   3  13 8762.42  400.32   1-0.13270-0.22196-0.79128 0.97504 0.59687 0.00411
  -2   3 -13 8458.49  316.74   1-0.92820 0.57264-0.30761 0.12488 0.20928-0.81023
   2   3  13 8863.66  350.54   1 0.27274-0.62692-0.57791 0.76087 0.76917-0.16741
   2   3  1425211.23 1116.69   1 0.54798-0.90289-0.21552 0.39926 0.80824-0.15927
   2  -3  1421983.42  992.91   1 0.59537-0.24123-0.73278 0.91647 0.32948 0.31919
   2   3  1423036.17 1062.90   1-0.13459-0.22011-0.78969 0.97425 0.59855 0.04866
  -2   3 -1422240.45  965.28   1-0.95242 0.59669-0.26462 0.08115 0.15117-0.79835
   2   3  1516376.92 3440.58   1 0.55100-0.90590-0.22494 0.40939 0.80361-0.10828
   2  -3  1515457.14 1703.62   1 0.59866-0.24453-0.72119 0.90562 0.34853 0.34647
   2   3  1516772.68 3534.56   1-0.13825-0.21649-0.78660 0.97196 0.60178 0.09167
  -2   3 -1513745.29 1504.03   1-0.97090 0.61549-0.22040 0.03616 0.09361-0.78730
   2   3  16 2273.44  219.95   1 0.55273-0.90762-0.23042 0.41558 0.80086-0.05918
   2  -3  16 2475.57  303.00   1 0.60159-0.24762-0.70911 0.89407 0.36775 0.37325
   2   3  16 2992.99  329.35   1-0.14349-0.21129-0.78212 0.96828 0.60637 0.13330
  -2   3 -16 2147.83  189.67   1-0.98328 0.62773-0.17795-0.00702 0.03846-0.77839
   2   3  17  215.90  105.92   1 0.55335-0.90824-0.23240 0.41827 0.79986-0.01183
   2  -3  17  188.96  134.36   1 0.60441-0.25046-0.69605 0.88172 0.38753 0.39978
   2   3  17  249.18  154.68   1-0.14950-0.20377-0.77765 0.96325 0.61066 0.17494
  -2   3 -17  398.20  112.66   1-0.99060 0.63489-0.13593-0.04978-0.01519-0.77099
  -2   4  16 1483.69  321.45   1 0.07512-0.54878-0.91841 0.75827 0.38843 0.35192
   2  -4 -16 1374.93  206.16   1-0.46396 0.93586 0.51320-0.35188-0.72204-0.01830
   2   4 -16 1330.38  195.63   1-0.98151 0.50907-0.18528 0.34659 0.04791-0.78785
  -2  -4  15 2764.53  323.71   1 0.49554-0.02319-0.86848 0.70603-0.01321 0.70779
  -2   4  15  932.51  213.60   1 0.08837-0.56199-0.92342 0.76246 0.37346 0.32062
   2  -4 -15 1355.58  163.38   1-0.46397 0.93590 0.51320-0.35114-0.72204 0.02796
   2   4 -15 1529.85  174.18   1-0.97296 0.50067-0.21442 0.37647 0.08579-0.77948
  -2  -4  14  264.26  115.96   1 0.47916-0.00682-0.87612 0.71296-0.05289 0.70116
  -2   4  14  -22.74   82.88   1 0.10081-0.57440-0.92779 0.76601 0.35921 0.28859
   2  -4 -14   21.61   47.62   1-0.46116 0.93312 0.51439-0.35161-0.72299 0.07518
   2   4 -14   77.26   55.92   1-0.96196 0.48982-0.24342 0.40621 0.12395-0.77140
  -2  -4  13  701.21  189.37   1 0.46137 0.01095-0.88225 0.71836-0.09360 0.69557
  -2   4  13  585.13  168.56   1 0.11239-0.58593-0.93155 0.76894 0.34580 0.25573
  -2  -4  13  408.09  118.78   1 0.40761 0.06496-0.91128 0.74787-0.05840 0.66065
   2  -4 -13  108.79   61.40   1-0.45533 0.92732 0.51686-0.35333-0.72492 0.12339
   2   4 -13  428.97  121.24   1-0.94817 0.47585-0.27305 0.43673 0.16248-0.76343
  -2  -4  12  691.26  155.62   1 0.44233 0.02996-0.88659 0.72217-0.13525 0.69105
  -2   4  12  480.63  155.96   1 0.12301-0.59651-0.93473 0.77131 0.33336 0.22190
  -2  -4  12  497.63  116.69   1 0.45964 0.01292-0.87595 0.71178-0.14635 0.70227
   2  -4 -12  320.62  107.68   1-0.44624 0.91825 0.52064-0.35638-0.72787 0.17260
   2   4 -12  459.62  117.79   1-0.93195 0.45979-0.30165 0.46606 0.20116-0.75588
  -2  -4  11 3520.88  313.37   1 0.42126 0.05100-0.88922 0.72408-0.17833 0.68782
  -2   4  11 4600.11  384.80   1 0.13258-0.60604-0.93739 0.77314 0.32203 0.18695
  -2  -4  11 3707.17  272.86   1 0.50974-0.03701-0.82619 0.66083-0.23990 0.74961
   2  -4 -11 4532.34  336.40   1-0.43359 0.90563 0.52577-0.36078-0.73181 0.22281
   2   4 -11 4312.98  361.31   1-0.91293 0.44094-0.33002 0.49516 0.24008-0.74858
  -2  -4  1012780.70  822.71   1 0.39830 0.07393-0.88979 0.72391-0.22274 0.68591
  -2   4  1013662.42  895.61   1 0.14096-0.61438-0.93955 0.77448 0.31203 0.15069
  -2  -4  1013607.02  833.20   1 0.55630-0.08358-0.75949 0.59340-0.33718 0.80055
   2  -4 -1013478.77  845.36   1-0.41707 0.88914 0.53228-0.36655-0.73670 0.27398
   2   4 -1013274.04  846.93   1-0.89096 0.41915-0.35808 0.52395 0.27919-0.74146
  -2  -4   9 3747.37  280.26   1 0.37325 0.09897-0.88800 0.72139-0.26855 0.68541
  -2  -4   9 3626.15  203.49   1-0.40745 0.87997-0.46314 0.29632 0.78706-0.37126
  -2   4   9 3953.22  313.64   1 0.14798-0.62136-0.94124 0.77534 0.30358 0.11287
  -2  -4   9 4679.13  275.08   1 0.59680-0.12353-0.67368 0.50684-0.43586 0.85314
   2  -4  -9 3957.84  282.65   1-0.39629 0.86839 0.54012-0.37366-0.74243 0.32599
   2   4  -9 4404.35  311.74   1-0.86590 0.39426-0.38575 0.55236 0.31842-0.73447
  -2  -4   883332.64 3885.85   1 0.34586 0.12634-0.88352 0.71618-0.31584 0.68637
  -2  -4   879265.41 2287.77   1-0.37515 0.84761-0.51441 0.34689 0.77112-0.40152
  -2   4   888730.63 4136.23   1 0.15343-0.62677-0.94247 0.77575 0.29698 0.07319
  -2  -4   888037.35 4063.36   1 0.62729-0.15404-0.56867 0.40110-0.53207 0.90298
   2  -4  -881493.50 3795.31   1-0.37086 0.84299 0.54924-0.38205-0.74885 0.37868
   2   4  -874882.97 2220.33   1-0.83721 0.36531-0.41586 0.58347 0.35513-0.72532
  -2  -4   7 2699.36  219.70   1 0.31665 0.15622-0.87473 0.70599-0.36684 0.69077
   2   4  -7 3776.04  171.52   1-0.64430 0.17200 0.44495-0.27649 0.62200-0.94549
  -2  -4   7 3617.93  167.71   1-0.33900 0.81141-0.56696 0.39873 0.75074-0.42734
  -2   4   7 3233.87  247.89   1 0.15702-0.63031-0.94324 0.77570 0.29262 0.03128
   2  -4  -7 3820.63  243.48   1-0.34038 0.81253 0.55949-0.39157-0.75571 0.43181
   2   4  -7 3007.25  235.12   1-0.80555 0.33370-0.44237 0.61070 0.39419-0.71811
  -2  -4   6  931.29  154.88   1 0.28379 0.18898-0.86345 0.69403-0.41703 0.69468
   2   4  -6 1115.64  107.13   1-0.64764 0.17579 0.30819-0.13911 0.69683-0.97454
  -2  -4   6  966.76   78.03   1-0.29979 0.77217-0.61830 0.44936 0.72651-0.44924
  -2   4   6 1184.48  193.56   1 0.15836-0.63161-0.94352 0.77516 0.29099-0.01335
   2   4  -6  557.33  118.12   1-0.77036 0.29857-0.46806 0.63711 0.43295-0.71059
  -2  -4   5  541.00  106.35   1 0.24780 0.22487-0.84797 0.67789-0.46853 0.69991
   2   4  -5  504.96   73.78   1-0.63462 0.16283 0.16404 0.00571 0.75520-0.98663
  -2  -4   5  416.43   54.56   1-0.25817 0.73050-0.66837 0.49871 0.69757-0.46651
  -2   4   5  354.83  136.20   1 0.15693-0.63014-0.94322 0.77404 0.29272-0.06136
   2   4  -5  957.55  173.09   1-0.73156 0.25982-0.49275 0.66252 0.47117-0.70253
  -2   4   5  312.68  132.65   1 0.26289-0.73540-0.58061 0.41051 0.77056-0.53912
  -2  -4   4 3631.85  212.84   1 0.20845 0.26412-0.82765 0.65690-0.52108 0.70619
   2   4  -4 3345.32  333.68   1-0.60714 0.13508 0.02098 0.14962 0.79431-0.97947
  -2  -4   4 3338.87  121.93   1-0.21522 0.68751-0.71507 0.54469 0.66508-0.48024
  -2   4   4 4014.55  260.98   1 0.15202-0.62519-0.94216 0.77215 0.29869-0.11360
   2   4  -4 3549.45  234.71   1-0.68910 0.21742-0.51621 0.68669 0.50857-0.69367
  -2   4   4 4154.06  296.10   1 0.21496-0.68751-0.59277 0.42197 0.77614-0.59099
  -2  -4   3  937.09  128.95   1 0.16560 0.30696-0.80189 0.63053-0.57405 0.71288
   2   4  -3  800.21  106.40   1-0.56872 0.09672-0.11465 0.28590 0.81449-0.95336
  -2  -4   3  412.37   50.54   1-0.17188 0.64413-0.75749 0.58638 0.62980-0.49117
  -2   4   3  278.27  114.95   1 0.14258-0.61571-0.93995 0.76912 0.31008-0.17126
   2   4  -3  556.87  129.23   1-0.64313 0.17128-0.53816 0.70956 0.54475-0.68349
  -2   4   3  550.37  173.45   1 0.16085-0.63343-0.60461 0.43309 0.78010-0.64124
   2  -4  -256161.02 1511.18   1 0.60547-0.13289-0.69104 0.86297 0.39478-0.48745
  -2  -4   258962.01 1671.36   1 0.11921 0.35331-0.76981 0.59779-0.62703 0.71958
  -2   4   256018.07 1513.11   1-0.42244-0.05003-0.08486-0.08696-0.90240 0.99495
   2   4  -260460.31 1673.79   1-0.52262 0.05073-0.23566 0.40754 0.81934-0.91177
  -2   4   255600.44 1557.91   1 0.12710-0.60019-0.93589 0.76424 0.32854-0.23599
   2   4  -265058.11 1837.66   1-0.59366 0.12193-0.55835 0.73046 0.57947-0.67197
  -2   4   255045.09 1574.88   1 0.10065-0.57328-0.61548 0.44324 0.78169-0.68911
   2  -4  -115230.54  433.67   1 0.57836-0.10581-0.77713 0.94979 0.24810-0.29443
  -2  -4   114963.65  518.86   1 0.06943 0.40306-0.73093 0.55825-0.67891 0.72518
   2   4  -115759.81  487.92   1-0.47429 0.00245-0.34218 0.51471 0.81114-0.85735
  -2   4   114167.21  449.50   1 0.10320-0.57624-0.92859 0.75611 0.35646-0.31019
   2  -4  -112788.10  407.61   1 0.53285-0.06008-0.79621 0.96886-0.28653 0.24019
   2   4  -116075.84  541.94   1-0.54103 0.06941-0.57651 0.74932 0.61230-0.65855
  -2   4   114081.44  497.63   1 0.03473-0.50740-0.62468 0.45173 0.78010-0.73381
   2  -4   014824.89  429.42   1 0.56323-0.09069-0.80434 0.97773 0.18921-0.18921
  -2  -4   014413.17  495.12   1 0.01689 0.45563-0.68469 0.51136-0.72863 0.72863
  -2   4   014902.61  447.35   1-0.03508-0.43720-0.63450 0.46117-0.77212 0.77212
   2   4   014554.91  457.53   1-0.42607-0.04592-0.43150 0.60467 0.79514-0.79514
  -2   4   015116.45  462.81   1 0.06703-0.54004-0.91516 0.74187 0.39746-0.39746
   2  -4   013488.05  411.11   1 0.55036-0.07758-0.76950 0.94287-0.32397 0.32397
   2   4   016717.04  570.65   1-0.48567 0.01416-0.59237 0.76588 0.64281-0.64281
  -2   4   014253.75  490.79   1-0.03597-0.43637-0.63105 0.45727 0.77489-0.77489
   2  -4   1 1369.33   91.25   1 0.55537-0.08285-0.81573 0.98986 0.16165-0.11532
  -2   4  -1 1160.76   94.64   1 0.06375-0.53639-0.72621 0.55222-0.68450 0.63822
  -2  -4  -1 1890.01  192.73   1-0.03790 0.51041-0.63164 0.45760-0.77433 0.72805
   2   4   1 1293.55  116.38   1-0.38081-0.09113-0.50574 0.67961 0.77408-0.72788
  -2   4  -1 1064.93   82.79   1 0.01186-0.48482-0.88930 0.71518 0.45716-0.50343
   2  -4   1 1091.71   87.78   1 0.57501-0.10214-0.72460 0.89881-0.37988 0.42625
   2   4   1 1692.72  176.69   1-0.42862-0.04311-0.60685 0.78096 0.66933-0.62308
  -2   4  -1 1338.98  158.78   1-0.11125-0.36123-0.63474 0.46030 0.76466-0.81094
   2  -4   2  947.45   85.78   1 0.55188-0.07938-0.82033 0.99519 0.14992-0.05725
  -2   4  -2  799.71   85.15   1 0.13012-0.60279-0.77773 0.60308-0.61498 0.52242
  -2  -4  -2  639.66  113.21   1-0.09358 0.56608-0.57227 0.39753-0.81470 0.72215
   2   4   2  810.44   87.55   1-0.33963-0.13225-0.56609 0.74066 0.75112-0.65872
  -2   4  -2 1102.35   70.68   1-0.07473-0.39807-0.83607 0.66112 0.54350-0.63596
   2  -4   2  943.04   74.01   1 0.60733-0.13444-0.64352 0.81847-0.46586 0.55858
   2   4   2 1009.07  142.49   1-0.37008-0.10154-0.61755 0.79237 0.69402-0.60151
  -2   4  -2 1260.43  143.68   1-0.18937-0.28323-0.63465 0.45954 0.74922-0.84177
   2  -4   3  622.49   69.20   1 0.55115-0.07866-0.82126 0.99686 0.14750-0.00850
  -2   4  -3  714.54   92.67   1 0.17556-0.64827-0.80823 0.63292-0.56207 0.42324
  -2  -4  -3  612.43  124.73   1-0.14837 0.62086-0.50748 0.33191-0.84879 0.71018
   2   4   3  676.73   91.98   1-0.30316-0.16880-0.61401 0.78947 0.72874-0.59011
  -2   4  -3  598.47   43.41   1-0.22444-0.24804-0.70545 0.52999 0.67227-0.81091
  -2   4  -3  673.89  105.53   1-0.26900-0.20276-0.62967 0.45413 0.72880-0.86755
   2   4   3  743.22  120.13   1-0.31119-0.16032-0.62554 0.80108 0.71543-0.57668
   2  -4   4  159.90   57.78   1 0.55223-0.07976-0.81988 0.99622 0.15107 0.03425
  -2  -4  -4   82.38  114.45   1-0.20118 0.67373-0.44027 0.26398-0.87503 0.69021
   2   4   4  184.06   88.08   1-0.27168-0.20024-0.65266 0.82884 0.70726-0.52241
  -2   4  -4   96.16  108.81   1-0.34856-0.12331-0.62078 0.44453 0.70222-0.88723
   2   4   4  178.46   84.33   1-0.25299-0.21842-0.63090 0.80714 0.73345-0.54845
   2  -4   5  869.90  106.93   1 0.55452-0.08207-0.81688 0.99395 0.15876 0.07290
  -2  -4  -5  829.65  140.60   1-0.25041 0.72301-0.37239 0.19536-0.89365 0.66263
   2   4   5 1021.21  135.36   1-0.24499-0.22689-0.68322 0.86013 0.68788-0.45682
  -2   4  -5 1041.64  160.33   1-0.42653-0.04545-0.60728 0.43032 0.67027-0.90152
   2   4   5 1268.12  158.40   1-0.19767-0.27436-0.63440 0.81151 0.74729-0.51591
   2  -4   6  192.61   89.03   1 0.55763-0.08519-0.81261 0.99042 0.16939 0.10860
  -2  -4  -6   77.55   82.70   1-0.29535 0.76795-0.30576 0.12821-0.90513 0.62754
   2   4   6  242.66  109.99   1-0.22277-0.24906-0.70721 0.88484 0.67098-0.39371
  -2   4  -6  -39.89  113.58   1-0.50236 0.03021-0.58791 0.41016 0.63402-0.91150
   2   4   6   56.50   78.61   1-0.14394-0.32796-0.63520 0.81297 0.75881-0.48116
   2  -4   711666.75  438.51   1 0.56128-0.08887-0.80730 0.98585 0.18222 0.14210
  -2  -4  -713221.62  504.98   1-0.33468 0.80727-0.24295 0.06470-0.91047 0.58661
   2   4   713215.09  513.28   1-0.20464-0.26714-0.72585 0.90421 0.65670-0.33321
  -2   4  -715451.05  609.72   1-0.57329 0.10102-0.56576 0.38731 0.59265-0.91639
   2   4   712568.73  483.72   1-0.09377-0.37800-0.63421 0.81265 0.76744-0.44351
   2  -4   8  186.25   81.70   1 0.56529-0.09289-0.80108 0.98036 0.19673 0.17393
  -2  -4  -8  517.29  164.82   1-0.36851 0.84109-0.18527 0.00632-0.91097 0.54085
   2   4   8  194.48  113.31   1-0.19020-0.28154-0.74011 0.91920 0.64501-0.27531
  -2   4  -8  268.68  158.05   1-0.63923 0.16685-0.53987 0.36072 0.54764-0.91762
   2   4   8  -33.68   73.78   1-0.04787-0.42378-0.63188 0.81098 0.77358-0.40337
   2  -4   9 1047.84  112.88   1 0.56950-0.09712-0.79403 0.97404 0.21255 0.20445
  -2  -4  -9 1863.36  179.66   1-0.39700 0.86958-0.13366-0.04599-0.90803 0.49164
   2   4   9 2037.55  207.30   1-0.17906-0.29264-0.75078 0.93059 0.63581-0.21990
  -2   4  -9 1829.56  214.98   1-0.70001 0.22780-0.51050 0.33070 0.49936-0.91582
   2   4   9 1977.15  191.19   1-0.00674-0.46478-0.62864 0.80840 0.77766-0.36118
   2  -4  10  212.47   92.83   1 0.57381-0.10144-0.78619 0.96694 0.22941 0.23392
  -2  -4 -10  114.63  109.43   1-0.42064 0.89316-0.08839-0.09220-0.90290 0.44017
   2   4  10  239.04  100.28   1-0.17085-0.30080-0.75844 0.93898 0.62893-0.16681
  -2   4 -10  244.30  144.75   1-0.75446 0.28220-0.47860 0.29808 0.44913-0.91186
   2   4  10   57.24   78.30   1 0.02682-0.49932-0.62560 0.80642 0.77968-0.31679
   2  -4  11 1139.87  140.11   1 0.57813-0.10578-0.77761 0.95910 0.24712 0.26254
  -2  -4 -11  690.95  201.93   1-0.43984 0.91236-0.04981-0.13151-0.89668 0.38768
   2   4  11  585.35  163.85   1-0.16526-0.30635-0.76358 0.94484 0.62420-0.11587
  -2   4 -11  472.32  153.56   1-0.80285 0.33054-0.44447 0.26323 0.39733-0.90633
   2   4  11  627.03  185.76   1 0.05732-0.52978-0.62185 0.80338 0.78103-0.27185
   2  -4  12  231.12   83.87   1 0.58240-0.11006-0.76830 0.95053 0.26553 0.29047
  -2  -4 -12  792.64  185.07   1-0.45525 0.92776-0.01748-0.16457-0.89018 0.33490
   2   4  12  459.23  164.52   1-0.16200-0.30956-0.76653 0.94852 0.62142-0.06688
  -2   4 -12  286.46  106.12   1-0.84521 0.37285-0.40856 0.22660 0.34451-0.89979
   2   4  12  568.27  180.45   1 0.08255-0.55497-0.61829 0.80053 0.78160-0.22613
   2  -4  13 1800.48  178.40   1 0.58655-0.11424-0.75828 0.94124 0.28452 0.31782
  -2  -4 -13 2507.09  231.37   1-0.46741 0.93992 0.00897-0.19176-0.88399 0.28243
   2   4  13 2335.61  222.40   1-0.16082-0.31069-0.76759 0.95030 0.62042-0.01966
  -2   4 -13 2098.76  181.29   1-0.88289 0.40969-0.36743 0.18470 0.29237-0.89332
   2   4  13 1645.95  171.44   1 0.10260-0.57498-0.61517 0.79813 0.78168-0.17993
   2  -4  14 2554.38  274.26   1 0.59055-0.11825-0.74754 0.93124 0.30399 0.34468
  -2  -4 -14 3498.97  321.85   1-0.47680 0.94930 0.03005-0.21357-0.87849 0.23066
   2   4  14 3420.41  336.90   1-0.16152-0.30994-0.76696 0.95039 0.62102 0.02594
  -2   4 -14 2755.83  252.93   1-0.91359 0.44021-0.32910 0.14564 0.23882-0.88599
   2   4  14 2945.85  285.11   1 0.11758-0.58992-0.61266 0.79634 0.78154-0.13350
   2  -4  15 2343.21  299.42   1 0.59435-0.12207-0.73609 0.92052 0.32388 0.37112
  -2  -4 -15 3680.50  369.49   1-0.48382 0.95631 0.04620-0.23045-0.87394 0.17984
   2   4  15 2784.58  326.47   1-0.16392-0.30750-0.76479 0.94895 0.62306 0.07011
  -2   4 -15 2438.90  232.82   1-0.93889 0.46534-0.29003 0.10583 0.18537-0.87877
   2   4  15 2986.77  306.86   1 0.12763-0.59993-0.61090 0.79530 0.78134-0.08701
   2  -4  16 1173.96  194.53   1 0.59792-0.12566-0.72391 0.90908 0.34412 0.39721
  -2  -4 -16 1194.41  213.95   1-0.48880 0.96129 0.05788-0.24287-0.87046 0.13009
   2   4  16  658.96  166.57   1-0.16785-0.30353-0.76121 0.94609 0.62640 0.11299
  -2   4 -16  612.32   96.73   1-0.95951 0.48635-0.24908 0.06410 0.13146-0.87140
  -2  -5  14   77.23  104.42   1 0.48216 0.10824-0.87488 0.71171-0.04580 0.69407
  -2   5  14  304.06  105.81   1 0.04099-0.63268-0.90376 0.74198 0.42606 0.22174
   2  -5 -14  126.31   65.39   1-0.31789 0.90791 0.56660-0.40381-0.76020 0.11239
   2   5 -14  567.22  124.04   1-0.94299 0.35286-0.28274 0.44569 0.17552-0.82270
  -2  -5  13  209.51  160.60   1 0.46574 0.12465-0.88093 0.71705-0.08381 0.68578
  -2   5  13   42.27  100.39   1 0.04938-0.64102-0.90759 0.74498 0.41694 0.18459
   2   5 -13   90.92   57.11   1-0.92656 0.33659-0.31017 0.47384 0.21278-0.81373
  -2  -5  12  714.16  175.96   1 0.44837 0.14196-0.88542 0.72100-0.12242 0.67823
  -2   5  12  -18.02   81.00   1 0.05656-0.64817-0.91075 0.74732 0.40906 0.14620
   2   5 -12  488.92  116.16   1-0.90769 0.31790-0.33710 0.50151 0.24990-0.80462
  -2  -5  11  373.78  179.37   1 0.42938 0.16092-0.88846 0.72332-0.16200 0.67149
  -2   5  11  168.89   96.10   1 0.06241-0.65397-0.91324 0.74899 0.40260 0.10639
   2   5 -11  242.42  125.54   1-0.88635 0.29673-0.36348 0.52862 0.28680-0.79530
  -2   5  11  165.03  138.24   1 0.28494-0.87541-0.57447 0.40866 0.76732-0.25814
  -2  -5  10 1336.14  212.82   1 0.40896 0.18132-0.88981 0.72393-0.20244 0.66561
  -2   5  10 1352.12  158.31   1 0.06674-0.65827-0.91504 0.74997 0.39778 0.06493
   2   5 -10 1657.10  180.53   1-0.86249 0.27304-0.38923 0.55511 0.32341-0.78568
  -2   5  10 1530.57  240.45   1 0.26686-0.85737-0.57953 0.41301 0.77001-0.30712
  -2  -5   9  929.38  162.73   1 0.38698 0.20328-0.88927 0.72266-0.24377 0.66062
  -2   5   9 1069.43  172.03   1 0.06935-0.66083-0.91610 0.75021 0.39488 0.02156
   2   5  -9  639.07  120.96   1-0.83571 0.24586-0.41720 0.58409 0.35708-0.77354
  -2   5   9 1186.40  249.54   1 0.24507-0.83562-0.58532 0.41809 0.77287-0.35627
  -2  -5   8 5897.52  428.21   1 0.36332 0.22692-0.88667 0.71933-0.28602 0.65655
  -2   5   8 6926.35  497.82   1 0.06996-0.66140-0.91635 0.74964 0.39420-0.02402
   2   5  -8 6326.85  462.65   1-0.80681 0.21701-0.44138 0.60899 0.39272-0.76291
  -2   5   8 7817.04  597.69   1 0.21939-0.80997-0.59172 0.42377 0.77571-0.40540
  -2  -5   7 1425.62  175.50   1 0.33783 0.25239-0.88175 0.71368-0.32919 0.65341
   2   5  -7 1220.22  110.19   1-0.64678 0.05651 0.40440-0.23594 0.64662-0.97012
  -2   5   7 1310.54  164.84   1 0.06822-0.65962-0.91565 0.74811 0.39614-0.07223
   2   5  -7 1153.41  180.09   1-0.77537 0.18562-0.46462 0.63294 0.42769-0.75161
  -2   5   7 1751.97  251.00   1 0.18963-0.78026-0.59856 0.42990 0.77830-0.45428
  -2  -5   6  395.77  100.66   1 0.31110 0.27973-0.87303 0.70362-0.37553 0.65319
   2   5  -6  413.77   63.04   1-0.64541 0.05565 0.26599-0.09691 0.71601-0.99373
  -2   5   6  399.58  135.46   1 0.06368-0.65504-0.91377 0.74541 0.40119-0.12355
   2   5  -6  321.40  126.80   1-0.74143 0.15173-0.48680 0.65584 0.46184-0.73948
  -2   5   6  604.03  201.30   1 0.15568-0.74635-0.60564 0.43626 0.78035-0.50262
  -2  -5   5 1176.26  168.04   1 0.28149 0.30924-0.86255 0.69247-0.42041 0.65179
   2   5  -5 1132.63  169.27   1-0.62897 0.03927 0.12746 0.04228 0.76690-0.99833
  -2   5   5 1785.73  186.64   1 0.05575-0.64707-0.91039 0.74121 0.40995-0.17859
   2   5  -5 1866.84  232.61   1-0.70507 0.11543-0.50778 0.67754 0.49499-0.72636
  -2   5   5 1109.69  186.85   1 0.11745-0.70816-0.61269 0.44259 0.78154-0.55010
  -2  -5   4 3251.28  236.77   1 0.24965 0.34099-0.84884 0.67809-0.46597 0.65107
   2   5  -4 2705.72  345.04   1-0.60086 0.01082-0.00446 0.17508 0.79933-0.98449
  -2   5   4 3758.13  251.57   1 0.04363-0.63490-0.90498 0.73497 0.42320-0.23811
   2   5  -4 3414.75  273.54   1-0.66650 0.07667-0.52742 0.69812 0.52686-0.71185
  -2   5   4 3525.47  327.18   1 0.07495-0.66569-0.61940 0.44859 0.78148-0.59632
  -2  -5   3 4272.89  310.22   1 0.21546 0.37508-0.83152 0.66011-0.51199 0.65082
  -2   5   3 4291.61  271.45   1 0.02624-0.61747-0.89666 0.72583 0.44193-0.30311
   2   5  -3 5781.54  392.75   1-0.62580 0.03609-0.54561 0.71701 0.55737-0.69612
  -2   5   3 5359.67  361.05   1 0.02825-0.61904-0.62544 0.45391 0.77976-0.64089
   2  -5  -243147.18 1238.42   1 0.59280-0.00207-0.74095 0.91288 0.31555-0.40821
  -2  -5   246460.18 1422.64   1 0.17903 0.41163-0.81039 0.63837-0.55786 0.65041
  -2   5   243118.39 1243.40   1-0.47028-0.12032 0.01534-0.18717-0.88238 0.97492
   2   5  -247285.74 1404.83   1-0.52359-0.06627-0.23330 0.40518 0.81939-0.91182
  -2   5   245384.98 1353.00   1 0.00221-0.59333-0.88439 0.71264 0.46673-0.37427
   2   5  -254770.21 1667.08   1-0.58326-0.00634-0.56220 0.73431 0.58628-0.67878
  -2   5   239771.62 1254.81   1-0.02177-0.56845-0.62995 0.45750 0.77632-0.68377
   2  -5  -1  232.59   33.23   1 0.57087 0.01983-0.79160 0.96427 0.21783-0.26417
  -2  -5   1  377.72  163.49   1 0.14020 0.45042-0.78483 0.61216-0.60363 0.64990
  -2   5   1  432.54   82.36   1-0.31147-0.27914-0.28054 0.10792-0.90789 0.95416
   2   5  -1  508.68   84.88   1-0.48146-0.10835-0.32753 0.50007 0.81296-0.85917
  -2   5   1  478.91   97.36   1-0.03083-0.56025-0.86517 0.69263 0.50051-0.45428
   2   5  -1  238.42  114.92   1-0.53919-0.05030-0.57709 0.74990 0.61338-0.65963
  -2   5   1   34.29  115.73   1-0.07625-0.51410-0.63348 0.46037 0.76998-0.72371
   2  -5   0  696.24   65.06   1 0.55883 0.03185-0.81090 0.98430 0.17358-0.17358
  -2  -5   0  890.24  127.58   1 0.09921 0.49137-0.75474 0.58140-0.64847 0.64847
  -2   5   0  611.96   73.96   1-0.18494-0.40519-0.46154 0.28817-0.86762 0.86762
   2   5   0 1336.65  129.73   1-0.43986-0.15016-0.40697 0.58013 0.80055-0.80055
  -2   5   0  339.22   52.08   1-0.07599-0.51505-0.83517 0.66183 0.54470-0.54470
   2  -5   0  354.66   59.58   1 0.54786 0.04309-0.77357 0.94694-0.31848 0.31848
   2   5   0  917.71  180.69   1-0.49398-0.09539-0.59018 0.76370 0.63847-0.63847
  -2   5   0  804.96  147.35   1-0.13389-0.45659-0.63513 0.46135 0.76070-0.76070
   2  -5   1 1069.89   88.27   1 0.55250 0.03817-0.81953 0.99367 0.15197-0.10564
  -2  -5  -1 1370.98  159.48   1 0.05638 0.53416-0.71999 0.54600-0.69168 0.64540
  -2   5  -1  686.51   72.87   1-0.08880-0.50159-0.57758 0.40355-0.81148 0.76520
   2   5   1 1029.15  107.97   1-0.40076-0.18921-0.47413 0.64801 0.78395-0.73775
  -2   5  -1  795.69   83.49   1-0.13826-0.45274-0.78659 0.61244 0.60178-0.64801
   2  -5   1  582.18   65.42   1 0.56868 0.02228-0.73680 0.91091-0.36566 0.41199
   2   5   1 1293.40  193.83   1-0.44848-0.14116-0.60255 0.77666 0.66013-0.61388
  -2   5  -1  842.89  144.28   1-0.19408-0.39652-0.63452 0.46007 0.74813-0.79441
   2  -5   2  144.61   47.05   1 0.54973 0.04091-0.82303 0.99790 0.14284-0.05017
  -2   5  -2  293.57   91.60   1-0.01634-0.57406-0.65314 0.47841-0.75705 0.66450
  -2  -5  -2  222.16  132.12   1 0.01227 0.57832-0.68042 0.50569-0.73271 0.64016
   2   5   2  239.24   74.76   1-0.36489-0.22502-0.52981 0.70438 0.76560-0.67320
  -2   5  -2    8.23   19.19   1-0.22508-0.36541-0.70477 0.53004 0.67277-0.76519
   2  -5   2  130.31   60.34   1 0.59657-0.00543-0.67429 0.84925-0.43523 0.52795
   2   5   2  -29.17   91.07   1-0.40261-0.18693-0.61196 0.78678 0.68073-0.58823
  -2   5  -2  445.98  200.34   1-0.25589-0.33367-0.63069 0.45586 0.73263-0.82513
   2  -5   3  137.42   62.19   1 0.54932 0.04131-0.82353 0.99914 0.14150-0.00249
  -2  -5  -3  110.92  120.30   1-0.03259 0.62318-0.63701 0.46158-0.77016 0.63133
  -2   5  -3  137.25   26.52   1-0.35347-0.23694-0.54650 0.37121 0.75920-0.89780
   2   5   3  167.26   81.27   1-0.33277-0.25709-0.57556 0.75084 0.74698-0.60838
  -2   5  -3  413.54  162.66   1-0.31906-0.27061-0.62463 0.44909 0.71276-0.85151
   2   5   3   47.43   93.21   1-0.35714-0.23229-0.61954 0.79507 0.69901-0.56025
   2  -5   4  360.23   80.72   1 0.55052 0.04010-0.82205 0.99839 0.14541 0.03992
  -2  -5  -4   38.02   82.86   1-0.07731 0.66788-0.59019 0.41407-0.80354 0.61844
   2   5   4  340.84   89.66   1-0.30450-0.28547-0.61230 0.78848 0.72962-0.54478
   2   5   4  250.82  128.23   1-0.31265-0.27667-0.62538 0.80163 0.71494-0.52994
  -2   5  -4  286.04  111.91   1-0.38245-0.20733-0.61552 0.43928 0.68909-0.87409
   2  -5   5  540.98   90.56   1 0.55282 0.03777-0.81911 0.99618 0.15306 0.07860
  -2  -5  -5  843.28  165.39   1-0.12098 0.71154-0.54098 0.36416-0.83228 0.60090
   2   5   5  894.81  143.86   1-0.28011-0.30982-0.64259 0.81950 0.71316-0.48210
  -2   5  -5  791.61  168.98   1-0.44523-0.14466-0.60328 0.42632 0.66167-0.89292
   2   5   5  992.18  169.57   1-0.26970-0.31951-0.62961 0.80657 0.72859-0.49733
   2  -5   6 1065.34  128.90   1 0.55591 0.03467-0.81500 0.99281 0.16348 0.11452
  -2  -5  -6  923.48  132.80   1-0.16227 0.75297-0.49032 0.31257-0.85629 0.57907
   2   5   6  969.17  130.51   1-0.25939-0.33049-0.66697 0.84460 0.69846-0.42119
  -2   5  -6 1398.92  215.82   1-0.50727-0.08275-0.58655 0.40880 0.63137-0.90886
   2   5   6 1359.35  170.16   1-0.22999-0.36004-0.63299 0.81076 0.73920-0.46155
   2  -5   7   69.80   54.48   1 0.55953 0.03104-0.80990 0.98845 0.17600 0.14832
  -2  -5  -7  308.92  135.93   1-0.20120 0.79195-0.44025 0.26176-0.87503 0.55161
   2   5   7  329.92  101.59   1-0.24209-0.34775-0.68642 0.86478 0.68571-0.36223
  -2   5  -7  219.33  141.43   1-0.56650-0.02363-0.56812 0.38967 0.59691-0.92064
   2   5   7  127.84  116.43   1-0.19171-0.39820-0.63459 0.81302 0.74869-0.42476
   2  -5   8   97.03   64.18   1 0.56350 0.02705-0.80392 0.98320 0.19018 0.18048
  -2  -5  -8  255.87  111.62   1-0.23685 0.82765-0.39163 0.21241-0.88911 0.51948
   2   5   8  404.51  133.87   1-0.22794-0.36185-0.70174 0.88083 0.67497-0.30528
  -2   5  -8  222.28  103.75   1-0.62295 0.03270-0.54679 0.36763 0.55940-0.92939
   2   5   8  105.01   86.87   1-0.15639-0.43338-0.63519 0.81428 0.75635-0.38615
   2  -5   9  380.91   96.51   1 0.56769 0.02284-0.79713 0.97714 0.20567 0.21132
  -2  -5  -9  326.47  109.47   1-0.26883 0.85968-0.34559 0.16564-0.89905 0.48322
   2   5   9  268.55   95.31   1-0.21667-0.37308-0.71358 0.89339 0.66622-0.25031
  -2   5  -9  398.90  131.74   1-0.67611 0.08574-0.52277 0.34290 0.51921-0.93544
   2   5   9  431.81  131.29   1-0.12439-0.46525-0.63501 0.81477 0.76241-0.34593
   2  -5  10   38.25   71.37   1 0.57200 0.01851-0.78957 0.97032 0.22223 0.24110
  -2  -5 -10  265.06  105.93   1-0.29751 0.88822-0.30243 0.12206-0.90555 0.44289
   2   5  10  588.46  178.50   1-0.20801-0.38170-0.72245 0.90298 0.65938-0.19726
  -2   5 -10   72.27   69.39   1-0.72589 0.13574-0.49608 0.31557 0.47641-0.93914
   2   5  10  238.52  115.50   1-0.09597-0.49355-0.63429 0.81472 0.76711-0.30435
   2  -5  11 3788.92  465.47   1 0.57634 0.01415-0.78127 0.96275 0.23967 0.26999
  -2  -5 -11 3544.26  432.23   1-0.32191 0.91261-0.26383 0.08276-0.90926 0.40034
   2   5  11 3491.95  435.41   1-0.20172-0.38794-0.72878 0.91004 0.65435-0.14602
  -2   5 -11 2740.45  351.47   1-0.77137 0.18116-0.46737 0.28614 0.43189-0.94090
   2   5  11 3295.52  421.52   1-0.07132-0.51807-0.63324 0.81433 0.77065-0.26162
   2  -5  12 2846.32  275.37   1 0.58064 0.00983-0.77224 0.95446 0.25784 0.29815
  -2  -5 -12 3437.99  316.57   1-0.34264 0.93334-0.22971 0.04794-0.91094 0.35576
   2   5  12 2690.90  279.28   1-0.19758-0.39203-0.73289 0.91487 0.65102-0.09647
  -2   5 -12 3093.09  309.35   1-0.81267 0.22240-0.43672 0.25476 0.38579-0.94107
   2   5  12 3678.19  348.29   1-0.05057-0.53869-0.63206 0.81381 0.77326-0.21796
   2  -5  1312494.12 1008.54   1 0.58486 0.00560-0.76249 0.94545 0.27664 0.32570
  -2  -5 -1312868.39 1024.73   1-0.35994 0.95064-0.20022 0.01775-0.91123 0.30978
  -2   5 -1313017.16 1041.66   1-0.85095 0.26011-0.40057 0.21784 0.33973-0.94068
   2   5  1311480.68  926.11   1-0.03381-0.55532-0.63089 0.81332 0.77512-0.17354
   2  -5  14  313.00  122.72   1 0.58893 0.00151-0.75203 0.93572 0.29595 0.35271
   2   5  14  449.39  147.96   1-0.19499-0.39453-0.73544 0.91887 0.64892-0.00195
  -2   5 -14  642.29  125.55   1-0.88353 0.29252-0.36671 0.18324 0.29135-0.93853
   2   5  14  276.43  112.86   1-0.02109-0.56791-0.62989 0.81298 0.77639-0.12853
  -2  -6  12  213.64   97.28   1 0.46074 0.24771-0.88243 0.71782-0.09500 0.65066
  -2   6  12  266.22  111.77   1-0.01201-0.69765-0.87640 0.71267 0.48142 0.07333
   2   6 -12  306.83  110.39   1-0.89154 0.18411-0.35739 0.52180 0.27823-0.83295
  -2   6  12  731.53  201.71   1 0.16108-0.86971-0.60456 0.43947 0.78009-0.22463
  -2   6  11  161.51   91.58   1-0.00944-0.70018-0.87787 0.71334 0.47879 0.02973
   2   6 -11  400.03  127.51   1-0.86972 0.16246-0.38179 0.54693 0.31276-0.82126
  -2   6  11  563.20  185.50   1 0.14643-0.85510-0.60743 0.44163 0.78075-0.27157
  -2  -6  10 2697.69  293.67   1 0.42656 0.28177-0.88876 0.72288-0.16772 0.63089
  -2   6  10 2603.05  277.45   1-0.00861-0.70097-0.87834 0.71301 0.47794-0.01563
   2   6 -10 2430.66  260.24   1-0.84550 0.13769-0.40829 0.57447 0.34412-0.80685
  -2   6  10 4542.30  501.25   1 0.12872-0.83743-0.61071 0.44419 0.78131-0.31843
  -2  -6   9  192.73   86.22   1 0.40769 0.30062-0.88983 0.72322-0.20489 0.62175
  -2   6   9  417.81  123.72   1-0.00976-0.69979-0.87769 0.71156 0.47911-0.06304
   2   6  -9  270.43  116.75   1-0.81970 0.11195-0.43096 0.59786 0.37728-0.79374
  -2   6   9 1044.14  285.53   1 0.10786-0.81661-0.61430 0.44707 0.78165-0.36505
  -2  -6   8  270.41   98.98   1 0.38763 0.32066-0.88932 0.72197-0.24258 0.61312
  -2   6   8  287.36  106.86   1-0.01317-0.69633-0.87573 0.70879 0.48261-0.11277
   2   6  -8  430.36  152.37   1-0.79200 0.08430-0.45268 0.62029 0.40963-0.77982
  -2   6   8  394.00  225.55   1 0.08379-0.79258-0.61810 0.45015 0.78161-0.41130
  -2  -6   7  328.19  107.38   1 0.36631 0.34195-0.88711 0.71903-0.28080 0.60502
  -2   6   7  615.02  125.21   1-0.01921-0.69025-0.87219 0.70445 0.48877-0.16516
   2   6  -7  698.80  211.24   1-0.76247 0.05482-0.47337 0.64170 0.44107-0.76499
  -2   6   7  543.70  238.55   1 0.05647-0.76530-0.62196 0.45329 0.78100-0.45698
  -2  -6   6  368.51  161.71   1 0.34366 0.36458-0.88306 0.71425-0.31952 0.59742
   2   6  -6  318.16   90.81   1-0.64549-0.06217 0.26714-0.09806 0.71551-0.99323
  -2   6   6  325.69  128.40   1-0.02834-0.68109-0.86670 0.69816 0.49801-0.22063
   2   6  -6  743.74  199.63   1-0.73122 0.02363-0.49296 0.66200 0.47148-0.74912
  -2   6   6  548.51  193.54   1 0.02588-0.73475-0.62570 0.45632 0.77962-0.50189
  -2  -6   5  480.39  117.31   1 0.32029 0.38851-0.87580 0.70572-0.36107 0.59245
   2   6  -5  269.43   85.18   1-0.63004-0.07757 0.13396 0.03579 0.76491-0.99634
  -2   6   5  468.89  117.45   1-0.04114-0.66825-0.85871 0.68937 0.51080-0.27965
   2   6  -5  678.41  177.32   1-0.69840-0.00914-0.51136 0.68112 0.50074-0.73210
  -2   6   5  636.86  180.70   1-0.00680-0.70116-0.62865 0.45819 0.77765-0.54628
  -2  -6   4  390.24  149.75   1 0.29473 0.41397-0.86752 0.69677-0.40066 0.58576
   2   6  -4  107.21   61.00   1-0.60457-0.10345 0.01035 0.16025 0.79648-0.98163
  -2   6   4  367.85  111.86   1-0.05835-0.65099-0.84741 0.67726 0.52772-0.34280
   2   6  -4  346.04  159.47   1-0.66426-0.04343-0.52849 0.69918 0.52862-0.71361
  -2   6   4   60.37  120.42   1-0.04394-0.66415-0.63162 0.46050 0.77402-0.58892
  -2  -6   3 1778.19  178.29   1 0.26766 0.44095-0.85690 0.68548-0.44054 0.57937
   2   6  -3 1372.27  215.45   1-0.57265-0.13531-0.10253 0.27378 0.81335-0.95222
  -2   6   3 1309.06  123.13   1-0.08097-0.62834-0.83160 0.66066 0.54942-0.41073
   2   6  -3 2079.29  236.35   1-0.62887-0.07871-0.54432 0.71572 0.55518-0.69392
  -2   6   3 1968.35  247.51   1-0.08409-0.62413-0.63383 0.46205 0.76887-0.63005
  -2  -6   210204.78  402.58   1 0.23904 0.46947-0.84375 0.67166-0.48056 0.57311
   2   6  -2 8810.06  308.52   1-0.53660-0.17123-0.20080 0.37268 0.81959-0.91202
  -2   6   2 9474.42  335.24   1-0.11027-0.59900-0.80948 0.63774 0.57668-0.48422
   2   6  -212062.06  511.78   1-0.59251-0.11496-0.55878 0.73089 0.58023-0.67273
  -2   6   211563.24  498.04   1-0.12705-0.58129-0.63505 0.46260 0.76194-0.66939
  -2  -6   1  518.55  115.39   1 0.20889 0.49952-0.82790 0.65515-0.52051 0.56678
   2   6  -1  300.33   68.07   1-0.49996-0.20782-0.28799 0.46053 0.81675-0.86297
  -2   6   1  224.61   67.80   1-0.14800-0.56123-0.77821 0.60566 0.61030-0.56407
   2   6  -1  541.90  216.54   1-0.55547-0.15188-0.57184 0.74465 0.60368-0.64993
  -2   6   1  214.87  152.87   1-0.17255-0.53592-0.63502 0.46190 0.75297-0.70669
   2  -6   0  149.14   39.46   1 0.56975 0.13908-0.79358 0.96698 0.21352-0.21352
  -2  -6   0  313.13   93.14   1 0.17757 0.53114-0.80948 0.63615-0.55963 0.55963
   2   6   0  543.39   85.98   1-0.46386-0.24387-0.36290 0.53608 0.80816-0.80816
  -2   6   0  147.47   42.57   1-0.19571-0.51275-0.73473 0.56145 0.64950-0.64950
   2   6   0  519.55  171.60   1-0.51806-0.18919-0.58347 0.75699 0.62543-0.62543
  -2   6   0  335.61  170.41   1-0.22025-0.48835-0.63349 0.45971 0.74173-0.74173
   2  -6   1  150.12   41.18   1 0.56280 0.14601-0.80500 0.97913 0.18767-0.14133
  -2  -6  -1  414.03  133.63   1 0.14467 0.56400-0.78793 0.61393-0.59852 0.55224
   2   6   1   52.24   52.67   1-0.42941-0.27858-0.42565 0.59952 0.79650-0.75030
  -2   6  -1  241.47   42.62   1-0.25862-0.44988-0.66785 0.49384 0.69791-0.74412
   2   6   1  334.63  119.95   1-0.48060-0.22654-0.59367 0.76789 0.64542-0.59917
  -2   6  -1  370.70  106.88   1-0.26929-0.43808-0.62964 0.45553 0.72871-0.77496
   2  -6   2  243.18   70.95   1 0.55914 0.14966-0.81046 0.98533 0.17465-0.08199
  -2  -6  -2  357.70  128.39   1 0.11061 0.59801-0.76342 0.58877-0.63634 0.54379
   2   6   2  152.88   68.07   1-0.39759-0.31035-0.47927 0.65385 0.78244-0.69004
  -2   6  -2  125.33   31.39   1-0.34060-0.36778-0.56474 0.39016 0.75170-0.84410
   2   6   2  219.18  117.99   1-0.44393-0.26352-0.60357 0.77839 0.66228-0.56978
  -2   6  -2  255.55  167.30   1-0.32021-0.38727-0.62449 0.44967 0.71236-0.80486
   2  -6   3  224.34   70.95   1 0.55775 0.15103-0.81244 0.98804 0.16982-0.03082
  -2  -6  -3  102.22   70.76   1 0.07569 0.63290-0.73606 0.56076-0.67266 0.53383
   2   6   3   96.66   51.43   1-0.36869-0.33919-0.52415 0.69943 0.76767-0.62907
   2   6   3  142.11  115.54   1-0.40758-0.29976-0.61103 0.78656 0.67861-0.53986
  -2   6  -3  408.98  170.72   1-0.37199-0.33560-0.61725 0.44171 0.69327-0.83202
   2  -6   4  273.44  103.11   1 0.55798 0.15078-0.81211 0.98845 0.17062 0.01470
  -2  -6  -4 1090.82  145.21   1 0.04026 0.66829-0.70606 0.53010-0.70699 0.52189
   2   6   4  756.28  113.72   1-0.34291-0.36492-0.56150 0.73749 0.75307-0.56826
  -2   6  -4  735.16  149.09   1-0.42411-0.28358-0.60778 0.43153 0.67136-0.85636
   2   6   4  723.65  174.79   1-0.37226-0.33496-0.61720 0.79345 0.69316-0.50815
   2  -6   541383.58 1742.57   1 0.55938 0.14937-0.81011 0.98718 0.17551 0.05615
  -2  -6  -540692.05 1720.57   1 0.00476 0.70389-0.67341 0.49658-0.73925 0.50787
   2   6   540945.97 1738.23   1-0.32026-0.38751-0.59241 0.76911 0.73923-0.50823
  -2   6  -539405.57 1699.61   1-0.47606-0.23174-0.59600 0.41904 0.64663-0.87789
   2   6   549779.98 2122.30   1-0.33835-0.36877-0.62219 0.79915 0.70596-0.47471
   2  -6   6 3541.85  217.40   1 0.56163 0.14710-0.80678 0.98459 0.18347 0.09453
  -2  -6  -6 4185.79  259.14   1-0.03024 0.73889-0.63937 0.46185-0.76829 0.49064
   2   6   6 4190.20  285.74   1-0.30065-0.40729-0.61720 0.79483 0.72709-0.44982
  -2   6  -6 4676.75  354.53   1-0.52787-0.18002-0.58056 0.40282 0.61991-0.89739
   2   6   6 4143.98  295.44   1-0.30617-0.40084-0.62610 0.80378 0.71711-0.43960
   2  -6   7 3972.05  466.05   1 0.56450 0.14422-0.80235 0.98089 0.19382 0.13051
  -2  -6  -7 4649.96  547.39   1-0.06424 0.77288-0.60424 0.42602-0.79420 0.47027
   2   6   7 4331.51  516.97   1-0.28396-0.42394-0.63793 0.81629 0.71582-0.39233
  -2   6  -7 4178.27  517.21   1-0.57796-0.13005-0.56411 0.38566 0.58969-0.91342
   2   6   7 4587.59  567.70   1-0.27603-0.43087-0.62907 0.80746 0.72668-0.40292
   2  -6   8  139.48   88.76   1 0.56779 0.14091-0.79696 0.97624 0.20605 0.16461
  -2  -6  -8  243.29   94.23   1-0.09672 0.80534-0.56875 0.38983-0.81680 0.44659
   2   6   8  108.20   86.84   1-0.26999-0.43787-0.65465 0.83374 0.70606-0.33636
  -2   6  -8  293.93  137.02   1-0.62640-0.08172-0.54536 0.36620 0.55695-0.92693
   2   6   8  626.34  160.94   1-0.24822-0.45857-0.63123 0.81033 0.73479-0.36479
   2  -6   9  119.44   84.38   1 0.57138 0.13730-0.79068 0.97070 0.21982 0.19717
   2   6   9  119.14   68.04   1-0.25855-0.44925-0.66793 0.84774 0.69786-0.28195
  -2   6  -9  168.91  105.89   1-0.67280-0.03543-0.52439 0.34453 0.52187-0.93810
   2   6   9   85.23   90.45   1-0.22424-0.48353-0.63329 0.81305 0.74070-0.32422
   2  -6  10  207.07  111.80   1 0.57516 0.13350-0.78359 0.96435 0.23485 0.22848
   2   6  10  229.99  110.47   1-0.24947-0.45830-0.67823 0.85876 0.69120-0.22908
  -2   6 -10  337.09  134.96   1-0.71705 0.00900-0.50115 0.32063 0.48442-0.94715
   2   6  10  289.08  150.19   1-0.20182-0.50583-0.63426 0.81469 0.74630-0.28355
   2  -6  11  384.11  127.43   1 0.57903 0.12961-0.77572 0.95721 0.25093 0.25874
   2   6  11  433.77  144.02   1-0.24254-0.46518-0.68593 0.86719 0.68605-0.17772
  -2   6 -11  403.03  124.70   1-0.75837 0.05026-0.47606 0.29483 0.44521-0.95422
   2   6  11  694.06  173.39   1-0.18235-0.52516-0.63483 0.81592 0.75082-0.24179
   2  -6  12  544.88  162.62   1 0.58293 0.12570-0.76708 0.94930 0.26789 0.28811
   2   6  12  724.62  160.70   1-0.23760-0.47007-0.69134 0.87332 0.68234-0.12779
  -2   6 -12  535.53  169.08   1-0.79676 0.08860-0.44912 0.26716 0.40428-0.95956
   2   6  12  606.97  194.70   1-0.16601-0.54138-0.63511 0.81686 0.75437-0.19906
  -2  -7   8 2546.00  417.48   1 0.41689 0.40944-0.88951 0.72216-0.18698 0.55752
  -2   7   8 3082.80  492.23   1-0.09599-0.73166-0.82050 0.65356 0.56352-0.19368
   2   7  -8 1470.23  284.04   1-0.78980-0.03579-0.45430 0.62191 0.41207-0.78226
  -2   7   8 3214.37  576.35   1-0.03689-0.78882-0.63112 0.46266 0.77480-0.40459
  -2  -7   7  396.27  152.89   1 0.39943 0.42688-0.88981 0.72174-0.22062 0.54484
  -2   7   7  343.27  107.28   1-0.10548-0.72214-0.81323 0.64549 0.57229-0.24868
   2   7  -7  466.38  215.34   1-0.76285-0.06269-0.47312 0.64144 0.44068-0.76460
  -2   7   7  590.77  224.72   1-0.06140-0.76443-0.63271 0.46358 0.77194-0.44801
  -2  -7   6  183.54  107.81   1 0.38112 0.44517-0.88882 0.72001-0.25445 0.53235
  -2   7   6  187.44   87.81   1-0.11816-0.70941-0.80320 0.63466 0.58386-0.30648
   2   7  -6  200.69  183.12   1-0.73473-0.09075-0.49086 0.65991 0.46820-0.74584
  -2   7   6  227.00  215.72   1-0.08852-0.73744-0.63401 0.46422 0.76823-0.49057
  -2  -7   5  283.22  143.67   1 0.36193 0.46433-0.88646 0.71692-0.28842 0.52001
  -2   7   5  184.67   87.00   1-0.13459-0.69294-0.78969 0.62035 0.59855-0.36740
   2   7  -5  343.03  217.12   1-0.70559-0.11984-0.50750 0.67726 0.49454-0.72591
  -2   7   5  238.07  232.74   1-0.11819-0.70791-0.63490 0.46444 0.76349-0.53212
  -2  -7   4  921.29  185.61   1 0.34186 0.48438-0.88267 0.71240-0.32252 0.50779
  -2   7   4 1008.82  158.71   1-0.15440-0.67193-0.77333 0.60294 0.61490-0.43005
   2   7  -4 1124.29  259.30   1-0.67570-0.14986-0.52297 0.69366 0.51953-0.70453
  -2   7   4  913.44  223.16   1-0.15029-0.67594-0.63520 0.46408 0.75757-0.57247
  -2  -7   3 1483.47  211.33   1 0.32143 0.50524-0.87613 0.70471-0.35926 0.49809
  -2   7   3 1059.61  133.43   1-0.18049-0.64589-0.74942 0.57831 0.63700-0.49837
   2   7  -3 1651.89  290.80   1-0.64507-0.18038-0.53730 0.70870 0.54330-0.68205
  -2   7   3 1442.22  243.74   1-0.18468-0.64167-0.63477 0.46299 0.75029-0.61147
  -2  -7   2 7193.57  602.02   1 0.29948 0.52709-0.86919 0.69711-0.39345 0.48600
   2   7  -2 6254.64  558.63   1-0.55801-0.26787-0.14621 0.31810 0.81684-0.90942
  -2   7   2 6454.77  525.60   1-0.21289-0.61353-0.71747 0.54564 0.66325-0.57082
   2   7  -2 7535.77  648.24   1-0.61398-0.21136-0.55045 0.72256 0.56570-0.65819
  -2   7   2 7570.18  686.57   1-0.22121-0.60527-0.63344 0.46099 0.74149-0.64893
  -2  -7   1  578.23  117.48   1 0.27664 0.54984-0.86062 0.68787-0.42753 0.47381
   2   7  -1  920.30  112.08   1-0.52572-0.30004-0.22811 0.40064 0.81949-0.86571
   2   7  -1 1585.81  263.58   1-0.58266-0.24257-0.56242 0.73523 0.58667-0.63292
  -2   7   1  439.39  162.73   1-0.25892-0.56614-0.63046 0.45778 0.73175-0.68550
  -2  -7   0 2981.33  301.34   1 0.25293 0.57345-0.85037 0.67695-0.46139 0.46139
   2   7   0 2862.76  260.19   1-0.49411-0.33160-0.30079 0.47398 0.81570-0.81570
   2   7   0 5400.78  588.50   1-0.55134-0.27378-0.57320 0.74672 0.60617-0.60617
  -2   7   0 3691.85  393.23   1-0.29908-0.52609-0.62686 0.45346 0.71943-0.71943
  -2  -7  -1  187.27   92.69   1 0.22842 0.59786-0.83839 0.66430-0.49488 0.44861
   2   7   1  184.78   77.21   1-0.46367-0.36198-0.36326 0.53710 0.80811-0.76189
   2   7   1  473.20  224.25   1-0.52028-0.30473-0.58282 0.75704 0.62419-0.57794
  -2   7  -1  206.50   88.79   1-0.34062-0.48466-0.62188 0.44777 0.70514-0.75139
  -2  -7  -2   80.43   62.58   1 0.20319 0.62299-0.82469 0.64993-0.52782 0.43527
   2   7   2  223.76   78.00   1-0.43508-0.39088-0.41558 0.59016 0.79874-0.70633
   2   7   2  731.87  207.66   1-0.48973-0.33517-0.59131 0.76623 0.64070-0.54821
  -2   7  -2  441.65  171.86   1-0.38324-0.44215-0.61539 0.44057 0.68877-0.78127
  -2  -7  -3  483.67  102.24   1 0.17801 0.64871-0.80976 0.63445-0.55910 0.42027
   2   7   3  411.41  111.10   1-0.40881-0.41710-0.46089 0.63617 0.78768-0.64908
  -2   7  -3  336.41  134.44   1-0.42660-0.39890-0.60727 0.43173 0.67024-0.80899
   2   7   3  835.82  206.52   1-0.46052-0.36473-0.59978 0.77532 0.65435-0.51560
   2   7   4  336.44  117.03   1-0.38503-0.44082-0.49919 0.67517 0.77624-0.59144
  -2   7  -4  217.10  116.71   1-0.47035-0.35526-0.59741 0.42117 0.64950-0.83450
   2   7   4  371.47  186.21   1-0.43187-0.39327-0.60617 0.78242 0.66785-0.48285
   2   7   5 7253.15  892.30   1-0.36382-0.46198-0.53140 0.70810 0.76501-0.53400
   2   7   5 8586.56 1084.87   1-0.40451-0.42052-0.61160 0.78857 0.67993-0.44867
  -2   7  -5 8285.20 1046.19   1-0.51457-0.31109-0.58448 0.40743 0.62737-0.85861
   2  -7   6 1237.35  187.87   1 0.57287 0.25402-0.78797 0.96578 0.22565 0.05234
   2   7   6 1791.31  255.83   1-0.34516-0.48058-0.55834 0.73574 0.75439-0.47719
  -2   7  -6 1835.95  286.02   1-0.55806-0.26770-0.57098 0.39323 0.60211-0.87959
   2   7   6 1139.63  217.77   1-0.37866-0.44626-0.61616 0.79383 0.69062-0.41311
   2  -7   7 2515.22  333.42   1 0.57457 0.25229-0.78473 0.96327 0.23248 0.09185
   2   7   7 3526.49  454.58   1-0.32898-0.49670-0.58072 0.75882 0.74466-0.42126
  -2   7  -7 2842.05  399.24   1-0.60088-0.22500-0.55561 0.37716 0.57466-0.89839
   2   7   7 4163.18  602.38   1-0.35455-0.47026-0.61992 0.79831 0.69998-0.37623
  -3   0  19  143.63   94.24   1 0.58090-0.58111-0.77167 0.52554 0.25897 0.62137
  -3   0  19  -13.57  112.95   1 0.22323-0.22382-0.95197 0.70805 0.20952 0.66974
   3   0 -19  124.71   52.21   1-0.88595 0.88575 0.20226 0.04370-0.41734-0.46209
  -3   0  18  171.78   76.33   1 0.57133-0.57152-0.79079 0.54393 0.21960 0.61440
  -3   0  18  425.71  230.04   1 0.25103-0.25159-0.95243 0.70766 0.17276 0.66023
   3   0 -18  156.67   66.00   1-0.89848 0.89830 0.18489 0.06179-0.39815-0.43499
  -3   0  17  208.09   90.95   1 0.56027-0.56045-0.80881 0.56121 0.17864 0.60903
  -3   0  17  661.09  228.79   1 0.27873-0.27926-0.95082 0.70520 0.13503 0.65168
   3   0 -17  219.05   79.04   1-0.90988 0.90972 0.16798 0.07942-0.37931-0.40755
  -3   0  16  164.79   93.61   1 0.54757-0.54772-0.82566 0.57733 0.13580 0.60553
  -3   0  16  416.77  223.55   1 0.30637-0.30689-0.94703 0.70056 0.09621 0.64422
   3   0 -16  358.16  110.86   1-0.92021 0.92005 0.15157 0.09656-0.36088-0.37969
  -3   0  15  284.36   88.79   1 0.53381-0.53376-0.84075 0.59169 0.09042 0.60415
  -3   0  15   78.07  208.42   1 0.33402-0.33450-0.94089 0.69356 0.05614 0.63801
   3   0 -15  129.80   91.50   1-0.92951 0.92937 0.13569 0.11316-0.34292-0.35137
  -3   0  14  371.10  129.64   1 0.51704-0.51701-0.85488 0.60509 0.04283 0.60543
  -3   0  14 -108.80  144.30   1 0.36165-0.36167-0.93221 0.68288 0.01385 0.63471
   3   0 -14  178.75   94.41   1-0.93783 0.93771 0.12041 0.12916-0.32551-0.32249
  -3   0  13  192.12   96.18   1 0.49768-0.49765-0.86732 0.61681-0.00784 0.60981
  -3   0  13  -18.51  137.34   1 0.38940-0.38943-0.92060 0.67050-0.02922 0.63147
   3   0 -13  194.12   88.92   1-0.94524 0.94513 0.10579 0.14451-0.30874-0.29297
  -3   0  12  463.57  122.49   1 0.47518-0.47517-0.87768 0.62645-0.06220 0.61786
  -3   0  12  814.53  199.77   1 0.41724-0.41729-0.90576 0.65489-0.07414 0.63006
   3   0 -12  674.41  136.64   1-0.95176 0.95166 0.09191 0.15911-0.29273-0.26269
  -3   0  11  625.93  189.32   1 0.44517-0.44522-0.88721 0.63558-0.12112 0.63072
   3   0 -11  677.41  150.57   1-0.95743 0.95735 0.07891 0.17284-0.27764-0.23150
  -3   0  10  233.22   98.53   1 0.41819-0.41820-0.88943 0.63695-0.18442 0.64760
  -3   0  10  325.37  191.26   1 0.47313-0.47319-0.86434 0.61194-0.17046 0.63372
   3   0 -10  396.56   97.88   1-0.96229 0.96222 0.06691 0.18556-0.26365-0.19920
  -3   0   9  622.66  112.46   1 0.38107-0.38111-0.88881 0.63560-0.25453 0.67138
  -3   0   9 1175.73  219.94   1 0.50091-0.50094-0.83633 0.58283-0.22278 0.63981
   3   0  -9  659.12   97.09   1-0.96627 0.96634 0.05614 0.19719-0.25132-0.16520
  -3   0   8  363.85   85.43   1 0.33630-0.33636-0.88139 0.62745-0.33171 0.70225
  -3   0   8  445.21  154.47   1 0.52854-0.52858-0.80223 0.54800-0.27760 0.64830
   3   0  -8  453.55  102.66   1-0.96954 0.96964 0.04685 0.20720-0.24039-0.12985
  -3   0   7  265.79   90.85   1 0.28284-0.28227-0.86308 0.60763-0.41843 0.74236
   3   0  -7  618.24  122.86   1-0.02876 0.02848-0.64085 0.89597-0.76711 0.44319
  -3   0   7   54.76   97.81   1 0.55556-0.55562-0.76076 0.50580-0.33552 0.65988
   3   0  -7  106.24   75.76   1-0.97202 0.97214 0.03937 0.21540-0.23157-0.09239
  -3   0   6  132.05  103.84   1 0.21632-0.21585-0.83199 0.57587-0.51087 0.78852
   3   0  -6  -71.24   62.20   1-0.07544 0.07518-0.59221 0.84803-0.80223 0.52458
  -3   0   6  278.88  138.08   1 0.58184-0.58155-0.70996 0.45416-0.39674 0.67492
   3   0  -6  224.60   96.95   1-0.97365 0.97380 0.03419 0.22130-0.22544-0.05224
  -3   0   5  114.52  109.90   1 0.13544-0.13535-0.78150 0.52478-0.60901 0.84040
   3   0  -5    5.04   53.80   1-0.13386 0.13393-0.52497 0.78138-0.84052 0.60950
  -3   0   5  160.16   61.06   1-0.64775 0.64803 0.36814-0.62450 0.66699-0.43593
  -3   0   5  112.51   98.13   1 0.60561-0.60533-0.64876 0.39223-0.46079 0.69261
   3   0  -5   22.47   68.60   1-0.97432 0.97450 0.03200 0.22420-0.22284-0.00855
  -3   0   5  190.31   66.54   1-0.98096 0.98117-0.18743-0.06859 0.05068 0.18054
  -3   0   4  150.26   83.73   1 0.03875-0.03870-0.70474 0.44736-0.70840 0.89351
   3   0  -4  304.30   96.38   1-0.20506 0.20508-0.43511 0.69225-0.87670 0.69189
  -3   0   4  217.14   59.81   1-0.64760 0.64760 0.30714-0.56414 0.69733-0.51219
  -3   0   4  205.50  125.17   1 0.62595-0.62569-0.57478 0.31751-0.52706 0.71252
   3   0  -4  287.71   68.48   1-0.97377 0.97397 0.03381 0.22311-0.22499 0.03987
  -3   0   4  247.59   62.65   1-0.98449 0.98455-0.17253-0.08422 0.03149 0.15348
  -3   0   3  105.01   75.34   1-0.07135 0.07157-0.59664 0.33873-0.79932 0.93815
   3   0  -3   75.57   55.25   1-0.28608 0.28595-0.31996 0.57784-0.90320 0.76440
   3   0  -3  141.50   72.33   1-0.64020 0.64004 0.48587-0.22817 0.59503-0.73367
  -3   0   3  113.33   36.79   1-0.64228 0.64223 0.22816-0.48584 0.73171-0.59286
   3   0  -3   53.30   69.23   1-0.97143 0.97166 0.04116 0.21648-0.23369 0.09484
  -3   0   3  248.75   73.39   1-0.98726 0.98717-0.15849-0.09900 0.01350 0.12523
  -3   0   2  109.26   75.92   1-0.18879 0.18888-0.45655 0.19795-0.86943 0.96184
   3   0  -2  316.07   70.08   1-0.37135 0.37123-0.18025 0.43883-0.91082 0.81829
   3   0  -2  440.00   77.40   1-0.64752 0.64743 0.38147-0.12310 0.65968-0.75211
  -3   0   2  237.84   28.86   1-0.62924 0.62914 0.12908-0.38744 0.76641-0.67383
   3   0  -2  381.51   76.00   1-0.96613 0.96639 0.05652 0.20184-0.25176 0.15920
  -3   0   2  220.53   43.15   1-0.98931 0.98907-0.14574-0.11249-0.00274 0.09524
  -3   0   1  538.19   99.25   1-0.30188 0.30200-0.29562 0.03633-0.90634 0.95261
   3   0  -1  761.11   90.35   1-0.45144 0.45138-0.02560 0.28481-0.89193 0.84565
   3   0  -1  756.88   95.88   1-0.64515 0.64530 0.26226-0.00322 0.71762-0.76391
  -3   0   1  672.71   70.39   1-0.60420 0.60411 0.00884-0.26795 0.79678-0.75049
   3   0  -1  728.43   60.00   1-0.95555 0.95562 0.08332 0.17566-0.28277 0.23649
  -3   0   1  656.08   58.95   1-0.99070 0.99031-0.13503-0.12393-0.01632 0.06256
  -3   0   0 2082.58  138.90   1-0.39887 0.39898-0.13016-0.12982-0.90772 0.90772
   3   0   0 1908.49  106.32   1-0.51769 0.51763 0.12984 0.13008-0.84565 0.84565
   3   0   0 2728.53  280.49   1-0.62945 0.62966 0.13036 0.12935 0.76602-0.76602
  -3   0   0 1869.62  220.37   1-0.56374 0.56361-0.12957-0.13016 0.81571-0.81571
   3   0   0 2220.00   90.33   1-0.93261 0.93269 0.13013 0.12957-0.33659 0.33659
  -3   0   0 2283.49   85.18   1-0.99147 0.99093-0.12780-0.13191-0.02546 0.02546
  -3   0  -1   83.51   41.98   1 0.56513-0.56454-0.27167 0.01034 0.77898-0.82533
  -3   0  -1  -77.14   67.54   1-0.47316 0.47321 0.02179-0.28246-0.88070 0.83443
   3   0   1   96.98   31.42   1-0.60009 0.60029-0.00745 0.26783 0.79989-0.75360
  -3   0  -1  120.75   43.92   1-0.50403 0.50381-0.27893 0.01850 0.81739-0.86361
   3   0   1   56.85   32.25   1-0.87978 0.87987 0.21040 0.05002-0.42628 0.47256
  -3   0  -1   70.63   35.16   1-0.99154 0.99085-0.12701-0.13343-0.02645-0.01979
  -3   0  -2   16.14   35.94   1 0.59390-0.59340-0.39408 0.13235 0.70140-0.79394
   3   0   2   33.20   37.78   1-0.55942 0.55967-0.14217 0.40319 0.81659-0.72401
  -3   0  -2  174.58   40.55   1-0.42802 0.42775-0.42809 0.16693 0.79594-0.88834
   3   0   2  182.29   21.96   1-0.74223 0.74226 0.34967-0.08866-0.57166 0.66421
  -3   0  -2  101.04   20.47   1-0.99004 0.98920-0.14045-0.12074-0.00946-0.08303
   3   0   3   36.60   55.80   1 0.55854-0.55911-0.24930 0.51206 0.79111-0.65205
  -3   0  -3   24.47   27.04   1 0.60925-0.60881-0.49469 0.23226 0.61974-0.75855
   3   0   3   64.00   60.01   1-0.51009 0.51042-0.26517 0.52692 0.81821-0.67957
  -3   0  -3  183.22   48.45   1-0.34042 0.34009-0.56499 0.30312 0.75159-0.89019
  -3   0  -3   34.73   11.95   1-0.97795 0.97697-0.19843-0.06349 0.06495-0.20369
   3   0   4  322.56   83.40   1 0.57991-0.58047-0.32692 0.59039 0.74620-0.56078
  -3   0  -4  177.92   57.10   1 0.61446-0.61414-0.57573 0.31257 0.53940-0.72465
   3   0   4  318.72   57.89   1-0.45946 0.45985-0.37141 0.63381 0.80680-0.62194
  -3   0  -4  155.91   40.83   1-0.24704 0.24668-0.68094 0.41811 0.68940-0.87425
   3   0   5  322.01   80.07   1 0.59229-0.59263-0.38603 0.64986 0.70722-0.47587
  -3   0  -5  425.50   46.67   1 0.61223-0.61189-0.64008 0.37620 0.46418-0.69574
   3   0   5  407.35   53.98   1-0.41048 0.41092-0.45811 0.72139 0.78843-0.55743
  -3   0  -5  274.17   63.71   1-0.15526 0.15485-0.77257 0.50902 0.61564-0.84670
   3   0   6  117.26   50.74   1 0.60032-0.60062-0.42945 0.69397 0.67466-0.39705
   3   0   6   60.03   56.03   1-0.36688 0.36738-0.52685 0.79084 0.76668-0.48948
  -3   0  -6  119.70   51.21   1-0.06839 0.06819-0.84053 0.57570 0.53743-0.81481
   3   0   7  273.52   67.20   1 0.60519-0.60543-0.46134 0.72656 0.64876-0.32488
   3   0   7   80.30   41.81   1-0.32968 0.33023-0.57977 0.84446 0.74509-0.42169
  -3   0  -7  266.04   72.32   1 0.01003-0.01019-0.88860 0.62297 0.45856-0.78217
  -3   0  -7   38.88   14.91   1-0.82922 0.82905 0.26926-0.53403-0.48977 0.16576
   3   0   7  264.01   32.80   1 0.05228-0.05215-0.62251 0.88801 0.78086-0.45684
   3   0   8  409.23  107.71   1 0.60812-0.60831-0.48441 0.75033 0.62890-0.25876
   3   0   8  214.03   76.52   1-0.29895 0.29949-0.61935 0.88508 0.72596-0.35626
  -3   0  -8  145.51   61.84   1 0.08107-0.08162-0.92070 0.65418 0.38173-0.75191
  -3   0  -8  106.67   24.91   1-0.87045 0.87026 0.22224-0.48774-0.43921 0.06892
   3   0   8  113.68   25.71   1-0.24421 0.24500-0.63213 0.89812 0.73536-0.36515
   3   0   9 1678.81  169.62   1 0.60987-0.61001-0.50067 0.76728 0.61431-0.19789
   3   0   9 1375.96  116.55   1-0.27479 0.27538-0.64896 0.91541 0.70945-0.29354
  -3   0  -9 1137.42   57.84   1-0.87792 0.87771 0.21280-0.47902-0.42891 0.01233
   3   0   9 1118.94   65.05   1-0.38555 0.38623-0.61500 0.88151 0.68783-0.27158
   3   0  10  710.74  106.41   1 0.61089-0.61098-0.51158 0.77888 0.60423-0.14154
   3   0  10  377.07   73.56   1-0.25636 0.25699-0.67044 0.93761 0.69626-0.23414
  -3   0 -10  461.59   44.50   1-0.87519 0.87497 0.21629-0.48323-0.43272-0.03013
   3   0  10  385.70   44.85   1-0.45647 0.45725-0.60073 0.86795 0.65631-0.19381
   3   0  11   88.35   61.31   1 0.61145-0.61149-0.51822 0.78622 0.59797-0.08901
   3   0  11  387.31  102.38   1-0.24294 0.24362-0.68548 0.95339 0.68635-0.17802
  -3   0 -11  238.34   45.05   1-0.86736 0.86712 0.22606-0.49372-0.44337-0.06577
   3   0  11  232.27   46.13   1-0.49436 0.49526-0.59125 0.85919 0.63719-0.12843
   3   0  12  518.89  111.39   1 0.61170-0.61168-0.52140 0.79009 0.59494-0.03972
   3   0  12  326.87  100.56   1-0.23386 0.23458-0.69540 0.96403 0.67950-0.12495
  -3   0 -12  497.82   67.67   1-0.85479 0.85481 0.24182-0.50995-0.45918-0.09611
   3   0  13  348.39  118.96   1 0.61172-0.61166-0.52169 0.79108 0.59466 0.00682
   3   0  13  177.86   93.87   1-0.22851 0.22928-0.70114 0.97049 0.67541-0.07465
  -3   0 -13   75.84   34.98   1-0.84094 0.84097 0.25744-0.52629-0.47595-0.12562
   3   0  14  128.61   81.00   1 0.61155-0.61144-0.51954 0.78963 0.59671 0.05104
   3   0  14  108.99   61.26   1-0.22638 0.22720-0.70340 0.97347 0.67377-0.02680
  -3   0 -14   55.97   25.74   1-0.82467 0.82470 0.27477-0.54433-0.49437-0.15348
   3   0  15  165.75  104.64   1 0.61120-0.61104-0.51529 0.78607 0.60074 0.09327
   3   0  15   24.80   63.97   1-0.22705 0.22791-0.70269 0.97349 0.67428 0.01889
  -3   0 -15   93.10   31.77   1-0.80607 0.80610 0.29340-0.56367-0.51396-0.18016
   3   0  16  823.11  125.47   1 0.61067-0.61046-0.50917 0.78065 0.60647 0.13381
   3   0  16  722.87  126.54   1-0.23015 0.23105-0.69938 0.97091 0.67667 0.06272
   3   0  17  636.32  155.51   1 0.60994-0.60967-0.50138 0.77356 0.61366 0.17289
   3   0  17  661.25  139.35   1-0.23540 0.23635-0.69373 0.96598 0.68067 0.10492
   3   0  18  267.68  136.21   1-0.24257 0.24357-0.68589 0.95887 0.68607 0.14573
   3   0  19   63.04   97.18   1 0.60775-0.60739-0.48130 0.75487 0.63164 0.24745
   3   0  19  225.31   92.67   1-0.25148 0.25252-0.67597 0.94967 0.69268 0.18534
  -3   1  19  471.19  129.88   1 0.60121-0.71957-0.71107 0.46495 0.36456 0.51577
  -3  -1  19  348.64  111.34   1 0.56108-0.44314-0.80760 0.56148 0.18151 0.69882
  -3   1  19  317.10  154.16   1 0.19602-0.31470-0.94962 0.70570 0.24449 0.63477
  -3  -1  19  543.68  204.68   1 0.24207-0.12456-0.95251 0.70859 0.18473 0.69453
   3   1 -19  637.56  127.14   1-0.93908 0.82083 0.11803 0.12793-0.32279-0.55664
  -3   1  18 5377.19  671.88   1 0.59538-0.71373-0.73275 0.48589 0.32953 0.50447
  -3  -1  18 6673.93  829.14   1 0.54897-0.43101-0.82397 0.57711 0.14034 0.69366
  -3   1  18 7479.82  964.77   1 0.22082-0.33947-0.95184 0.70707 0.21266 0.62032
  -3  -1  18 8786.33 1098.39   1 0.27319-0.15566-0.95132 0.70654 0.14266 0.69032
   3  -1 -18 4470.58  806.76   1-0.82300 0.94112 0.27650-0.02971-0.49619-0.33675
   3   1 -18 5246.85  649.45   1-0.94962 0.83139 0.09658 0.15010-0.29813-0.53502
  -3   1  17  196.54   79.94   1 0.58836-0.70669-0.75358 0.50599 0.29314 0.49452
  -3  -1  17  415.26  106.63   1 0.53607-0.41794-0.83855 0.59093 0.09717 0.69001
  -3  -1  17  611.87  205.02   1 0.30426-0.18670-0.94740 0.70178 0.09922 0.68748
  -3   1  17  555.28  185.69   1 0.24542-0.36405-0.95250 0.70688 0.18026 0.60644
   3  -1 -17   81.29   55.22   1-0.83460 0.95271 0.26432-0.01682-0.48329-0.30339
   3   1 -17  750.80  108.03   1-0.95892 0.84071 0.07531 0.17209-0.27346-0.51340
  -3   1  16  301.32   94.77   1 0.58001-0.69833-0.77361 0.52528 0.25512 0.48621
  -3  -1  16  739.76  147.25   1 0.52068-0.40256-0.85211 0.60376 0.05283 0.68804
  -3   1  16  588.89  195.82   1 0.26987-0.38848-0.95157 0.70510 0.14721 0.59322
  -3  -1  16 1536.40  213.27   1 0.33530-0.21772-0.94054 0.69407 0.05424 0.68619
   3  -1 -16  144.51   85.58   1-0.84495 0.96307 0.25300-0.00479-0.47120-0.26920
   3   1 -16  585.50   94.76   1-0.96697 0.84899 0.05419 0.19410-0.24903-0.49145
  -3   1  15  144.43   75.31   1 0.57017-0.68846-0.79286 0.54379 0.21511 0.47989
  -3  -1  15  649.38  158.89   1 0.50334-0.38523-0.86406 0.61499 0.00655 0.68802
  -3   1  15  249.26  220.61   1 0.29423-0.41280-0.94898 0.70165 0.11341 0.58074
  -3  -1  15   31.00  128.11   1 0.36623-0.24810-0.93049 0.68193 0.00685 0.68804
   3  -1 -15  108.91   65.45   1-0.85409 0.97219 0.24263 0.00628-0.46006-0.23407
   3   1 -15  163.42   69.03   1-0.97393 0.85598 0.03328 0.21573-0.22436-0.46984
  -3   1  14  257.26   92.11   1 0.55856-0.67684-0.81129 0.56149 0.17264 0.47603
  -3  -1  14  479.07  149.65   1 0.48378-0.36567-0.87418 0.62439-0.04194 0.69022
  -3   1  14  298.41  143.84   1 0.31852-0.43708-0.94463 0.69646 0.07875 0.56912
  -3  -1  14  622.52  248.07   1 0.39731-0.27919-0.91672 0.66739-0.04180 0.69038
   3  -1 -14  127.91   83.67   1-0.86199 0.98009 0.23333 0.01629-0.45001-0.19783
   3   1 -14  154.99   65.14   1-0.97978 0.86185 0.01252 0.23721-0.19967-0.44826
  -3   1  13 3574.53  263.17   1 0.54575-0.66380-0.82825 0.57775 0.12702 0.47494
  -3  -1  13 3407.53  287.56   1 0.46165-0.34356-0.88217 0.63166-0.09298 0.69495
  -3   1  13 4108.40  377.45   1 0.34281-0.46134-0.93841 0.68938 0.04311 0.55848
  -3  -1  13 4406.94  375.51   1 0.42838-0.31028-0.89883 0.64873-0.09264 0.69488
   3  -1 -13 3913.97  301.92   1-0.86864 0.98674 0.22526 0.02508-0.44125-0.16032
   3   1 -13 3716.96  283.67   1-0.98454 0.86664-0.00808 0.25855-0.17494-0.42670
  -3   1  12  210.98   73.57   1 0.52946-0.64752-0.84476 0.59353 0.07772 0.47794
  -3  -1  12  698.61  149.70   1 0.43694-0.31886-0.88747 0.63646-0.14650 0.70231
  -3   1  12  328.19  221.91   1 0.36715-0.48533-0.93014 0.67927 0.00543 0.55048
  -3  -1  12  647.69  189.02   1 0.45937-0.34127-0.87618 0.62532-0.14586 0.70178
   3  -1 -12  390.21  123.98   1-0.87411 0.99206 0.21766 0.03336-0.43422-0.12121
   3   1 -12  472.43   99.90   1-0.98824 0.87037-0.02857 0.27975-0.15016-0.40520
  -3   1  1158129.85 1852.78   1 0.50983-0.62789-0.85994 0.60800 0.02348 0.48587
  -3  -1  1158116.15 1891.35   1 0.40832-0.29027-0.88982 0.63807-0.20367 0.71316
  -3   1  1166390.10 2173.71   1 0.39155-0.50974-0.91957 0.66794-0.03263 0.54222
  -3  -1  1165603.74 2122.50   1 0.48997-0.37180-0.84799 0.59595-0.20205 0.71175
   3  -1 -1159293.87 1909.64   1-0.87802 0.99599 0.21266 0.03908-0.42876-0.08038
   3   1 -1162867.98 2023.16   1-0.99090 0.87305-0.04894 0.30084-0.12533-0.38375
  -3   1  10 8883.47  270.19   1 0.48578-0.60386-0.87328 0.62062-0.03712 0.50017
  -3  -1  10 9386.89  338.43   1 0.37554-0.25751-0.88826 0.63579-0.26446 0.72763
  -3   1  1011086.84  413.40   1 0.41608-0.53428-0.90645 0.65405-0.07222 0.53549
  -3  -1  10 9930.85  350.66   1 0.52018-0.40203-0.81331 0.56053-0.26062 0.72399
   3  -1 -1010511.51  331.65   1-0.88039 0.99837 0.20960 0.04287-0.42540-0.03745
   3   1 -1010068.01  337.61   1-0.99253 0.87470-0.06920 0.32182-0.10044-0.36236
  -3   1   9 1976.43  134.63   1 0.45623-0.57431-0.88359 0.63038-0.10543 0.52228
  -3  -1   9 1720.41  167.03   1 0.33782-0.21981-0.88175 0.62854-0.32920 0.74606
   3  -1  -9 1816.05  136.60   1 0.02894 0.08884-0.69565 0.94937-0.71778 0.30130
  -3   1   9 1934.79  215.25   1 0.44077-0.55899-0.89040 0.63723-0.11359 0.53053
  -3  -1   9 1928.91  192.57   1 0.54947-0.43133-0.77096 0.51746-0.32201 0.73904
   3  -1  -9 1888.49  140.58   1-0.88098 0.99898 0.20883 0.04436-0.42455 0.00798
   3   1  -9 1539.83  132.21   1-0.99313 0.87533-0.08938 0.34272-0.07546-0.34106
  -3   1   8  232.92   74.52   1 0.41774-0.53584-0.88946 0.63552-0.18532 0.55586
  -3  -1   8  348.58  136.86   1 0.29517-0.17644-0.86768 0.61289-0.40000 0.77021
   3  -1  -8 -108.13   56.99   1-0.00641 0.12422-0.66277 0.91719-0.74879 0.37858
  -3   1   8  333.67  129.53   1 0.46565-0.58388-0.87092 0.61698-0.15702 0.52764
  -3  -1   8  204.31  103.94   1 0.57758-0.45901-0.71920 0.46488-0.38617 0.75709
   3  -1  -8  103.98   53.41   1-0.87946 0.99747 0.21081 0.04311-0.42673 0.05644
   3   1  -8   -3.28   69.02   1-0.99281 0.87455-0.10937 0.36317-0.04863-0.32133
  -3   1   7  655.03   81.43   1 0.36704-0.48516-0.88721 0.63253-0.27952 0.60374
  -3  -1   7  777.46  112.74   1 0.24473-0.12610-0.84651 0.59106-0.47277 0.79670
   3  -1  -7  297.47   50.66   1-0.05503 0.17285-0.61396 0.86908-0.78740 0.46348
  -3   1   7  698.46  156.98   1 0.49062-0.60885-0.84732 0.59236-0.20327 0.52763
  -3  -1   7  598.43  160.53   1 0.60275-0.48419-0.65719 0.40214-0.45252 0.77706
   3  -1  -7  489.97   91.99   1-0.87532 0.99334 0.21613 0.03851-0.43255 0.10854
   3   1  -7  696.92  112.42   1-0.99132 0.87321-0.12935 0.38389-0.02351-0.30020
  -3   1   6 3723.29  127.54   1 0.29975-0.41734-0.86928 0.61316-0.39305 0.67070
  -3  -1   6 3869.60  202.68   1 0.18639-0.06813-0.81490 0.55884-0.54880 0.82647
   3  -1  -6 3580.46  129.19   1-0.12033 0.23817-0.54174 0.79756-0.83188 0.55422
  -3  -1   6 3760.38  310.13   1-0.63971 0.75774 0.20379-0.45945 0.74109-0.46338
  -3   1   6 3022.03  188.51   1 0.51583-0.63407-0.81880 0.56311-0.25192 0.52995
  -3  -1   6 3610.81  195.85   1 0.62406-0.50552-0.58309 0.32729-0.52014 0.79832
   3  -1  -6 4142.70  207.72   1-0.86785 0.98592 0.22624 0.02908-0.44232 0.16466
   3   1  -6 3745.87  175.50   1-0.98879 0.87083-0.14928 0.40456 0.00176-0.27923
  -3   1   5110327.7 2205.32   1 0.20608-0.32378-0.82632 0.56953-0.52412 0.75550
  -3  -1   5107798.5 2205.70   1 0.11934-0.00112-0.76991 0.51319-0.62688 0.85826
   3   1  -5105872.7 2139.85   1-0.11839 0.00004-0.54400 0.80051-0.83068 0.59930
   3  -1  -5103641.3 2062.77   1-0.20441 0.32253-0.43598 0.69239-0.87642 0.64541
   3   1  -5108586.9 2184.63   1-0.63902 0.52077 0.49526-0.23890 0.58852-0.81958
  -3  -1   5113436.2 2269.74   1-0.63086 0.74883 0.13904-0.39537 0.76333-0.53190
  -3   1   5115719.4 2361.71   1 0.54106-0.65931-0.78418 0.52776-0.30382 0.53551
   3  -1  -5115717.5 2352.27   1-0.85582 0.97388 0.24062 0.01541-0.45789 0.22651
   3   1  -5115696.2 2333.52   1-0.98520 0.86739-0.16921 0.42523 0.02723-0.25846
  -3   1   418322.21  419.56   1 0.08013-0.19821-0.73967 0.48229-0.66818 0.85328
  -3  -1   418165.69  479.90   1 0.04340 0.07477-0.70881 0.45144-0.70405 0.88916
   3   1  -418303.71  444.49   1-0.17304 0.05501-0.47677 0.73391-0.86182 0.67700
   3  -1  -417218.74  387.31   1-0.30530 0.42331-0.29027 0.54745-0.90693 0.72187
  -3   1   415942.96  372.37   1-0.63912 0.52137 0.49448-0.75151 0.58907-0.40421
   3   1  -417350.55  411.06   1-0.64717 0.52898 0.39395-0.13692 0.65265-0.83750
  -3  -1   419854.10  500.99   1-0.61599 0.73406 0.06031-0.31751 0.78543-0.60027
  -3   1   416755.39  435.02   1 0.56601-0.68427-0.74192 0.48477-0.35940 0.54474
   3  -1  -417917.86  546.06   1-0.83745 0.95551 0.26125-0.00450-0.48001 0.29491
  -3   1   417550.79  409.69   1-0.96899 0.85092 0.04844-0.30537-0.24226 0.42739
   3   1  -420077.34  482.63   1-0.98051 0.86285-0.18918 0.44594 0.05296-0.23794
  -3  -1   419189.72  451.22   1-0.86449 0.98215-0.38720 0.13033 0.32049-0.13558
  -3   1   346548.33  961.16   1-0.07705-0.04082-0.59047 0.33256-0.80336 0.94219
  -3  -1   346652.39 1009.93   1-0.04000 0.15832-0.62950 0.37159-0.77596 0.91479
   3   1  -345536.12  961.53   1-0.23611 0.11802-0.39267 0.65054-0.88885 0.75024
   3  -1  -346680.75  951.34   1-0.41181 0.52986-0.10558 0.36332-0.90513 0.76631
  -3   1   340066.12  833.96   1-0.64479 0.52698 0.43851-0.69621 0.62604-0.48741
   3   1  -341460.38  906.20   1-0.64630 0.52844 0.28007-0.02239 0.70981-0.84867
  -3  -1   349436.23 1061.21   1-0.59361 0.71162-0.03192-0.22590 0.80411-0.66525
  -3   1   342638.75  911.67   1 0.59058-0.70858-0.68956 0.43155-0.41917 0.55827
   3  -1  -347987.58 1060.15   1-0.80995 0.92800 0.28961-0.03215-0.51000 0.37117
  -3   1   343625.44  911.13   1-0.95339 0.83530 0.08828-0.34582-0.28853 0.42739
   3   1  -350116.75 1043.58   1-0.97465 0.85714-0.20926 0.46676 0.07904-0.21778
  -3  -1   346938.46  979.02   1-0.85208 0.96957-0.39949 0.14188 0.33816-0.19948
  -3  -1   2 1996.95  148.10   1-0.12902 0.24733-0.53155 0.27294-0.83714 0.92969
  -3   1   2 2317.97  105.81   1-0.24543 0.12746-0.37951 0.12091-0.89203 0.98444
   3   1  -2 2681.69  125.68   1-0.30483 0.18656-0.29102 0.54960-0.90685 0.81432
   3  -1  -2 2627.68  101.44   1-0.50447 0.62253 0.09596 0.16251-0.85807 0.76552
  -3   1   2 2328.76   88.13   1-0.64780 0.52992 0.36261-0.62098 0.66997-0.57754
   3   1  -2 2448.13  247.69   1-0.63337 0.51556 0.15542 0.10293 0.75807-0.85064
  -3  -1   2 2652.70  291.66   1-0.56136 0.67932-0.13656-0.12190 0.81622-0.72364
  -3   1   2 2531.31  147.06   1 0.61290-0.73091-0.62548 0.36674-0.48282 0.57555
   3  -1  -2 3154.67  339.14   1-0.76893 0.88699 0.32741-0.06924-0.54911 0.45656
  -3   1   2 2238.43   93.04   1-0.93163 0.81353 0.13191-0.39017-0.33861 0.43119
   3   1  -2 2878.77  112.50   1-0.96754 0.85018-0.22954 0.48778 0.10562-0.19812
  -3  -1   2 2681.11  115.09   1-0.83101 0.94883-0.42135 0.16276 0.36314-0.27060
  -3   1   1  637.93   44.15   1 0.56727-0.68488-0.27921 0.01930 0.77474-0.72839
  -3  -1   1  625.16  126.79   1-0.21825 0.33644-0.41734 0.15801-0.88214 0.92835
  -3   1   1  706.66   84.44   1-0.39096 0.27293-0.14485-0.11443-0.90893 0.95520
   3   1  -1  543.87   94.31   1-0.37545 0.25719-0.17296 0.43225-0.91055 0.86429
  -3   1   1  732.20   88.75   1-0.64511 0.52704 0.26174-0.52078 0.71785-0.67156
   3   1  -1  939.99  107.25   1-0.60820 0.49030 0.02549 0.23361 0.79336-0.83965
  -3  -1   1  958.87   80.36   1-0.51683 0.63468-0.24949-0.00962 0.81892-0.77270
  -3   1   1  603.44   89.90   1 0.63177-0.74980-0.54635 0.28687-0.54986 0.59623
   3  -1  -1  946.60  104.41   1-0.70737 0.82547 0.37631-0.11745-0.59834 0.55208
  -3   1   1  933.56   68.62   1-0.90162 0.78351 0.18036-0.43935-0.39312 0.43940
   3   1  -1  844.40   83.01   1-0.95903 0.84181-0.25018 0.50915 0.13292-0.17917
  -3  -1   1  585.45   66.78   1-0.79598 0.91374-0.44971 0.19041 0.40517-0.35890
  -3   1   0 1379.84  143.44   1 0.60015-0.71796-0.42841 0.16807 0.67547-0.67547
  -3  -1   0 1214.41  117.02   1-0.30259 0.42084-0.29451 0.03452-0.90647 0.90647
   3   1   0 1361.06  118.09   1-0.44249 0.32429-0.04436 0.30429-0.89567 0.89567
  -3   1   0 1235.57   84.09   1-0.49262 0.37455 0.06698-0.32691-0.86765 0.86765
   3  -1   0 1765.92   99.00   1-0.64394 0.76195 0.44926-0.18955 0.61926-0.61926
  -3   1   0 1183.34  129.57   1-0.62931 0.51119 0.12949-0.38921 0.76628-0.76628
   3   1   0 1342.85  168.67   1-0.57246 0.45462-0.10312 0.36286 0.81341-0.81341
  -3  -1   0 1671.26   89.21   1-0.46217 0.57998-0.36618 0.10640 0.80765-0.80765
   3  -1   0 1464.95  167.99   1-0.61574 0.73381 0.43671-0.17713-0.65584 0.65584
  -3   1   0 1248.61  176.74   1-0.86078 0.74274 0.23477-0.49437-0.45157 0.45157
   3   1   0 1410.76   76.50   1-0.94916 0.83219-0.27112 0.53093 0.15989-0.15989
  -3  -1   0 1158.44   71.28   1-0.73624 0.85396-0.48995 0.22993 0.46677-0.46677
   3   1   120881.38  264.76   1-0.50086 0.38268 0.08700 0.17366-0.86113 0.90741
   3  -1   119920.58  208.78   1-0.64763 0.76570 0.33310-0.07273 0.68527-0.63906
  -3   1  -117734.51  212.27   1-0.59272 0.47455-0.03515-0.22522 0.80463-0.85092
   3  -1   119947.81  210.50   1-0.47967 0.59792 0.50637-0.24603-0.71658 0.76285
  -3   1  -117004.03  308.19   1-0.80409 0.68605 0.29531-0.55562-0.51595 0.46968
   3   1   119971.41  183.31   1-0.93704 0.82023-0.29320 0.55374 0.18967-0.14344
  -3  -1  -118229.43  176.33   1-0.63016 0.74794-0.54377 0.28279 0.55425-0.60050
   3  -1   2371305.7 1421.11   1-0.63927 0.75750 0.19992 0.06114 0.74253-0.64996
   3   1   2377147.6 1381.42   1-0.92187 0.80524-0.31724 0.57851 0.22248-0.13002
  -3  -1  -2360337.6 1327.31   1-0.43457 0.55256-0.60560 0.34408 0.66662-0.75912
  -3  -1  -350613.17 1056.29   1 0.58006-0.46127-0.32752 0.06475 0.74582-0.88488
   3  -1   351363.28 1121.80   1 0.60067-0.48271-0.43154 0.69397 0.67302-0.53421
  -3   1  -343162.91  918.59   1 0.60690-0.72475-0.68254 0.42009 0.40719-0.54612
  -3  -1  -351059.27 1092.10   1-0.48510 0.60328 0.04919-0.31132-0.87306 0.73424
   3  -1   347682.87  968.14   1-0.61481 0.73309 0.05478 0.20686 0.78676-0.64789
  -3   1  -344805.62  914.01   1-0.43190 0.31355-0.42125 0.15938 0.79749-0.93609
   3   1   348272.25 1004.90   1-0.43153 0.31383-0.42191 0.68378 0.79734-0.65874
  -3  -1  -344330.14  924.28   1-0.25272 0.37046-0.67456 0.41246 0.69360-0.83224
  -3   1  -340420.08  822.57   1-0.62327 0.50529 0.43221-0.69394-0.65170 0.51294
   3   1   346854.47  931.07   1-0.90124 0.78477-0.34547 0.60747 0.26154-0.12286
  -3  -1  -343924.51  876.57   1-0.06941 0.18740-0.63314 0.37048 0.77091-0.90973
  -3   1  -344541.41  907.54   1 0.03806-0.15624-0.62428 0.36164 0.78026-0.91913
  -3  -1  -4 1366.87  143.21   1 0.60007-0.48127-0.42792 0.16479 0.67586-0.86094
   3  -1   4 1137.16  123.13   1 0.60866-0.49065-0.48922 0.75235 0.62464-0.43957
  -3   1  -4  829.64   71.45   1 0.59669-0.71466-0.72829 0.46525 0.33695-0.52228
   3  -1   4 1078.60   91.93   1-0.57666 0.69500-0.08985 0.35214 0.81202-0.62686
   3   1   4 1088.70  107.03   1-0.38631 0.26866-0.49719 0.75976 0.77689-0.59208
  -3   1  -4  607.09   58.33   1-0.31535 0.19694-0.59889 0.33632 0.73612-0.92092
  -3  -1  -4  944.86   97.46   1-0.17939 0.29709-0.75046 0.48764 0.63609-0.82093
   3   1   4 1084.69   67.77   1-0.50213 0.38408 0.49634-0.23388-0.70817 0.89318
  -3   1  -4  508.78   74.22   1-0.49236 0.37403 0.50068-0.76321-0.71196 0.52687
  -3   1  -4  738.21   66.34   1-0.24128 0.12288-0.63232 0.36899 0.73616-0.92127
   3   1   517290.78  420.94   1 0.54522-0.66399-0.20707 0.47126 0.81231-0.58053
   3  -1   518651.04  468.75   1 0.61227-0.49421-0.52928 0.79310 0.58735-0.35600
  -3   1  -518294.37  431.19   1 0.58457-0.70252-0.76320 0.49943 0.27530-0.50697
   3  -1   519776.86  431.93   1-0.52795 0.64636-0.22262 0.48567 0.81957-0.58849
   3   1   516795.70  404.43   1-0.34580 0.22821-0.55744 0.82072 0.75476-0.52376
  -3   1  -517977.27  399.18   1-0.19055 0.07209-0.73977 0.47622 0.64530-0.87636
  -3  -1  -518233.86  427.44   1-0.10822 0.22613-0.81109 0.54706 0.57481-0.80596
  -3   1  -517596.92  390.25   1-0.50574 0.38732-0.58698 0.32317 0.63220-0.86344
   3   1   6 4704.63  172.40   1 0.56306-0.68182-0.26452 0.52942 0.78293-0.50480
   3  -1   6 5368.97  303.36   1 0.61401-0.49622-0.55661 0.82121 0.55961-0.28173
   3  -1   6 4993.33  116.41   1-0.47783 0.59629-0.33499 0.59870 0.81206-0.53477
   3   1   6 4508.93  151.12   1-0.31090 0.19337-0.60470 0.86868 0.73326-0.45605
  -3   1  -6 4400.22  116.82   1-0.07163-0.04672-0.83826 0.57343 0.54053-0.81791
  -3   1  -6 4517.13  114.98   1-0.70605 0.58764-0.50725 0.24293 0.49414-0.77178
   3  -1   6 5381.95  122.50   1 0.19300-0.07471-0.59782 0.86261 0.77804-0.50031
   3   1   7 3655.59  162.17   1 0.57554-0.69429-0.30972 0.57534 0.75684-0.43235
   3  -1   7 4972.32  476.44   1 0.61446-0.49669-0.57542 0.84073 0.53973-0.21554
   3  -1   7 3809.43  113.45   1-0.43015 0.54873-0.42436 0.68904 0.79679-0.47339
   3   1   7 3290.64  145.36   1-0.28163 0.16407-0.64076 0.90576 0.71421-0.39073
  -3   1  -7 3106.45  101.66   1 0.03411-0.15281-0.90050 0.63481 0.43349-0.75740
   3   1   7 3557.19   60.09   1-0.92534 0.80955-0.31204 0.57697 0.21534 0.10824
  -3   1  -7 3321.74   99.23   1-0.83798 0.71953-0.41517 0.15013 0.35412-0.67803
   3   1   7 3481.04   65.17   1-0.15110 0.03362-0.63520 0.90053 0.75741-0.43348
   3  -1   7 3720.31  102.94   1 0.05728 0.06104-0.62185 0.88736 0.78103-0.45701
   3   1   8 3128.82  261.63   1 0.58422-0.70296-0.34476 0.61109 0.73472-0.36388
   3  -1   8 2991.87  392.69   1 0.61451-0.49676-0.58778 0.85380 0.52619-0.15569
   3  -1   8 2405.94   99.08   1-0.38879 0.50743-0.49329 0.75869 0.77813-0.40853
   3   1   8 2423.81  132.72   1-0.25805 0.14054-0.66850 0.93423 0.69749-0.32780
  -3   1  -8 2112.22   99.20   1 0.12287-0.24153-0.93469 0.66817 0.33352-0.70370
  -3   1  -8 2415.25   84.98   1-0.91874 0.79908-0.32182 0.05615 0.22877-0.59859
   3   1   8 2470.23   54.36   1-0.89507 0.77945-0.35314 0.61881 0.27227 0.09754
   3  -1   8 2360.50   89.06   1-0.05702 0.17594-0.63245 0.89844 0.77249-0.40228
   3   1   8 2900.53   77.44   1 0.13604-0.25407-0.60938 0.87560 0.78111-0.41080
   3   1   9 6649.13  608.35   1 0.58948-0.70802-0.37252 0.63913 0.71675-0.30033
   3  -1   9 7103.33  716.91   1 0.61443-0.49671-0.59529 0.86202 0.51777-0.10096
   3  -1   9 5885.62  208.18   1-0.35465 0.47335-0.54479 0.81089 0.75987-0.34407
   3   1   9 5492.61  232.71   1-0.23953 0.12206-0.68923 0.95568 0.68379-0.26788
  -3   1  -9 4802.17  180.71   1 0.19655-0.31451-0.94969 0.68194 0.24382-0.66032
  -3   1  -9 5286.57  181.48   1-0.96327 0.84379-0.24029-0.02607 0.11982-0.53603
   3   1   9 5888.68  178.97   1-0.86713 0.74990-0.38701 0.65349 0.31351 0.10294
   3  -1   9 5495.93  183.95   1-0.14469 0.26374-0.63520 0.90185 0.75866-0.34218
   3   1  1010140.88  369.02   1 0.59359-0.71209-0.39253 0.65984 0.70253-0.23985
   3  -1  1010862.38  587.85   1 0.61437-0.49666-0.59903 0.86647 0.51352-0.05039
   3  -1  10 9785.29  242.89   1-0.32771 0.44647-0.58243 0.84923 0.74388-0.28188
   3   1  1011565.88  353.35   1-0.22552 0.10810-0.70431 0.97149 0.67311-0.21099
  -3   1 -10 8445.40  232.03   1 0.25875-0.37668-0.95220 0.68360 0.16235-0.62512
  -3  -1 -10 9111.02  200.96   1-0.41802 0.53565 0.53191-0.79884-0.73642 0.27370
  -3   1 -10 9221.70  227.00   1-0.98478 0.86515-0.17121-0.09589 0.02979-0.49225
   3   1  1010152.31  218.63   1-0.84396 0.72677-0.40972 0.67691 0.34620 0.11653
   3  -1  10 9117.47  220.53   1-0.21017 0.32934-0.63394 0.90126 0.74426-0.28151
   3   1  11   21.93   46.69   1 0.59636-0.71480-0.40696 0.67496 0.69190-0.18295
   3  -1  11   42.56  102.20   1 0.61435-0.49667-0.59977 0.86793 0.51267-0.00323
   3  -1  11  135.75   77.35   1-0.30708 0.42581-0.60900 0.87690 0.73131-0.22298
   3   1  11  182.71  110.50   1-0.21547 0.09809-0.71482 0.98272 0.66528-0.15695
  -3  -1 -11   25.88   21.56   1-0.48040 0.59865 0.50618-0.77367-0.71623 0.20745
  -3   1 -11   99.51   46.30   1-0.99274 0.87296-0.11075-0.15709-0.04690-0.46180
   3   1  11  234.66   48.62   1-0.82077 0.70364-0.43008 0.69799 0.37597 0.13302
   3  -1  11  112.12   49.65   1-0.25985 0.37866-0.63039 0.89833 0.73148-0.22273
   3   1  12 4370.50  439.93   1 0.59814-0.71654-0.41676 0.68546 0.68449-0.12927
   3  -1  12 4014.55  474.85   1 0.61439-0.49672-0.59806 0.86693 0.51463 0.04112
   3  -1  12 4087.45  185.95   1-0.29250 0.41128-0.62743 0.89605 0.72164-0.16709
   3   1  12 5293.62  265.07   1-0.20889 0.09155-0.72156 0.99019 0.66008-0.10553
  -3  -1 -12 3424.91  250.57   1-0.51895 0.63723 0.48840-0.75661-0.70153 0.14649
  -3   1 -12 4229.44  177.56   1-0.99160 0.87311-0.05616-0.21227-0.11648-0.43888
   3   1  12 3648.60  135.96   1-0.79686 0.67978-0.44904 0.71767 0.40417 0.15110
   3  -1  12 3467.45  150.82   1-0.29221 0.41113-0.62756 0.89621 0.72164-0.16663
   3   1  13 1096.43  194.53   1 0.59918-0.71752-0.42270 0.69209 0.67992-0.07843
   3  -1  13  960.64  204.65   1 0.61445-0.49680-0.59428 0.86386 0.51891 0.08314
   3  -1  13  772.99  105.58   1-0.28287 0.40170-0.63925 0.90860 0.71507-0.11431
   3   1  13  957.58  142.11   1-0.20533 0.08804-0.72516 0.99451 0.65725-0.05649
  -3   1 -13 1245.56  109.17   1-0.98448 0.86596-0.00780-0.26135-0.17528-0.42636
   3   1  14  432.01  142.48   1 0.59964-0.71793-0.42536 0.69545 0.67786-0.03010
   3  -1  14  385.87  117.63   1-0.27748 0.39635-0.64576 0.91583 0.71133-0.06436
   3   1  14  289.87  124.47   1-0.20443 0.08718-0.72606 0.99614 0.65652-0.00956
  -3  -1 -14   48.00   33.80   1-0.55027 0.66862 0.47284-0.74249-0.68819 0.04065
  -3   1 -14   58.13   31.65   1-0.97291 0.85437 0.03655-0.30643-0.22824-0.41969
   3   1  15  452.71  124.35   1 0.59961-0.71785-0.42521 0.69600 0.67797 0.01604
   3  -1  15  239.28  114.28   1 0.61451-0.49691-0.58159 0.85260 0.53302 0.16166
   3  -1  15  410.72   92.97   1-0.27570 0.39462-0.64788 0.91868 0.71009-0.01691
   3   1  15  182.33  108.19   1-0.20586 0.08866-0.72462 0.99542 0.65767 0.03550
  -3   1 -15  329.42   53.31   1-0.95752 0.83917 0.07871-0.34926-0.27741-0.41688
   3   1  16  139.63  125.75   1 0.59916-0.71736-0.42260 0.69408 0.68000 0.06029
   3  -1  16  400.37  130.06   1 0.61443-0.49685-0.57305 0.84477 0.54229 0.19871
   3  -1  16  242.96  114.84   1-0.27704 0.39600-0.64628 0.91780 0.71103 0.02836
   3   1  16  189.46  131.10   1-0.20936 0.09221-0.72107 0.99260 0.66046 0.07893
   3   1  17 3504.49  563.51   1 0.59832-0.71647-0.41780 0.68998 0.68369 0.10286
   3  -1  17 3110.54  422.22   1 0.61422-0.49665-0.56320 0.83564 0.55274 0.23457
   3  -1  17 2885.72  254.73   1-0.28110 0.40011-0.64140 0.91365 0.71385 0.07175
   3   1  17 3605.42  341.44   1-0.21471 0.09761-0.71560 0.98785 0.66468 0.12091
   3   1  18  559.69  145.14   1 0.59711-0.71520-0.41104 0.68391 0.68884 0.14399
   3  -1  18  657.70  142.92   1 0.61383-0.49629-0.55214 0.82529 0.56421 0.26941
  -3  -2  18 1186.24  200.44   1 0.53246-0.29625-0.84202 0.59511 0.08645 0.74703
  -3   2  18 1477.82  311.27   1 0.18354-0.42137-0.94804 0.70290 0.25986 0.57303
  -3  -2  18  943.49  185.07   1 0.28532-0.04970-0.95012 0.70535 0.12588 0.70710
   3  -2 -18  793.21  238.54   1-0.72560 0.96173 0.36275-0.11596-0.58473-0.24822
   3   2 -18 1171.37  178.54   1-0.97873 0.74283 0.01653 0.23033-0.20445-0.62860
  -3   2  17   66.29   49.47   1 0.61079-0.84720-0.65471 0.40652 0.44529 0.34202
  -3  -2  17  367.76  121.87   1 0.51743-0.28123-0.85459 0.60697 0.04389 0.74329
  -3   2  17  300.13  248.66   1 0.20555-0.44227-0.95066 0.70503 0.23236 0.55435
  -3  -2  17  576.86  189.26   1 0.32025-0.08460-0.94425 0.69863 0.07625 0.71045
   3  -2 -17  291.63   92.91   1-0.73570 0.97183 0.35488-0.10738-0.57688-0.20979
   3   2 -17  400.47  111.73   1-0.98452 0.74865-0.00799 0.25558-0.17505-0.61171
  -3   2  16  876.54  195.03   1 0.60803-0.84442-0.67553 0.42663 0.41707 0.32392
  -3  -2  16 1343.13  208.48   1 0.50075-0.26456-0.86558 0.61724-0.00007 0.74095
  -3   2  16 1685.27  289.02   1 0.22695-0.46364-0.95215 0.70568 0.20467 0.53576
  -3  -2  16 1166.40  217.38   1 0.35488-0.11860-0.93459 0.68680 0.02412 0.71710
   3  -2 -16 1370.28  316.96   1-0.74418 0.98031 0.34810-0.09989-0.57009-0.17031
   3   2 -16  978.48  150.09   1-0.98884 0.75299-0.03250 0.28081-0.14538-0.59510
  -3   2  15  183.84   74.86   1 0.60449-0.84086-0.69566 0.44605 0.38812 0.30656
  -3  -2  15  247.47  127.28   1 0.48225-0.24607-0.87484 0.62577-0.04558 0.74016
  -3   2  15  577.57  272.25   1 0.24808-0.48475-0.95248 0.70516 0.17670 0.51745
  -3  -2  15  346.50  135.81   1 0.38968-0.15341-0.92046 0.67190-0.02967 0.72457
   3  -2 -15  220.60  126.12   1-0.75101 0.98713 0.34254-0.09362-0.56448-0.12964
   3   2 -15  230.45   94.56   1-0.99167 0.75585-0.05704 0.30606-0.11541-0.57879
  -3   2  14  579.34   90.53   1 0.60038-0.83681-0.71450 0.46470 0.35920 0.28947
  -3  -2  14  664.61  127.55   1 0.46172-0.22555-0.88215 0.63236-0.09283 0.74110
  -3   2  14  363.75  148.89   1 0.26899-0.50564-0.95163 0.70346 0.14841 0.49946
  -3  -2  14  736.92  147.18   1 0.42433-0.18807-0.90142 0.65209-0.08586 0.73443
   3  -2 -14  592.71  124.68   1-0.75608 0.99219 0.33834-0.08871-0.56023-0.08762
   3   2 -14  280.23   84.23   1-0.99302 0.75722-0.08162 0.33137-0.08508-0.56284
  -3   2  13 4257.48  286.57   1 0.59513-0.83154-0.73358 0.48305 0.32812 0.27421
  -3  -2  13 6222.01  469.67   1 0.43928-0.20313-0.88711 0.63682-0.14164 0.74376
  -3   2  13 5615.57  460.46   1 0.28971-0.52633-0.94959 0.70056 0.11975 0.48185
  -3  -2  13 4879.54  391.41   1 0.45866-0.22242-0.87675 0.62666-0.14462 0.74687
   3  -2 -13 5305.50  658.10   1-0.75926 0.99537 0.33567-0.08532-0.55752-0.04405
   3   2 -13 4083.05  302.25   1-0.99295 0.75634-0.10621 0.35632-0.05258-0.54861
  -3   2  12 5116.06  280.20   1 0.58882-0.82521-0.75235 0.50108 0.29537 0.26063
  -3  -2  12 5130.98  351.79   1 0.41388-0.17776-0.88965 0.63864-0.19288 0.74868
  -3   2  12 5630.68  388.75   1 0.31026-0.54685-0.94631 0.69644 0.09065 0.46466
  -3  -2  12 6300.07  395.78   1 0.49228-0.25593-0.84560 0.59429-0.20639 0.76244
   3  -2 -12 5576.94  573.07   1-0.76038 0.99649 0.33473-0.08367-0.55656 0.00126
   3   2 -12 4980.11  313.94   1-0.99115 0.75469-0.13099 0.38183-0.02143-0.53351
  -3   2  1137337.46 1112.88   1 0.58121-0.81759-0.77099 0.51899 0.26029 0.24938
  -3  -2  1141552.23 1310.79   1 0.38555-0.14945-0.88917 0.63743-0.24638 0.75587
   3  -2 -1131078.06  934.34   1 0.04366 0.19227-0.70904 0.96182-0.70380 0.19476
  -3   2  1145164.29 1438.50   1 0.33067-0.56724-0.94176 0.69103 0.06105 0.44799
  -3  -2  1141140.51 1291.60   1 0.52507-0.28873-0.80691 0.55486-0.27051 0.78022
   3  -2 -1137041.62 1338.62   1-0.75918 0.99528 0.33574-0.08397-0.55760 0.04857
   3   2 -1134489.30 1070.99   1-0.98771 0.75140-0.15594 0.40752 0.01024-0.51895
  -3   2  10 3105.41  150.61   1 0.57190-0.80826-0.78975 0.53701 0.22183 0.24150
  -3  -2  10 4235.37  286.32   1 0.35388-0.11780-0.88509 0.63261-0.30228 0.76545
   3  -2 -10 3286.58  168.68   1 0.01938 0.21649-0.68698 0.94000-0.72640 0.26365
  -3   2  10 5083.10  354.03   1 0.35106-0.58740-0.93587 0.68347 0.02988 0.43338
  -3  -2  10 3484.67  252.82   1 0.55629-0.31996-0.75951 0.50674-0.33715 0.80052
   3  -2 -10 4521.52  465.74   1-0.75530 0.99140 0.33898-0.08650-0.56088 0.09813
   3   2 -10 3081.55  205.75   1-0.98253 0.74638-0.18112 0.43345 0.04255-0.50501
  -3   2   9 2287.07  106.58   1 0.56017-0.79652-0.80896 0.55548 0.17827 0.23872
  -3  -2   9 2379.05  232.32   1 0.31929-0.08239-0.87551 0.62139-0.36266 0.77915
   3  -2  -9 2216.22  120.11   1-0.01919 0.25509-0.65034 0.90406-0.75939 0.34291
  -3   2   9 2125.36  251.39   1 0.37131-0.60767-0.92850 0.67533-0.00097 0.41791
  -3  -2   9 2266.21  183.34   1 0.58545-0.34861-0.70178 0.44821-0.40587 0.82314
   3  -2  -9 2472.55  301.56   1-0.74830 0.98439 0.34476-0.09157-0.56672 0.15024
   3   2  -9 1665.38  135.12   1-0.97550 0.73949-0.20660 0.45966 0.07557-0.49179
  -3   2   8  482.34   53.83   1 0.54598-0.78214-0.82799 0.57389 0.12775 0.24268
  -3  -2   8  580.83  166.89   1 0.27950-0.04270-0.86177 0.60698-0.42335 0.79356
   3  -2  -8  439.47   57.64   1-0.07609 0.31200-0.59151 0.84593-0.80269 0.43248
  -3   2   8  488.60  187.39   1 0.39157-0.62793-0.91956 0.66563-0.03265 0.40327
  -3  -2   8  556.15  108.59   1 0.61060-0.37378-0.63312 0.37880-0.47572 0.84663
   3  -2  -8  662.31  111.34   1-0.73755 0.97364 0.35341-0.09951-0.57541 0.20521
   3   2  -8  251.89  107.11   1-0.96643 0.73057-0.23243 0.48624 0.10944-0.47940
  -3   2   714027.25  191.92   1 0.52410-0.76027-0.84936 0.59454 0.06240 0.26173
  -3  -2   714191.11  353.90   1 0.23488 0.00181-0.84168 0.58622-0.48620 0.81014
   3  -2  -712455.54  178.57   1-0.15876 0.39504-0.49469 0.74963-0.85444 0.53101
  -3   2   715668.50  422.30   1 0.41187-0.64825-0.90889 0.65419-0.06533 0.38961
  -3  -2   713811.69  304.45   1 0.63065-0.39384-0.55223 0.29718-0.54526 0.86980
   3  -2  -714395.96  441.77   1-0.72223 0.95832 0.36532-0.11071-0.58728 0.26335
   3   2  -714822.97  318.36   1-0.95511 0.71940-0.25870 0.51325 0.14428-0.46800
  -3   2   610344.79  148.34   1 0.48900-0.72518-0.87178 0.61624-0.02933 0.30716
  -3  -2   610364.55  293.90   1 0.18493 0.05145-0.81401 0.55795-0.55061 0.82827
   3  -2  -6 9947.43  150.93   1-0.27577 0.51191-0.33549 0.59126-0.90077 0.62318
   3   2  -610723.56  220.57   1-0.64315 0.40686 0.45827-0.20258 0.61346-0.89074
  -3   2   610379.67  309.50   1 0.43229-0.66868-0.89625 0.64078-0.09920 0.37716
   3  -2  -6 8212.50  315.97   1-0.70092 0.93716 0.38101-0.12575-0.60294 0.32542
   3   2  -610965.11  270.52   1-0.94119 0.70556-0.28598 0.54138 0.17989-0.45725
  -3   2   521568.45  270.20   1 0.42401-0.66023-0.88900 0.63286-0.17284 0.40443
  -3  -2   522911.11  453.62   1 0.12944 0.10690-0.77724 0.52052-0.61574 0.84712
   3  -2  -522716.46  282.63   1-0.42357 0.65974-0.08263 0.33892-0.90208 0.67071
   3   2  -522924.67  357.68   1-0.64782 0.41160 0.35277-0.09641 0.67518-0.90624
  -3  -2   524626.98  419.71   1-0.56505 0.80115-0.12571-0.13084 0.81542-0.58397
  -3   2   523947.16  443.49   1 0.45291-0.68931-0.88134 0.62510-0.13454 0.36618
   3  -2  -523601.77  451.49   1-0.67290 0.90912 0.40056-0.14459-0.62188 0.39061
   3   2  -523141.56  393.11   1-0.92448 0.68901-0.31334 0.56948 0.21713-0.44826
  -3   2   4 8889.16  133.69   1 0.28317-0.51903-0.86321 0.60575-0.41794 0.60305
  -3  -2   4 9349.91  291.73   1 0.06835 0.16796-0.73003 0.47266-0.67998 0.86508
   3   2  -4 8504.60  254.28   1-0.64316 0.40732 0.23760 0.01940 0.72793-0.91307
  -3  -2   410042.83  196.68   1-0.53495 0.77094-0.20503-0.05213 0.81962-0.63476
  -3   2   410446.95  308.07   1 0.47382-0.71024-0.86371 0.60670-0.17171 0.35702
   3  -2  -4 9626.95  449.43   1-0.63603 0.87222 0.42441-0.16771-0.64445 0.45944
  -3   2   364520.62  722.76   1 0.61009-0.84616-0.50294 0.24469 0.61223-0.47342
  -3   2   367184.54  745.76   1 0.01120-0.24718-0.67943 0.42152-0.73364 0.87247
  -3  -2   374381.94  975.10   1 0.00254 0.23388-0.67131 0.41340-0.74116 0.87999
   3   2  -363607.74  776.73   1-0.62694 0.39116 0.11562 0.14206 0.77043-0.90928
  -3  -2   370549.10  836.92   1-0.49849 0.73443-0.29124 0.03342 0.81650-0.67785
  -3   2   371817.10  915.71   1 0.49502-0.73146-0.84273 0.58485-0.21155 0.35056
   3  -2  -369315.10 1011.09   1-0.58807 0.82422 0.45261-0.19519-0.67030 0.53154
   3   2  -368819.86  845.71   1-0.88027 0.64514-0.37037 0.62798 0.29654-0.43522
  -3   2   2 2579.71  151.59   1 0.61135-0.84745-0.64945 0.39057 0.45216-0.35953
  -3  -2   2 1819.31  172.94   1-0.06752 0.30394-0.60074 0.34213-0.79658 0.88913
  -3   2   2 2204.84   94.43   1-0.29238 0.05622-0.31033 0.05175-0.90454 0.99707
   3   2  -2 2689.59  285.25   1-0.60003 0.36409-0.00770 0.26617 0.79993-0.89251
  -3  -2   2 2777.58  120.94   1-0.45474 0.69063-0.38043 0.12196 0.80527-0.71284
  -3   2   2 2690.83  177.45   1 0.51683-0.75328-0.81757 0.55896-0.25390 0.34657
   3  -2  -2 2461.64  315.91   1-0.52636 0.76249 0.48481-0.22668-0.69849 0.60598
  -3   2   2 1980.06  250.88   1-0.80349 0.56742 0.29589-0.55407-0.51656 0.60911
   3   2  -2 3182.63  146.02   1-0.85128 0.61633-0.40025 0.65859 0.33927-0.43172
  -3  -2   2 2579.21  133.81   1-0.57421 0.81020-0.56544 0.30657 0.59207-0.49957
  -3   2   1 4491.61  120.66   1 0.59777-0.83398-0.72448 0.46512 0.34321-0.29687
  -3  -2   1 4722.81  207.68   1-0.13924 0.37548-0.51854 0.25920-0.84363 0.88984
   3   2  -1 5480.38  216.80   1-0.34122 0.10482-0.23209 0.49138-0.91087 0.86461
  -3   2   1 4166.79  132.09   1-0.48173 0.24553 0.04136-0.30056-0.87533 0.92161
  -3   2   1 4323.83  135.89   1-0.64346 0.40755 0.45479-0.71383 0.61571-0.56950
   3   2  -1 5644.81  333.39   1-0.56455 0.32866-0.12719 0.38630 0.81553-0.86182
  -3  -2   1 5297.96  170.31   1-0.40393 0.63989-0.46895 0.20990 0.78544-0.73924
  -3   2   1 4661.53  190.96   1 0.53924-0.77571-0.78691 0.52758-0.29995 0.34629
   3  -2  -1 5104.75  179.49   1-0.44777 0.68402 0.52001-0.26114-0.72738 0.68110
  -3   2   1 4094.73  156.26   1-0.75093 0.51487 0.34261-0.60149-0.56454 0.61082
   3   2  -1 5998.40  208.61   1-0.81672 0.58106-0.43342 0.69273 0.38091-0.42719
  -3  -2   1 4466.38  161.90   1-0.50493 0.74081-0.58720 0.32763 0.63263-0.58639
   3  -2   0  276.88   38.97   1 0.56617-0.33033-0.27531 0.53593 0.77695-0.77695
  -3   2   0  315.11   38.18   1 0.58306-0.81926-0.76677 0.50667 0.26849-0.26849
  -3  -2   0  520.83  187.08   1-0.21014 0.44643-0.42832 0.16825-0.87885 0.87885
   3   2   0   20.14   69.85   1-0.40065 0.16426-0.12682 0.38681-0.90740 0.90740
  -3   2   0  223.61   34.90   1-0.64782 0.41184 0.35156-0.61127 0.67581-0.67581
   3   2   0  192.72   54.62   1-0.52208 0.28630-0.23696 0.49674 0.81931-0.81931
  -3  -2   0  271.72   54.29   1-0.34855 0.58445-0.55354 0.29378 0.75637-0.75637
  -3   2   0  454.05   86.76   1 0.56229-0.79877-0.74885 0.48879-0.35077 0.35077
   3  -2   0  216.62   55.67   1-0.35036 0.58664 0.55621-0.29662-0.75356 0.75356
  -3   2   0  272.65   40.04   1-0.68901 0.45294 0.38948-0.64906-0.61119 0.61119
   3   2   0  123.85   72.43   1-0.77461 0.53900-0.46514 0.72516 0.42849-0.42849
  -3  -2   0  267.00   59.12   1-0.41101 0.64714-0.61037 0.35027 0.67713-0.67713
   3  -2   111754.85  355.82   1 0.59893-0.36266-0.42127 0.68231 0.68102-0.63476
  -3   2  -1 9773.65  238.55   1 0.56924-0.80542-0.79447 0.53364 0.21156-0.25790
  -3  -2  -110846.17  355.08   1-0.27720 0.51355-0.33314 0.07235-0.90120 0.85500
   3   2   112067.22  332.83   1-0.45664 0.22032-0.01451 0.27518-0.88953 0.93580
  -3   2  -1 9062.06  309.41   1-0.64014 0.40405 0.20757-0.46797 0.73967-0.78596
   3   2   110058.12  273.14   1-0.47763 0.24190-0.33541 0.59585 0.81201-0.76579
  -3   2  -110871.87  290.23   1 0.58622-0.82253-0.69999 0.43903-0.40785 0.36148
  -3   2  -1 8806.87  232.63   1-0.61794 0.38190 0.43540-0.69570-0.65464 0.60839
   3   2   111739.73  289.54   1-0.72333 0.48777-0.49757 0.75831 0.47875-0.43247
  -3  -2  -110452.82  264.41   1-0.28571 0.52173-0.62819 0.36738 0.72369-0.76994
  -3   2  -1 9414.06  273.25   1 0.23196-0.46826-0.58864 0.32743 0.77439-0.82068
  -3   2  -276585.45 1542.29   1 0.55630-0.79246-0.81446 0.55290 0.16482-0.25749
  -3  -2  -282417.98 1700.93   1-0.33809 0.57447-0.23731-0.02408-0.91070 0.81817
  -3   2  -274210.06 1481.27   1-0.60473 0.36851 0.01099-0.27201 0.79635-0.88893
   3   2   280041.48 1631.84   1-0.43280 0.19701-0.41966 0.68082 0.79784-0.70544
  -3   2  -280196.57 1608.30   1 0.60939-0.84571-0.63705 0.37535-0.47202 0.37929
  -3   2  -269545.90 1417.40   1-0.53831 0.30230 0.47890-0.73992-0.69344 0.60093
   3   2   285323.36 1708.64   1-0.66147 0.42592-0.52981 0.79149 0.53080-0.43831
  -3  -2  -278100.97 1566.66   1-0.12398 0.36023-0.63500 0.37300 0.76249-0.85504
  -3   2  -281010.38 1646.75   1 0.09541-0.33175-0.61632 0.35438 0.78169-0.87427
  -3   2  -314163.94  248.14   1 0.54426-0.78052-0.82995 0.56793 0.12229-0.26121
  -3  -2  -315168.45  343.83   1-0.39068 0.62705-0.14536-0.11673-0.90897 0.77017
  -3   2  -315352.32  221.20   1-0.52210 0.28582-0.23691-0.02482 0.81931-0.95795
   3   2   313308.90  285.08   1-0.39067 0.15495-0.49031 0.75218 0.77907-0.64047
  -3   2  -313342.80  216.88   1 0.63033-0.86668-0.55386 0.29143-0.54397 0.40488
  -3   2  -313100.32  223.98   1-0.45166 0.21530 0.51839-0.78019-0.72612 0.58731
   3   2   315774.79  256.99   1-0.58582 0.35039-0.56126 0.82365 0.58462-0.44587
  -3   2  -314816.35  271.65   1-0.05595-0.18044-0.63239 0.36972 0.77262-0.91144
  -3  -2  -314773.34  241.50   1 0.07595 0.16046-0.61926 0.35661 0.78150-0.92036
  -3   2  -491341.12 1076.59   1 0.53229-0.76857-0.84217 0.57943 0.08597-0.27119
  -3  -2  -497897.71 1198.56   1-0.43452 0.67083-0.06068-0.20217-0.89861 0.71351
   3  -2   492897.61 1028.59   1-0.64435 0.88058 0.44427-0.18189 0.62243-0.43758
   3   2   493097.67 1110.62   1-0.35237 0.11670-0.54808 0.81065 0.75857-0.57377
  -3   2  -486405.46  956.94   1-0.38187 0.14543-0.50409 0.24152 0.77463-0.95943
   3   2   499553.10 1112.57   1-0.49555 0.26023-0.58976 0.85286 0.63765-0.45266
  -3   2  -494434.17 1101.42   1-0.21346-0.02306-0.63380 0.37047 0.74345-0.92855
   3  -2   5  938.54  186.17   1 0.61308-0.37712-0.62883 0.89271 0.47821-0.24664
  -3  -2  -5  927.20  140.49   1-0.46981 0.70611 0.01431-0.27790-0.88264 0.65127
   3  -2   5  960.47   65.92   1-0.64764 0.88394 0.30817-0.04507 0.69684-0.46541
   3   2   5  820.13  104.15   1-0.31867 0.08306-0.59451 0.85779 0.73823-0.50723
  -3   2  -5  730.17   43.98   1-0.19791-0.03861-0.73257 0.46901 0.65128-0.88234
   3   2   5  808.34   89.26   1-0.52106 0.28497 0.48738-0.22421-0.70067 0.93194
   3   2   5  962.93   85.67   1-0.39362 0.15804-0.61359 0.87725 0.68451-0.45326
  -3   2  -5  945.07   99.12   1-0.36891 0.13284-0.61774 0.35407 0.69447-0.92573
   3  -2   5  873.01   92.34   1 0.27169-0.03523-0.57820 0.84228 0.76932-0.53788
   3  -2   6  148.29   66.96   1 0.61186-0.37592-0.64419 0.90878 0.45894-0.18106
  -3  -2  -6  274.46  153.54   1-0.49757 0.73387 0.07893-0.34325-0.86382 0.58618
   3  -2   6  174.79   33.42   1-0.63279 0.86915 0.15153 0.11225 0.75934-0.48162
   3   2   6  166.07   65.72   1-0.28973 0.05407-0.63086 0.89513 0.71976-0.44249
  -3   2  -6  156.06   28.53   1-0.01148-0.22502-0.87670 0.61188 0.48088-0.75826
   3   2   6   26.89   19.72   1-0.71162 0.47560 0.37331-0.10944-0.59517 0.87282
  -3   2  -6  426.09  117.55   1-0.51224 0.27584-0.58514 0.32064 0.62865-0.90614
   3   2   6  179.80   70.09   1-0.28079 0.04532-0.62864 0.89302 0.72522-0.44772
   3  -2   6  187.52   72.84   1 0.18627 0.05022-0.59930 0.86409 0.77855-0.50081
   3  -2   7   33.98  107.38   1 0.61091-0.37499-0.65357 0.91888 0.44678-0.12259
  -3  -2  -7  445.89  161.55   1-0.51901 0.75530 0.13332-0.39838-0.84430 0.52038
   3  -2   7  136.84   34.17   1-0.60020 0.83669-0.00702 0.27122 0.79981-0.47578
   3   2   7  123.47   96.90   1-0.26569 0.03007-0.65969 0.92469 0.70300-0.37951
  -3   2  -7  175.99   49.80   1 0.14375-0.38054-0.94023 0.67454 0.30868-0.63259
   3   2   7  115.80   41.90   1-0.84977 0.61374 0.24758 0.01698-0.46539 0.78931
  -3   2  -7   57.27   70.11   1-0.63495 0.39844-0.54173 0.27652 0.55077-0.87451
   3   2   7  246.82   67.02   1-0.16866-0.06693-0.63507 0.90040 0.75380-0.42988
   3  -2   7  141.70   67.60   1 0.10798 0.12855-0.61429 0.87979 0.78165-0.45763
   3   2   8  590.66  117.95   1 0.53511-0.77207-0.17724 0.44357 0.82597-0.45513
   3  -2   8  625.71  104.88   1 0.61033-0.37443-0.65861 0.92463 0.44012-0.06962
   3  -2   8  358.35   44.53   1-0.55584 0.79239-0.14887 0.41388 0.81784-0.44812
   3   2   8  479.40  103.74   1-0.24613 0.01056-0.68195 0.94768 0.68873-0.31903
  -3   2  -8  167.73   32.16   1 0.25510-0.49117-0.95233 0.68544 0.16728-0.53750
   3   2   8  184.86   34.17   1-0.93587 0.69997 0.12412 0.14136-0.32974 0.70003
  -3   2  -8  209.74   54.76   1-0.73696 0.50055-0.48952 0.22376 0.46610-0.83628
   3   2   8  436.00   92.64   1-0.05957-0.17589-0.63260 0.89859 0.77217-0.40197
   3  -2   8  250.38   58.58   1 0.03890 0.19766-0.62418 0.89041 0.78030-0.40999
   3   2   9  151.31   87.75   1 0.54741-0.78436-0.21378 0.48082 0.80909-0.39189
   3  -2   9  369.52  100.30   1 0.61012-0.37424-0.66035 0.92709 0.43780-0.02098
   3  -2   9  102.21   33.75   1-0.51148 0.74808-0.26198 0.52765 0.81838-0.40244
   3   2   9   81.03   68.77   1-0.23067-0.00485-0.69883 0.96528 0.67707-0.26116
  -3   2  -9  330.97   72.47   1 0.33851-0.57508-0.93970 0.67271 0.04860-0.46554
   3   2   9  122.43   32.40   1-0.97912 0.74392 0.01508 0.25120-0.20271 0.61924
  -3   2  -9  206.96   84.21   1-0.81709 0.58063-0.43312 0.16664 0.38046-0.79692
   3  -2   9  310.17   65.67   1-0.02101 0.25819-0.62989 0.89654 0.77639-0.35991
   3   2   9  365.78   85.03   1 0.03329-0.26948-0.62485 0.89179 0.78002-0.36342
   3   2  10 8782.68  369.66   1 0.55660-0.79354-0.24291 0.51066 0.79446-0.33091
   3  -2  1010524.03  967.33   1 0.61022-0.37437-0.65951 0.92696 0.43892 0.02420
   3  -2  10 8294.03  282.77   1-0.47137 0.70802-0.34806 0.61438 0.81034-0.34819
   3   2  10 8127.62  359.49   1-0.21890-0.01657-0.71126 0.97844 0.66796-0.20584
  -3   2 -10 8053.25  290.98   1 0.39814-0.63472-0.91630 0.64855-0.04313-0.42012
   3   2  10 8215.73  280.98   1-0.99282 0.75766-0.07537 0.34238-0.09282 0.55563
  -3   2 -10 8077.07  310.35   1-0.87985 0.64221-0.37084 0.10371 0.29720-0.75947
   3  -2  10 7378.75  273.85   1-0.06961 0.30691-0.63315 0.90047 0.77088-0.30813
   3   2  10 9692.89  348.87   1 0.11343-0.34958-0.61337 0.88102 0.78160-0.31871
   3   2  1119036.04  653.90   1 0.56339-0.80032-0.26564 0.53411 0.78231-0.27241
   3  -2  1117151.99  761.86   1 0.61057-0.37474-0.65657 0.92473 0.44283 0.06660
   3  -2  1116559.64  504.19   1-0.43795 0.67479-0.41043 0.67794 0.79983-0.29163
   3   2  1118330.57  640.38   1-0.21041-0.02502-0.72001 0.98791 0.66129-0.15295
  -3   2 -1114039.49  442.08   1 0.44345-0.68004-0.88847 0.61994-0.11817-0.39141
   3   2  1115738.97  480.08   1-0.98829 0.75525-0.15243 0.42028 0.00577 0.50293
  -3   2 -1116124.74  521.42   1-0.92455 0.68674-0.31323 0.04537 0.21698-0.72548
   3   2  1119867.96  614.38   1 0.17732-0.41343-0.60122 0.86958 0.77915-0.26998
   3   2  1237076.95 1765.39   1 0.56830-0.80522-0.28289 0.55207 0.77265-0.21639
   3  -2  1234851.41 2254.82   1 0.61110-0.37528-0.65187 0.92074 0.44901 0.10673
   3  -2  1230953.00 1437.18   1-0.41203 0.64892-0.45552 0.72374 0.78912-0.23472
   3   2  1237157.92 1770.43   1-0.20484-0.03054-0.72565 0.99428 0.65685-0.10231
  -3   2 -1229368.50 1377.36   1-0.95670 0.71916-0.25531-0.01327 0.13975-0.69470
   3   2  1238497.07 1789.57   1 0.22611-0.46218-0.59009 0.85917 0.77502-0.21955
   3   2  13 1580.66  183.58   1 0.57175-0.80865-0.29541 0.56531 0.76539-0.16278
   3  -2  13 1992.69  278.05   1 0.61173-0.37593-0.64564 0.91523 0.45708 0.14498
   3  -2  13 1403.74  115.76   1-0.39295 0.62990-0.48670 0.75562 0.78019-0.17958
   3   2  13 1333.14  186.41   1-0.20186-0.03348-0.72864 0.99799 0.65446-0.05371
  -3   2 -13 1561.95  129.55   1-0.97715 0.73946-0.20119-0.06813 0.06853-0.66973
   3   2  13 1520.51  138.67   1 0.26162-0.49765-0.58095 0.85075 0.77073-0.16898
   3   2  14  479.95  128.05   1 0.57400-0.81090-0.30386 0.57447 0.76038-0.11141
   3  -2  14  544.98  132.31   1 0.61240-0.37662-0.63807 0.90837 0.46671 0.18166
   3  -2  14  151.79   54.01   1-0.37993 0.61694-0.50709 0.77672 0.77362-0.12682
   3   2  14  212.76  127.59   1-0.20118-0.03411-0.72931 0.99939 0.65392-0.00695
  -3   2 -14  228.94   46.01   1-0.98879 0.75096-0.14928-0.12078 0.00176-0.64920
   3   2  15 2288.66  186.22   1 0.57529-0.81218-0.30876 0.58008 0.75742-0.06210
   3  -2  15 3100.74  344.68   1 0.61305-0.37730-0.62928 0.90029 0.47765 0.21703
   3   2  15 2619.44  230.04   1-0.20257-0.03268-0.72793 0.99873 0.65503 0.03814
  -3   2 -15 2509.57  146.04   1-0.99316 0.75518-0.09952-0.17128-0.06095-0.63273
   3   2  16  426.81  117.30   1 0.57576-0.81263-0.31055 0.58258 0.75634-0.01466
   3  -2  16  618.87  107.69   1 0.61364-0.37791-0.61936 0.89108 0.48972 0.25128
   3   2  16  488.10  137.20   1-0.20580-0.02940-0.72469 0.99621 0.65762 0.08176
  -3   2 -16  305.83   78.58   1-0.99115 0.75468-0.05136-0.21995-0.12237-0.61811
   3   2  17  130.54   93.83   1 0.57550-0.81237-0.30956 0.58230 0.75694 0.03109
   3  -2  17   41.95   68.47   1 0.61411-0.37840-0.60837 0.88081 0.50273 0.28457
   3   2  17  105.44   87.39   1-0.21070-0.02446-0.71971 0.99197 0.66152 0.12408
   3   2  18  163.69   77.78   1 0.57459-0.81145-0.30608 0.57954 0.75904 0.07534
   3  -2  18  338.71  122.74   1 0.61442-0.37872-0.59635 0.86950 0.51657 0.31705
   3   2  18  296.82  119.88   1-0.21712-0.01799-0.71311 0.98608 0.66657 0.16523
  -3  -3  17  396.94  143.52   1 0.50593-0.15166-0.86246 0.61484 0.01326 0.77392
  -3   3  17  502.93  211.70   1 0.15965-0.51554-0.94379 0.69783 0.28940 0.49722
   3  -3 -17  183.03  116.24   1-0.61875 0.97332 0.43492-0.18758-0.65420-0.13209
   3   3 -17  532.91  103.43   1-0.99291 0.63916-0.07773 0.32532-0.08990-0.69687
  -3  -3  16  775.52  159.39   1 0.48902-0.13476-0.87177 0.62343-0.02929 0.77017
  -3   3  16  806.76  210.30   1 0.17807-0.53392-0.94718 0.70040 0.26669 0.47366
  -3  -3  16  855.07  193.04   1 0.36306-0.00864-0.93169 0.68389 0.01169 0.72952
   3  -3 -16  652.33  174.14   1-0.62445 0.97899 0.43150-0.18344-0.65104-0.08900
   3   3 -16  864.29  123.97   1-0.99292 0.63920-0.10418 0.35249-0.05699-0.68349
  -3  -3  15  206.24  133.52   1 0.47050-0.11625-0.87937 0.63030-0.07301 0.76759
  -3   3  15  246.15  141.30   1 0.19652-0.55128-0.94968 0.70236 0.24386 0.45029
  -3  -3  15  272.14  165.63   1 0.40236-0.04795-0.91411 0.66555-0.04990 0.74480
   3  -3 -15  255.09   92.69   1-0.62803 0.98254 0.42933-0.18055-0.64903-0.04476
   3   3 -15  356.13  101.58   1-0.99121 0.63670-0.13041 0.37903-0.02217-0.67151
  -3  -3  14 1169.60  169.17   1 0.45057-0.09635-0.88494 0.63539-0.11771 0.76615
  -3   3  14 1585.10  216.46   1 0.21409-0.56883-0.95139 0.70322 0.22137 0.42650
  -3  -3  14 1233.42  177.35   1 0.44113-0.08674-0.89014 0.64081-0.11420 0.76278
   3  -3 -14 1036.13  182.56   1-0.62936 0.98384 0.42852-0.17902-0.64828 0.00074
   3   3 -14 1042.35  136.74   1-0.98755 0.63319-0.15683 0.40620 0.01138-0.65882
  -3   3  13  747.51  141.32   1 0.61105-0.96502-0.51344 0.26216 0.60248-0.00099
  -3  -3  13  677.63  149.93   1 0.42836-0.07417-0.88858 0.63829-0.16408 0.76620
  -3   3  13 1512.34  217.63   1 0.23123-0.58594-0.95231 0.70329 0.19905 0.40255
  -3  -3  13  837.64  140.77   1 0.47887-0.12433-0.85891 0.60832-0.18150 0.78388
   3  -3 -13  962.40  150.91   1-0.62824 0.98269 0.42920-0.17898-0.64891 0.04762
   3   3 -13  742.39  103.97   1-0.98201 0.62780-0.18329 0.43340 0.04535-0.64655
  -3   3  12   53.82   35.26   1 0.61076-0.96478-0.51015 0.25817 0.60556-0.05033
  -3  -3  12  485.11  196.80   1 0.40402-0.04985-0.88986 0.63884-0.21191 0.76771
  -3   3  12   10.60  112.64   1 0.24793-0.60261-0.95248 0.70261 0.17691 0.37840
  -3  -3  12  222.10   99.95   1 0.51542-0.16089-0.81932 0.56800-0.25110 0.80714
   3  -3 -12  242.78  117.14   1-0.62443 0.97886 0.43151-0.18057-0.65105 0.09601
   3   3 -12  189.72   74.73   1-0.97448 0.62041-0.20981 0.46066 0.07976-0.63472
  -3   3  11  114.40   33.00   1 0.60950-0.96357-0.49704 0.24436 0.61761-0.10866
  -3  -3  11  467.58  159.04   1 0.37733-0.02318-0.88845 0.63671-0.26126 0.77075
  -3   3  11  286.75  132.05   1 0.26417-0.61883-0.95193 0.70121 0.15500 0.35404
  -3  -3  11  259.82  123.20   1 0.54988-0.19536-0.77030 0.51825-0.32290 0.83261
   3  -3 -11  160.79   83.64   1-0.61763 0.97203 0.43559-0.18393-0.65481 0.14603
   3   3 -11   78.64   70.69   1-0.96486 0.61095-0.23640 0.48798 0.11467-0.62338
  -3   3  10  171.46   37.58   1 0.60586-0.95998-0.46630 0.21292 0.64458-0.18190
  -3  -3  10  416.85  155.89   1 0.34803 0.00608-0.88397 0.63149-0.31218 0.77535
   3  -3 -10  174.94   49.55   1-0.10482 0.45880-0.55961 0.81263-0.82209 0.35934
  -3   3  10  622.97  198.59   1 0.27994-0.63458-0.95070 0.69913 0.13334 0.32942
  -3  -3  10  499.18  156.23   1 0.58161-0.22651-0.71047 0.45763-0.39616 0.85980
   3  -3 -10  778.14  159.84   1-0.60744 0.96181 0.44158-0.18920-0.66031 0.19778
   3   3 -10  599.99  131.84   1-0.95286 0.59891-0.26372 0.51619 0.14997-0.61224
  -3   3   9 1916.52  152.27   1 0.59417-0.94834-0.39547 0.14139 0.70040-0.28398
  -3  -3   9 2770.50  210.31   1 0.31675 0.03820-0.87476 0.62064-0.36667 0.78315
   3  -3  -9 2190.77   94.98   1-0.20391 0.55834-0.43666 0.69014-0.87621 0.46038
  -3   3   9 2611.75  232.79   1 0.29523-0.64984-0.94883 0.69640 0.11200 0.30449
  -3  -3   9 3517.53  245.38   1 0.60863-0.25355-0.63944 0.38586-0.46975 0.88702
   3  -3  -9 3445.64  571.47   1-0.59340 0.94773 0.44962-0.19652-0.66761 0.25133
   3   3  -9 2964.29  206.80   1-0.93865 0.58487-0.29044 0.54365 0.18592-0.60197
  -3  -3   8  765.73  220.79   1 0.28143 0.07343-0.86253 0.60774-0.42051 0.79072
  -3   3   8  852.84  247.55   1 0.31000-0.66458-0.94636 0.69308 0.09102 0.27919
  -3  -3   8  294.59  131.88   1 0.62981-0.27474-0.55649 0.30218-0.54188 0.91279
   3  -3  -8  407.78  108.93   1-0.57492 0.92922 0.45984-0.20602-0.67676 0.30674
   3   3  -8  458.49  133.43   1-0.92187 0.56826-0.31725 0.57119 0.22248-0.59230
  -3  -3   712019.66  413.85   1 0.24267 0.11208-0.84552 0.59007-0.47559 0.79953
   3   3  -712874.69  328.52   1-0.64286 0.28854 0.46130-0.20628 0.61148-0.93498
  -3   3   712870.53  441.00   1 0.32422-0.67877-0.94335 0.68922 0.07049 0.25344
   3  -3  -712352.59  548.86   1-0.55132 0.90560 0.47230-0.21776-0.68772 0.36395
   3   3  -713024.49  405.64   1-0.90230 0.54885-0.34412 0.59880 0.25966-0.58325
  -3  -3   6 1173.37  173.14   1 0.20027 0.15439-0.82301 0.56689-0.53153 0.80919
   3   3  -6 1119.04   96.64   1-0.64782 0.29357 0.35624-0.10055 0.67335-0.95063
  -3   3   6  778.47  161.90   1 0.33782-0.69235-0.93985 0.68487 0.05052 0.22714
   3  -3  -6  999.54  186.89   1-0.52181 0.87605 0.48702-0.23176-0.70036 0.42285
   3   3  -6 1237.18  141.50   1-0.87967 0.52639-0.37104 0.62645 0.29749-0.57485
  -3  -3   5   50.46  129.12   1 0.15406 0.20041-0.79430 0.53758-0.58766 0.81904
   3   3  -5   75.97   40.12   1-0.64367 0.28987 0.24343 0.01289 0.72554-0.95697
  -3   3   5  379.53  122.68   1 0.35075-0.70529-0.93597 0.67973 0.03034 0.20128
   3  -3  -5  293.01   86.70   1-0.48555 0.83975 0.50375-0.24782-0.71447 0.48311
   3   3  -5   78.13   76.14   1-0.85368 0.50057-0.39795 0.65409 0.33594-0.56708
  -3  -3   4  539.53  237.41   1 0.10414 0.25029-0.75852 0.50115-0.64326 0.82836
   3   3  -4  427.22   64.71   1-0.62873 0.27498 0.12602 0.13098 0.76734-0.95248
  -3   3   4  646.10  123.75   1 0.36285-0.71740-0.93176 0.67476 0.01202 0.17328
   3  -3  -4  648.73  121.23   1-0.44136 0.79559 0.52264-0.26598-0.72941 0.54432
   3   3  -4  307.60   79.37   1-0.82404 0.47032-0.42733 0.68448 0.37193-0.55702
  -3  -3   3    2.19  131.59   1 0.05072 0.30368-0.71515 0.45712-0.69712 0.83595
   3   3  -3  134.41   52.72   1-0.60421 0.25024 0.00890 0.24892 0.79677-0.93563
  -3   3   3  -74.27   95.89   1 0.37401-0.72857-0.92741 0.66963-0.00513 0.14411
   3  -3  -3  154.74  109.44   1-0.38843 0.74268 0.54300-0.28560-0.74449 0.60567
   3   3  -3  242.25  116.16   1-0.79045 0.43678-0.45383 0.71170 0.41136-0.55018
  -3  -3   2  216.00  179.17   1-0.00532 0.35984-0.66381 0.40521-0.74787 0.84042
  -3   3   2  140.67   33.48   1-0.28683-0.06746-0.31882 0.06023-0.90337 0.99590
   3   3  -2  227.13   73.85   1-0.57219 0.21826-0.10399 0.36246 0.81350-0.90607
  -3   3   2  111.79   83.91   1 0.38401-0.73858-0.92309 0.66455-0.02073 0.11338
   3  -3  -2   75.70   55.68   1 0.61316-0.25865-0.62458 0.88333-0.48365 0.39092
   3  -3  -2  161.25  101.66   1-0.32591 0.68019 0.56411-0.30598-0.75865 0.66611
   3   3  -2   37.63   73.54   1-0.75245 0.39883-0.47989 0.73847 0.45112-0.54366
   3  -3  -1 3637.90   78.31   1 0.55558-0.20154-0.23957 0.49948 0.79619-0.84255
  -3   3   1 3334.78   81.73   1 0.31839-0.67261-0.87525 0.61578-0.36408 0.41035
  -3  -3   1 4254.22  222.91   1-0.06368 0.41819-0.60483 0.34553-0.79379 0.84007
   3   3  -1 4567.95  169.55   1-0.53394 0.18013-0.20762 0.46675 0.81963-0.86584
  -3   3   1 3466.76  185.24   1 0.39253-0.74712-0.91910 0.65978-0.03419 0.08051
   3  -3  -1 3184.75  142.63   1 0.62618-0.27165-0.57378 0.83326-0.52788 0.48152
   3   3  -1 3751.95  167.54   1-0.70970 0.35613-0.50525 0.76456 0.49095-0.53722
  -3   3   1 4193.55  222.95   1 0.25291-0.60733-0.58328 0.32349 0.77189-0.72560
  -3   3   025733.57  286.05   1 0.37903-0.73341-0.88862 0.62883-0.25820 0.25820
  -3  -3   026444.67  443.59   1-0.12271 0.47720-0.53896 0.27896-0.83333 0.83333
   3   3   027151.65  370.30   1-0.49374 0.13998-0.30159 0.56137 0.81563-0.81563
  -3   3   027430.35  380.29   1 0.39904-0.75364-0.91584 0.65576-0.04457 0.04457
   3   3   027843.62  378.42   1-0.66226 0.30862-0.52943 0.78971 0.53018-0.53018
  -3   3   027320.57  412.34   1 0.17002-0.52448-0.60274 0.34224 0.77960-0.77960
   3  -3   1 3549.55  212.33   1 0.61404-0.25984-0.55742 0.81845 0.55877-0.51246
  -3   3  -1 2980.47  101.43   1 0.40549-0.75989-0.88985 0.62933-0.20911 0.16279
  -3  -3  -1 3355.04  182.46   1-0.18050 0.53490-0.46725 0.20646-0.86549 0.81929
  -3   3  -1 2525.38   76.54   1-0.64733 0.29333 0.38882-0.64920 0.65556-0.70177
   3   3   1 3531.39  155.45   1-0.45306 0.09936-0.38361 0.64405 0.80471-0.75849
  -3   3  -1 3363.14  153.36   1 0.40261-0.75722-0.91398 0.65313-0.05031 0.00399
   3   3   1 3218.45  164.37   1-0.60940 0.25587-0.55228 0.81326 0.56886-0.52261
  -3  -3  -1 3650.89  146.68   1-0.09060 0.44511-0.63410 0.37276 0.76792-0.81419
  -3   3  -1 3705.20  195.49   1 0.07758-0.43207-0.61902 0.35780 0.78152-0.82781
   3  -3   2  303.55   74.44   1 0.61373-0.25955-0.61763 0.87937 0.49179-0.39916
  -3   3  -2  194.62   48.30   1 0.41821-0.77264-0.88943 0.62817-0.18438 0.09174
  -3  -3  -2  247.24  159.48   1-0.23590 0.59035-0.39296 0.13144-0.88877 0.79637
  -3   3  -2  179.57   27.97   1-0.64179 0.28773 0.22321-0.48428 0.73366-0.82624
   3   3   2  175.04   92.50   1-0.41350 0.05969-0.45304 0.71420 0.78978-0.69738
  -3   3  -2  240.21   79.88   1 0.40146-0.75608-0.91459 0.65297-0.04846-0.04419
   3   3   2  144.31   95.79   1-0.55146 0.19804-0.57316 0.83485 0.60610-0.51361
  -3   3  -2  225.62   86.38   1-0.02304-0.33135-0.63005 0.36805 0.77620-0.86875
  -3  -3  -2  176.98   86.21   1 0.02771 0.32695-0.62550 0.36356 0.77972-0.87230
   3  -3   3  335.17   80.45   1 0.61089-0.25673-0.65377 0.91622 0.44652-0.30758
  -3   3  -3  171.59   61.20   1 0.42378-0.77823-0.88902 0.62703-0.17331 0.03436
  -3  -3  -3  415.36  164.61   1-0.28744 0.64195-0.31788 0.05578-0.90350 0.76470
  -3   3  -3   70.77   24.29   1-0.59428 0.24004-0.02943-0.23221 0.80371-0.94257
   3   3   3  222.43   74.82   1-0.37706 0.02331-0.51149 0.77336 0.77213-0.63353
  -3   3  -3  234.85   58.92   1 0.39153-0.74616-0.91958 0.65720-0.03260-0.10637
   3   3   3  433.51  117.27   1-0.48886 0.13556-0.59153 0.85393 0.64116-0.50241
  -3   3  -3  526.16  131.62   1-0.12941-0.22511-0.63508 0.37242 0.76152-0.90034
  -3  -3  -3  443.53   73.14   1 0.15923 0.19538-0.60493 0.34228 0.78018-0.91905
   3  -3   4 6946.22  218.09   1 0.60794-0.25381-0.67608 0.93925 0.41629-0.23104
  -3  -3  -4 6646.74  262.39   1-0.33365 0.68816-0.24466-0.01814-0.91039 0.72533
   3   3   4 6385.59  201.93   1-0.34421-0.00948-0.55968 0.82225 0.75383-0.56903
   3   3   4 7224.25  182.74   1-0.42363 0.07003-0.60787 0.87082 0.67157-0.48657
  -3   3  -4 6640.25  227.02   1-0.23839-0.11626-0.63250 0.36917 0.73695-0.92205
   3  -3   5   70.95   52.43   1 0.60562-0.25151-0.68977 0.95364 0.39678-0.16521
  -3  -3  -5  205.50  132.37   1-0.37403 0.72853-0.17549-0.08801-0.91065 0.67933
   3   3   5  252.98  107.87   1-0.31532-0.03831-0.59893 0.86220 0.73610-0.50510
   3   3   5  742.75   72.29   1-0.43824 0.08434 0.52390-0.26064-0.73038 0.96174
  -3   3  -5  421.82  111.21   1-0.34727-0.00670-0.62096 0.35730 0.70270-0.93396
   3   3   5  196.59  109.30   1-0.35527 0.00177-0.61981 0.88347 0.69971-0.46846
   3  -3   6  860.92   91.81   1 0.60408-0.24998-0.69770 0.96229 0.38509-0.10721
  -3  -3  -6  713.14  127.21   1-0.40846 0.76295-0.11202-0.15218-0.90587 0.62828
   3   3   6  556.32   90.31   1-0.29040-0.06331-0.63002 0.89430 0.72022-0.44295
   3   3   6  448.52   94.31   1-0.57174 0.21763 0.46155-0.19766-0.67828 0.95580
  -3   3  -6  603.97  118.12   1-0.45136 0.09727-0.60190 0.33753 0.65876-0.93627
   3   3   6  945.06  115.60   1-0.28630-0.06707-0.62813 0.89251 0.72351-0.44600
   3  -3   7  205.55  102.71   1 0.60327-0.24920-0.70157 0.96688 0.37927-0.05508
  -3  -3  -7  -53.88  104.33   1-0.43726 0.79168-0.05511-0.20993-0.89764 0.57373
   3   3   7  178.82   76.86   1-0.26951-0.08416-0.65521 0.92022 0.70572-0.38224
   3   3   7  196.43   36.87   1-0.69144 0.33730 0.38777-0.12316-0.60953 0.93330
  -3   3  -7  214.43  106.00   1-0.54961 0.19522-0.57376 0.30855 0.60721-0.93095
   3  -3   811973.03  633.56   1 0.60308-0.24903-0.70244 0.96846 0.37795-0.00745
  -3  -3  -813184.99  526.71   1-0.46084 0.81525-0.00544-0.26033-0.88746 0.51727
   3   3   811827.87  482.02   1-0.25232-0.10130-0.67502 0.94075 0.69330-0.32361
   3   3   8 8532.89  505.32   1-0.79205 0.43801 0.30670-0.04142-0.52781 0.89801
  -3   3  -813166.30  506.80   1-0.63744 0.28294-0.54065 0.27474 0.54895-0.91894
   3   3   812646.37  453.63   1-0.15662-0.19698-0.63518 0.90117 0.75630-0.38610
   3  -3   9 2858.27  324.22   1 0.60339-0.24936-0.70098 0.96771 0.38017 0.03664
  -3  -3  -9 2474.15  205.54   1-0.47992 0.83433 0.03717-0.30369-0.87652 0.46006
   3   3   9 2472.39  192.30   1-0.23855-0.11503-0.69031 0.95676 0.68305-0.26714
   3   3   9 2302.75  114.45   1-0.87140 0.51746 0.22106 0.04515-0.43793 0.85451
  -3   3  -9 2360.60  189.64   1-0.71551 0.36114-0.50202 0.23555 0.48580-0.90226
   3   3   9 2310.04  140.16   1-0.09768-0.25579-0.63435 0.90100 0.76684-0.35036
   3  -3  10  133.54   70.13   1 0.60409-0.25008-0.69763 0.96508 0.38518 0.07793
  -3  -3 -10  426.25  180.53   1-0.49516 0.84957 0.07309-0.34033-0.86571 0.40298
   3   3  10  375.55  117.92   1-0.22789-0.12564-0.70180 0.96898 0.67493-0.21281
   3   3  10   24.70   31.05   1-0.92816 0.57424 0.13807 0.12886-0.34561 0.80848
  -3   3 -10  241.69   90.80   1-0.78221 0.42779-0.45980 0.19261 0.42038-0.88311
   3   3  10   76.31   47.44   1-0.04521-0.30813-0.63170 0.89902 0.77388-0.31113
   3  -3  11 4950.96  540.23   1 0.60506-0.25107-0.69271 0.96087 0.39247 0.11696
  -3  -3 -11 6645.95  473.50   1-0.50719 0.86159 0.10278-0.37076-0.85567 0.34667
   3   3  11 5697.16  414.60   1-0.22005-0.13344-0.71006 0.97796 0.66886-0.16053
  -3   3 -11 5800.93  394.59   1-0.83829 0.48382-0.41490 0.14699 0.35372-0.86273
   3   3  11 5786.24  380.56   1-0.00004-0.35317-0.62801 0.89599 0.77820-0.26917
   3  -3  1212705.86 1144.40   1 0.60622-0.25226-0.68643 0.95530 0.40161 0.15413
  -3  -3 -1216020.80 1026.95   1-0.51655 0.87095 0.12684-0.39554-0.84680 0.29152
   3   3  1214656.96  943.58   1-0.21475-0.13869-0.71556 0.98418 0.66471-0.11017
  -3   3 -1214438.11  894.59   1-0.88574 0.53013-0.36418 0.09558 0.28778-0.84251
   3   3  1213878.21  855.56   1 0.03370-0.38796-0.62480 0.89389 0.78004-0.22458
   3  -3  13 1371.69  271.11   1 0.60749-0.25354-0.67894 0.94852 0.41229 0.18977
   3   3  13 2271.02  231.80   1-0.21175-0.14165-0.71864 0.98799 0.66235-0.06159
  -3   3 -13 1101.69  111.17   1-0.92221 0.56642-0.31674 0.04741 0.22179-0.82274
   3   3  13 1274.06  125.02   1 0.06307-0.41730-0.62107 0.89087 0.78120-0.17945
   3   3  14  368.02  134.86   1 0.52872-0.88383-0.15915 0.42976 0.83374-0.18477
   3  -3  14  304.83  129.92   1 0.60880-0.25487-0.67034 0.94064 0.42426 0.22411
   3   3  14  825.28  161.90   1-0.21081-0.14254-0.71960 0.98968 0.66160-0.01464
  -3   3 -14  482.89  118.43   1-0.95023 0.59427-0.26902-0.00103 0.15707-0.80425
   3   3  14  384.86  118.05   1 0.08491-0.43910-0.61793 0.88845 0.78162-0.13358
   3   3  1515262.55 1121.79   1 0.53241-0.88751-0.16953 0.44085 0.82933-0.13400
   3  -3  1514039.34 1240.03   1 0.61008-0.25617-0.66072 0.93173 0.43731 0.25737
   3   3  1515091.87 1111.98   1-0.21175-0.14156-0.71864 0.98944 0.66234 0.03083
  -3   3 -1514617.37 1042.28   1-0.97113 0.61555-0.21973-0.05107 0.09274-0.78643
   3   3  16 4249.49  551.88   1 0.53477-0.88986-0.17625 0.44828 0.82641-0.08473
   3  -3  16 2598.44  484.57   1 0.61128-0.25739-0.65012 0.92185 0.45129 0.28971
   3   3  16 3178.71  454.04   1-0.21438-0.13888-0.71594 0.98746 0.66442 0.07496
  -3   3 -16 2615.13  329.49   1-0.98453 0.62880-0.17237-0.09917 0.03127-0.77121
   3   3  17 2738.75  368.46   1 0.53596-0.89104-0.17967 0.45241 0.82490-0.03686
   3  -3  17 2403.13  426.19   1 0.61235-0.25849-0.63859 0.91103 0.46606 0.32125
   3   3  17 2693.70  383.39   1-0.21857-0.13464-0.71160 0.98385 0.66771 0.11789
  -3  -4  16 7538.89 1134.00   1 0.48486-0.01253-0.87370 0.62535-0.03935 0.78023
  -3   4  16 5380.00  832.70   1 0.12485-0.59881-0.93526 0.68848 0.33119 0.40916
   3  -4 -16 5330.48 1126.82   1-0.49548 0.96743 0.49925-0.25140-0.71080-0.02954
   3   4 -16 6009.88  897.47   1-0.98713 0.51486-0.15925 0.40714 0.01447-0.75441
  -3  -4  15 3179.34  441.05   1 0.46707 0.00524-0.88051 0.63145-0.08081 0.77539
  -3   4  15 2590.87  380.64   1 0.13982-0.61373-0.93927 0.69166 0.31339 0.38068
   3  -4 -15 2998.43  394.50   1-0.49601 0.96799 0.49901-0.25042-0.71059 0.01652
   3   4 -15 2388.99  327.93   1-0.98129 0.50917-0.18617 0.43480 0.04906-0.74275
  -3  -4  14 1602.38  224.59   1 0.44813 0.02412-0.88547 0.63591-0.12293 0.77137
  -3   4  14 1532.20  224.49   1 0.15414-0.62801-0.94262 0.69420 0.29612 0.35168
   3  -4 -14 1571.54  345.55   1-0.49399 0.96599 0.49993-0.25061-0.71135 0.06355
   3   4 -14 1226.58  156.58   1-0.97346 0.50149-0.21293 0.46230 0.08384-0.73128
  -3  -4  13  586.41  195.31   1 0.42729 0.04494-0.88869 0.63841-0.16625 0.76838
  -3   4  13  312.40  148.06   1 0.16776-0.64160-0.94538 0.69613 0.27945 0.32208
  -3  -4  13  286.52  136.71   1 0.48759-0.01488-0.85041 0.59982-0.19761 0.79999
   3  -4 -13  191.63   96.98   1-0.48922 0.96125 0.50210-0.25204-0.71312 0.11159
   3   4 -13  536.10  122.96   1-0.96359 0.49177-0.23953 0.48963 0.11881-0.72000
  -3  -4  12 2048.44  243.31   1 0.40473 0.06747-0.88986 0.63884-0.21056 0.76636
  -3   4  12 1687.66  222.80   1 0.18066-0.65445-0.94759 0.69752 0.26347 0.29179
  -3  -4  12 1351.40  161.85   1 0.52775-0.05505-0.80331 0.55199-0.27598 0.83202
   3  -4 -12 1462.03  165.85   1-0.48149 0.95355 0.50556-0.25477-0.71593 0.16067
   3   4 -12 1213.02  140.22   1-0.95143 0.47949-0.26664 0.51764 0.15387-0.70860
  -3  -4  11 2089.18  222.53   1 0.38032 0.09186-0.88874 0.63700-0.25588 0.76536
  -3   4  11 1652.43  194.30   1 0.19339-0.66614-0.94930 0.69857 0.24782 0.26122
  -3  -4  11 1710.19  160.51   1 0.56431-0.09162-0.74512 0.49308-0.35543 0.86514
   3  -4 -11 2398.80  192.00   1-0.47054 0.94263 0.51037-0.25884-0.71979 0.21080
   3   4 -11 1610.10  170.07   1-0.93726 0.46549-0.29283 0.54457 0.18917-0.69767
  -3  -4  10  640.46  256.68   1 0.35392 0.11824-0.88510 0.63262-0.30220 0.76537
  -3  -4  10  -17.54   71.82   1 0.59630-0.12295-0.67499 0.42215-0.43450 0.89814
   3  -4 -10  244.42  102.11   1-0.45605 0.92817 0.51655-0.26430-0.72469 0.26197
   3   4 -10  336.21  122.30   1-0.92081 0.44922-0.31881 0.57128 0.22462-0.68689
  -3  -4   9 2493.76  256.44   1 0.32625 0.14677-0.87747 0.62336-0.35154 0.76803
  -3   4   9 2260.55  282.36   1 0.21494-0.68764-0.95145 0.69903 0.22028 0.19621
  -3  -4   9 2259.39  227.26   1 0.62161-0.14828-0.59325 0.33967-0.51150 0.92877
   3  -4  -9 2405.47  254.44   1-0.43769 0.90984 0.52412-0.27113-0.73055 0.31410
   3   4  -9 1259.21  179.58   1-0.90199 0.43057-0.34452 0.59772 0.26021-0.67625
  -3  -4   8 7257.22  448.85   1 0.29538 0.17755-0.86775 0.61296-0.39968 0.76989
   3   4  -8 7266.11  382.04   1-0.63843 0.16608 0.49971-0.24535 0.58539-0.95510
  -3   4   8 7608.53  457.95   1 0.22414-0.69681-0.95202 0.69874 0.20834 0.16187
   3  -4  -8 8061.89  459.58   1-0.41507 0.88725 0.53305-0.27932-0.73727 0.36709
   3   4  -8 6874.29  434.16   1-0.88068 0.40943-0.36991 0.62385 0.29588-0.66570
  -3  -4   756020.15 1726.69   1 0.26205 0.21078-0.85447 0.59901-0.44855 0.77249
   3   4  -754121.60 1593.11   1-0.64706 0.17477 0.39720-0.14217 0.65079-0.97428
  -3   4   757516.00 1758.52   1 0.23207-0.70471-0.95234 0.69821 0.19795 0.12598
   3  -4  -754266.66 1645.10   1-0.38777 0.85998 0.54323-0.28877-0.74466 0.42075
   3   4  -751089.08 1546.94   1-0.85678 0.38570-0.39492 0.64959 0.33158-0.65517
  -3  -4   6  471.18  138.71   1 0.22614 0.24658-0.83721 0.58109-0.49792 0.77558
   3   4  -6  268.81   73.23   1-0.64673 0.17496 0.28779-0.03213 0.70633-0.98405
  -3   4   6  111.82  125.92   1 0.23851-0.71113-0.95248 0.69750 0.18945 0.08821
   3  -4  -6  326.93  111.92   1-0.35537 0.82760 0.55454-0.29935-0.75245 0.47482
   3   4  -6  513.61  147.75   1-0.83011 0.35838-0.42213 0.67785 0.36429-0.64193
  -3  -4   5 2775.62  273.86   1 0.18759 0.28502-0.81562 0.55891-0.54732 0.77870
   3   4  -5 2342.83  282.03   1-0.63609 0.16437 0.17466 0.08166 0.75158-0.98301
  -3   4   5 2417.31  204.23   1 0.24317-0.71576-0.95251 0.69668 0.18327 0.04811
   3  -4  -5 1689.24  159.07   1-0.31744 0.78970 0.56674-0.31081-0.76028 0.52892
   3   4  -5 3030.72  240.71   1-0.80082 0.32914-0.44603 0.70246 0.39966-0.63102
  -3  -4   4  783.93  239.28   1 0.14646 0.32610-0.78916 0.53178-0.59646 0.78157
   3   4  -4  493.27   74.86   1-0.61640 0.14438 0.06223 0.19496 0.78496-0.97012
  -3   4   4  416.22  150.59   1 0.24562-0.71819-0.95250 0.69582 0.18000 0.00510
   3   4  -4  255.33   91.25   1-0.76868 0.29705-0.46921 0.72636 0.43470-0.61979
  -3   4   4  -56.74  105.11   1 0.27358-0.74608-0.57767 0.32003 0.76904-0.58389
  -3  -4   313073.18  428.54   1 0.10284 0.36968-0.75753 0.49950-0.64464 0.78347
   3   4  -313776.70  625.51   1-0.58954 0.11758-0.04655 0.30439 0.80639-0.94526
  -3   4   313257.17  393.63   1 0.24528-0.71782-0.95250 0.69497 0.18045-0.04162
   3   4  -312721.68  370.35   1-0.73363 0.26206-0.49152 0.74939 0.46923-0.60805
  -3   4   313455.87  439.25   1 0.22351-0.69605-0.59072 0.33236 0.77529-0.63642
  -3  -4   220830.16  563.45   1 0.05701 0.41548-0.72052 0.46184-0.69107 0.78362
   3   4  -221394.19  649.55   1-0.55729 0.08539-0.14826 0.40673 0.81696-0.90954
  -3   4   217637.77  455.92   1 0.24127-0.71379-0.95250 0.69412 0.18578-0.09323
   3   4  -220885.67  523.29   1-0.69570 0.22418-0.51278 0.77137 0.50303-0.59558
  -3   4   219461.09  543.94   1 0.16714-0.63972-0.60333 0.34426 0.77977-0.68719
   3  -4  -128047.21  534.92   1 0.59314-0.12016-0.39027 0.64992 0.70417-0.75044
  -3  -4   127154.05  662.22   1 0.00966 0.46293-0.67800 0.41870-0.73499 0.78126
  -3   4   125987.68  512.23   1-0.03981-0.43239-0.62969 0.37039-0.77582 0.82209
   3   4  -129397.16  644.20   1-0.52106 0.04928-0.23941 0.49854 0.81924-0.86546
  -3   4   128666.41  638.15   1 0.23224-0.70473-0.95234 0.69311 0.19772-0.15144
   3   4  -129221.74  687.76   1-0.65522 0.18360-0.53271 0.79228 0.53562-0.58187
  -3   4   127313.26  671.83   1 0.10455-0.57717-0.61485 0.35506 0.78167-0.73539
   3  -4   0 7145.18  202.92   1 0.61396-0.14159-0.55537 0.81568 0.56089-0.56089
  -3   4   0 6564.97  180.68   1 0.11322-0.58584-0.76537 0.50537-0.63354 0.63354
  -3  -4   0 6041.94  291.07   1-0.03904 0.51163-0.63047 0.37047-0.77522 0.77522
   3   4   0 7127.82  244.53   1-0.48440 0.01267-0.32142 0.58120 0.81365-0.81365
  -3   4   0 6951.77  236.38   1 0.21598-0.68845-0.95153 0.69144 0.21894-0.21894
   3  -4   0 6216.27  198.08   1 0.62549-0.15271-0.57684 0.83706-0.52535 0.52535
   3   4   0 7053.26  267.94   1-0.61190 0.14039-0.55128 0.81156 0.56714-0.56714
  -3   4   0 7308.76  319.60   1 0.03608-0.50874-0.62452 0.36402 0.78016-0.78016
   3  -4   111104.78  285.90   1 0.61291-0.14056-0.63140 0.89243 0.47504-0.42872
  -3   4  -1 8847.45  235.31   1 0.19428-0.66695-0.81961 0.55895-0.53896 0.49268
  -3  -4  -110168.06  344.55   1-0.08804 0.56061-0.57842 0.31772-0.81096 0.76469
  -3   4  -1 8506.03  209.69   1-0.63942 0.16744 0.49217-0.75254 0.59067-0.63689
   3   4   110740.25  307.53   1-0.44818-0.02349-0.39276 0.65320 0.80303-0.75681
  -3   4  -1 9640.35  260.87   1 0.18853-0.66097-0.94866 0.68772 0.25395-0.30023
   3   4   110334.49  333.21   1-0.56621 0.09481-0.56822 0.82920 0.59709-0.55084
  -3   4  -1 9882.46  344.73   1-0.03748-0.43492-0.63116 0.36983 0.77473-0.82101
   3  -4   2 2990.74  232.58   1 0.60838-0.13605-0.67319 0.93493 0.42032-0.32770
  -3   4  -2 2049.09  114.71   1 0.24327-0.71585-0.84581 0.58434-0.47478 0.38222
  -3  -4  -2 2320.53  191.90   1-0.13607 0.60858-0.52234 0.26081-0.84180 0.74940
  -3   4  -2 1972.37   80.48   1-0.64781 0.17577 0.36006-0.62110 0.67133-0.76375
   3   4   2 2045.26  136.52   1-0.41342-0.05841-0.45318 0.71434 0.78974-0.69734
  -3   4  -2 2103.71  109.36   1 0.14004-0.61326-0.93932 0.67774 0.31313-0.40567
   3   4   2 2555.64  203.52   1-0.51857 0.04728-0.58332 0.84501 0.62515-0.53265
  -3   4  -2 1959.53  163.89   1-0.11559-0.35693-0.63484 0.37284 0.76394-0.85649
   3  -4   3  362.31   52.70   1 0.60405-0.13174-0.69783 0.96028 0.38489-0.24595
  -3  -4  -3  369.58  161.39   1-0.18260 0.65516-0.46456 0.20230-0.86650 0.72789
  -3   4  -3  227.01   29.20   1-0.63096 0.15893 0.13969-0.40144 0.76312-0.90198
   3   4   3  238.89   66.42   1-0.38151-0.09026-0.50465 0.76652 0.77444-0.63584
  -3   4  -3  324.36   38.68   1 0.05378-0.52696-0.90954 0.64713 0.41211-0.55093
   3   4   3  297.80  115.17   1-0.47022-0.00140-0.59745 0.85968 0.64957-0.51081
  -3   4  -3  154.00  106.34   1-0.19669-0.27597-0.63444 0.37177 0.74752-0.88635
   3  -4   4  625.88   90.41   1 0.60078-0.12835-0.71287 0.97590 0.36176-0.17642
  -3  -4  -4  266.04  116.12   1-0.22652 0.69913-0.40599 0.14301-0.88535 0.70053
   3   4   4  311.72   97.22   1-0.35270-0.11902-0.54761 0.81018 0.75876-0.57396
   3   4   4  801.14  127.46   1-0.42068-0.05083-0.60847 0.87142 0.67289-0.48788
  -3   4  -4  273.97  106.29   1-0.27953-0.19224-0.62876 0.36581 0.72561-0.91061
   3  -4   5  120.47   45.20   1 0.59862-0.12620-0.72135 0.98512 0.34828-0.11661
  -3  -4  -5  517.97  146.34   1-0.26709 0.73974-0.34816 0.08444-0.89857 0.66756
   3   4   5   42.47   67.39   1-0.32720-0.14446-0.58312 0.84640 0.74357-0.51256
   3   4   5  192.05  111.90   1-0.37122-0.10018-0.61737 0.88103 0.69357-0.46232
  -3   4  -5 -151.24  102.04   1-0.36214-0.10974-0.61878 0.35512 0.69710-0.92835
   3  -4   6 8782.51  340.84   1 0.59745-0.12506-0.72561 0.99012 0.34135-0.06335
  -3  -4  -6 8764.01  365.70   1-0.30415 0.77678-0.29208 0.02787-0.90674 0.62914
   3   4   6 9003.02  358.87   1-0.30507-0.16653-0.61221 0.87619 0.72946-0.45226
  -3   4  -6 9859.92  413.26   1-0.44305-0.02894-0.60376 0.33939 0.66269-0.94019
   3   4   6 9488.15  376.56   1-0.32269-0.14860-0.62419 0.88856 0.71151-0.43400
   3  -4   7 2169.82  173.82   1 0.59711-0.12473-0.72683 0.99207 0.33936-0.01502
  -3  -4  -7 2660.26  234.86   1-0.33673 0.80936-0.23955-0.02535-0.91061 0.58675
   3   4   7 1790.61  167.86   1-0.28616-0.18556-0.63524 0.90024 0.71733-0.39385
  -3   4  -7 2402.03  233.50   1-0.52181 0.04955-0.58237 0.31716 0.62333-0.94707
   3   4   7 2496.11  209.29   1-0.27598-0.19520-0.62907 0.89416 0.72669-0.40294
   3  -4   814960.33  748.24   1 0.59742-0.12506-0.72573 0.99171 0.34117 0.02950
  -3  -4  -815528.11  788.75   1-0.36511 0.83773-0.19123-0.07438-0.91110 0.54098
   3   4   814349.63  733.60   1-0.27043-0.20124-0.65413 0.91985 0.70638-0.33668
  -3   4  -816540.69  845.08   1-0.59505 0.12268-0.55783 0.29191 0.57855-0.94854
   3   4   814910.43  736.44   1-0.23355-0.23817-0.63279 0.89878 0.73825-0.36805
   3  -4   9  514.74   99.17   1 0.59823-0.12589-0.72278 0.98949 0.34597 0.07103
  -3  -4  -9 1052.24  198.96   1-0.38942 0.86204-0.14767-0.11864-0.90914 0.49275
   3   4   9  658.92  136.70   1-0.25762-0.21401-0.66900 0.93545 0.69718-0.28127
  -3   4  -9  610.43  113.37   1-0.66286 0.19038-0.52915 0.26253 0.52972-0.94595
   3   4   9  835.45  150.92   1-0.19295-0.27865-0.63455 0.90121 0.74840-0.33192
   3  -4  10  184.04   94.72   1 0.59942-0.12709-0.71830 0.98575 0.35317 0.11016
  -3  -4 -10  212.11  134.64   1-0.40995 0.88256-0.10916-0.15786-0.90554 0.44289
   3   4  10  -14.17   69.97   1-0.24750-0.22409-0.68043 0.94761 0.68974-0.22762
  -3   4 -10  184.74   81.48   1-0.72501 0.25269-0.49660 0.22941 0.47722-0.93995
   3   4  10  332.14  131.89   1-0.15639-0.31508-0.63519 0.90250 0.75635-0.29360
   3  -4  11   56.86   42.02   1 0.60087-0.12855-0.71250 0.98069 0.36233 0.14734
  -3  -4 -11  174.65  129.21   1-0.42708 0.89962-0.07565-0.19232-0.90103 0.39203
   3   4  11  975.59  166.07   1-0.23985-0.23169-0.68888 0.95678 0.68403-0.17570
  -3   4 -11  260.48  102.34   1-0.78015 0.30778-0.46126 0.19335 0.42259-0.93160
   3   4  11  196.57   90.29   1-0.12437-0.34697-0.63501 0.90299 0.76242-0.25339
   3  -4  12  914.77  136.03   1 0.60238-0.13026-0.70563 0.97451 0.37310 0.18265
  -3  -4 -12  789.67  176.90   1-0.44109 0.91362-0.04723-0.22146-0.89621 0.34093
   3   4  12  882.48  166.97   1-0.23447-0.23703-0.69474 0.96337 0.67996-0.12542
  -3   4 -12  898.95  116.27   1-0.82859 0.35617-0.42345 0.15482 0.36622-0.92150
   3   4  12  646.64  103.75   1-0.09727-0.37394-0.63433 0.90298 0.76691-0.21160
   3  -4  13  358.41  128.43   1 0.60409-0.13199-0.69764 0.96723 0.38517 0.21689
  -3  -4 -13  756.33  212.27   1-0.45240 0.92492-0.02358-0.24585-0.89150 0.28994
   3   4  13  559.09  148.54   1-0.23115-0.24030-0.69831 0.96766 0.67743-0.07668
  -3   4 -13  417.81  111.05   1-0.87181 0.39838-0.37958 0.11025 0.30961-0.91056
   3   4  13  446.40  140.71   1-0.07532-0.39576-0.63344 0.90275 0.77011-0.16853
   3  -4  14  201.84  110.05   1 0.60582-0.13374-0.68866 0.95896 0.39838 0.24999
  -3  -4 -14  236.56  133.96   1-0.46132 0.93384-0.00440-0.26576-0.88722 0.23939
   3   4  14  354.68  155.33   1-0.22973-0.24167-0.69983 0.96991 0.67635-0.02938
  -3   4 -14   91.66   45.54   1-0.90680 0.43321-0.33827 0.06821 0.25152-0.89870
   3  -4  15 3198.17  637.91   1 0.60752-0.13546-0.67875 0.94976 0.41256 0.28213
  -3  -4 -15 4832.95  641.45   1-0.46815 0.94066 0.01060-0.28150-0.88358 0.18948
   3   4  15 3949.07  544.64   1-0.23004-0.24132-0.69950 0.97030 0.67659 0.01659
  -3   4 -15 3790.76  476.27   1-0.93547 0.46171-0.29585 0.02505 0.19327-0.88667
   3  -4  16  904.92  201.06   1 0.60913-0.13709-0.66793 0.93965 0.42756 0.31343
  -3  -4 -16 1277.81  253.04   1-0.47313 0.94564 0.02173-0.29336-0.88072 0.14034
   3   4  16 1274.52  272.05   1-0.23195-0.23937-0.69746 0.96898 0.67804 0.06134
  -3   4 -16  850.77  145.79   1-0.95860 0.48526-0.25113-0.02041 0.13419-0.87412
  -3  -5  14 1302.19  285.27   1 0.45322 0.13708-0.88433 0.63478-0.11199 0.76043
  -3   5  14 1258.35  244.62   1 0.09088-0.68286-0.92433 0.67590 0.37060 0.27721
   3  -5 -14 1613.57  284.79   1-0.35660 0.94667 0.55412-0.30480-0.75217 0.10436
   3   5 -14  505.98  113.74   1-0.95822 0.36864-0.25199 0.50135 0.13533-0.78277
  -3  -5  13  366.51  212.86   1 0.43415 0.15612-0.88787 0.63759-0.15226 0.75438
  -3   5  13  236.26  106.80   1 0.10121-0.69315-0.92792 0.67867 0.35876 0.24277
   3  -5 -13  249.50   97.32   1-0.34954 0.93964 0.55649-0.30643-0.75374 0.15221
   3   5 -13  450.22  116.08   1-0.94532 0.35558-0.27846 0.52874 0.16975-0.77070
  -3  -5  12  523.35  200.46   1 0.41374 0.17651-0.88966 0.63864-0.19317 0.74897
  -3   5  12  790.46  201.69   1 0.11053-0.70243-0.93096 0.68089 0.34797 0.20729
   3  -5 -12  421.60  121.35   1-0.33954 0.92966 0.55976-0.30897-0.75589 0.20062
   3   5 -12  275.59  112.21   1-0.93060 0.34103-0.30383 0.55484 0.20412-0.75884
  -3  -5  11  676.45  213.47   1 0.39189 0.19834-0.88956 0.63781-0.23472 0.74421
  -3   5  11  236.96  142.66   1 0.11874-0.71060-0.93348 0.68259 0.33837 0.17061
   3  -5 -11  129.71   57.89   1-0.32641 0.91657 0.56395-0.31242-0.75855 0.24956
   3   5 -11  289.96   93.59   1-0.91384 0.32444-0.32875 0.58049 0.23833-0.74683
  -3  -5  10  869.95  220.80   1 0.36853 0.22168-0.88741 0.63493-0.27690 0.74007
  -3   5  10  324.42  159.26   1 0.12572-0.71753-0.93551 0.68379 0.33017 0.13255
  -3  -5  10  289.40  110.42   1 0.60173-0.01013-0.66013 0.40729-0.44960 0.91324
   3  -5 -10  451.03  141.46   1-0.30998 0.90016 0.56901-0.31675-0.76166 0.29894
   3   5 -10  110.65   65.78   1-0.89503 0.30580-0.35319 0.60566 0.27233-0.73460
  -3  -5   9 9516.94  526.22   1 0.34356 0.24662-0.88304 0.62983-0.31968 0.73653
  -3   5   9 9809.02  549.96   1 0.13129-0.72306-0.93704 0.68450 0.32357 0.09287
  -3  -5   9 9897.98  469.95   1 0.62686-0.03529-0.57064 0.31706-0.53047 0.94774
   3   5  -911297.18  575.90   1-0.87414 0.28508-0.37709 0.63030 0.30607-0.72211
  -3  -5   8  586.36  137.69   1 0.31778 0.27321-0.87507 0.62028-0.36504 0.73525
   3   5  -8  824.65   97.63   1-0.64191 0.05158 0.47079-0.21644 0.60522-0.97493
  -3   5   8  315.85   98.49   1 0.13524-0.72698-0.93809 0.68473 0.31886 0.05131
   3   5  -8  888.21  163.28   1-0.85114 0.26226-0.40038 0.65432 0.33946-0.70927
  -3   5   8  953.50  271.47   1 0.26660-0.85714-0.57960 0.32482 0.77005-0.39974
  -3  -5   720378.16 1278.96   1 0.28935 0.30155-0.86555 0.61010-0.40875 0.73269
   3   5  -720475.16 1241.33   1-0.64778 0.05752 0.36480-0.10978 0.66879-0.99228
  -3   5   721761.02 1349.09   1 0.13732-0.72901-0.93863 0.68445 0.31638 0.00752
   3   5  -723041.08 1441.79   1-0.82599 0.23630-0.42568 0.68068 0.36950-0.69341
  -3   5   724257.91 1524.25   1 0.23890-0.82948-0.58690 0.33140 0.77360-0.44958
  -3  -5   6  791.41  150.97   1 0.25908 0.33171-0.85316 0.59703-0.45275 0.73041
   3   5  -6  648.52  148.46   1-0.64460 0.05491 0.25488 0.00076 0.72077-0.99849
  -3   5   6  327.30  135.42   1 0.13717-0.72882-0.93859 0.68359 0.31656-0.03893
   3   5  -6  777.60  176.75   1-0.79892 0.20929-0.44749 0.70320 0.40184-0.67948
  -3   5   6  279.97  191.16   1 0.20708-0.79770-0.59462 0.33841 0.77687-0.49914
  -3  -5   5  998.82  170.35   1 0.22696 0.36374-0.83763 0.58084-0.49683 0.72822
   3   5  -5  696.95  107.39   1-0.63179 0.04216 0.14497 0.11135 0.76145-0.99288
  -3   5   5 1251.34  153.14   1 0.13432-0.72593-0.93785 0.68202 0.31996-0.08860
   3   5  -5  877.85  166.75   1-0.76982 0.18024-0.46843 0.72487 0.43351-0.66488
  -3   5   5 2032.46  303.68   1 0.17100-0.76166-0.60254 0.34561 0.77954-0.54810
  -3  -5   4  760.08  155.47   1 0.19298 0.39762-0.81876 0.56130-0.54072 0.72583
   3   5  -4 1080.84  249.38   1-0.61127 0.02127 0.03877 0.21841 0.79046-0.97562
  -3   5   4  745.02  119.59   1 0.12815-0.71972-0.93619 0.67954 0.32729-0.14220
   3   5  -4 1152.75  184.59   1-0.73876 0.14923-0.48843 0.74558 0.46439-0.64948
  -3   5   4  359.58  181.25   1 0.13056-0.72126-0.61038 0.35273 0.78127-0.59611
  -3  -5   3   84.56   89.17   1 0.15730 0.43335-0.79646 0.53842-0.58386 0.72269
   3   5  -3  120.01   73.51   1-0.58509-0.00484-0.06200 0.31983 0.80859-0.94745
  -3   5   3  137.14   96.78   1 0.11778-0.70930-0.93319 0.67572 0.33951-0.20069
   3   5  -3  709.90  178.17   1-0.70584 0.11637-0.50736 0.76523 0.49432-0.63314
  -3   5   3  210.36  119.93   1 0.08575-0.67649-0.61781 0.35945 0.78163-0.64276
  -3  -5   2 9842.72  544.06   1 0.11994 0.47068-0.77035 0.51166-0.62623 0.71878
   3   5  -2 9683.10  605.65   1-0.55496-0.03492-0.15486 0.41333 0.81733-0.90990
  -3   5   2 9788.74  515.65   1 0.10194-0.69342-0.92817 0.66987 0.35791-0.26537
   3   5  -210866.85  589.56   1-0.67144 0.08183-0.52505 0.78391 0.52295-0.61544
  -3   5   2 9323.69  529.39   1 0.03665-0.62743-0.62445 0.36538 0.78019-0.68761
   3  -5  -132205.95 1483.45   1 0.60356-0.01217-0.45001 0.70965 0.65817-0.70444
  -3  -5   135875.34 1723.75   1 0.08115 0.50943-0.74049 0.48114-0.66714 0.71342
  -3   5   131480.40 1455.48   1-0.28048-0.31009-0.32843 0.06914-0.90192 0.94818
   3   5  -134131.14 1611.23   1-0.52201-0.06774-0.23713 0.49626 0.81930-0.86552
  -3   5   132797.59 1542.55   1 0.07876-0.67020-0.91982 0.66070 0.38434-0.33806
   3   5  -137933.69 1813.04   1-0.63536 0.04586-0.54155 0.80112 0.55048-0.59673
  -3   5   133472.52 1617.51   1-0.01604-0.57423-0.62947 0.36946 0.77685-0.73058
   3  -5   0 7531.11  401.03   1 0.61445-0.02393-0.59394 0.85425 0.51929-0.51929
  -3  -5   0 8751.60  527.68   1 0.04126 0.54928-0.70694 0.44694-0.70606 0.70606
  -3   5   0 6167.09  312.03   1-0.10708-0.48324-0.55703 0.29703-0.82355 0.82355
   3   5   0 7793.92  414.19   1-0.48921-0.10049-0.31130 0.57108 0.81471-0.81471
  -3   5   0 7621.36  393.76   1 0.04526-0.63667-0.90573 0.64578 0.42142-0.42142
   3   5   0 8846.91  498.13   1-0.59801 0.00862-0.55671 0.81698 0.57658-0.57658
  -3   5   0 7999.46  485.50   1-0.07312-0.51728-0.63333 0.37266 0.77041-0.77041
   3  -5   1  371.67   63.76   1 0.61052-0.02002-0.65705 0.91808 0.44219-0.39588
  -3  -5  -1  255.33  152.67   1 0.00090 0.58977-0.66976 0.40906-0.74257 0.69630
  -3   5  -1  602.90   92.66   1-0.00136-0.58897-0.66760 0.40690-0.74451 0.69823
   3   5   1  491.61   87.77   1-0.45706-0.13259-0.37603 0.63646 0.80603-0.75981
  -3   5  -1  212.45   40.02   1-0.00287-0.58828-0.88158 0.62076 0.47201-0.51824
   3   5   1  548.74  168.95   1-0.55970-0.02957-0.57043 0.83141 0.60110-0.55486
  -3   5  -1  512.52  162.48   1-0.13345-0.45708-0.63513 0.37379 0.76078-0.80706
   3  -5   2   45.05   32.31   1 0.60527-0.01479-0.69163 0.95337 0.39406-0.30143
  -3   5  -2  128.03   87.14   1 0.06910-0.65994-0.73066 0.46934-0.67923 0.58668
  -3  -5  -2  398.84  169.05   1-0.03981 0.63047-0.62969 0.36829-0.77582 0.68326
  -3   5  -2   67.62   25.11   1-0.64595 0.05595 0.42084-0.68188 0.63688-0.72931
   3   5   2  336.02   88.22   1-0.42629-0.16357-0.43112 0.69228 0.79523-0.70283
  -3   5  -2  180.69   46.52   1-0.07645-0.51466-0.83485 0.57322 0.54513-0.63759
   3   5   2  266.46  129.69   1-0.52081-0.06835-0.58266 0.84435 0.62390-0.53140
  -3   5  -2  221.66  105.37   1-0.19640-0.39425-0.63445 0.37245 0.74759-0.84014
   3  -5   3  100.01   48.02   1 0.60091-0.01031-0.71231 0.97461 0.36263-0.22363
  -3  -5  -3   12.95   92.37   1-0.08008 0.67073-0.58717 0.32507-0.80548 0.66666
   3   5   3   33.31   46.90   1-0.39794-0.19186-0.47869 0.74056 0.78261-0.64401
  -3   5  -3  106.55   25.60   1-0.19682-0.39378-0.73364 0.47154 0.65040-0.78903
   3   5   3   50.49   87.16   1-0.48174-0.10731-0.59338 0.85577 0.64484-0.50609
  -3   5  -3  335.88  142.98   1-0.26115-0.32842-0.63029 0.36806 0.73111-0.86986
   3  -5   4  229.77   68.71   1 0.59780-0.00722-0.72436 0.98740 0.34340-0.15806
  -3  -5  -4  464.50  184.45   1-0.11930 0.70993-0.54295 0.28015-0.83124 0.64614
   3   5   4  294.61   73.84   1-0.37217-0.21757-0.51892 0.78149 0.76954-0.58474
   3   5   4  351.58  145.19   1-0.44378-0.14564-0.60360 0.86655 0.66235-0.47735
  -3   5  -4  153.86   92.85   1-0.32713-0.26255-0.62364 0.36069 0.70996-0.89496
   3  -5   5  183.98   76.69   1 0.59586-0.00529-0.73114 0.99491 0.33222-0.10055
  -3  -5  -5  437.45  157.95   1-0.15641 0.74712-0.49760 0.23388-0.85318 0.62217
   3   5   5  230.97  105.61   1-0.34917-0.24052-0.55266 0.81593 0.75673-0.52572
   3   5   5  355.25  139.63   1-0.40595-0.18336-0.61133 0.87499 0.67931-0.44805
  -3   5  -5  610.11  133.00   1-0.39328-0.19651-0.61365 0.34999 0.68465-0.91590
   3  -5   6 7974.99  516.27   1 0.59491-0.00436-0.73428 0.99879 0.32695-0.04894
  -3  -5  -6 9693.41  639.24   1-0.19168 0.78244-0.45278 0.18833-0.87077 0.59355
   3   5   6 9297.32  619.67   1-0.32898-0.26066-0.58072 0.84470 0.74466-0.46746
  -3   5  -6 8588.12  587.95   1-0.45870-0.13119-0.60021 0.33583 0.65523-0.93273
   3   5   6 9471.42  632.75   1-0.36941-0.21979-0.61766 0.88203 0.69428-0.41677
   3  -5   7  469.24   96.91   1 0.59477-0.00424-0.73474 0.99998 0.32617-0.00183
  -3  -5  -7  310.09  107.92   1-0.22434 0.81515-0.40901 0.14383-0.88452 0.56109
   3   5   7  430.79   84.32   1-0.31155-0.27802-0.60385 0.86854 0.73368-0.41027
  -3   5  -7  631.95  142.52   1-0.52340-0.06672-0.58190 0.31669 0.62244-0.94617
   3   5   7    3.04   76.48   1-0.33463-0.25446-0.62268 0.88777 0.70730-0.38354
   3  -5   8   82.88   48.06   1 0.59526-0.00475-0.73313 0.99911 0.32888 0.04178
  -3  -5  -8  232.55   90.49   1-0.25409 0.84495-0.36711 0.10120-0.89479 0.52517
   3   5   8  604.05  121.61   1-0.29675-0.29298-0.62212 0.88784 0.72450-0.35480
  -3   5  -8  324.75  115.02   1-0.58482-0.00541-0.56163 0.29571 0.58527-0.95525
   3   5   8  585.75  177.32   1-0.30210-0.28688-0.62654 0.89234 0.71845-0.34844
   3  -5   9  342.27   95.79   1 0.59624-0.00574-0.72984 0.99656 0.33437 0.08262
  -3  -5  -9  555.70  136.56   1-0.28123 0.87199-0.32729 0.06097-0.90209 0.48571
   3   5   9  542.23  137.45   1-0.28452-0.30517-0.63725 0.90370 0.71620-0.30029
  -3   5  -9  634.13  140.77   1-0.64314 0.05278-0.53815 0.27153 0.54474-0.96097
   3   5   9  589.47  184.40   1-0.27224-0.31663-0.62940 0.89591 0.72783-0.31157
   3  -5  10  424.08  133.45   1 0.59758-0.00710-0.72515 0.99260 0.34212 0.12121
  -3  -5 -10  181.11  128.53   1-0.30485 0.89560-0.29098 0.02395-0.90685 0.44420
   3   5  10  114.82   68.06   1-0.27464-0.31500-0.64914 0.91632 0.70935-0.24722
  -3   5 -10  319.88  127.04   1-0.69816 0.10794-0.51148 0.24429 0.50094-0.96367
   3   5  10  262.31  120.65   1-0.24544-0.34333-0.63141 0.89864 0.73557-0.27306
  -3  -5 -11  468.73  146.74   1-0.32540 0.91614-0.25817-0.00955-0.90964 0.40072
   3   5  11  419.16  130.19   1-0.26697-0.32263-0.65819 0.92609 0.70392-0.19558
  -3   5 -11  324.43  130.91   1-0.74870 0.15843-0.48227 0.21436 0.45481-0.96381
   3   5  11   80.73   84.36   1-0.22358-0.36589-0.63333 0.90131 0.74088-0.23184
   3  -5  12  242.15  129.46   1 0.60094-0.01050-0.71218 0.98110 0.36283 0.19317
  -3  -5 -12  698.86  138.49   1-0.34300 0.93374-0.22910-0.03932-0.91096 0.35578
  -3   5 -12  368.10  117.38   1-0.79478 0.20445-0.45061 0.18199 0.40652-0.96180
   3   5  12  193.54   95.05   1-0.20388-0.38546-0.63419 0.90284 0.74580-0.19050
   3  -5  13  160.65   90.45   1 0.60269-0.01243-0.70426 0.97384 0.37520 0.22686
  -3  -5 -13 1464.31  268.08   1-0.35782 0.94855-0.20389-0.06524-0.91125 0.30980
   3   5  13  703.24  151.82   1-0.25761-0.33190-0.66901 0.93837 0.69717-0.09641
  -3   5 -13  940.61  165.77   1-0.83618 0.24580-0.41679 0.14744 0.35648-0.95803
   3  -5  14  989.36  210.20   1 0.60456-0.01433-0.69528 0.96558 0.38868 0.25969
  -3  -5 -14 3182.94  521.87   1-0.37006 0.96078-0.18253-0.08729-0.91089 0.26318
   3   5  14 3079.40  513.87   1-0.25562-0.33385-0.67128 0.94136 0.69572-0.04875
  -3   5 -14 1636.35  269.45   1-0.87420 0.28297-0.37701 0.10695 0.30596-0.95314
  -3  -6  11  137.59  135.07   1 0.41002 0.29826-0.88978 0.63804-0.20040 0.70989
  -3   6  11  365.93  122.48   1 0.04228-0.75224-0.90435 0.65346 0.42467 0.08432
   3   6 -11  281.12   89.67   1-0.89793 0.19090-0.34962 0.60136 0.26733-0.77583
  -3   6  11  210.69  145.92   1 0.19028-0.89890-0.59842 0.34578 0.77825-0.26907
  -3  -6  10  182.91  134.50   1 0.38968 0.31857-0.88944 0.63696-0.23881 0.70198
  -3   6  10  218.07   89.21   1 0.04538-0.75530-0.90578 0.65406 0.42130 0.04141
   3   6 -10  255.11  149.42   1-0.87846 0.17160-0.37237 0.62485 0.29937-0.76164
  -3   6  10  713.96  231.79   1 0.17352-0.88218-0.60201 0.34866 0.77939-0.31650
  -3  -6   9 1947.76  278.19   1 0.36816 0.34007-0.88736 0.63415-0.27754 0.69440
  -3   6   9 1687.04  209.30   1 0.04673-0.75661-0.90639 0.65385 0.41983-0.00338
   3   6  -9 1506.83  222.29   1-0.85728 0.15059-0.39443 0.64764 0.33087-0.74691
  -3   6   9 2174.01  324.64   1 0.15370-0.86240-0.60603 0.35196 0.78045-0.36385
  -3  -6   8  347.61  141.26   1 0.34542 0.36278-0.88343 0.62949-0.31657 0.68710
  -3   6   8  359.37  145.42   1 0.04607-0.75591-0.90609 0.65273 0.42055-0.05037
   3   6  -8  288.50  161.84   1-0.83438 0.12674-0.41838 0.67267 0.35881-0.72900
  -3   6   8  200.67  137.49   1 0.13071-0.83945-0.61035 0.35557 0.78126-0.41095
  -3  -6   7  414.56  148.11   1 0.32227 0.38669-0.87637 0.62091-0.35792 0.68185
   3   6  -7  882.39  131.15   1-0.64778-0.06044 0.36521-0.11018 0.66858-0.99207
  -3   6   7  972.91  168.25   1 0.04307-0.75287-0.90472 0.65053 0.42381-0.09990
   3   6  -7 1405.36  269.65   1-0.81005 0.10247-0.43881 0.69381 0.38890-0.71282
  -3   6   7 1050.28  229.45   1 0.10448-0.81326-0.61486 0.35936 0.78167-0.45765
  -3  -6   6  380.01  166.12   1 0.29696 0.41190-0.86831 0.61219-0.39728 0.67494
   3   6  -6  104.73   36.29   1-0.64469-0.06291 0.25600-0.00034 0.72030-0.99801
  -3   6   6  226.19   97.42   1 0.03732-0.74707-0.90203 0.64702 0.43004-0.15241
   3   6  -6  307.06  193.79   1-0.78422 0.07669-0.45836 0.71408 0.41820-0.69584
  -3   6   6  850.07  270.65   1 0.07497-0.78379-0.61940 0.36319 0.78148-0.50375
  -3  -6   5   11.56   85.37   1 0.27035 0.43841-0.85803 0.60124-0.43666 0.66804
   3   6  -5   81.11   55.85   1-0.63248-0.07506 0.14948 0.10684 0.76000-0.99143
  -3   6   5  346.03  128.99   1 0.02826-0.73797-0.89766 0.64183 0.43977-0.20841
   3   6  -5  266.01  157.86   1-0.75698 0.04950-0.47697 0.73340 0.44661-0.67798
  -3   6   5  283.44  185.56   1 0.04214-0.75099-0.62379 0.36686 0.78045-0.54900
  -3  -6   4  199.34   96.24   1 0.24245 0.46622-0.84541 0.58795-0.47591 0.66101
   3   6  -4   85.43   50.22   1-0.61344-0.09453 0.04850 0.20869 0.78824-0.97340
  -3   6   4  263.73  100.37   1 0.01538-0.72488-0.89141 0.63459 0.45293-0.26801
   3   6  -4  473.65  207.80   1-0.72847 0.02105-0.49458 0.75173 0.47403-0.65912
  -3   6   4  404.31  224.21   1 0.00697-0.71499-0.62732 0.36931 0.77872-0.59362
  -3  -6   3  165.82   88.97   1 0.21329 0.49528-0.83033 0.57221-0.51482 0.65365
   3   6  -3  265.90   63.59   1-0.58959-0.11832-0.04636 0.30419 0.80636-0.94523
  -3   6   3  434.33   98.14   1-0.00266-0.70679-0.88170 0.62408 0.47180-0.33311
   3   6  -3  651.04  228.44   1-0.69883-0.00853-0.51113 0.76900 0.50037-0.63919
  -3   6   3  208.50  131.02   1-0.03252-0.67562-0.63080 0.37212 0.77526-0.63643
  -3  -6   2  412.84  138.45   1 0.18312 0.52563-0.81291 0.55422-0.55284 0.64539
   3   6  -2  289.93   78.79   1-0.56252-0.14534-0.13317 0.39164 0.81598-0.90856
  -3   6   2  530.93   98.26   1-0.02706-0.68235-0.86748 0.60906 0.49673-0.40427
   3   6  -2  533.30  217.04   1-0.66846-0.03901-0.52648 0.78535 0.52531-0.61781
  -3   6   2  118.37  123.65   1-0.07509-0.63318-0.63343 0.37409 0.77014-0.67759
  -3  -6   1  520.80  140.21   1 0.15177 0.55694-0.79276 0.53341-0.59033 0.63661
   3   6  -1  575.66  140.09   1-0.53311-0.17461-0.20970 0.46883 0.81963-0.86585
  -3   6   1  384.13   81.18   1-0.05977-0.64961-0.84645 0.58723 0.52909-0.48286
   3   6  -1  475.58  159.89   1-0.63716-0.07020-0.54077 0.80034 0.54916-0.59540
  -3   6   1  840.27  170.09   1-0.12053-0.58786-0.63494 0.37494 0.76309-0.71681
  -3  -6   0  599.81  177.34   1 0.11951 0.58916-0.77004 0.51004-0.62669 0.62669
   3   6   0  494.39  103.96   1-0.50397-0.20371-0.27908 0.53886 0.81738-0.81738
  -3   6   0  260.21   58.70   1-0.10372-0.60561-0.81459 0.55457 0.57068-0.57068
   3   6   0  685.21  203.38   1-0.60535-0.10190-0.55387 0.81415 0.57163-0.57163
  -3   6   0  457.44  168.08   1-0.16857-0.53996-0.63507 0.37440 0.75382-0.75382
  -3  -6  -1  308.89   98.97   1 0.08659 0.62205-0.74484 0.48418-0.66159 0.61531
   3   6   1  269.88   85.75   1-0.47538-0.23224-0.33998 0.60042 0.81142-0.76521
  -3   6  -1  122.12   35.61   1-0.16246-0.54610-0.76611 0.50546 0.62182-0.66803
   3   6   1   41.98  113.68   1-0.57328-0.13386-0.56576 0.82675 0.59265-0.54641
  -3   6  -1  208.87   93.67   1-0.21884-0.48981-0.63356 0.37222 0.74209-0.78837
   3  -6   2  157.81   49.54   1 0.60706 0.10157-0.68159 0.94333 0.40853-0.31590
  -3  -6  -2  145.72   95.05   1 0.05325 0.65534-0.71733 0.45601-0.69469 0.60214
   3   6   2  471.97  171.14   1-0.54126-0.16577-0.57644 0.83812 0.61216-0.51967
  -3   6  -2   -4.72   82.20   1-0.27057-0.43680-0.62954 0.36801 0.72833-0.82083
   3  -6   3   98.46   51.28   1 0.60296 0.10564-0.70300 0.96545 0.37711-0.23817
  -3  -6  -3  223.71  129.23   1 0.01999 0.68875-0.68754 0.42544-0.72586 0.58703
   3   6   3  125.45   52.66   1-0.42247-0.28536-0.43775 0.69962 0.79365-0.65505
   3   6   3  251.23  136.86   1-0.50957-0.19734-0.58590 0.84829 0.63011-0.49137
  -3   6  -3  857.05  186.23   1-0.32409-0.38339-0.62402 0.36178 0.71102-0.84977
   3  -6   4  327.01   94.19   1 0.59996 0.10877-0.71617 0.97920 0.35656-0.17123
  -3  -6  -4  284.71  142.70   1-0.01311 0.72185-0.65629 0.39350-0.75438 0.56928
   3   6   4  436.70  121.85   1-0.39911-0.30866-0.47680 0.73937 0.78317-0.59837
   3   6   4  672.41  182.41   1-0.47929-0.22804-0.59518 0.85813 0.64499-0.45999
  -3   6  -4  299.27  116.01   1-0.37844-0.32915-0.61619 0.35325 0.69070-0.87571
   3  -6   5  621.34   89.32   1 0.59800 0.11071-0.72364 0.98741 0.34457-0.11290
  -3  -6  -5  879.86  150.95   1-0.04554 0.75426-0.62382 0.36033-0.78023 0.54885
   3   6   5  874.82  129.87   1-0.37805-0.32966-0.50998 0.77326 0.77265-0.54164
   3   6   5 1825.38  220.32   1-0.44942-0.25780-0.60234 0.86600 0.65969-0.42844
  -3   6  -5  930.70  177.74   1-0.43306-0.27464-0.60592 0.34226 0.66731-0.89856
   3  -6   6 9694.87 1069.66   1 0.59695 0.11174-0.72738 0.99189 0.33844-0.06044
  -3  -6  -6 8273.26  936.49   1-0.07689 0.78559-0.59065 0.32646-0.80325 0.52560
   3   6   6 7467.95  841.43   1-0.35935-0.34831-0.53797 0.80195 0.76252-0.48532
   3   6   6 8923.68 1015.69   1-0.42087-0.28624-0.60843 0.87281 0.67280-0.39530
  -3   6  -610437.52 1185.73   1-0.48812-0.21976-0.59173 0.32722 0.64154-0.91903
   3  -6   7  378.61  120.94   1 0.59667 0.11201-0.72838 0.99362 0.33680-0.01246
  -3  -6  -7  243.87   97.57   1-0.10679 0.81548-0.55736 0.29247-0.82337 0.49944
   3   6   7  265.73  112.55   1-0.34300-0.36461-0.56138 0.82607 0.75312-0.42971
  -3   6  -7 1226.45  195.27   1-0.54162-0.16638-0.57632 0.31111 0.61195-0.93569
   3   6   7  232.96  113.89   1-0.39397-0.31303-0.61353 0.87861 0.68436-0.36061
   3  -6   8  983.80  148.36   1 0.59699 0.11167-0.72725 0.99322 0.33867 0.03199
  -3  -6  -8 1076.63  168.25   1-0.13439 0.84331-0.52435 0.25844-0.84082 0.47120
   3   6   8 1232.75  165.22   1-0.32894-0.37860-0.58077 0.84616 0.74464-0.37504
  -3   6  -8 1850.97  227.82   1-0.59372-0.11439-0.55833 0.29241 0.57943-0.94942
   3   6   8 1048.09  185.38   1-0.36904-0.33785-0.61771 0.88351 0.69442-0.32442
   3  -6   9  363.72  133.78   1 0.59779 0.11085-0.72438 0.99110 0.34336 0.07364
  -3  -6  -9  473.27  114.72   1-0.16038 0.86934-0.49268 0.22605-0.85529 0.43946
   3   6   9  292.82  117.42   1-0.31709-0.39040-0.59661 0.86271 0.73722-0.32142
  -3   6  -9  201.90   90.41   1-0.64395-0.06427-0.53780 0.27118 0.54414-0.96037
   3   6   9  832.12  181.80   1-0.34636-0.36042-0.62109 0.88760 0.70304-0.28678
   3  -6  10  199.61  100.22   1 0.59896 0.10967-0.72007 0.98752 0.35034 0.11299
  -3  -6 -10  194.27  103.20   1-0.18411 0.89313-0.46261 0.19524-0.86723 0.40519
   3   6  10  324.70  120.20   1-0.30733-0.40010-0.60931 0.87611 0.73094-0.26893
  -3   6 -10  304.15  150.90   1-0.69214-0.01597-0.51464 0.24745 0.50603-0.96876
   3   6  10  202.87  113.03   1-0.32622-0.38046-0.62376 0.89098 0.71028-0.24777
   3  -6  11    8.99   62.83   1 0.60038 0.10823-0.71448 0.98267 0.35922 0.15045
   3   6  11  109.65   56.60   1-0.29954-0.40812-0.61860 0.88651 0.72635-0.21802
  -3   6 -11  330.69  116.64   1-0.73734 0.02916-0.48929 0.22138 0.46574-0.97474
   3   6  11  403.30  145.50   1-0.30886-0.39771-0.62580 0.89374 0.71621-0.20745
  -3  -7   6  193.36  112.88   1 0.33761 0.48860-0.88170 0.62630-0.32956 0.60746
  -3   7   6  203.91   80.28   1-0.06122-0.76650-0.84546 0.59025 0.53050-0.25312
   3   7  -6  316.64  210.98   1-0.78262-0.04280-0.45951 0.71522 0.41993-0.69757
  -3   7   6  497.64  223.31   1-0.04296-0.78292-0.63155 0.37487 0.77413-0.49648
  -3  -7   5  255.66  125.37   1 0.31665 0.51018-0.87473 0.61794-0.36682 0.59821
  -3   7   5  626.41  122.46   1-0.07529-0.75239-0.83567 0.57966 0.54403-0.31288
   3   7  -5  636.63  241.00   1-0.75789-0.06748-0.47638 0.73281 0.44570-0.67706
  -3   7   5  947.34  235.12   1-0.07237-0.75365-0.63329 0.37595 0.77051-0.53913
  -3  -7   4  309.37  113.49   1 0.29404 0.53270-0.86727 0.60981-0.40171 0.58681
  -3   7   4  531.70  104.29   1-0.09376-0.73388-0.82217 0.56536 0.56145-0.37653
   3   7  -4  336.04  155.94   1-0.73236-0.09296-0.49228 0.74943 0.47042-0.65551
  -3   7   4 1383.24  320.28   1-0.10434-0.72180-0.63456 0.37654 0.76579-0.58069
  -3  -7   3  480.06  131.25   1 0.27059 0.55604-0.85813 0.60001-0.43631 0.57514
   3   7  -3  345.02  106.39   1-0.60078-0.22512-0.00479 0.26262 0.79939-0.93826
   3   7  -3  607.48  201.12   1-0.70618-0.11909-0.50718 0.76505 0.49403-0.63285
  -3   7   3  161.40  124.95   1-0.13878-0.68749-0.63517 0.37650 0.75979-0.62096
  -3  -7   2  565.03  132.11   1 0.24636 0.58018-0.84729 0.58849-0.47052 0.56307
   3   7  -2  789.00  189.83   1-0.57717-0.24867-0.08821 0.34668 0.81184-0.90441
   3   7  -2  915.11  242.36   1-0.67972-0.14563-0.52098 0.77985 0.51629-0.60878
  -3   7   2 1451.45  260.83   1-0.17555-0.65084-0.63497 0.37562 0.75232-0.65977
  -3  -7   1   -5.27   86.05   1 0.22141 0.60503-0.83472 0.57526-0.50418 0.55046
   3   7  -1  296.15  106.94   1-0.55132-0.27439-0.16155 0.42068 0.81850-0.86471
   3   7  -1 1013.10  235.50   1-0.65277-0.17247-0.53383 0.79340 0.53749-0.58374
  -3   7   1  685.10  211.06   1-0.21448-0.61205-0.63376 0.37375 0.74319-0.69692
  -3  -7   0  707.71  157.55   1 0.19584 0.63050-0.82044 0.56031-0.53713 0.53713
   3   7   0  730.88  126.36   1-0.52558-0.30007-0.22847 0.48825 0.81949-0.81949
   3   7   0  966.44  233.50   1-0.62573-0.19940-0.54564 0.80591 0.55743-0.55743
  -3   7   0  619.15  148.29   1-0.25468-0.57038-0.63077 0.37068 0.73297-0.73297
  -3  -7  -1 2714.87  372.61   1 0.17020 0.65657-0.80484 0.54418-0.56855 0.52228
   3   7   1 3071.02  393.98   1-0.50016-0.32544-0.28756 0.54799 0.81678-0.77057
   3   7   1 2728.29  407.92   1-0.59880-0.22621-0.55640 0.81739 0.57605-0.52980
  -3   7  -1 2952.54  405.09   1-0.29727-0.52791-0.62705 0.36624 0.72002-0.76627
  -3  -7  -2  282.18  153.51   1 0.14386 0.68287-0.78737 0.52605-0.59945 0.50690
   3   7   2  333.43  106.90   1-0.47570-0.34985-0.33934 0.60043 0.81151-0.71908
   3   7   2 1063.40  259.57   1-0.57221-0.25269-0.56614 0.82783 0.59333-0.50083
  -3   7  -2  883.24  196.30   1-0.34123-0.48405-0.62180 0.36028 0.70492-0.79742
  -3  -7  -3  532.73  162.96   1 0.11735 0.70933-0.76844 0.50647-0.62905 0.49022
   3   7   3  257.86   92.21   1-0.45264-0.37285-0.38441 0.64615 0.80457-0.66592
   3   7   3  382.24  183.29   1-0.54620-0.27859-0.57486 0.83726 0.60925-0.47050
  -3   7  -3  261.35  145.22   1-0.38624-0.43915-0.61488 0.35264 0.68755-0.82630
  -3  -7  -4 1047.39  191.75   1 0.09089 0.73575-0.74825 0.48562-0.65715 0.47204
   3   7   4 1428.60  210.37   1-0.43123-0.39457-0.42244 0.68501 0.79723-0.61242
   3   7   4 1483.88  268.74   1-0.52100-0.30368-0.58261 0.84571 0.62379-0.43880
  -3  -7  -5  516.44  138.88   1 0.06471 0.76189-0.72701 0.46372-0.68356 0.45218
   3   7   5  720.51  138.73   1-0.41179-0.41395-0.45592 0.71920 0.78902-0.55802
  -3   7  -5  716.29  159.83   1-0.47856-0.34709-0.59418 0.33038 0.64646-0.87770
   3   7   5  964.02  227.60   1-0.49685-0.32772-0.58941 0.85321 0.63696-0.40572
   3   7   6 4110.88  633.30   1-0.39432-0.43136-0.48451 0.74849 0.78086-0.50366
  -3   7  -6 3959.46  627.06   1-0.52453-0.30123-0.58156 0.31706 0.62180-0.89929
   3   7   6 5341.23  840.21   1-0.47492-0.35010-0.59628 0.86066 0.64721-0.36970
  -4   0  1810936.20 1306.00   1 0.55394-0.55409-0.81765 0.48410 0.15679 0.67721
  -4   0  1810611.53 1297.14   1 0.29992-0.30052-0.94812 0.61665 0.10538 0.72761
   4   0 -1810261.83 1227.53   1-0.89335 0.89319 0.19215 0.14110-0.40619-0.42695
  -4   0  1714964.66 1179.84   1 0.54041-0.54038-0.83412 0.49988 0.11035 0.67683
  -4   0  1718526.00 4443.53   1 0.32755-0.32812-0.94255 0.61023 0.06563 0.72107
   4   0 -1714621.13 1155.60   1-0.90406 0.90392 0.17677 0.15721-0.38912-0.39774
  -4   0  16 1450.43  206.97   1 0.52399-0.52397-0.84945 0.51448 0.06209 0.67878
  -4   0  16 1652.44  287.76   1 0.35474-0.35479-0.93464 0.60016 0.02434 0.71688
   4   0 -16 1692.69  227.64   1-0.91376 0.91363 0.16196 0.17274-0.37256-0.36801
  -4   0  15  891.27  130.26   1 0.50520-0.50518-0.86292 0.52724 0.01135 0.68322
  -4   0  15  839.58  226.83   1 0.38191-0.38198-0.92403 0.58877-0.01744 0.71234
   4   0 -15  292.29   90.12   1-0.92248 0.92237 0.14779 0.18763-0.35662-0.33767
  -4   0  14  565.38  103.11   1 0.48365-0.48365-0.87423 0.53783-0.04224 0.69051
  -4   0  14  428.41  163.66   1 0.40884-0.40892-0.91060 0.57458-0.06039 0.70896
   4   0 -14  311.13   82.32   1-0.93028 0.93018 0.13433 0.20182-0.34136-0.30663
  -4   0  13  349.83  117.25   1 0.45890-0.45890-0.88294 0.54581-0.09909 0.70105
  -4   0  13  864.03  230.47   1 0.43550-0.43560-0.89408 0.55729-0.10463 0.70687
   4   0 -13  298.42   96.84   1-0.93718 0.93710 0.12165 0.21522-0.32692-0.27479
  -4   0  1217668.68  883.43   1 0.43081-0.43086-0.88830 0.55069-0.15910 0.71491
  -4   0  1217721.69  935.26   1 0.46185-0.46195-0.87413 0.53658-0.15025 0.70617
   4   0 -1216855.15  849.62   1-0.94323 0.94316 0.10986 0.22773-0.31342-0.24201
  -4   0  11  379.94  159.95   1 0.39777-0.39784-0.88978 0.55143-0.22374 0.73323
  -4   0  11  587.12  214.60   1 0.48762-0.48767-0.85037 0.51164-0.19767 0.70738
   4   0 -11  147.79  116.74   1-0.94845 0.94839 0.09909 0.23922-0.30103-0.20811
  -4   0  10135364.3 3924.32   1 0.35936-0.35945-0.88604 0.54697-0.29288 0.75605
  -4   0  10157906.3 4596.33   1 0.51300-0.51306-0.82229 0.48282-0.24630 0.70967
   4   0 -10146857.0 4261.05   1-0.95284 0.95280 0.08951 0.24953-0.28995-0.17290
  -4   0   9  277.57  132.36   1 0.31564-0.31491-0.87443 0.53360-0.36843 0.78491
  -4   0   9  346.07  187.39   1 0.53762-0.53769-0.78932 0.44913-0.29652 0.71355
   4   0  -9  339.30  143.53   1-0.95641 0.95638 0.08132 0.25844-0.28045-0.13611
  -4   0   8  420.77  143.16   1 0.26343-0.26280-0.85507 0.51358-0.44659 0.81680
  -4   0   8  143.11  127.15   1 0.56120-0.56128-0.75083 0.40991-0.34827 0.71897
   4   0  -8  482.59  116.55   1-0.95913 0.95912 0.07481 0.26568-0.27287-0.09741
  -4   0   7  870.13  117.84   1 0.20270-0.20217-0.82440 0.48224-0.52845 0.85239
  -4   0   7  849.38  170.27   1 0.58376-0.58338-0.70565 0.36385-0.40158 0.72612
   4   0  -7 1078.49  124.95   1-0.96095 0.96095 0.07031 0.27090-0.26763-0.05637
  -4   0   6 4138.55  221.92   1 0.13278-0.13268-0.77962 0.43689-0.61201 0.88967
   4   0  -6 3768.79  173.24   1-0.21023 0.21028-0.42820 0.77056-0.87888 0.60166
  -4   0   6 4252.17  250.44   1 0.60391-0.60355-0.65381 0.31128-0.45586 0.73404
   4   0  -6 3861.27  170.16   1-0.96174 0.96175 0.06832 0.27361-0.26530-0.01241
  -4   0   5 3803.22  197.95   1 0.05353-0.05348-0.71756 0.37418-0.69442 0.92581
   4   0  -5 2821.27  146.91   1-0.26253 0.26253-0.35485 0.69795-0.89730 0.66628
  -4   0   5 3404.09  196.73   1 0.62139-0.62104-0.59418 0.25091-0.51070 0.74252
   4   0  -5 3730.53  162.46   1-0.96128 0.96131 0.06947 0.27318-0.26665 0.03522
  -4   0   4 3631.26  188.06   1-0.03305 0.03335-0.63654 0.29266-0.77052 0.95563
   4   0  -4 3664.89  166.78   1-0.31953 0.31936-0.26766 0.61150-0.90898 0.72392
   4   0  -4 3742.59  145.50   1-0.95918 0.95923 0.07468 0.26869-0.27272 0.08758
  -4   0   3 9118.89  292.22   1-0.12473 0.12502-0.53659 0.19202-0.83456 0.97339
   4   0  -310485.65  300.47   1-0.37898 0.37882-0.16664 0.51118-0.91027 0.77147
   4   0  -3 9172.47  262.42   1-0.64395 0.64381 0.44918-0.10491 0.61931-0.75795
   4   0  -3 9389.95  253.00   1-0.95473 0.95479 0.08523 0.25887-0.28499 0.14613
  -4   0   3 9928.12  261.79   1-0.98238 0.98211-0.18174-0.16232 0.04335 0.09538
  -4   0   2  123.51  124.23   1-0.21563 0.21578-0.42090 0.07561-0.88110 0.97350
   4   0  -2   82.18   62.58   1-0.43688 0.43679-0.05589 0.40101-0.89778 0.80523
   4   0  -2  229.74   75.47   1-0.64779 0.64771 0.36402-0.01908 0.66921-0.76164
  -4   0   2   89.92   52.61   1-0.60877 0.60870 0.02790-0.37295 0.79285-0.70027
   4   0  -2  -24.02   44.35   1-0.94658 0.94666 0.10301 0.24181-0.30555 0.21298
  -4   0   2  -47.34   36.59   1-0.98407 0.98365-0.17448-0.17032 0.03400 0.05849
  -4   0   1  313.44  125.31   1-0.30075 0.30091-0.29738-0.04856-0.90614 0.95241
   4   0  -1  304.65   72.15   1-0.48948 0.48940 0.05950 0.28635-0.86997 0.82370
   4   0  -1  753.36   97.52   1-0.64580 0.64603 0.27187 0.07374 0.71345-0.75974
  -4   0   1  338.00   40.34   1-0.58351 0.58338-0.06736-0.27832 0.80930-0.76301
   4   0  -1  370.45   54.79   1-0.93218 0.93227 0.13091 0.21464-0.33748 0.29119
  -4   0   1  297.05   46.74   1-0.98495 0.98438-0.17039-0.17515 0.02874 0.01749
  -4   0   0 1000.12   70.92   1 0.53346-0.53266-0.17252-0.17497 0.82803-0.82803
  -4   0   0 1366.37  171.88   1-0.37516 0.37531-0.17348-0.17317-0.91057 0.91057
   4   0   0 1487.45  169.41   1-0.63595 0.63623 0.17365 0.17263 0.75193-0.75193
  -4   0   0  942.62   73.43   1-0.54720 0.54697-0.17282-0.17354 0.81896-0.81895
   4   0   0 1329.26   81.49   1-0.90631 0.90642 0.17341 0.17286-0.38537 0.38537
  -4   0   0  947.33   62.22   1-0.98480 0.98408-0.17110-0.17518 0.02964-0.02964
  -4   0  -116503.90  379.58   1 0.56723-0.56644-0.27905-0.06915 0.77483-0.82119
  -4   0  -118531.03  461.74   1-0.43624 0.43632-0.05719-0.29012-0.89800 0.85173
   4   0   121042.52  518.13   1-0.61855 0.61879 0.07261 0.27435 0.78237-0.73609
  -4   0  -118570.66  421.71   1-0.50132 0.50104-0.28498-0.06204 0.81697-0.86319
   4   0   120469.85  451.21   1-0.85874 0.85878 0.23719 0.10964-0.45419 0.50046
  -4   0  -119475.43  419.93   1-0.98291 0.98204-0.17953-0.16749 0.04050-0.08674
  -4   0  -2  327.15   46.46   1 0.59004-0.58935-0.37518 0.02667 0.71489-0.80743
  -4   0  -2  403.22  136.11   1-0.48372 0.48379 0.04597-0.39402-0.87400 0.78146
   4   0   2  376.61   70.75   1-0.59485 0.59514-0.02733 0.37493 0.80336-0.71078
  -4   0  -2  291.98   46.86   1-0.44488 0.44454-0.39887 0.05119 0.80185-0.89429
   4   0   2  318.93   42.08   1-0.76095 0.76098 0.33424 0.01330-0.55607 0.64863
  -4   0  -2  210.67   31.44   1-0.97698 0.97596-0.20175-0.14601 0.06926-0.16175
  -4   0  -311666.06  337.87   1-0.51921 0.51928 0.13385-0.48263-0.84409 0.70527
  -4   0  -312375.32  302.95   1-0.37878 0.37840-0.50886 0.16041 0.77303-0.91163
  -4   0  -312406.67  264.87   1-0.95882 0.95743-0.25095-0.09764 0.13296-0.27164
   4   0   4  263.83   59.49   1 0.54453-0.54529-0.20500 0.55535 0.81329-0.62787
   4   0   4  687.40   81.72   1-0.53298 0.53342-0.21003 0.55902 0.81963-0.63477
  -4   0  -4  125.19   34.47   1-0.30692 0.30649-0.60983 0.26067 0.73068-0.91548
  -4   0  -4  325.47   25.84   1-0.05271 0.05274-0.63258 0.28238 0.77269-0.95784
   4   0   5 6005.18  184.97   1 0.56288-0.56362-0.26388 0.61494 0.78328-0.55150
   4   0   5 4958.96  144.32   1-0.50000 0.50049-0.28790 0.63755 0.81676-0.58568
  -4   0  -5 6123.32  165.78   1-0.23136 0.23089-0.69809 0.34790 0.67759-0.90865
   4   0   6  198.40   87.85   1 0.57583-0.57657-0.31081 0.66259 0.75618-0.47805
   4   0   6  324.54   74.10   1-0.46786 0.46840-0.35504 0.70534 0.80935-0.53205
   4   0   7  812.87  102.60   1 0.58416-0.58460-0.34865 0.70065 0.73293-0.40905
   4   0   7  308.57   51.57   1-0.43763 0.43824-0.41100 0.76227 0.79971-0.47631
   4   0   8 1557.69  206.14   1 0.59051-0.59090-0.37741 0.73010 0.71334-0.34319
   4   0   8  896.03   89.81   1-0.41095 0.41162-0.45732 0.80930 0.78864-0.41904
   4   0   9  909.64  131.68   1 0.59492-0.59526-0.39935 0.75274 0.69755-0.28113
   4   0   9 1001.15   98.26   1-0.38793 0.38865-0.49465 0.84733 0.77770-0.36190
   4   0  1014292.08  718.86   1 0.59795-0.59823-0.41568 0.76976 0.68531-0.22263
   4   0  1013101.54  467.36   1-0.36871 0.36949-0.52412 0.87751 0.76768-0.30567
   4   0  11 5389.47  549.28   1 0.59997-0.60021-0.42735 0.78213 0.67631-0.16735
   4   0  11 5385.21  238.48   1-0.35322 0.35406-0.54685 0.90094 0.75906-0.25085
   4   0  12  320.48  129.52   1 0.60125-0.60144-0.43511 0.79059 0.67019-0.11497
   4   0  12  323.47   79.90   1-0.34127 0.34216-0.56381 0.91860 0.75209-0.19769
   4   0  13  460.04  182.60   1 0.60197-0.60210-0.43957 0.79575 0.66663-0.06514
   4   0  13  232.60   85.58   1-0.33258 0.33353-0.57582 0.93132 0.74687-0.14626
   4   0  14  325.24   94.89   1 0.60222-0.60231-0.44119 0.79806 0.66533-0.01757
   4   0  14  193.45   83.97   1-0.32688 0.32789-0.58355 0.93976 0.74337-0.09656
   4   0  15  101.88   84.92   1 0.60209-0.60212-0.44033 0.79790 0.66602 0.02800
   4   0  15  224.97   95.69   1-0.32390 0.32496-0.58756 0.94448 0.74151-0.04851
   4   0  16 1099.73  183.08   1 0.60161-0.60159-0.43729 0.79556 0.66845 0.07183
   4   0  16  925.63  131.37   1-0.32338 0.32450-0.58826 0.94588 0.74119-0.00198
   4   0  17  200.81  100.37   1 0.60079-0.60073-0.43229 0.79125 0.67242 0.11413
   4   0  17  140.87   99.32   1-0.32509 0.32627-0.58596 0.94429 0.74226 0.04314
   4   0  18 3647.36  598.27   1 0.59966-0.59954-0.42551 0.78516 0.67774 0.15508
   4   0  18 3255.41  426.36   1-0.32884 0.33008-0.58090 0.93993 0.74458 0.08702
  -4   1  18 1885.25  263.56   1 0.58296-0.70127-0.76701 0.43345 0.26803 0.56597
  -4  -1  18 2174.41  306.45   1 0.52986-0.41175-0.84440 0.51088 0.07887 0.75462
  -4   1  18 2841.40  476.11   1 0.26761-0.38629-0.95172 0.62026 0.15031 0.68267
  -4  -1  18 2386.83  367.32   1 0.32484-0.20734-0.94320 0.61173 0.06959 0.76340
   4  -1 -18 1477.15  334.49   1-0.82213 0.94026 0.27739 0.05592-0.49713-0.33581
   4   1 -18 1526.01  216.19   1-0.94309 0.82489 0.11015 0.22311-0.31375-0.51940
  -4   1  17  322.15  108.24   1 0.57274-0.69103-0.78820 0.45391 0.22515 0.56252
  -4  -1  17  635.75  129.31   1 0.51312-0.39502-0.85770 0.52346 0.03224 0.75494
  -4   1  17  628.76  206.98   1 0.29262-0.41128-0.94920 0.61688 0.11567 0.67103
  -4  -1  17  719.73  224.96   1 0.35490-0.23681-0.93459 0.60087 0.02409 0.76346
   4  -1 -17  440.67  145.31   1-0.83292 0.95104 0.26612 0.06791-0.48519-0.30148
   4   1 -17  367.45   96.19   1-0.95221 0.83402 0.09091 0.24307-0.29157-0.49529
  -4   1  16  145.14   65.20   1 0.56066-0.67893-0.80824 0.47321 0.17999 0.56134
  -4  -1  16  207.47   97.37   1 0.49436-0.37626-0.86910 0.53414-0.01615 0.75704
  -4  -1  16  445.60  193.17   1 0.38494-0.26686-0.92267 0.58818-0.02220 0.76342
  -4   1  16   24.09  145.91   1 0.31740-0.43604-0.94487 0.61170 0.08037 0.66005
   4   1 -16  156.92   70.29   1-0.96028 0.84210 0.07199 0.26271-0.26958-0.47099
  -4   1  15  188.61   67.58   1 0.54733-0.66539-0.82642 0.49074 0.13206 0.56251
  -4  -1  15  302.10  146.39   1 0.47332-0.35523-0.87837 0.54268-0.06653 0.76111
  -4   1  15  759.57  246.52   1 0.34199-0.46060-0.93865 0.60463 0.04434 0.64981
  -4  -1  15  796.60  207.73   1 0.41462-0.29655-0.90731 0.57205-0.06982 0.76472
   4  -1 -15  240.69   73.31   1-0.85093 0.96905 0.24626 0.08919-0.46396-0.23016
   4   1 -15  347.22  120.60   1-0.96723 0.84938 0.05347 0.28215-0.24818-0.44602
  -4   1  14  851.56   97.36   1 0.53058-0.64865-0.84375 0.50735 0.08095 0.56731
  -4  -1  14 1368.51  176.42   1 0.45013-0.33209-0.88504 0.54889-0.11865 0.76709
  -4   1  14  940.89  278.67   1 0.36627-0.48449-0.93048 0.59446 0.00679 0.64178
  -4  -1  14  861.12  162.96   1 0.44386-0.32580-0.88817 0.55215-0.11887 0.76745
   4  -1 -14  621.70  134.25   1-0.85816 0.97627 0.23788 0.09828-0.45493-0.19292
   4   1 -14  610.35  102.37   1-0.97333 0.85550 0.03524 0.30110-0.22668-0.42124
  -4   1  13  389.32  104.61   1 0.51074-0.62881-0.85934 0.52221 0.02588 0.57608
  -4  -1  13  485.95  162.66   1 0.42365-0.30563-0.88903 0.55215-0.17357 0.77570
  -4   1  13  200.31  165.32   1 0.39050-0.50873-0.92007 0.58328-0.03096 0.63321
  -4  -1  13  676.36  239.33   1 0.47255-0.35450-0.86486 0.52807-0.16941 0.77166
   4  -1 -13  740.63  126.70   1-0.86417 0.98228 0.23071 0.10616-0.44717-0.15440
   4   1 -13  728.23   99.79   1-0.97851 0.86071 0.01737 0.31969-0.20545-0.39619
  -4   1  1216509.24 1001.15   1 0.48708-0.60516-0.87269 0.53484-0.03400 0.58966
  -4  -1  1217157.27 1063.88   1 0.39386-0.27587-0.88965 0.55203-0.23105 0.78686
  -4   1  1218200.26 1152.74   1 0.41457-0.53281-0.90733 0.56978-0.06974 0.62566
  -4  -1  1218543.16 1162.22   1 0.50037-0.38223-0.83693 0.49892-0.22175 0.77779
   4  -1 -1217517.78 1092.16   1-0.86891 0.98702 0.22492 0.11266-0.44089-0.11441
   4   1 -1216580.93 1022.50   1-0.98282 0.86505-0.00010 0.33789-0.18454-0.37083
  -4   1  11  320.31  103.02   1 0.45913-0.57724-0.88282 0.54448-0.09905 0.60854
  -4  -1  11  338.87  153.01   1 0.36033-0.24235-0.88620 0.54786-0.29120 0.80069
  -4   1  11  289.66  156.27   1 0.43846-0.55672-0.89203 0.55370-0.10965 0.61924
  -4  -1  11  450.17  231.61   1 0.52741-0.40929-0.80377 0.46503-0.27528 0.78499
   4  -1 -11  221.29   85.92   1-0.87232 0.99031 0.21991 0.11840-0.43667-0.07247
   4   1 -11  123.69   75.05   1-0.98631 0.86856-0.01716 0.35567-0.16399-0.34509
  -4   1  10125238.7 3908.18   1 0.42457-0.54271-0.88895 0.54988-0.17172 0.63489
  -4  -1  10129761.5 4085.41   1 0.32354-0.20465-0.87672 0.53657-0.35590 0.81866
  -4   1  10142571.5 4172.45   1 0.46217-0.58043-0.87387 0.53477-0.15082 0.61408
  -4  -1  10134729.2 3927.17   1 0.55319-0.43508-0.76480 0.42534-0.33021 0.79358
   4  -1 -10131997.7 4142.39   1-0.87417 0.99218 0.21758 0.12146-0.43413-0.02872
   4   1 -10134228.2 3910.16   1-0.98902 0.87129-0.03375 0.37298-0.14387-0.31893
  -4   1   9 1941.44  148.43   1 0.38213-0.50029-0.88890 0.54910-0.25262 0.66947
  -4  -1   9 1401.91  217.83   1 0.28097-0.16217-0.86235 0.52152-0.42119 0.83768
  -4   1   9  883.26  198.98   1 0.48550-0.60375-0.85250 0.51230-0.19372 0.61075
  -4  -1   9 1637.26  211.67   1 0.57767-0.45901-0.71901 0.37869-0.38639 0.80367
   4  -1  -9 1093.36  126.25   1-0.87431 0.99233 0.21741 0.12235-0.43394 0.01737
   4   1  -9 1708.67  167.17   1-0.99099 0.87330-0.04982 0.38977-0.12425-0.29226
  -4   1   8 4791.88  220.59   1 0.33071-0.44815-0.87866 0.53716-0.34436 0.71457
  -4  -1   8 6170.80  351.06   1 0.23307-0.11438-0.84077 0.49927-0.48864 0.85886
   4  -1  -8 4066.06  192.18   1-0.16873 0.28694-0.48222 0.82313-0.85964 0.49001
  -4   1   8 5057.21  307.41   1 0.50865-0.62691-0.82748 0.48656-0.23776 0.60846
  -4  -1   8 4606.37  249.77   1 0.59948-0.48084-0.66641 0.32535-0.44329 0.81420
   4  -1  -8 4995.16  237.50   1-0.87243 0.99047 0.21977 0.12072-0.43652 0.06623
   4   1  -8 5449.42  264.67   1-0.99229 0.87463-0.06529 0.40596-0.10526-0.26498
  -4   1   7 3172.82  168.79   1 0.26538-0.38292-0.85592 0.51376-0.44380 0.76773
  -4  -1   7 3292.34  241.72   1 0.17943-0.06117-0.81064 0.46857-0.55736 0.88130
   4  -1  -7 3494.26  170.23   1-0.21972 0.33788-0.41533 0.75697-0.88273 0.55930
  -4   1   7 3157.54  235.20   1 0.53136-0.64964-0.79831 0.45666-0.28344 0.60780
  -4  -1   7 3263.83  236.26   1 0.61833-0.49971-0.60606 0.26426-0.50034 0.82489
   4  -1  -7 3428.31  187.02   1-0.86821 0.98630 0.22578 0.11535-0.44183 0.11790
   4   1  -7 3619.53  202.32   1-0.99298 0.87534-0.08007 0.42145-0.08700-0.23695
  -4   1   6  862.03   94.83   1 0.18486-0.30290-0.81397 0.47125-0.55069 0.82835
  -4  -1   6 1152.18  171.85   1 0.11986-0.00163-0.77029 0.42756-0.62632 0.90398
   4  -1  -6  706.95   88.63   1-0.27898 0.39693-0.33069 0.67312-0.90156 0.62396
  -4   1   6  927.39  153.46   1 0.55346-0.67174-0.76435 0.42197-0.33082 0.60884
  -4  -1   6  826.87  127.17   1 0.63337-0.51476-0.53753 0.19500-0.55667 0.83485
   4  -1  -6 1327.87  189.97   1-0.86084 0.97892 0.23470 0.10715-0.45150 0.17385
   4   1  -6  854.44  101.61   1-0.99312 0.87551-0.09402 0.43613-0.06967-0.20800
  -4   1   5 9952.34  241.49   1 0.08719-0.20526-0.74532 0.40193-0.66097 0.89236
  -4  -1   510984.26  325.94   1 0.05457 0.06360-0.71845 0.37507-0.69342 0.92481
   4   1  -510352.81  243.28   1-0.64295 0.52470 0.46041-0.11748 0.61206-0.84313
  -4   1   5 9567.45  299.19   1 0.57510-0.69300-0.72439 0.38112-0.38012 0.61194
   4  -1  -5 9827.57  420.89   1-0.84944 0.96752 0.24795 0.09461-0.46578 0.23440
   4   1  -5 9213.15  219.60   1-0.99293 0.87530-0.10658 0.44917-0.05212-0.17910
  -4   1   4 1567.74  125.28   1-0.02494-0.09285-0.64466 0.30078-0.76405 0.94915
  -4  -1   4 1345.26  182.15   1-0.01513 0.13353-0.65432 0.31044-0.75606 0.94116
   4  -1  -4 1154.58   89.40   1-0.41281 0.53084-0.10364 0.44730-0.90489 0.71980
   4   1  -4 1170.49   93.99   1-0.64764 0.52946 0.37571-0.03211 0.66287-0.84772
  -4   1   4  977.76  148.16   1 0.59498-0.71290-0.67845 0.33444-0.43091 0.61637
   4  -1  -4 1405.95  154.74   1-0.83263 0.95070 0.26642 0.07685-0.48552 0.30042
   4   1  -4 1264.22  110.06   1-0.99228 0.87479-0.11818 0.46151-0.03757-0.14740
  -4  -1   325097.37  478.01   1-0.08854 0.20692-0.57787 0.23330-0.81130 0.95013
  -4   1   324659.41  380.54   1-0.14516 0.02720-0.51138 0.16683-0.84700 0.98560
   4  -1  -325465.67  357.48   1-0.47660 0.59463 0.02958 0.31480-0.87862 0.73980
   4   1  -324279.77  432.90   1-0.64656 0.52876 0.28454 0.05971 0.70780-0.84666
  -4   1   322660.24  392.72   1 0.61298-0.73091-0.62520 0.28045-0.48308 0.62217
   4  -1  -324662.91  518.42   1-0.80832 0.92639 0.29121 0.05278-0.51166 0.37284
   4   1  -325234.45  378.23   1-0.99143 0.87410-0.12816 0.47223-0.02501-0.11372
  -4  -1   325187.90  376.60   1-0.86541 0.98267-0.38626 0.04205 0.31915-0.18047
  -4  -1   254487.14  740.19   1-0.16249 0.28069-0.49006 0.14477-0.85640 0.94881
  -4   1   259822.45  748.21   1-0.26188 0.14398-0.35580 0.01051-0.89711 0.98952
   4   1  -254382.03  692.53   1-0.63779 0.52005 0.18773 0.15719 0.74697-0.83954
  -4   1   256438.31  748.59   1-0.64065 0.52257 0.21225-0.55719 0.73790-0.64533
  -4   1   252427.55  695.60   1 0.62834-0.74629-0.56372 0.21824-0.53609 0.62882
   4  -1  -260815.37  882.13   1-0.77340 0.89147 0.32352 0.02118-0.54513 0.45258
  -4   1   258065.31  717.75   1-0.96566 0.84743 0.05781-0.40279-0.25328 0.34584
  -4  -1   254421.28  671.96   1-0.84978 0.96753-0.40426 0.05900 0.33828-0.24574
  -4   1   115999.24  353.74   1 0.56918-0.68658-0.28602-0.06075 0.77085-0.72450
  -4  -1   117832.65  484.52   1-0.23442 0.35268-0.39502 0.04900-0.88825 0.93445
  -4   1   118609.01  442.29   1-0.36348 0.24550-0.19407-0.15187-0.91115 0.95742
   4   1  -117402.29  448.25   1-0.62192 0.50423 0.08836 0.25725 0.77807-0.82436
  -4   1   117195.88  433.35   1-0.62796 0.50982 0.12150-0.46711 0.76869-0.72240
   4  -1  -118869.64  487.49   1-0.72321 0.84127 0.36458-0.01916-0.58654 0.54027
  -4   1   118342.88  413.57   1-0.95239 0.83425 0.09052-0.43608-0.29113 0.33741
   4   1  -119042.33  428.65   1-0.98999 0.87295-0.14081 0.48636-0.00899-0.03724
  -4  -1   116889.16  387.46   1-0.82451 0.94221-0.42693 0.08096 0.37134-0.32507
  -4   1   0 3324.07  142.13   1 0.59403-0.71164-0.39476 0.04763 0.70091-0.70091
  -4  -1   0 3161.56  181.20   1-0.30141 0.41970-0.29635-0.05029-0.90626 0.90626
  -4   1   0 3448.53  149.76   1-0.44346 0.32541-0.04234-0.30423-0.89529 0.89529
   4  -1   0 4054.09  160.91   1-0.64635 0.76437 0.41354-0.06726 0.64125-0.64125
   4   1   0 4374.94  275.83   1-0.59927 0.48147-0.01064 0.35696 0.80047-0.80047
  -4   1   0 2569.53  330.78   1-0.60526 0.48710 0.01319-0.35951 0.79591-0.79591
   4  -1   0 4079.25  324.90   1-0.65065 0.76874 0.41520-0.06910-0.63580 0.63580
  -4   1   0 3719.62  129.25   1-0.93501 0.81685 0.12573-0.47201-0.33158 0.33158
   4   1   0 3897.07  141.88   1-0.98993 0.87304-0.14126 0.48756-0.00842 0.00842
  -4  -1   0 2984.42  107.66   1-0.78321 0.90086-0.45908 0.11239 0.41929-0.41929
  -4   1  -1  225.36   55.10   1 0.60831-0.72598-0.48613 0.13831 0.62738-0.67365
  -4  -1  -1  565.33  144.80   1-0.36097 0.47925-0.19844-0.14891-0.91121 0.86495
  -4   1  -1  186.52   83.76   1-0.50139 0.38333 0.08829-0.43561-0.86070 0.81442
   4  -1   1  189.26   63.81   1-0.64816 0.76640 0.32579 0.02117 0.68829-0.64200
  -4   1  -1  289.20   46.59   1-0.56986 0.45165-0.11116-0.23580 0.81418-0.86047
   4   1   1  664.43   87.52   1-0.57155 0.45380-0.10597 0.45293 0.81369-0.76740
   4  -1   1  309.87   58.84   1-0.54668 0.66474 0.47468-0.12786-0.68979 0.73604
  -4   1  -1  135.23   30.99   1-0.91245 0.79428 0.16401-0.51101-0.37486 0.32858
   4   1   1  335.14   49.39   1-0.99072 0.87399-0.13483 0.48186-0.01658 0.06282
  -4  -1  -1  262.14   47.47   1-0.71350 0.83110-0.50315 0.15573 0.48759-0.53387
   4  -1   2 4889.13  169.25   1 0.54051-0.42307-0.19296 0.54189 0.81890-0.72619
  -4   1  -2 3431.54  197.38   1 0.61417-0.73196-0.56144 0.21293 0.55459-0.64721
  -4  -1  -2 5672.56  239.68   1-0.41175 0.53002-0.10571-0.24234-0.90514 0.81261
   4  -1   2 5045.71  269.50   1-0.64248 0.76078 0.23028 0.11735 0.73087-0.63830
   4   1   2 5651.30  185.10   1-0.53913 0.42149-0.19425 0.54194 0.81950-0.72707
   4  -1   2 4716.13  132.66   1-0.39833 0.51665 0.53937-0.19177-0.74189 0.83443
  -4   1  -2 4116.46  120.87   1-0.88307 0.76489 0.20608-0.55381-0.42154 0.32897
   4   1   2 5299.42  119.89   1-0.99240 0.87581-0.11637 0.46414-0.03985 0.13234
   4  -1   3414482.0 3339.74   1 0.56660-0.44915-0.27681 0.62645 0.77610-0.63703
  -4   1  -3404494.0 3326.87   1 0.61348-0.73125-0.62238 0.27316 0.48608-0.62502
  -4  -1  -3388214.8 4217.39   1-0.45355 0.57175-0.02112-0.32765-0.89097 0.75215
  -4   1  -3401110.7 3202.33   1-0.45032 0.33196-0.38877 0.04043 0.80377-0.94242
  -4   1  -3397669.5 3126.54   1-0.84556 0.72752 0.25233-0.60059-0.47048 0.33165
   4   1   3394728.8 3097.56   1-0.99284 0.87546-0.07592 0.42450-0.09214 0.23098
  -4  -1  -3396608.6 3082.04   1-0.35360 0.47159-0.62006 0.27112 0.70034-0.83909
   4  -1   4 4801.06  480.84   1 0.58348-0.46602-0.34162 0.69197 0.73677-0.55135
   4  -1   4 4195.81  345.42   1-0.60921 0.72760 0.02981 0.31905 0.79244-0.60728
   4   1   4 5733.57  204.40   1-0.47270 0.35516-0.34539 0.69438 0.81071-0.62584
  -4   1  -4 3886.55  127.09   1-0.36825 0.24978-0.52482 0.17566 0.76743-0.95223
   4  -1   5107497.8 1405.58   1 0.59347-0.47560-0.39192 0.74253 0.70297-0.47163
  -4  -1  -5102656.8 1262.08   1-0.51286 0.63105 0.11724-0.46748-0.85042 0.61905
   4   1   598636.57 1162.69   1-0.44051 0.32298-0.40579 0.75565 0.80079-0.56979
  -4   1  -5101549.4 1164.17   1-0.27668 0.15816-0.64671 0.29651 0.71077-0.94183
  -4   1  -5103799.6 1153.70   1-0.34097 0.22292-0.62183 0.27147 0.70501-0.93627
   4   1   6 3405.63  156.04   1 0.53245-0.65141-0.16965 0.52143 0.82927-0.55114
   4  -1   6 4635.74  397.83   1 0.60033-0.48241-0.42949 0.78079 0.67463-0.39702
   4  -1   6 4331.93  260.93   1-0.55481 0.67330-0.15529 0.50544 0.81735-0.53962
   4   1   6 3190.35  130.03   1-0.41119 0.29371-0.45692 0.80749 0.78875-0.51155
  -4   1  -6 3413.15  110.81   1-0.18212 0.06355-0.74788 0.39696 0.63835-0.91563
  -4   1  -6 2528.56  131.52   1-0.64596 0.52805 0.41819-0.76861-0.63862 0.36110
  -4   1  -6 3150.14   97.02   1-0.60262 0.48410-0.55494 0.20367 0.57348-0.85097
   4   1   7  358.27  115.99   1 0.54754-0.66649-0.21419 0.56668 0.80889-0.48441
   4  -1   7  255.13   84.00   1 0.60467-0.48671-0.45766 0.80965 0.65185-0.32797
   4  -1   7  331.21   71.55   1-0.52336 0.64193-0.23387 0.58482 0.81938-0.49587
   4   1   7  106.98   65.13   1-0.38501 0.26759-0.49921 0.85049 0.77623-0.45283
  -4   1  -7   53.76   35.52   1-0.08846-0.02999-0.82612 0.47382 0.55649-0.88010
  -4   1  -7   66.14   28.01   1-0.54608 0.42819 0.47498-0.82612-0.69005 0.36628
  -4   1  -7   76.60   31.62   1-0.79627 0.67775-0.44949 0.09777 0.40484-0.72875
   4   1   8  145.43   72.87   1 0.55890-0.67783-0.25046 0.60366 0.79050-0.41966
   4  -1   8  230.92   77.21   1 0.60741-0.48939-0.47845 0.83114 0.63414-0.26399
   4  -1   8  147.17   67.52   1-0.49409 0.61271-0.30083 0.65244 0.81570-0.44597
   4   1   8  129.04   56.71   1-0.36230 0.24494-0.53364 0.88561 0.76417-0.39456
  -4   1  -8  169.59   53.34   1-0.00139-0.11703-0.88240 0.52930 0.47047-0.84032
  -4   1  -8  176.34   23.85   1-0.43554 0.31705 0.52499-0.87699-0.73121 0.36103
  -4   1  -8  202.71   42.76   1-0.91499 0.79511-0.32715-0.02511 0.23612-0.60593
   4   1   9  973.81  129.92   1 0.56737-0.68630-0.27955 0.63346 0.77455-0.35736
   4  -1   9 1039.04  176.22   1 0.60912-0.49105-0.49339 0.84678 0.62091-0.20449
   4  -1   9  769.82   70.09   1-0.46720 0.58588-0.35634 0.70860 0.80915-0.39322
   4   1   9 1053.90  130.05   1-0.34314 0.22583-0.56118 0.91386 0.75320-0.33740
  -4   1  -9  583.00   79.80   1 0.07928-0.19819-0.92002 0.56603 0.38374-0.80020
  -4   1  -9  615.55   43.60   1-0.97247 0.85280-0.21588-0.13706 0.08770-0.50391
   4   1  1010790.98  436.45   1 0.57363-0.69255-0.30245 0.65708 0.76122-0.29767
   4  -1  10 9833.85  668.38   1 0.61016-0.49204-0.50365 0.85774 0.61158-0.14889
   4  -1  10 8760.06  316.80   1-0.44337 0.56217-0.40057 0.75396 0.80184-0.33984
   4   1  10 9981.77  394.66   1-0.32744 0.21019-0.58280 0.93619 0.74371-0.28171
  -4   1 -10 9337.10  313.15   1-0.99181 0.87200-0.12410-0.22958-0.03013-0.43232
   4  -1  10 9962.15  334.16   1 0.23015-0.11174-0.58909 0.94358 0.77459-0.31170
   4   1  1122593.58 1196.29   1 0.57819-0.69710-0.32005 0.67539 0.75050-0.24059
   4  -1  1125169.68 1336.75   1 0.61075-0.49258-0.51009 0.86487 0.60562-0.09666
   4  -1  1120893.90  988.84   1-0.42357 0.54243-0.43585 0.78995 0.79411-0.28590
   4   1  1122717.26 1102.83   1-0.31502 0.19783-0.59932 0.95342 0.73590-0.22770
  -4   1 -1123832.41 1109.81   1-0.99058 0.87201-0.04601-0.30830-0.12891-0.38017
   4  -1  1119898.20  926.81   1 0.15007-0.03163-0.60673 0.96193 0.78060-0.27143
   4   1  1222196.11 1402.08   1 0.58143-0.70033-0.33309 0.68915 0.74228-0.18602
   4  -1  1224134.75 1643.37   1 0.61104-0.49282-0.51335 0.86883 0.60256-0.04734
   4  -1  1220259.36 1206.45   1-0.40762 0.52654-0.46287 0.81767 0.78714-0.23273
   4   1  1224887.33 1496.13   1-0.30552 0.18825-0.61099 0.96626 0.73029-0.17575
  -4   1 -1218984.18 1116.30   1-0.97822 0.85962 0.01845-0.37350-0.20674-0.34862
   4   1  13 3747.24  413.78   1 0.58362-0.70251-0.34221 0.69898 0.73638-0.13377
   4  -1  13 3614.29  429.72   1 0.61109-0.49282-0.51395 0.87012 0.60200-0.00051
   4  -1  13 2624.26  208.87   1-0.39540 0.51438-0.48278 0.83828 0.78139-0.18078
   4   1  13 3323.77  272.99   1-0.29895 0.18173-0.61934 0.97534 0.72596-0.12521
  -4   1 -13 2906.41  194.93   1-0.95930 0.84068 0.07420-0.42997-0.27244-0.32920
   4   1  14 4795.93  526.47   1 0.58434-0.70283-0.34942 0.70629 0.73242-0.08466
   4  -1  14 5313.24  689.57   1 0.61094-0.49262-0.51224 0.86911 0.60360 0.04415
   4  -1  14 4859.66  259.34   1-0.38670 0.50573-0.49658 0.85279 0.77708-0.13027
   4   1  14 4837.43  288.37   1-0.29494 0.17776-0.62439 0.98110 0.72328-0.07631
   4   1  15  107.76   80.74   1 0.58499-0.70343-0.35225 0.70982 0.73055-0.03652
   4  -1  15  221.01   76.36   1 0.61061-0.49224-0.50853 0.86610 0.60707 0.08695
   4  -1  15  526.05  137.38   1-0.38122 0.50031-0.50510 0.86201 0.77429-0.08128
   4   1  15  338.15  144.02   1-0.29325 0.17611-0.62649 0.98394 0.72215-0.02896
   4   1  16 1624.29  259.48   1 0.58503-0.70342-0.35243 0.71070 0.73042 0.00986
   4  -1  16 1740.68  258.09   1 0.61010-0.49167-0.50303 0.86129 0.61215 0.12813
   4  -1  16 1439.36  152.26   1-0.37870 0.49785-0.50898 0.86660 0.77299-0.03378
   4   1  16 1523.02  203.24   1-0.29367 0.17658-0.62597 0.98413 0.72243 0.01695
   4   1  17  230.01  126.22   1 0.58453-0.70287-0.35024 0.70921 0.73188 0.05468
   4  -1  17  552.39  166.79   1 0.60938-0.49091-0.49591 0.85487 0.61864 0.16792
   4   1  17  547.61  147.68   1-0.29603 0.17898-0.62302 0.98192 0.72401 0.06158
   4   1  18 3914.69  697.01   1 0.58404-0.70288-0.34401 0.70435 0.73521 0.09917
   4  -1  18 3822.12  813.91   1 0.60845-0.48992-0.48730 0.84695 0.62635 0.20647
   4   1  18 5253.94  794.99   1-0.30015 0.18315-0.61783 0.97745 0.72676 0.10505
  -4  -2  17  477.41  128.35   1 0.49389-0.25772-0.86935 0.53510-0.01732 0.80451
  -4   2  17 1065.90  269.13   1 0.25125-0.48800-0.95243 0.62011 0.17246 0.61425
  -4  -2  17  642.93  202.77   1 0.37409-0.13786-0.92737 0.59365-0.00526 0.79282
   4  -2 -17  461.36  146.13   1-0.74061 0.97675 0.35098-0.01695-0.57297-0.21370
   4   2 -17  610.29  117.17   1-0.97960 0.74382 0.01323 0.32095-0.20051-0.58626
  -4   2  16  158.54   54.15   1 0.59879-0.83522-0.72069 0.38566 0.34934 0.39199
  -4  -2  16  565.15  159.19   1 0.47426-0.23810-0.87802 0.54306-0.06434 0.80522
  -4   2  16  586.50  221.08   1 0.27340-0.51013-0.95130 0.61813 0.14237 0.59805
  -4  -2  16  305.39  165.36   1 0.40697-0.17075-0.91163 0.57714-0.05736 0.79858
   4  -2 -16  253.30   85.37   1-0.74857 0.98471 0.34454-0.00979-0.56649-0.17390
   4   2 -16  727.35  113.37   1-0.98470 0.74895-0.00885 0.34376-0.17401-0.56647
  -4   2  15  749.12  117.68   1 0.59191-0.82832-0.74362 0.40786 0.31090 0.38410
  -4  -2  15 1581.14  259.36   1 0.45300-0.21689-0.88438 0.54896-0.11245 0.80721
  -4   2  15 1253.41  265.68   1 0.29528-0.53198-0.94882 0.61481 0.11192 0.58223
  -4  -2  15 1249.72  249.69   1 0.43922-0.20301-0.89150 0.55624-0.11093 0.80583
   4  -2 -15  809.95  211.06   1-0.75498 0.99111 0.33926-0.00380-0.56116-0.13296
   4   2 -15  790.87  139.34   1-0.98858 0.75286-0.03079 0.36642-0.14747-0.54674
  -4   2  14 1263.63  116.20   1 0.58338-0.81977-0.76603 0.42953 0.26990 0.37876
  -4  -2  14 1161.31  172.04   1 0.42914-0.19305-0.88849 0.55234-0.16251 0.81095
  -4   2  14  873.01  213.51   1 0.31693-0.55361-0.94497 0.61010 0.08106 0.56681
  -4  -2  14 1343.12  200.59   1 0.47067-0.23447-0.86654 0.53052-0.16602 0.81459
   4  -2 -14 1134.39  179.42   1-0.75974 0.99587 0.33526 0.00089-0.55711-0.09074
   4   2 -14 1781.89  176.58   1-0.99127 0.75558-0.05260 0.38895-0.12085-0.52707
  -4   2  13  283.38   57.15   1 0.57284-0.80922-0.78801 0.45077 0.22557 0.37677
  -4  -2  13  784.13  162.26   1 0.40281-0.16675-0.88985 0.55297-0.21421 0.81633
  -4   2  13  862.11  209.18   1 0.33836-0.57501-0.93970 0.60398 0.04973 0.55187
  -4  -2  13  421.41  147.96   1 0.50092-0.26460-0.83631 0.49904-0.22280 0.82519
   4  -2 -13  329.72   91.13   1-0.76276 0.99888 0.33271 0.00416-0.55452-0.04706
   4   2 -13  387.87   93.55   1-0.99278 0.75711-0.07430 0.41137-0.09415-0.50749
  -4   2  1216954.60 1016.26   1 0.55975-0.79611-0.80957 0.47160 0.17681 0.37919
  -4  -2  1218618.24 1172.19   1 0.37378-0.13773-0.88807 0.55045-0.26761 0.82342
  -4   2  1218873.05 1211.75   1 0.35953-0.59591-0.93297 0.59541 0.01706 0.53885
  -4  -2  1219377.58 1205.76   1 0.53004-0.29373-0.80016 0.46216-0.28069 0.83673
   4  -2 -1218027.44 1227.21   1-0.76386 0.99998 0.33177 0.00581-0.55356-0.00174
   4   2 -1215741.35  970.02   1-0.99311 0.75746-0.09589 0.43368-0.06735-0.48801
  -4   2  11 1282.34  100.45   1 0.54443-0.78059-0.82976 0.49119 0.12283 0.38651
  -4  -2  11 1820.93  227.47   1 0.34174-0.10572-0.88264 0.54430-0.32271 0.83220
  -4   2  11 1987.13  272.61   1 0.38059-0.61698-0.92461 0.58628-0.01537 0.52497
  -4  -2  11 2277.50  243.08   1 0.55742-0.32112-0.75756 0.41882-0.33968 0.84938
   4  -2 -11 2049.78  264.75   1-0.76283 0.99895 0.33265 0.00565-0.55445 0.04542
   4   2 -11 1799.74  181.28   1-0.99235 0.75622-0.11719 0.45534-0.03882-0.46987
  -4   2  10 5075.53  211.70   1 0.52329-0.75946-0.85002 0.51074 0.06012 0.40292
  -4  -2  10 5093.16  286.22   1 0.30744-0.07048-0.87186 0.53170-0.38123 0.84399
   4  -2 -10 3609.27  161.28   1-0.16563 0.40199-0.48613 0.82557-0.85804 0.39601
  -4   2  10 4540.49  356.89   1 0.40149-0.63789-0.91457 0.57548-0.04850 0.51176
  -4  -2  10 4889.64  296.12   1 0.58291-0.34598-0.70758 0.36800-0.39941 0.86305
   4  -2 -10 5072.46  488.15   1-0.75939 0.99550 0.33556 0.00344-0.55741 0.09466
   4   2 -10 5007.64  263.91   1-0.99028 0.75430-0.13857 0.47746-0.01184-0.45061
  -4   2   9  345.98   56.54   1 0.49520-0.73138-0.86866 0.52866-0.01405 0.43080
  -4  -2   9  337.63  140.32   1 0.26857-0.03171-0.85728 0.51645-0.43923 0.85572
   4  -2  -9  429.33   83.91   1-0.21560 0.45191-0.42094 0.76111-0.88108 0.46526
  -4   2   9  489.40  149.24   1 0.42224-0.65866-0.90272 0.56286-0.08240 0.49934
  -4  -2   9  714.56  205.30   1 0.60509-0.36818-0.65033 0.31001-0.45926 0.87654
   4  -2  -9  664.44  110.93   1-0.75314 0.98925 0.34078-0.00105-0.56270 0.14622
   4   2  -9  907.73  131.09   1-0.98701 0.75118-0.15989 0.49952 0.01528-0.43150
  -4   2   8  260.06   75.83   1 0.45720-0.69343-0.88334 0.54280-0.10329 0.47382
  -4  -2   8  535.03  146.99   1 0.22587 0.01088-0.83707 0.49557-0.49828 0.86849
   4  -2  -8  188.31   66.89   1-0.27751 0.51360-0.33288 0.67391-0.90120 0.53108
  -4   2   8  437.29  146.48   1 0.44287-0.67930-0.88888 0.54825-0.11719 0.48780
  -4  -2   8  253.16  116.54   1 0.62358-0.38669-0.58515 0.24409-0.51840 0.88931
   4  -2  -8  540.04   98.87   1-0.74358 0.97968 0.34859-0.00815-0.57057 0.20037
   4   2  -8  641.16  138.29   1-0.98252 0.74684-0.18116 0.52154 0.04260-0.41256
  -4   2   7  249.11   51.27   1 0.40186-0.63811-0.88985 0.54858-0.21602 0.54024
  -4  -2   7  159.86  142.41   1 0.17914 0.05725-0.81046 0.46839-0.55772 0.88166
   4  -2  -7  343.48   50.32   1-0.35140 0.58749-0.21490 0.55664-0.91122 0.58736
   4   2  -7  154.88   65.24   1-0.63675 0.40041 0.51154-0.16995 0.57694-0.90043
  -4   2   7  300.70  212.21   1 0.46339-0.69983-0.87284 0.53144-0.15299 0.47728
   4  -2  -7  777.22  153.85   1-0.73004 0.96613 0.35932-0.01817-0.58131 0.25738
   4   2  -7  519.63  123.44   1-0.97678 0.74125-0.20241 0.54353 0.07012-0.39384
  -4   2   6 5080.60  177.33   1 0.32222-0.55792-0.87635 0.53352-0.35801 0.63566
  -4  -2   6 5501.86  313.49   1 0.12843 0.10792-0.77651 0.43379-0.61686 0.89452
   4  -2  -6 5501.08  193.38   1-0.43139 0.66755-0.06701 0.40921-0.89966 0.62202
   4   2  -6 5424.14  228.19   1-0.64535 0.40907 0.43063-0.08837 0.63093-0.90820
  -4   2   6 5594.61  311.36   1 0.48366-0.72012-0.85430 0.51193-0.19032 0.46834
   4  -2  -6 5420.86  285.26   1-0.71130 0.94757 0.37341-0.03163-0.59549 0.31797
   4   2  -6 5404.84  254.03   1-0.96973 0.73435-0.22366 0.56552 0.09790-0.37538
  -4   2   511650.10  184.37   1 0.20447-0.44027-0.82541 0.48191-0.52619 0.75757
  -4  -2   513854.39  362.59   1 0.07388 0.16242-0.73459 0.39121-0.67446 0.90585
   4  -2  -512064.68  178.48   1-0.50720 0.74336 0.10281 0.24011-0.85566 0.62430
   4   2  -512264.86  249.85   1-0.64777 0.41156 0.34287 0.00005 0.68031-0.91138
  -4   2   513620.11  376.90   1 0.50393-0.74040-0.83294 0.48983-0.22860 0.46028
   4  -2  -512817.78  445.20   1-0.68692 0.92316 0.39095-0.04844-0.61261 0.38134
   4   2  -512653.62  272.81   1-0.96131 0.72608-0.24494 0.58754 0.12598-0.35721
  -4   2   440827.07  422.28   1 0.04735-0.28359-0.71224 0.36820-0.70032 0.88543
  -4  -2   440195.87  610.49   1 0.01640 0.22009-0.68424 0.34036-0.72906 0.91416
   4   2  -438640.90  652.64   1-0.64422 0.40845 0.25000 0.09357 0.72282-0.90796
  -4   2   443043.38  597.48   1 0.52403-0.76051-0.80829 0.46446-0.26839 0.45374
   4  -2  -441199.91  553.93   1-0.65510 0.89131 0.41234-0.06911-0.63309 0.44808
   4   2  -439225.69  476.93   1-0.95149 0.71642-0.26651 0.60998 0.15370-0.33861
  -4  -2   337318.93  569.93   1-0.04396 0.28045-0.62544 0.28087-0.77902 0.91785
  -4   2   336405.79  388.70   1-0.13057-0.10543-0.52889 0.18433-0.83858 0.97719
   4   2  -336831.50  655.34   1-0.63307 0.39736 0.15339 0.19085 0.75873-0.89759
   4  -2  -336042.75  509.30   1-0.61402 0.85020 0.43772-0.09378-0.65678 0.51802
   4   2  -337459.99  469.87   1-0.94012 0.70521-0.28788 0.63208 0.18246-0.32114
  -4   2   2 6516.11  216.45   1 0.61197-0.84789-0.52503 0.17930 0.59145-0.49892
  -4  -2   2 6225.16  255.43   1-0.10554 0.34201-0.55879 0.21351-0.82256 0.91511
  -4   2   2 6970.28  162.36   1-0.29470 0.05858-0.30676-0.03848-0.90500 0.99754
   4   2  -2 7431.74  290.88   1-0.61509 0.37919 0.05608 0.28897 0.78645-0.87903
  -4   2   2 6964.52  252.48   1 0.56340-0.79990-0.74681 0.40151-0.35333 0.44601
   4  -2  -2 7895.94  504.71   1-0.56148 0.79763 0.46701-0.12235-0.68310 0.59059
   4   2  -2 6781.94  180.81   1-0.92706 0.69232-0.30939 0.65433 0.21172-0.30417
  -4   2   1  973.06  112.58   1 0.61413-0.85013-0.60782 0.26145 0.50337-0.45706
  -4  -2   1 1461.29  194.09   1-0.16645 0.40276-0.48509 0.13907-0.85847 0.90467
  -4   2   1 1062.40   99.86   1-0.41918 0.18301-0.09126-0.25458-0.90330 0.94957
  -4   2   1  757.32  112.15   1-0.64630 0.41025 0.27997-0.62558 0.70986-0.66357
   4   2  -1 1031.08  120.77   1-0.59156 0.35572-0.03935 0.38504 0.80529-0.85158
  -4   2   1 1136.45  127.03   1 0.58279-0.81900-0.70785 0.36163-0.39911 0.44547
   4  -2  -1  923.83  104.80   1-0.49453 0.73083 0.49969-0.15429-0.71115 0.66488
   4   2  -1 1465.01  138.07   1-0.91212 0.67756-0.33112 0.67679 0.24161-0.28783
  -4  -2   1 1017.25  100.54   1-0.57137 0.80725-0.56643 0.22010 0.59386-0.54761
  -4   2   0 1424.59  157.78   1 0.60914-0.84512-0.66792 0.32084 0.42757-0.42757
  -4  -2   0 2020.94  158.85   1-0.22539 0.46175-0.40756 0.06081-0.88492 0.88492
  -4   2   0 1707.64  112.43   1-0.50117 0.26499 0.08776-0.43434-0.86088 0.86088
  -4   2   0 1099.91  121.90   1-0.63688 0.40077 0.18060-0.52689 0.74950-0.74950
   4   2   0 2550.30  251.57   1-0.56352 0.32774-0.13023 0.47655 0.81576-0.81576
  -4   2   0 1471.40  126.48   1 0.60074-0.83697-0.66291 0.31596-0.44681 0.44681
   4  -2   0 1743.52  120.84   1-0.41123 0.64756 0.53452-0.18839-0.73835 0.73835
  -4   2   0 1474.56  239.97   1-0.80438 0.56832 0.29503-0.64116-0.51566 0.51566
   4   2   0 1938.76  112.92   1-0.89507 0.66067-0.35314 0.69955 0.27227-0.27227
  -4  -2   0 1977.93  105.82   1-0.49500 0.73078-0.58991 0.24287 0.63794-0.63794
  -4   2  -114930.40  246.92   1 0.60066-0.83680-0.71334 0.36581 0.36101-0.40735
  -4  -2  -116434.07  363.50   1-0.28052 0.51693-0.32815-0.01932-0.90200 0.85580
  -4   2  -114248.32  353.85   1-0.61529 0.37909 0.05701-0.40397 0.78623-0.83252
   4   2   116145.98  309.35   1-0.53159 0.29592-0.21355 0.56058 0.81963-0.77341
  -4   2  -114871.11  273.17   1 0.61718-0.85343-0.61033 0.26264-0.49655 0.45018
  -4   2  -113915.72  306.52   1-0.76023 0.52417 0.33485-0.68169-0.55669 0.51042
   4   2   116072.60  269.46   1-0.87555 0.64133-0.37556 0.72270 0.30390-0.25767
  -4  -2  -114900.36  257.54   1-0.39111 0.62723-0.61403 0.26653 0.68555-0.73180
   4  -2   2 2897.26  276.19   1 0.57908-0.34342-0.32357 0.67249 0.74830-0.65559
  -4   2  -2 1721.45   87.89   1 0.59050-0.82662-0.74768 0.39942 0.30375-0.39641
  -4  -2  -2 2459.29  182.22   1-0.33080 0.56721-0.24935-0.09871-0.91016 0.81762
  -4   2  -2 1494.74  218.05   1-0.57630 0.34004-0.09101-0.25657 0.81215-0.90472
   4   2   2 2524.16  156.00   1-0.49928 0.26366-0.28949 0.63717 0.81664-0.72421
  -4   2  -2 1971.93  137.05   1 0.63129-0.86755-0.54891 0.20047-0.54787 0.45514
  -4   2  -2 1358.34  178.25   1-0.70971 0.47368 0.37458-0.72212-0.59664 0.50413
   4   2   2 2527.50  133.03   1-0.85419 0.61874-0.40002 0.74815 0.33217-0.23962
  -4  -2  -2 2222.47   99.91   1-0.25034 0.48635-0.63108 0.28286 0.73420-0.82670
  -4   2  -2 1795.45  138.11   1 0.18596-0.42225-0.59936 0.25060 0.77857-0.87114
   4  -2   3165948.8 4493.73   1 0.59462-0.35845-0.39781 0.74702 0.69868-0.55988
   4  -2   3157749.2 4250.22   1-0.64118 0.87736 0.47748-0.12920 0.60074-0.46210
   4   2   3147901.2 4012.14   1-0.46711 0.23154-0.35652 0.70486 0.80913-0.67048
   4   2   3150932.6 4061.59   1-0.82865 0.59326-0.42339 0.77224 0.36614-0.22732
  -4  -2  -3141024.6 1176.09   1-0.06578 0.30198-0.63295 0.28340 0.77138-0.91021
  -4   2  -3150841.5 4080.28   1 0.04574-0.28207-0.62334 0.27386 0.78060-0.91947
   4  -2   4 2883.33  332.94   1 0.60378-0.36756-0.45147 0.80137 0.65697-0.47190
  -4  -2  -4 1789.58  201.44   1-0.41278 0.64918-0.10373-0.24573-0.90490 0.71984
   4  -2   4 2306.19   98.27   1-0.64708 0.88333 0.39654-0.04759 0.65117-0.46632
  -4   2  -4 1701.03   78.62   1-0.42268 0.18619-0.43739 0.08823 0.79374-0.97854
   4   2   4 1816.71  154.96   1-0.43591 0.20029-0.41410 0.76326 0.79905-0.61425
  -4   2  -4 1139.40  167.65   1-0.59108 0.35510 0.45093-0.79991-0.66879 0.48377
   4   2   4 1879.93   95.03   1-0.79874 0.56340-0.44762 0.79718 0.40203-0.21694
  -4   2  -4 1240.05   98.65   1-0.10888-0.12756-0.63468 0.28446 0.76505-0.95016
  -4  -2  -4 1524.31   82.16   1 0.16704 0.06938-0.60335 0.25316 0.77977-0.96493
   4  -2   512609.63  349.38   1 0.60880-0.37252-0.49047 0.84107 0.62353-0.39219
  -4  -2  -513614.49  366.35   1-0.44455 0.68087-0.04008-0.31015-0.89485 0.66348
   4  -2   511714.35  337.87   1-0.64762 0.88400 0.30777 0.04190 0.69703-0.46560
   4   2   512332.44  268.64   1-0.40731 0.17175-0.46338 0.81324 0.78700-0.55599
  -4   2  -512253.51  183.92   1-0.30966 0.07308-0.60566 0.25547 0.73298-0.96405
   4   2   513598.20  176.37   1-0.42698 0.19120 0.52841-0.17861-0.73380 0.96516
   4   2   512506.04  169.66   1-0.76315 0.52786-0.47292 0.82320 0.44038-0.20902
  -4   2  -512305.11  246.29   1-0.27047 0.03450-0.62954 0.27919 0.72836-0.95961
   4  -2   6 1833.35  196.10   1 0.61148-0.37516-0.51870 0.87000 0.59751-0.31990
  -4  -2  -6 1116.63  188.37   1-0.47063 0.70694 0.01612-0.36709-0.88218 0.60454
   4  -2   6 1082.78  108.74   1-0.64068 0.87711 0.21254 0.13781 0.73779-0.46008
   4   2   6 1103.04  114.87   1-0.38150 0.14599-0.50467 0.85524 0.77443-0.49723
  -4   2  -6 1062.15   68.30   1-0.18375-0.05286-0.74632 0.39540 0.63971-0.91698
  -4   2  -6  980.47   64.70   1-0.45592 0.21942 0.51661-0.86715-0.72473 0.44710
   4   2   6  936.48   90.26   1-0.67918 0.44309 0.39630-0.04588-0.61778 0.89529
   4   2   6  969.96   63.48   1-0.71998 0.48475-0.49949 0.85049 0.48179-0.20415
  -4   2  -6 1162.46  122.15   1-0.42689 0.19082-0.60721 0.25613 0.67011-0.94761
   4  -2   7 3389.22  357.61   1 0.61288-0.37650-0.53891 0.89091 0.57787-0.25399
  -4  -2  -7 2715.17  218.19   1-0.49175 0.72806 0.06489-0.41659-0.86831 0.54439
   4  -2   7 2494.41  160.73   1-0.62704 0.86352 0.11615 0.23487 0.77027-0.44627
   4   2   7 2719.41  169.63   1-0.35878 0.12333-0.53880 0.89007 0.76220-0.43880
  -4   2  -7 2123.49   94.59   1-0.05570-0.18090-0.84919 0.49689 0.52513-0.84874
  -4   2  -7 1754.27   81.28   1-0.38787 0.15134 0.54320-0.89447-0.74463 0.42073
   4   2   7 2025.83   64.23   1-0.87433 0.63844 0.21738 0.13395-0.43391 0.75792
   4   2   7 2454.09   87.79   1-0.66924 0.43425-0.52611 0.87808 0.52470-0.20096
  -4   2  -7 2445.68  146.43   1-0.57158 0.33507-0.56636 0.21439 0.59373-0.91747
   4  -2   8 2082.20  180.15   1 0.61385-0.37803-0.55260 0.90539 0.56373-0.19323
  -4  -2  -8 1583.26  189.35   1-0.50866 0.74496 0.10649-0.45891-0.85435 0.48416
   4  -2   8 1801.45  152.88   1-0.60760 0.84418 0.02292 0.32849 0.79391-0.42359
   4   2   8 1589.44  156.43   1-0.33925 0.10386-0.56662 0.91860 0.75089-0.38129
  -4   2  -8 1305.30   72.52   1 0.06328-0.30033-0.91360 0.56044 0.40163-0.77181
  -4   2  -8 1202.66  110.89   1-0.69370 0.45708-0.51385 0.16117 0.50471-0.87469
   4   2   8 1504.77   63.54   1-0.60433 0.36945-0.55427 0.90695 0.57232-0.20234
   4  -2   9 1157.83  159.19   1 0.61418-0.37838-0.56190 0.91540 0.55410-0.13729
   4  -2   9  716.24   75.10   1-0.58531 0.82196-0.06123 0.41328 0.80848-0.39188
   4   2   9 1025.60  131.10   1-0.32287 0.08753-0.58894 0.94163 0.74087-0.32506
   4   2   9  745.23   39.88   1-0.99104 0.75789-0.13198 0.48493-0.02018 0.43639
  -4   2  -9  733.60   79.87   1-0.79303 0.55650-0.45192 0.09877 0.40849-0.82495
   4  -2   9  505.28   61.57   1 0.26119-0.02463-0.58107 0.93484 0.77079-0.35419
   4   2  10 2757.60  173.24   1 0.53220-0.76934-0.16894 0.52357 0.82958-0.36603
   4  -2  10 2999.41  355.93   1 0.61432-0.37854-0.56744 0.92165 0.54828-0.08515
   4  -2  10 2511.44  211.38   1-0.56216 0.79886-0.13422 0.48692 0.81605-0.35317
   4   2  10 2615.51  203.35   1-0.30951 0.07423-0.60650 0.95989 0.73236-0.27035
   4   2  10 2280.53   82.43   1-0.95684 0.72415-0.25533 0.60906 0.13877 0.32349
  -4   2 -10 2725.04  137.25   1-0.87035 0.63250-0.38111 0.02738 0.31180-0.77407
   4   2  10 2459.12   94.75   1-0.44555 0.21041-0.60321 0.95714 0.66152-0.19901
   4  -2  10 2234.18  114.05   1 0.20758 0.02902-0.59451 0.94899 0.77683-0.31394
   4   2  11  498.40  141.81   1 0.54029-0.77742-0.19233 0.54767 0.81919-0.30929
   4  -2  11  498.48  116.53   1 0.61437-0.37862-0.56991 0.92484 0.54565-0.03621
   4  -2  11  308.36   55.06   1-0.53833 0.77509-0.19634 0.54991 0.81953-0.31117
   4   2  11  455.90  117.72   1-0.29889 0.06352-0.61942 0.97396 0.72592-0.21759
  -4   2 -11  478.38   69.10   1-0.92411 0.68608-0.31390-0.04056 0.21789-0.72638
   4   2  11  190.09   36.11   1-0.35784 0.12281-0.61943 0.97407 0.69874-0.18998
   4   2  1218299.55 1150.73   1 0.54645-0.78357-0.21083 0.56689 0.81051-0.25425
   4  -2  1216716.59 1683.93   1 0.61437-0.37864-0.56984 0.92548 0.54572 0.01002
   4  -2  1214748.98  892.54   1-0.51863 0.75544-0.24523 0.59946 0.81907-0.26448
   4   2  1219797.30 1230.89   1-0.29102 0.05569-0.62926 0.98453 0.72064-0.16610
  -4   2 -1214533.11  883.14   1-0.96105 0.72334-0.24555-0.10961 0.12678-0.68173
   4   2  1313877.55  506.33   1 0.55102-0.78812-0.22500 0.58177 0.80358-0.20096
   4  -2  1315015.76 1396.76   1 0.61433-0.37861-0.56762 0.92397 0.54808 0.05397
   4  -2  1311780.30  363.59   1-0.50216 0.73902-0.28313 0.63800 0.81711-0.21631
   4   2  1315427.57  552.77   1-0.28558 0.05029-0.63595 0.99195 0.71693-0.11618
  -4   2 -1312772.16  390.03   1-0.98241 0.74454-0.18165-0.17425 0.04322-0.64442
   4   2  14 5852.26  349.74   1 0.55426-0.79136-0.23532 0.59280 0.79837-0.14940
   4  -2  14 5829.31  547.57   1 0.61423-0.37853-0.56352 0.92059 0.55240 0.09597
   4   2  14 7044.82  407.11   1-0.28237 0.04712-0.63986 0.99658 0.71472-0.06775
   4   2  15  486.15  160.42   1 0.55639-0.79347-0.24221 0.60040 0.79483-0.09950
   4  -2  15  517.54  107.26   1 0.61405-0.37837-0.55778 0.91556 0.55840 0.13628
   4   2  15  904.62  214.97   1-0.28120 0.04600-0.64128 0.99872 0.71392-0.02073
   4   2  16  249.50  100.77   1 0.55755-0.79463-0.24602 0.60493 0.79284-0.05116
   4  -2  16  146.38   81.02   1 0.61377-0.37811-0.55054 0.90903 0.56585 0.17515
   4   2  16  475.96  174.23   1-0.28191 0.04676-0.64042 0.99859 0.71441 0.02498
   4   2  17  183.14   95.00   1 0.55787-0.79493-0.24705 0.60667 0.79230-0.00426
   4  -2  17  228.05  145.42   1 0.61309-0.37621-0.54284 0.90180 0.57395 0.21260
   4   2  17  258.88  130.38   1-0.28434 0.04923-0.63747 0.99636 0.71608 0.06951
  -4  -3  16 2909.58  421.70   1 0.46330-0.10908-0.88168 0.54672-0.08929 0.83017
  -4   3  16 2498.11  404.17   1 0.22364-0.57846-0.95200 0.61883 0.20899 0.53144
  -4  -3  16 2126.75  333.95   1 0.41952-0.06516-0.90439 0.56990-0.07789 0.81911
   4  -3 -16 1822.62  395.25   1-0.63679 0.99135 0.42394-0.08936-0.64401-0.09602
   4   3 -16 1571.23  229.24   1-0.99288 0.63926-0.07683 0.41174-0.09102-0.64946
  -4  -3  15 2075.63  257.11   1 0.44247-0.08831-0.88656 0.55115-0.13496 0.82971
  -4   3  15 2205.74  293.93   1 0.24273-0.59753-0.95251 0.61849 0.18384 0.51031
  -4  -3  15 2740.48  327.27   1 0.45473-0.10039-0.87991 0.54465-0.13772 0.83262
   4  -3 -15 1414.00  385.24   1-0.64037 0.99490 0.42171-0.08640-0.64193-0.05186
   4   3 -15 1489.44  175.25   1-0.99302 0.63943-0.10079 0.43642-0.06123-0.63297
  -4  -3  14  928.38  206.32   1 0.41940-0.06526-0.88936 0.55321-0.18204 0.83048
  -4   3  14  931.50  266.51   1 0.26146-0.61622-0.95207 0.61721 0.15868 0.48919
  -4  -3  14  910.38  211.17   1 0.48841-0.13390-0.84958 0.51303-0.19913 0.84785
   4  -3 -14  611.30  150.02   1-0.64187 0.99638 0.42077-0.08474-0.64104-0.00649
   4   3 -14  724.02  138.57   1-0.99178 0.63760-0.12440 0.46034-0.02975-0.61769
  -4  -3  13  279.40  155.18   1 0.39431-0.04020-0.88966 0.55278-0.23022 0.83235
  -4   3  13  470.27  232.85   1 0.27982-0.63456-0.95072 0.61500 0.13352 0.46808
  -4  -3  13   88.38  138.04   1 0.52063-0.16614-0.81273 0.47546-0.26152 0.86390
   4  -3 -13  189.65   98.88   1-0.64113 0.99561 0.42123-0.08449-0.64148 0.04019
   4   3 -13   26.22   52.80   1-0.98896 0.63493-0.14814 0.48482 0.00030-0.60150
  -4  -3  12 1666.65  201.14   1 0.36704-0.01295-0.88721 0.54960-0.27952 0.83532
  -4   3  12 1308.33  219.01   1 0.29782-0.65254-0.94845 0.61188 0.10834 0.44697
  -4  -3  12 1467.95  201.84   1 0.55071-0.19623-0.76892 0.43092-0.32474 0.88079
   4  -3 -12 1325.81  192.21   1-0.63794 0.99239 0.42323-0.08576-0.64334 0.08831
   4   3 -12 1194.33  138.17   1-0.98465 0.63077-0.17180 0.50922 0.03055-0.58550
  -4  -3  11  518.93  184.63   1 0.33742 0.01664-0.88166 0.54331-0.32987 0.83936
  -4   3  11  720.77  271.04   1 0.31547-0.67016-0.94528 0.60786 0.08316 0.42588
  -4  -3  11  585.14  226.14   1 0.57842-0.22324-0.71741 0.37857-0.38824 0.89824
   4  -3 -11  459.05  131.57   1-0.63203 0.98645 0.42688-0.08870-0.64675 0.13797
   4   3 -11  214.63   88.70   1-0.97882 0.62509-0.19540 0.53355 0.06101-0.56971
  -4   3  10 3587.66  282.66   1 0.61446-0.96881-0.57571 0.23576 0.53942-0.07630
  -4  -3  10 3941.14  325.78   1 0.30629 0.04872-0.87148 0.53132-0.38299 0.84576
  -4   3  10 5464.26  464.07   1 0.33278-0.68744-0.94121 0.60294 0.05796 0.40480
  -4  -3  10 4984.69  386.21   1 0.60236-0.24719-0.65833 0.31874-0.45139 0.91503
   4  -3 -10 4789.19  490.88   1-0.62307 0.97746 0.43233-0.09342-0.65181 0.18928
   4   3 -10 5842.28  452.46   1-0.97141 0.61783-0.21894 0.55783 0.09170-0.55416
  -4  -3   9  680.08  181.10   1 0.27150 0.08341-0.85851 0.51769-0.43500 0.85149
   4  -3  -9  236.08   25.63   1-0.47753 0.83180 0.03171 0.30828-0.87803 0.46157
  -4   3   9  668.62  215.38   1 0.34971-0.70427-0.93631 0.59645 0.03190 0.38503
  -4  -3   9  450.83  142.70   1 0.62210-0.26695-0.59130 0.25098-0.51317 0.93045
   4  -3  -9  885.07  169.87   1-0.61066 0.96502 0.43970-0.10008-0.65859 0.24231
   4   3  -9  529.59  135.61   1-0.96238 0.60894-0.24243 0.58207 0.12265-0.53886
  -4  -3   8 7691.68  367.04   1 0.23392 0.12090-0.84119 0.49970-0.48750 0.85771
  -4   3   8 9944.79  474.52   1 0.36631-0.72088-0.93046 0.58983 0.00671 0.36389
   4  -3  -8 6976.36  346.31   1-0.59428 0.94861 0.44912-0.10878-0.66716 0.29713
   4   3  -8 8539.64  363.30   1-0.95157 0.59818-0.26635 0.60689 0.15349-0.52331
  -4  -3   7  276.25  194.75   1 0.19347 0.16125-0.81905 0.47688-0.54011 0.86404
   4   3  -7  246.80  100.79   1-0.64511 0.29081 0.43407-0.09248 0.62880-0.95230
  -4   3   7  529.90  210.77   1 0.38257-0.73715-0.92374 0.58234-0.01847 0.34276
   4  -3  -7  394.71  127.12   1-0.57336 0.92766 0.46068-0.11962-0.67751 0.35374
   4   3  -7  186.19  110.46   1-0.93906 0.58584-0.28972 0.63100 0.18496-0.50854
  -4  -3   6 1173.76  259.63   1 0.15014 0.20434-0.79166 0.44893-0.59222 0.86988
   4   3  -6  226.60   91.99   1-0.64779 0.29355 0.34609-0.00383 0.67865-0.95593
  -4   3   6  158.79  138.21   1 0.39847-0.75306-0.91613 0.57397-0.04366 0.32162
   4  -3  -6  729.13  142.31   1-0.54718 0.90145 0.47442-0.13264-0.68957 0.41205
   4   3  -6  502.64  135.16   1-0.92467 0.57161-0.31306 0.65507 0.21674-0.49410
  -4  -3   5 1504.43  212.39   1 0.10414 0.25029-0.75852 0.41514-0.64326 0.87464
   4   3  -5 1106.42  124.28   1-0.64452 0.29079 0.25386 0.08903 0.72120-0.95263
  -4   3   5 1172.48  188.04   1 0.41403-0.76863-0.90765 0.56472-0.06885 0.30049
   4  -3  -5 1288.69  193.10   1-0.51493 0.86917 0.49032-0.14782-0.70314 0.47188
   4   3  -5 1145.55  144.85   1-0.90826 0.55537-0.33635 0.67909 0.24885-0.47998
  -4  -3   4 1996.59  235.53   1 0.05573 0.29867-0.71944 0.37539-0.69231 0.87742
   4   3  -4 1824.44  210.11   1-0.63390 0.28022 0.15902 0.18455 0.75688-0.94202
  -4   3   4 1618.58  156.51   1 0.42922-0.78383-0.89829 0.55458-0.09403 0.27934
   4  -3  -4 1918.60  166.05   1-0.47564 0.82992 0.50814-0.16495-0.71801 0.53292
   4   3  -4 1357.77  155.91   1-0.88970 0.53698-0.35958 0.70305 0.28130-0.46621
  -4   3   3 1406.35   52.20   1 0.42424-0.77863-0.88898 0.54478-0.17238 0.31133
  -4   3   3 1221.72   53.49   1 0.05270-0.40672-0.71651 0.37193-0.69557 0.83440
  -4  -3   3 1445.62  229.51   1 0.00572 0.34886-0.67431 0.32973-0.73842 0.87724
   4   3  -3 1729.14  228.50   1-0.61686 0.26293 0.06442 0.27998 0.78442-0.92329
  -4   3   3 1964.48  181.89   1 0.44404-0.79867-0.88803 0.54357-0.11919 0.25817
   4  -3  -3 1894.29  155.83   1-0.42843 0.78273 0.52783-0.18390-0.73337 0.59455
   4   3  -3 1593.57  136.99   1-0.86882 0.51628-0.38273 0.72693 0.31410-0.45278
  -4   3   2 2631.89   98.92   1 0.48288-0.83720-0.87457 0.52953-0.04408 0.13669
  -4  -3   2 3168.42  258.23   1-0.04589 0.40047-0.62345 0.27818-0.78050 0.87306
  -4   3   2 2669.20  121.93   1-0.29440-0.05985-0.30722-0.03802-0.90495 0.99748
   4   3  -2 3329.73  322.17   1-0.59469 0.24082-0.02792 0.37298 0.80346-0.89604
  -4   3   2 3055.78  212.72   1 0.45849-0.81312-0.87690 0.53166-0.14431 0.23697
   4  -3  -2 3179.05  206.94   1-0.37235 0.72669 0.54872-0.20406-0.74850 0.65595
   4   3  -2 2701.86  173.56   1-0.84583 0.49228-0.40798 0.75324 0.34367-0.43621
  -4   3   1 9778.90  295.75   1 0.49665-0.85097-0.86788 0.52212-0.01043 0.05674
  -4  -3   110471.13  415.34   1-0.09789 0.45245-0.56744 0.22147-0.81757 0.86384
  -4   3   1 9056.23  287.36   1-0.46205 0.10774-0.00281-0.34303-0.88684 0.93312
   4   3  -110828.54  612.05   1-0.56839 0.21457-0.11567 0.46135 0.81458-0.86087
  -4   3   111415.80  442.82   1 0.47253-0.82718-0.86487 0.51887-0.16938 0.21571
   4   3  -110432.00  362.37   1-0.81999 0.46648-0.43073 0.77671 0.37693-0.42321
   4  -3   0 3100.55  130.77   1 0.54231-0.18846-0.19832 0.54582 0.81643-0.81643
  -4   3   0 2750.78  118.36   1 0.50016-0.85450-0.86592 0.51944-0.00157 0.00157
  -4  -3   0 2691.35  215.40   1-0.14896 0.50337-0.50675 0.16000-0.84912 0.84912
  -4   3   0 1756.28  211.55   1-0.64763 0.29361 0.30798-0.65427 0.69693-0.69693
   4   3   0 3588.95  179.60   1-0.53844 0.18474-0.19605 0.54243 0.81953-0.81953
  -4   3   0 3149.00  197.18   1 0.48603-0.84073-0.85197 0.50522-0.19470 0.19470
   4   3   0 3120.32  175.67   1-0.79130 0.43785-0.45320 0.79990 0.41042-0.41042
  -4   3   0 2913.30  208.54   1 0.22997-0.58438-0.58914 0.24180 0.77461-0.77461
   4  -3   1  785.03   85.82   1 0.58131-0.22745-0.33261 0.68082 0.74258-0.69623
  -4   3  -1  646.15   57.93   1 0.49921-0.85356-0.86646 0.51926-0.00397-0.04232
  -4  -3  -1  615.81  126.44   1-0.19847 0.55293-0.44387 0.09639-0.87383 0.82763
  -4   3  -1  450.80   62.43   1-0.63872 0.28464 0.19528-0.54225 0.74424-0.79052
   4   3   1  690.72   96.76   1-0.50804 0.15439-0.26987 0.61690 0.81795-0.77174
  -4   3  -1  952.63  110.07   1 0.49921-0.85392-0.83820 0.49073-0.21953 0.17319
   4   3   1  514.58   90.99   1-0.75958 0.40618-0.47528 0.82269 0.44400-0.39773
  -4   3  -1  752.25  143.33   1 0.14384-0.49829-0.60792 0.25987 0.78085-0.82714
   4  -3   2  554.62  111.91   1 0.59926-0.24473-0.42317 0.77169 0.67955-0.58702
  -4   3  -2  239.85   41.03   1 0.49579-0.85014-0.86835 0.52043-0.01259-0.08001
  -4  -3  -2  475.26  144.35   1-0.24523 0.59974-0.37979 0.03158-0.89197 0.79956
  -4   3  -2  292.54   61.81   1-0.61347 0.25923 0.04863-0.39623 0.78821-0.88079
   4   3   2  461.71   83.75   1-0.47754 0.12394-0.33559 0.68328 0.81198-0.71955
  -4   3  -2  415.93   83.13   1 0.51189-0.86662-0.82362 0.47541-0.24413 0.15146
   4   3   2  340.36  102.59   1-0.72467 0.37133-0.49679 0.84492 0.47752-0.38498
  -4  -3  -2  295.03   92.33   1-0.06008 0.41453-0.63263 0.28374 0.77211-0.86466
  -4   3  -2  607.82  141.63   1 0.04819-0.40267-0.62303 0.27426 0.78070-0.87328
   4  -3   3  876.89  115.43   1 0.60819-0.25361-0.48508 0.83429 0.62831-0.48951
  -4   3  -3  955.55   95.16   1 0.49076-0.84512-0.87093 0.52229-0.02503-0.11387
  -4  -3  -3  969.33  172.04   1-0.28867 0.64322-0.31600-0.03275-0.90377 0.76497
  -4   3  -3  646.58   73.18   1-0.56145 0.20716-0.13628-0.21194 0.81620-0.95507
   4   3   3 1035.77  120.12   1-0.44799 0.09445-0.39311 0.74145 0.80296-0.66432
  -4   3  -3  929.44   93.69   1 0.52403-0.87877-0.80829 0.45936-0.26839 0.12938
   4   3   3 1006.63  108.83   1-0.68720 0.33389-0.51720 0.86635 0.51014-0.37140
  -4   3  -3  717.73  108.67   1-0.05574-0.29870-0.63238 0.28282 0.77264-0.91147
  -4  -3  -3  845.98   86.89   1 0.07188 0.28278-0.61984 0.27036 0.78142-0.92028
   4  -3   4  159.97   60.58   1 0.61219-0.25756-0.52811 0.87802 0.58848-0.40340
  -4  -3  -4  529.44  243.69   1-0.32778 0.68232-0.25429-0.09517-0.90988 0.72482
  -4   3  -4  146.31   28.78   1-0.46608 0.11172-0.35854 0.00954 0.80883-0.99369
   4   3   4  244.38   96.74   1-0.41989 0.06624-0.44219 0.79135 0.79255-0.60775
  -4   3  -4  429.47   80.71   1 0.53553-0.89028-0.79238 0.44271-0.29212 0.10677
   4   3   4  417.33  119.02   1-0.64592 0.29272-0.53692 0.88677 0.54266-0.35767
  -4   3  -4  153.20   96.08   1-0.16514-0.18942-0.63512 0.28490 0.75455-0.93965
  -4  -3  -4  228.10   66.96   1 0.21920 0.13542-0.59176 0.24157 0.77573-0.96088
   4  -3   5  235.17   67.49   1 0.61406-0.26002-0.55805 0.90870 0.55812-0.32655
  -4  -3  -5  590.80  247.34   1-0.36240 0.71694-0.19595-0.15421-0.91118 0.67985
   4   3   5  -29.51   59.96   1-0.39442 0.04083-0.48436 0.83422 0.78091-0.54990
  -4   3  -5  110.55   27.87   1-0.31628-0.03835-0.59702 0.24683 0.73723-0.96829
  -4   3  -5  131.16   51.35   1 0.54622-0.90098-0.77618 0.42579-0.31492 0.08323
   4   3   5  115.99   40.93   1-0.37242 0.01857 0.54870-0.19890-0.74848 0.97984
   4   3   5   50.31   50.15   1-0.60161 0.24852-0.55532 0.90588 0.57416-0.34292
  -4   3  -5  135.59   96.60   1-0.27779-0.07607-0.62891 0.27855 0.72614-0.95740
   4  -3   6  361.25   70.52   1 0.61450-0.26048-0.57901 0.93037 0.53584-0.25797
  -4  -3  -6  -15.42  128.20   1-0.39250 0.74703-0.14201-0.20885-0.90872 0.63112
   4   3   6  230.20   94.66   1-0.37157 0.01804-0.51982 0.87039 0.76922-0.49202
  -4   3  -6  151.64   23.81   1-0.11317-0.24162-0.80719 0.45569 0.57933-0.85671
  -4   3  -6  194.74   42.82   1 0.55580-0.91058-0.76035 0.40923-0.33605 0.05803
   4   3   6   40.50   22.94   1-0.52693 0.17284 0.48453-0.13411-0.69825 0.97577
   4   3   6  333.18   92.04   1-0.55472 0.20174-0.57209 0.92336 0.60414-0.32665
  -4   3  -6   36.91  113.60   1-0.38867 0.03468-0.61446 0.26339 0.68656-0.96406
   4  -3   7  212.40   86.95   1 0.61446-0.26047-0.59334 0.94542 0.51997-0.19578
  -4  -3  -7  185.88  177.75   1-0.41829 0.77273-0.09301-0.25868-0.90353 0.57962
   4   3   7  240.76  100.64   1-0.35151-0.00195-0.54931 0.90058 0.75808-0.43468
  -4   3  -7  145.25   26.59   1 0.12252-0.47772-0.93459 0.58225 0.33394-0.65784
   4   3   7   82.93   31.65   1-0.67035 0.31623 0.40228-0.05115-0.62352 0.94730
   4   3   7  527.77   95.63   1-0.50601 0.15315-0.58690 0.93887 0.63205-0.30831
  -4   3  -7  336.00  133.73   1-0.49642 0.14204-0.58953 0.23756 0.63719-0.96093
   4  -3   8 1056.78  177.06   1 0.61428-0.26031-0.60270 0.95549 0.50931-0.13881
  -4  -3  -8 1653.04  209.40   1-0.43998 0.79442-0.04953-0.30289-0.89663 0.52645
   4   3   8 1043.90  130.34   1-0.33426-0.01915-0.57351 0.92548 0.74789-0.37829
   4   3   8  515.80   70.73   1-0.79247 0.43844 0.30631 0.04550-0.52739 0.89760
  -4   3  -8 1016.40  147.64   1-0.59473 0.24024-0.55795 0.20528 0.57877-0.94875
   4   3   8  977.63   89.63   1-0.45896 0.10569-0.60015 0.95265 0.65511-0.28510
   4  -3   9 1579.86  207.65   1 0.61412-0.26016-0.60821 0.96171 0.50292-0.08610
  -4  -3  -9 1410.61  207.29   1-0.45804 0.81247-0.01150-0.34165-0.88885 0.47239
   4   3   9 1173.45  147.92   1-0.31976-0.03359-0.59308 0.94576 0.73892-0.32311
   4   3   9  648.35   63.42   1-0.88711 0.53320 0.20070 0.15208-0.41562 0.83220
  -4   3  -9 1752.25  158.00   1-0.68299 0.32839-0.51934 0.16596 0.51361-0.92984
   4   3   9 1478.65  120.34   1-0.41081 0.05765-0.61041 0.96362 0.67721-0.26096
   4  -3  10  244.88   85.62   1 0.61403-0.26010-0.61065 0.96487 0.50005-0.03693
  -4  -3 -10  298.92  108.99   1-0.47289 0.82732 0.02121-0.37510-0.88086 0.41812
   4   3  10  180.64   86.13   1-0.30789-0.04541-0.60859 0.96198 0.73130-0.26930
  -4   3 -10  207.75   68.78   1-0.76045 0.40597-0.47470 0.12084 0.44312-0.90586
   4   3  10  122.16   49.22   1-0.36496 0.01190-0.61835 0.97228 0.69601-0.23350
   4  -3  11  321.84   98.61   1 0.61403-0.26012-0.61060 0.96553 0.50012 0.00931
  -4  -3 -11  173.76  117.35   1-0.48497 0.83939 0.04887-0.40349-0.87316 0.36415
   4   3  11   79.54   87.17   1-0.29843-0.05500-0.62001 0.97455 0.72561-0.21728
  -4   3 -11  502.28  127.91   1-0.82534 0.47080-0.42623 0.07165 0.37031-0.87932
   4   3  11  276.12   81.22   1-0.32300-0.02993-0.62415 0.97879 0.71140-0.20264
   4  -3  12 2115.83  311.89   1 0.61411-0.26022-0.60844 0.96408 0.50265 0.05310
  -4  -3 -12 2365.95  303.26   1-0.49464 0.84905 0.07182-0.42717-0.86612 0.31084
   4   3  12 1803.21  198.76   1-0.29136-0.06202-0.62884 0.98411 0.72087-0.16632
  -4   3 -12 1611.79  130.36   1-0.88022 0.52439-0.37043 0.01523 0.29661-0.85134
   4  -3  13 1762.05  254.35   1 0.61423-0.26036-0.60448 0.96084 0.50725 0.09481
  -4  -3 -13 1485.20  224.78   1-0.50224 0.85665 0.09040-0.44648-0.85998 0.25843
   4   3  13 2051.11  202.60   1-0.28644-0.06690-0.63490 0.99090 0.71752-0.11676
  -4   3 -13 1031.10   92.87   1-0.92175 0.56574-0.31742-0.03850 0.22272-0.82367
   4  -3  14    5.30   89.14   1 0.61437-0.26052-0.59894 0.95601 0.51362 0.13475
  -4  -3 -14  657.09  212.38   1-0.50806 0.86247 0.10498-0.46180-0.85489 0.20706
   4   3  14  194.62  129.84   1-0.28350-0.06978-0.63848 0.99520 0.71551-0.06854
  -4   3 -14  214.28   55.63   1-0.95291 0.59673-0.26362-0.09304 0.14984-0.79702
   4  -3  15  566.99  136.22   1 0.61448-0.26065-0.59198 0.94977 0.52150 0.17319
  -4  -3 -15 1225.39  223.37   1-0.51234 0.86674 0.11590-0.47345-0.85092 0.15682
   4   3  15  551.09  161.83   1-0.28241-0.07083-0.63981 0.99725 0.71476-0.02157
   4  -3  16 6351.91  988.19   1 0.61451-0.26071-0.58373 0.94222 0.53068 0.21032
  -4  -3 -16 7282.88  918.06   1-0.51526 0.86966 0.12347-0.48175-0.84808 0.10771
   4   3  16 6664.51  828.65   1-0.28302-0.07018-0.63907 0.99724 0.71518 0.02421
  -4  -4  15 1790.17  297.08   1 0.44062 0.03157-0.88689 0.55147-0.13883 0.83359
  -4   4  15 1647.12  278.94   1 0.18435-0.65855-0.94815 0.61390 0.25886 0.43522
   4  -4 -15 1594.84  408.71   1-0.51536 0.98790 0.49012-0.15481-0.70297 0.00918
   4   4 -15 1498.35  226.69   1-0.98789 0.51596-0.15487 0.49007 0.00888-0.70257
  -4  -4  14  268.98  121.26   1 0.41897 0.05320-0.88938 0.55323-0.18288 0.83132
  -4   4  14  533.92  167.73   1 0.20077-0.67363-0.95017 0.61530 0.23846 0.40941
  -4  -4  14  395.75  150.72   1 0.49645-0.02377-0.84120 0.50465-0.21427 0.86299
   4  -4 -14   46.15   67.89   1-0.51384 0.98635 0.49084-0.15481-0.70358 0.05604
   4   4 -14  221.86   93.60   1-0.98293 0.51115-0.17944 0.51538 0.04038-0.68782
  -4  -4  13  705.68  177.84   1 0.39569 0.07646-0.88971 0.55283-0.22765 0.82977
  -4   4  13  568.57  188.07   1 0.21593-0.68876-0.95152 0.61580 0.21901 0.38259
  -4  -4  13  254.84  128.05   1 0.53109-0.05843-0.79869 0.46142-0.28287 0.88525
   4  -4 -13  155.40   79.58   1-0.51025 0.98234 0.49238-0.15580-0.70511 0.10358
   4   4 -13   81.07   51.68   1-0.97636 0.50472-0.20381 0.54049 0.07194-0.67314
  -4  -4  12  435.92  163.04   1 0.37067 0.10145-0.88769 0.55008-0.27311 0.82892
  -4   4  12  578.48  208.73   1 0.23050-0.70330-0.95229 0.61572 0.20002 0.35530
  -4  -4  12  583.81  150.67   1 0.56258-0.08993-0.74831 0.41030-0.35145 0.90750
   4  -4 -12  517.00  136.76   1-0.50343 0.97554 0.49558-0.15826-0.70777 0.15251
   4   4 -12  473.12  132.67   1-0.96814 0.49665-0.22798 0.56540 0.10357-0.65852
  -4  -4  11  293.63  127.49   1 0.34383 0.12827-0.88310 0.54475-0.31923 0.82872
  -4   4  11  658.15  199.67   1 0.24444-0.71723-0.95251 0.61509 0.18156 0.32748
  -4  -4  11  -57.93   79.17   1 0.59055-0.11712-0.68964 0.35079-0.41909 0.92909
   4  -4 -11  367.71  176.63   1-0.49364 0.96578 0.50009-0.16204-0.71149 0.20249
   4   4 -11  127.43   80.31   1-0.95824 0.48690-0.25194 0.59010 0.13527-0.64397
  -4  -4  10  294.98  122.93   1 0.31607 0.15701-0.87456 0.53440-0.36775 0.83051
  -4   4  10  500.89  206.60   1 0.25773-0.73049-0.95224 0.61396 0.16373 0.29903
  -4  -4  10   53.98   83.58   1 0.61360-0.14019-0.62308 0.28350-0.48502 0.94866
   4  -4 -10   40.28   61.74   1-0.48060 0.95277 0.50596-0.16717-0.71625 0.25353
   4   4 -10  156.03   84.40   1-0.94652 0.47514-0.27621 0.61529 0.16673-0.62900
  -4  -4   9  165.38  127.59   1 0.28529 0.18769-0.86403 0.52320-0.41479 0.83128
  -4   4   9  331.47  196.69   1 0.27031-0.74304-0.95154 0.61242 0.14662 0.26987
  -4  -4   9  437.38  193.58   1 0.63130-0.15790-0.54887 0.20855-0.54790 0.96517
   4  -4  -9  225.22  112.70   1-0.46399 0.93618 0.51319-0.17367-0.72204 0.30559
   4   4  -9  529.51  196.85   1-0.93316 0.46196-0.29968 0.63949 0.19847-0.61452
  -4  -4   817443.41 1112.41   1 0.25246 0.22043-0.85015 0.50865-0.46206 0.83227
   4   4  -815615.16  950.41   1-0.64228 0.16994 0.46718-0.12625 0.60762-0.97733
  -4   4   816613.21 1059.45   1 0.28210-0.75481-0.95048 0.61051 0.13035 0.23986
   4  -4  -815080.03  944.49   1-0.44345 0.91567 0.52179-0.18153-0.72875 0.35858
   4   4  -815620.65  980.68   1-0.91800 0.44697-0.32289 0.66343 0.23024-0.60006
  -4  -4   713650.61  899.45   1 0.21753 0.25526-0.83264 0.49048-0.50929 0.83322
   4   4  -712180.05  751.17   1-0.64755 0.17527 0.38043-0.03884 0.66026-0.98375
  -4   4   712471.98  830.01   1 0.29303-0.76571-0.94914 0.60832 0.11509 0.20884
   4  -4  -712757.26  821.85   1-0.41858 0.89083 0.53169-0.19070-0.73626 0.41236
   4   4  -712008.52  767.47   1-0.90098 0.43012-0.34580 0.68707 0.26200-0.58559
  -4  -4   624595.88 1236.09   1 0.18049 0.29212-0.81130 0.46857-0.55606 0.83372
   4   4  -623759.70 1367.64   1-0.64683 0.17513 0.28977 0.05245 0.70543-0.98314
  -4   4   623623.72 1181.42   1 0.30299-0.77564-0.94762 0.60594 0.10102 0.17663
   4  -4  -626098.92 1275.97   1-0.38895 0.86123 0.54281-0.20108-0.74435 0.46672
   4   4  -622797.43 1112.48   1-0.88206 0.41136-0.36837 0.71038 0.29371-0.57107
  -4  -4   5 1599.39  233.00   1 0.14153 0.33103-0.78576 0.44238-0.60210 0.83349
   4   4  -5 1672.84  204.68   1-0.63892 0.16727 0.19698 0.14592 0.74362-0.97505
  -4   4   5 1608.44  200.83   1 0.31182-0.78444-0.94601 0.60349 0.08842 0.14296
   4  -4  -5 1555.75  191.51   1-0.35413 0.82644 0.55496-0.21250-0.75273 0.52137
   4   4  -5 1515.93  168.23   1-0.86117 0.39065-0.39056 0.73331 0.32532-0.55645
  -4  -4   4  262.24  162.82   1 0.10077 0.37176-0.75594 0.41190-0.64683 0.83194
   4   4  -4   60.77   33.79   1-0.62494 0.15334 0.10442 0.23915 0.77365-0.95879
  -4   4   4  -19.27  105.81   1 0.31932-0.79192-0.94446 0.60108 0.07761 0.10749
   4  -4  -4   87.67   82.11   1-0.31369 0.78603 0.56788-0.22469-0.76098 0.57589
   4   4  -4  194.56  112.35   1-0.83852 0.36696-0.41468 0.75851 0.35341-0.53850
  -4  -4   3  510.58  272.91   1 0.05847 0.41402-0.72176 0.37706-0.68966 0.82849
   4   4  -3  140.69   82.11   1-0.60559 0.13367 0.01453 0.32988 0.79564-0.93450
  -4   4   3  400.38  152.86   1 0.32521-0.79778-0.94311 0.59888 0.06905 0.06977
   4   4  -3  524.75  139.38   1-0.81375 0.34224-0.43584 0.78038 0.38449-0.52331
  -4   4   3  347.82  113.10   1 0.26694-0.73943-0.57951 0.23432 0.77000-0.63113
  -4  -4   2 5492.20  328.45   1 0.01534 0.45733-0.68326 0.33799-0.73000 0.82255
   4   4  -2 6795.03  410.24   1-0.58229 0.11043-0.07143 0.41648 0.80983-0.90240
  -4   4   2 6430.62  320.18   1 0.32909-0.80164-0.94216 0.59708 0.06338 0.02917
   4   4  -2 6362.72  303.59   1-0.78696 0.31550-0.45638 0.80164 0.41521-0.50775
  -4   4   2 6043.56  313.91   1 0.21420-0.68673-0.59296 0.24705 0.77621-0.68364
  -4   4   142090.12 1315.86   1 0.16566-0.63828-0.80192 0.45591-0.57399 0.62026
  -4  -4   154200.75 1793.66   1-0.02876 0.50142-0.64085 0.29488-0.76711 0.81339
  -4   4   138863.43 1212.65   1-0.48276 0.01032 0.04373-0.38958-0.87465 0.92093
   4   4  -148488.00 1583.73   1-0.55610 0.08429-0.15165 0.49734 0.81715-0.86344
  -4   4   149161.32 1596.50   1 0.33038-0.80290-0.94184 0.59591 0.06149-0.01521
   4   4  -148530.38 1563.29   1-0.75816 0.28675-0.47620 0.82218 0.44543-0.49170
  -4   4   145002.61 1484.60   1 0.15508-0.62765-0.60576 0.25913 0.78038-0.73409
   4  -4   021050.97  675.08   1 0.56590-0.09383-0.27437 0.62187 0.77747-0.77747
  -4   4   019152.41  625.42   1 0.26463-0.73705-0.85560 0.50875-0.44487 0.44487
  -4  -4   024170.91  876.13   1-0.07291 0.54556-0.59495 0.24828-0.80044 0.80044
   4   4   023087.69  802.04   1-0.52744 0.05576-0.22390 0.57027 0.81955-0.81955
  -4   4   021628.62  750.60   1 0.32815-0.80064-0.94240 0.59562 0.06476-0.06476
   4   4   022490.27  780.57   1-0.72741 0.25606-0.49520 0.84189 0.47501-0.47501
  -4   4   019222.79  708.72   1 0.08967-0.56228-0.61721 0.26987 0.78166-0.78166
   4  -4   152638.72 1652.07   1 0.59579-0.12290-0.40392 0.75174 0.69417-0.64790
  -4   4  -143151.44 1365.22   1 0.31265-0.78517-0.87351 0.52600-0.37311 0.32684
  -4  -4  -147533.22 1567.05   1-0.11645 0.58909-0.54625 0.19888-0.82948 0.78320
  -4   4  -138149.57 1229.73   1-0.64674 0.17475 0.28797-0.63493 0.70625-0.75253
   4   4   150704.89 1636.65   1-0.49908 0.02745-0.28995 0.63698 0.81660-0.77039
  -4   4  -151004.61 1621.55   1 0.32088-0.79335-0.94411 0.59648 0.07535-0.12162
   4   4   148648.94 1562.07   1-0.69483 0.22353-0.51324 0.86065 0.50377-0.45749
  -4   4  -145127.13 1473.54   1 0.01845-0.49077-0.62612 0.27789 0.77950-0.82577
   4  -4   2  190.26   39.14   1 0.60816-0.13522-0.48475 0.83326 0.62861-0.53607
  -4   4  -2  215.40   66.58   1 0.33985-0.81246-0.88090 0.53272-0.32940 0.23684
  -4  -4  -2  -67.92  128.94   1-0.15833 0.63090-0.49522 0.14701-0.85421 0.76180
  -4   4  -2   21.46   23.99   1-0.63255 0.16051 0.14994-0.49759 0.75985-0.85243
   4   4   2  201.40  109.22   1-0.47114-0.00042-0.34851 0.69619 0.81028-0.71785
  -4   4  -2  164.01   66.91   1 0.30579-0.77824-0.94713 0.59865 0.09703-0.18959
   4   4   2  223.16  112.77   1-0.66113 0.18983-0.52997 0.87841 0.53107-0.43857
  -4   4  -2   78.87  100.23   1-0.05830-0.41414-0.63253 0.28364 0.77233-0.86488
   4  -4   3 3508.57  277.53   1 0.61281-0.13982-0.53769 0.88690 0.57909-0.44029
  -4  -4  -3 2715.35  225.75   1-0.19851 0.67113-0.44381 0.09487-0.87385 0.73524
  -4   4  -3 1978.31  204.22   1-0.59078 0.11851-0.04213-0.30610 0.80572-0.94459
   4   4   3 3040.33  176.88   1-0.44440-0.02711-0.39975 0.74809 0.80168-0.66303
  -4   4  -3 3468.35  161.38   1 0.27709-0.74951-0.95098 0.60165 0.13730-0.27613
   4   4   3 3392.96  200.43   1-0.62557 0.15439-0.54570 0.89485 0.55754-0.41879
  -4   4  -3 2935.07  230.34   1-0.13930-0.33327-0.63518 0.28562 0.75969-0.89852
   4  -4   4  238.94   64.83   1 0.61443-0.14223-0.57340 0.92334 0.54191-0.35666
  -4  -4  -4  600.62  225.20   1-0.23617 0.70884-0.39258 0.04291-0.88887 0.70406
  -4   4  -4  199.81   27.03   1-0.48780 0.01546-0.31427-0.03471 0.81441-0.99927
   4   4   4   88.25   83.85   1-0.41914-0.05252-0.44347 0.79262 0.79224-0.60743
  -4   4  -4  275.75   50.76   1 0.21898-0.69137-0.95173 0.60155 0.21505-0.40016
   4   4   4  583.11  148.89   1-0.58897 0.11790-0.56010 0.90996 0.58256-0.39757
  -4   4  -4  432.82  138.01   1-0.22324-0.24946-0.63334 0.28312 0.74096-0.92607
   4  -4   5  163.72   49.66   1 0.61439-0.14221-0.59773 0.94838 0.51499-0.28343
  -4  -4  -5  627.54  218.80   1-0.27087 0.74359-0.34256-0.00783-0.89959 0.66857
   4   4   5  199.27   83.49   1-0.39629-0.07532-0.48135 0.83122 0.78182-0.55081
   4   4   5  -19.56   58.07   1-0.55177 0.08081-0.57306 0.92362 0.60592-0.37468
  -4   4  -5  238.50  153.90   1-0.30897-0.16281-0.62579 0.27543 0.71617-0.94743
   4  -4   6  353.52   91.72   1 0.61388-0.14172-0.61425 0.96561 0.49581-0.21793
  -4  -4  -6  164.56  123.59   1-0.30274 0.77541-0.29428-0.05659-0.90649 0.62890
   4   4   6  487.86  107.86   1-0.37578-0.09577-0.51345 0.86402 0.77145-0.49425
   4   4   6  676.23  123.75   1-0.51451 0.04366-0.58449 0.93576 0.62740-0.34991
  -4   4  -6  104.07  121.93   1-0.39412-0.07777-0.61350 0.26243 0.68430-0.96181
   4  -4   7  328.59   89.49   1 0.61332-0.14117-0.62512 0.97720 0.48275-0.15856
  -4  -4  -7  859.81  247.19   1-0.33092 0.80358-0.24916-0.10241-0.91017 0.58631
   4   4   7  595.88  123.39   1-0.35770-0.11379-0.54037 0.89164 0.76160-0.43820
   4   4   7  252.62   73.20   1-0.47932 0.00803-0.59518 0.94696 0.64498-0.32122
  -4   4  -7  425.95  135.39   1-0.47727 0.00526-0.59570 0.24391 0.64602-0.96978
   4  -4   8 2574.22  384.46   1 0.61288-0.14076-0.63176 0.98455 0.47459-0.10409
  -4  -4  -8 2629.36  256.94   1-0.35572 0.82837-0.20751-0.14476-0.91126 0.54113
   4   4   8 2553.73  225.07   1-0.34208-0.12936-0.56267 0.91465 0.75257-0.38297
  -4   4  -8 3176.84  282.84   1-0.55804 0.08568-0.57099 0.21831 0.60212-0.97210
   4   4   8 3194.18  236.72   1-0.44426-0.02691-0.60350 0.95600 0.66213-0.29212
   4  -4   9 4008.55  434.66   1 0.61263-0.14053-0.63512 0.98862 0.47042-0.05360
  -4  -4  -9 6118.08  346.03   1-0.37726 0.84991-0.16973-0.18324-0.91041 0.49403
   4   4   9 4578.14  255.19   1-0.32884-0.14254-0.58090 0.93358 0.74458-0.32878
  -4   4  -9 4671.61  247.47   1-0.63254 0.16006-0.54276 0.18938 0.55253-0.96876
   4   4   9 5096.85  233.07   1-0.41124-0.05982-0.61033 0.96354 0.67703-0.26077
   4  -4  10  363.52  104.60   1 0.61258-0.14049-0.63584 0.99006 0.46951-0.00638
  -4  -4 -10  401.96  191.90   1-0.39573 0.86837-0.13602-0.21766-0.90823 0.44558
   4   4  10  847.28  160.33   1-0.31792-0.15341-0.59552 0.94890 0.73775-0.27574
  -4   4 -10  332.15  102.10   1-0.70147 0.22908-0.50972 0.15586 0.49811-0.96084
   4   4  10  411.42  106.68   1-0.38102-0.08993-0.61577 0.96969 0.68967-0.22716
   4  -4  11   76.93   51.73   1 0.61269-0.14063-0.63439 0.98932 0.47132 0.03811
  -4  -4 -11  249.37  121.13   1-0.41136 0.88400-0.10645-0.24793-0.90523 0.39631
   4   4  11    5.88   80.72   1-0.30917-0.16209-0.60693 0.96102 0.73214-0.22393
  -4   4 -11  529.19  145.59   1-0.76306 0.29063-0.47298 0.11840 0.44047-0.94948
   4   4  11  169.96   77.76   1-0.35434-0.11650-0.61995 0.97459 0.70006-0.19131
   4  -4  12  454.16  133.58   1 0.61293-0.14089-0.63111 0.98675 0.47539 0.08035
  -4  -4 -12  610.91  170.85   1-0.42443 0.89698-0.08091-0.27443-0.90183 0.34655
   4   4  12  616.86  132.38   1-0.30245-0.16898-0.61491 0.97018 0.72828-0.17373
  -4   4 -12  402.28  110.54   1-0.81735 0.34486-0.43291 0.07761 0.38015-0.93543
   4  -4  13  778.57  166.26   1 0.61325-0.14123-0.62623 0.98259 0.48139 0.12067
  -4  -4 -13 1474.81  261.26   1-0.43513 0.90768-0.05944-0.29663-0.89839 0.29684
   4   4  13 1426.96  188.65   1-0.29771-0.17368-0.62092 0.97691 0.72513-0.12438
  -4   4 -13 1076.48  118.99   1-0.86591 0.39227-0.38574 0.02981 0.31841-0.91936
   4  -4  14 3983.58  762.94   1 0.61361-0.14161-0.61994 0.97701 0.48902 0.15935
  -4  -4 -14 6321.60  830.43   1-0.44373 0.91627-0.04177-0.31503-0.89518 0.24735
   4   4  14 4956.82  643.77   1-0.29476-0.17658-0.62461 0.98133 0.72316-0.07619
  -4   4 -14 5176.33  637.20   1-0.90490 0.43109-0.34076-0.01589 0.25498-0.90216
   4  -4  15  961.10  301.43   1 0.61396-0.14198-0.61235 0.97014 0.49805 0.19663
  -4  -4 -15 2033.04  381.11   1-0.45045 0.92298-0.02771-0.32982-0.89237 0.19827
   4   4  15 1349.11  271.55   1-0.29350-0.17780-0.62618 0.98363 0.72231-0.02913
  -4  -5  13  616.36  220.67   1 0.40492 0.18528-0.88986 0.55297-0.21021 0.81233
  -4   5  13  165.85   81.61   1 0.14671-0.73894-0.94094 0.60504 0.30511 0.29642
   4  -5 -13  236.92   91.05   1-0.37644 0.96659 0.54728-0.21070-0.74750 0.14597
   4   5 -13  201.21   72.12   1-0.96216 0.37292-0.24295 0.57963 0.12333-0.72453
  -4  -5  12  343.90  140.50   1 0.38236 0.20781-0.88892 0.55131-0.25219 0.80800
  -4   5  12  117.94   88.73   1 0.15778-0.74997-0.94340 0.60668 0.29169 0.26357
   4  -5 -12  421.11  139.59   1-0.36729 0.95747 0.55048-0.21316-0.74970 0.19444
   4   5 -12   88.19   78.28   1-0.95113 0.36178-0.26724 0.60485 0.15468-0.70941
  -4  -5  11  684.61  237.57   1 0.35839 0.23176-0.88588 0.54754-0.29455 0.80404
  -4   5  11  148.61  120.63   1 0.16792-0.76007-0.94541 0.60787 0.27926 0.22973
  -4  -5  11  212.73  110.51   1 0.59478-0.00310-0.67898 0.34014-0.43036 0.94036
   4  -5 -11  276.91   87.47   1-0.35521 0.94541 0.55459-0.21654-0.75249 0.24349
   4   5 -11  437.66  182.00   1-0.93859 0.34941-0.29054 0.62888 0.18606-0.69455
  -4  -5  10  268.44  181.05   1 0.33395 0.25720-0.87948 0.53932-0.33909 0.80185
  -4   5  10  545.61  157.43   1 0.17705-0.76916-0.94701 0.60865 0.26796 0.19475
  -4  -5  10   51.86   65.07   1 0.61811-0.02645-0.60690 0.26732-0.49960 0.96324
   4  -5 -10  144.76   74.65   1-0.34000 0.93023 0.55961-0.22082-0.75579 0.29307
   4   5 -10  178.39  124.53   1-0.92443 0.33542-0.31342 0.65250 0.21723-0.67950
  -4  -5   9  207.52  140.52   1 0.30699 0.28406-0.87171 0.53088-0.38192 0.79841
  -4   5   9  467.99  159.32   1 0.18505-0.77711-0.94826 0.60907 0.25798 0.15847
   4  -5  -9  318.82  124.58   1-0.32145 0.91172 0.56550-0.22597-0.75952 0.34307
   4   5  -9  217.48  136.49   1-0.90862 0.31978-0.33586 0.67567 0.24818-0.66422
  -4  -5   8 1661.14  213.18   1 0.27849 0.31246-0.86137 0.51987-0.42483 0.79504
   4   5  -8 1080.27  106.40   1-0.64451 0.05420 0.44232-0.10139 0.62366-0.99336
  -4   5   8 2080.97  232.24   1 0.19279-0.78359-0.94922 0.60925 0.24858 0.12162
   4   5  -8 1148.09  161.75   1-0.89118 0.30251-0.35783 0.69837 0.27884-0.64866
  -4  -5   7 7174.97  425.53   1 0.24844 0.34241-0.84828 0.50611-0.46764 0.79157
   4   5  -7 9076.58  428.12   1-0.64782 0.05758 0.35354-0.01195 0.67477-0.99826
  -4   5   7 8434.37  471.31   1 0.19810-0.78887-0.94987 0.60904 0.24186 0.08207
   4   5  -7 8492.74  470.47   1-0.87210 0.28360-0.37926 0.72054 0.30916-0.63275
  -4   5   711870.46  653.91   1 0.27349-0.86402-0.57770 0.23537 0.76906-0.44504
  -4  -5   626096.87  884.57   1 0.21688 0.37388-0.83229 0.48946-0.51014 0.78780
   4   5  -623807.33  910.98   1-0.64516 0.05554 0.26245 0.07977 0.71754-0.99526
  -4   5   625914.11  816.00   1 0.20170-0.79245-0.95027 0.60859 0.23727 0.04038
   4   5  -625233.49  808.68   1-0.85141 0.26308-0.40013 0.74213 0.33908-0.61645
  -4   5   625487.85  842.56   1 0.24355-0.83412-0.58571 0.24266 0.77305-0.49532
  -4  -5   5 1149.96  204.39   1 0.18385 0.40684-0.81336 0.46997-0.55193 0.78332
   4   5  -5 1116.88  148.41   1-0.63566 0.04609 0.17146 0.17144 0.75268-0.98411
  -4   5   5  880.70  125.43   1 0.20327-0.79399-0.95043 0.60790 0.23527-0.00388
   4   5  -5 1291.78  203.36   1-0.82939 0.23987-0.42275 0.76586 0.36521-0.59657
  -4   5   5  858.34  163.96   1 0.20943-0.80004-0.59407 0.25031 0.77666-0.54521
  -4  -5   4   91.72   97.51   1 0.14950 0.44116-0.79122 0.44718-0.59296 0.77807
   4   5  -4   50.53   34.41   1-0.62076 0.03125 0.08243 0.26114 0.77964-0.96479
  -4   5   4  230.67  139.64   1 0.20237-0.79307-0.95034 0.60696 0.23642-0.05131
   4   5  -4  211.19  134.95   1-0.80572 0.21626-0.44223 0.78605 0.39399-0.57908
  -4   5   4  -18.12   97.66   1 0.17098-0.76163-0.60254 0.25807 0.77955-0.59439
  -4  -5   3 1035.32  189.61   1 0.11394 0.47668-0.76592 0.42122-0.63275 0.77158
   4   5  -3 1423.71  187.03   1-0.60136 0.01147-0.00248 0.34689 0.79896-0.93783
  -4   5   3 1510.89  169.44   1 0.19839-0.78905-0.94990 0.60567 0.24149-0.10266
   4   5  -3 1229.77  174.44   1-0.78061 0.19120-0.46094 0.80548 0.42210-0.56092
  -4   5   3 1184.61  198.25   1 0.12811-0.71880-0.61082 0.26563 0.78133-0.64246
  -4  -5   2  302.10  157.04   1 0.07741 0.51317-0.73747 0.39211-0.67092 0.76347
   4   5  -2  122.32   68.32   1-0.57885-0.01098-0.08277 0.42782 0.81121-0.90379
  -4   5   2   42.80   56.66   1 0.19044-0.78108-0.94892 0.60384 0.25155-0.15900
   4   5  -2  383.16  146.12   1-0.75414 0.16479-0.47880 0.82406 0.44944-0.54199
  -4   5   2  453.23  167.30   1 0.08079-0.67152-0.61855 0.27264 0.78157-0.68899
  -4  -5   1 9629.71  648.34   1 0.04020 0.55035-0.70601 0.35999-0.70705 0.75333
   4   5  -1 9523.57  656.83   1-0.55419-0.03558-0.15700 0.50269 0.81744-0.86373
  -4   5   1 9631.80  606.30   1 0.17562-0.76735-0.94678 0.60101 0.26974-0.22347
   4   5  -1 9566.29  629.37   1-0.72645 0.13715-0.49576 0.84174 0.47589-0.52217
  -4   5   1 9458.48  639.16   1 0.02912-0.61989-0.62534 0.27871 0.77980-0.73351
   4  -5   0 2782.14  280.70   1 0.57209 0.01818-0.29671 0.64420 0.76463-0.76463
  -4  -5   0 3166.41  309.81   1 0.00293 0.58781-0.67168 0.32501-0.74083 0.74083
   4   5   0 3122.60  237.90   1-0.52770-0.06194-0.22325 0.56962 0.81956-0.81956
  -4   5   0 4025.95  280.04   1 0.15488-0.74658-0.94279 0.59620 0.29522-0.29522
   4   5   0 3382.96  289.88   1-0.69770 0.10845-0.51173 0.85842 0.50133-0.50133
  -4   5   0 3093.16  308.39   1-0.02636-0.56395-0.63032 0.28276 0.77588-0.77588
   4  -5   1 1253.66  167.37   1 0.60058-0.00928-0.43099 0.77881 0.67345-0.62718
  -4  -5  -1 1829.73  219.23   1-0.03455 0.62529-0.63503 0.28766-0.77171 0.72543
   4   5   1 1563.98  147.37   1-0.50180-0.08779-0.28392 0.63095 0.81705-0.77083
  -4   5  -1 1220.15  114.24   1 0.12320-0.71486-0.93479 0.58738 0.33313-0.37940
   4   5   1 1765.31  206.08   1-0.66850 0.07922-0.52647 0.87421 0.52528-0.47903
  -4   5  -1 1512.19  204.56   1-0.08609-0.50435-0.63392 0.28569 0.76858-0.81486
   4  -5   2  495.13   83.49   1 0.61065-0.01931-0.50899 0.85750 0.60664-0.51411
  -4  -5  -2  741.06  150.75   1-0.07153 0.66225-0.59644 0.24837-0.79946 0.70690
   4   5   2  255.80   70.74   1-0.47647-0.11306-0.33777 0.68545 0.81171-0.71928
  -4   5  -2  625.02   71.27   1 0.07372-0.66534-0.91786 0.56962 0.38999-0.48254
   4   5   2  785.18  139.89   1-0.63832 0.04915-0.54027 0.88871 0.54830-0.45581
  -4   5  -2  751.57  137.75   1-0.14909-0.44148-0.63520 0.28631 0.75781-0.85036
   4  -5   3  152.96   52.03   1 0.61408-0.02370-0.55865 0.90787 0.55749-0.41856
  -4  -5  -3  269.17  141.99   1-0.10755 0.69826-0.55649 0.20772-0.82386 0.68503
   4   5   3  187.08   89.58   1-0.45230-0.13719-0.38506 0.73339 0.80445-0.66580
  -4   5  -3   73.88   32.67   1-0.00815-0.58306-0.87861 0.52951 0.47746-0.61615
   4   5   3  257.24  145.47   1-0.60782 0.01876-0.55290 0.90205 0.56994-0.43120
  -4   5  -3  284.51  128.40   1-0.21471-0.37599-0.63375 0.28419 0.74313-0.88196
   4  -5   4  223.32   87.21   1 0.61448-0.02412-0.59121 0.94115 0.52236-0.33711
  -4  -5  -4  252.73  117.77   1-0.14177 0.73249-0.51549 0.16582-0.84508 0.66026
   4   5   4  126.35   86.85   1-0.42949-0.16020-0.42551 0.77467 0.79653-0.61173
   4   5   4  219.04   93.45   1-0.57732-0.01162-0.56434 0.91419 0.59009-0.40510
  -4   5  -4  307.19  157.33   1-0.28218-0.30740-0.62852 0.27887 0.72479-0.90979
   4  -5   5  671.63  100.56   1 0.61393-0.02359-0.61316 0.96380 0.49711-0.26554
  -4  -5  -5  653.89  166.90   1-0.17450 0.76528-0.47492 0.12451-0.86255 0.63153
   4   5   5  787.15  132.94   1-0.40878-0.18086-0.46094 0.81080 0.78766-0.55666
   4   5   5  597.95  117.02   1-0.54720-0.04163-0.57454 0.92510 0.60865-0.37741
  -4   5  -5  649.66  154.14   1-0.35069-0.23900-0.62048 0.27012 0.70143-0.93269
   4  -5   6 1103.70  199.07   1 0.61315-0.02283-0.62785 0.97921 0.47942-0.20154
  -4  -5  -6 1048.69  155.22   1-0.20512 0.79595-0.43503 0.08390-0.87673 0.59951
   4   5   6  373.04   86.88   1-0.39010-0.19948-0.49122 0.84179 0.77878-0.50158
  -4   5  -6  859.21  146.48   1-0.41921-0.17059-0.60876 0.25769 0.67354-0.95104
   4   5   6 1309.43  173.82   1-0.51787-0.07085-0.58352 0.93479 0.62554-0.34805
   4  -5   7 6974.90  671.86   1 0.61246-0.02216-0.63733 0.98940 0.46765-0.14346
  -4  -5  -7 7849.51  425.05   1-0.23337 0.82425-0.39649 0.04462-0.88787 0.56445
   4   5   7 8052.70  420.97   1-0.37354-0.21598-0.51686 0.86813 0.77027-0.44686
   4   5   7 9012.61  467.97   1-0.48976-0.09884-0.59130 0.94327 0.64069-0.31695
  -4   5  -7 8822.49  481.88   1-0.48787-0.10225-0.59179 0.23982 0.64167-0.96541
   4  -5   8  716.71  136.77   1 0.61198-0.02170-0.64290 0.99569 0.46058-0.09008
  -4  -5  -8  475.72  175.57   1-0.25910 0.85003-0.35985 0.00725-0.89630 0.52668
   4   5   8  765.07  129.23   1-0.35910-0.23036-0.53833 0.89030 0.76239-0.39278
  -4   5  -8  861.37  138.63   1-0.55352-0.03670-0.57248 0.21981 0.60486-0.97485
   4   5   8  436.69  141.56   1-0.46482-0.12427-0.59876 0.95126 0.65224-0.28224
   4  -5   9 1639.93  313.85   1 0.61174-0.02149-0.64544 0.99894 0.45734-0.04052
  -4  -5  -9 1945.33  285.64   1-0.28269 0.87348-0.32509-0.02788-0.90243 0.48605
   4   5   9 2053.57  277.20   1-0.34676-0.24264-0.55607 0.90875 0.75533-0.33952
  -4   5  -9 2657.22  370.26   1-0.61642 0.02607-0.54947 0.19609 0.56400-0.98023
   4   5   9 2144.34  279.26   1-0.44076-0.14821-0.60427 0.95748 0.66376-0.24750
   4  -5  10  942.69  201.92   1 0.61174-0.02150-0.64553 0.99975 0.45722 0.00590
  -4  -5 -10 1084.09  230.51   1-0.30325 0.89403-0.29349-0.06019-0.90658 0.44393
   4   5  10  604.30  113.09   1-0.33646-0.25289-0.57048 0.92387 0.74922-0.28721
  -4   5 -10 1050.17  167.21   1-0.67580 0.08534-0.52292 0.16883 0.51946-0.98194
   4   5  10 1103.23  151.39   1-0.41932-0.16955-0.60874 0.96267 0.67349-0.21098
   4  -5  11  190.29   88.38   1 0.61192-0.02170-0.64359 0.99852 0.45970 0.04973
  -4  -5 -11  112.66  104.25   1-0.32123 0.91201-0.26491-0.08947-0.90918 0.40026
  -4   5 -11   85.04   84.45   1-0.73143 0.14110-0.49283 0.13825 0.47128-0.98029
   4  -5  12  107.08  103.24   1 0.61224-0.02205-0.63993 0.99557 0.46437 0.09137
  -4  -5 -12  192.10  117.56   1-0.33675 0.92753-0.23953-0.11556-0.91061 0.35543
   4   5  12  164.59   82.17   1-0.32158-0.26765-0.59065 0.94545 0.74006-0.18566
  -4   5 -12  150.88   84.81   1-0.78201 0.19163-0.45994 0.10464 0.42059-0.97587
   4  -5  13  161.66   95.68   1 0.61266-0.02249-0.63474 0.99110 0.47088 0.13117
  -4  -5 -13  -48.12   95.47   1-0.34992 0.94069-0.21741-0.13838-0.91119 0.30974
   4   5  13  234.51   96.27   1-0.31682-0.27236-0.59696 0.95246 0.73705-0.13645
  -4   5 -13  190.99   67.17   1-0.82756 0.23712-0.42433 0.06831 0.36752-0.96907
  -4  -6  10  343.89  158.03   1 0.35695 0.35122-0.88564 0.54656-0.29702 0.76020
  -4   6  10  384.80  129.95   1 0.09374-0.80395-0.92535 0.58698 0.36733 0.09538
   4   6 -10  419.46  182.90   1-0.90889 0.20224-0.33550 0.67458 0.24768-0.70995
  -4   6  10  669.13  239.12   1 0.20598-0.91459-0.59488 0.25469 0.77697-0.31408
  -4  -6   9  558.34  179.04   1 0.33456 0.37456-0.87963 0.53880-0.33809 0.75457
  -4   6   9  459.14  143.47   1 0.09735-0.80752-0.92661 0.58742 0.36319 0.05325
   4   6  -9  642.78  224.31   1-0.89219 0.18572-0.35661 0.69642 0.27713-0.69318
  -4   6   9  687.11  216.66   1 0.18709-0.89574-0.59912 0.25822 0.77849-0.36189
  -4  -6   8  542.67  208.78   1 0.31003 0.39899-0.87269 0.53119-0.37720 0.74741
  -4   6   8  512.49  143.03   1 0.09922-0.80935-0.92725 0.58724 0.36104 0.00913
   4   6  -8  598.94  219.05   1-0.87413 0.16783-0.37709 0.71763 0.30607-0.67589
  -4   6   8  660.81  219.57   1 0.16511-0.87380-0.60375 0.26213 0.77988-0.40957
  -4  -6   7  430.28  136.76   1 0.28436 0.42456-0.86367 0.52150-0.41618 0.74011
   4   6  -7  364.44   88.28   1-0.64782-0.06038 0.35386-0.01227 0.67460-0.99809
  -4   6   7  288.20  109.31   1 0.09909-0.80918-0.92720 0.58637 0.36120-0.03729
   4   6  -7  623.84  168.43   1-0.85476 0.14862-0.39690 0.73818 0.33443-0.65802
  -4   6   7  567.13  184.31   1 0.13994-0.84867-0.60866 0.26632 0.78099-0.45696
  -4  -6   6 3290.48  330.94   1 0.25757 0.45125-0.85248 0.50965-0.45488 0.73254
   4   6  -6 2265.86  436.12   1-0.64522-0.06231 0.26323 0.07898 0.71721-0.99492
  -4   6   6 3209.60  303.98   1 0.09658-0.80663-0.92634 0.58469 0.36407-0.08644
   4   6  -6 3908.76  386.64   1-0.83437 0.12690-0.41839 0.76078 0.35882-0.63646
  -4   6   6 1785.50  236.46   1 0.11149-0.82026-0.61370 0.27065 0.78162-0.50389
  -4  -6   5  -13.53   88.67   1 0.22971 0.47901-0.83906 0.49555-0.49316 0.72454
   4   6  -5   87.80   54.15   1-0.63605-0.07142 0.17438 0.16851 0.75167-0.98310
  -4   6   5  258.91  101.39   1 0.09125-0.80125-0.92446 0.58199 0.37018-0.13881
   4   6  -5  261.01  127.80   1-0.81271 0.10529-0.43668 0.77979 0.38574-0.61711
  -4   6   5  410.89  135.79   1 0.07971-0.78852-0.61871 0.27495 0.78156-0.55011
  -4  -6   4  163.55  100.43   1 0.20084 0.50779-0.82334 0.47917-0.53081 0.71591
   4   6  -4  328.55  124.41   1-0.62196-0.08545 0.08858 0.25499 0.77801-0.96315
  -4   6   4  144.18   70.33   1 0.08245-0.79242-0.92123 0.57793 0.38016-0.19507
   4   6  -4  424.39  211.92   1-0.78999 0.08262-0.45417 0.79799 0.41187-0.59696
  -4   6   4  348.74  156.89   1 0.04457-0.75342-0.62349 0.27901 0.78055-0.59540
  -4  -6   3  229.00  112.92   1 0.17119 0.53756-0.80547 0.46077-0.56736 0.70619
   4   6  -3  203.78   59.01   1-0.60392-0.10394 0.00774 0.33667 0.79700-0.93586
  -4   6   3  145.39   72.29   1 0.06934-0.77926-0.91610 0.57198 0.39489-0.25608
   4   6  -3  327.08  161.01   1-0.76632 0.05901-0.47080 0.81534 0.43713-0.57595
  -4   6   3   45.32   81.04   1 0.00687-0.71494-0.62733 0.28176 0.77872-0.63989
  -4  -6   2  272.11  153.73   1 0.14069 0.56803-0.78518 0.43982-0.60307 0.69562
   4   6  -2   34.15   35.89   1-0.58323-0.12459-0.06830 0.41335 0.80942-0.90200
  -4   6   2  302.74   89.51   1 0.05068-0.76056-0.90817 0.56322 0.41552-0.32297
   4   6  -2   77.42   99.24   1-0.74185 0.03459-0.48654 0.83180 0.46144-0.55399
  -4   6   2  328.35  113.19   1-0.03501-0.67318-0.63098 0.28475 0.77500-0.68245
  -4  -6   1  202.33  141.69   1 0.10958 0.59909-0.76265 0.41663-0.63745 0.68373
   4   6  -1  144.29   98.18   1-0.56076-0.14700-0.13831 0.48400 0.81634-0.86263
  -4   6   1  262.47   78.44   1 0.02465-0.73450-0.89587 0.55010 0.44362-0.39735
   4   6  -1  178.45  147.84   1-0.71672 0.00952-0.50134 0.84732 0.48472-0.53099
  -4   6   1  419.66  146.94   1-0.08001-0.62830-0.63366 0.28676 0.76946-0.72318
  -4  -6   0  598.12  141.46   1 0.07808 0.63056-0.73801 0.39134-0.67025 0.67025
  -4   6   0  488.64  117.91   1-0.01087-0.69861-0.87705 0.53036 0.48026-0.48026
   4   6   0  599.21  161.07   1-0.69113-0.01601-0.51516 0.86186 0.50688-0.50688
  -4   6   0  457.81  175.07   1-0.12792-0.58052-0.63506 0.28750 0.76179-0.76179
  -4  -6  -1 1100.58  191.80   1 0.04642 0.66218-0.71144 0.36411-0.70120 0.65492
   4   6   1 1016.99  113.95   1-0.51332-0.19424-0.25771 0.60474 0.81858-0.77236
   4   6   1 1412.12  200.81   1-0.66565-0.04150-0.52783 0.87557 0.52753-0.48129
  -4   6  -1  736.45  132.28   1-0.17843-0.53014-0.63491 0.28669 0.75169-0.79796
  -4  -6  -2 1264.04  236.51   1 0.01514 0.69367-0.68308 0.33502-0.73018 0.63762
   4   6   2 1121.45  177.19   1-0.49044-0.21707-0.30867 0.65635 0.81497-0.72254
   4   6   2 1273.40  222.68   1-0.63978-0.06725-0.53963 0.88808 0.54723-0.45473
  -4   6  -2  672.06  172.41   1-0.23118-0.47752-0.63292 0.28403 0.73888-0.83144
  -4  -6  -3 1467.42  264.25   1-0.01596 0.72477-0.65351 0.30475-0.75674 0.61791
   4   6   3  720.91  125.43   1-0.46855-0.23891-0.35366 0.70200 0.80955-0.67090
   4   6   3 1298.93  248.85   1-0.61413-0.09279-0.55039 0.89954 0.56559-0.42685
  -4   6  -3 1172.75  202.89   1-0.28544-0.42194-0.62821 0.27928 0.72378-0.86253
   4  -6   4  489.87  119.96   1 0.61451 0.09399-0.58383 0.93376 0.53057-0.34532
  -4  -6  -4  715.80  175.78   1-0.04635 0.75515-0.62298 0.27352-0.78086 0.59575
   4   6   4  628.16  126.05   1-0.44802-0.25939-0.39306 0.74205 0.80297-0.61811
   4   6   4  890.42  190.61   1-0.58896-0.11785-0.56011 0.90996 0.58257-0.39758
  -4   6  -4  681.09  182.39   1-0.34136-0.36613-0.62178 0.27214 0.70487-0.88987
   4  -6   5  115.13   66.23   1 0.61417 0.09432-0.60669 0.95734 0.50469-0.27313
  -4  -6  -5  207.82  155.17   1-0.07572 0.78450-0.59192 0.24176-0.80243 0.57105
   4   6   5   47.88   64.75   1-0.42893-0.27873-0.42649 0.77635 0.79631-0.56530
   4   6   5  434.25  162.01   1-0.56457-0.14213-0.56878 0.91934 0.59811-0.36687
  -4   6  -5  499.29  117.29   1-0.39801-0.30959-0.61280 0.26244 0.68268-0.91393
   4  -6   6 1712.31  309.76   1 0.61350 0.09496-0.62200 0.97336 0.48654-0.20866
  -4  -6  -6 2289.28  264.91   1-0.10378 0.81255-0.56079 0.20993-0.82142 0.54377
   4   6   6 2022.15  220.99   1-0.41175-0.29585-0.45598 0.80655 0.78900-0.51180
   4   6   6 3230.91  328.84   1-0.54125-0.16534-0.57644 0.92771 0.61217-0.33468
  -4   6  -6 2802.63  295.49   1-0.45481-0.25290-0.60111 0.25004 0.65711-0.93462
   4  -6   7 2082.84  363.14   1 0.61287 0.09557-0.63195 0.98402 0.47436-0.15017
  -4  -6  -7 3170.52  343.79   1-0.12977 0.83870-0.52984 0.17798-0.83810 0.51468
   4   6   7 2819.56  276.93   1-0.39640-0.31115-0.48118 0.83245 0.78187-0.45846
   4   6   7 3405.45  337.26   1-0.51931-0.18716-0.58310 0.93507 0.62473-0.30099
  -4   6  -7 3317.02  348.36   1-0.51208-0.19591-0.58519 0.23322 0.62874-0.95248
   4  -6   8  236.02   91.63   1 0.61241 0.09601-0.63791 0.99069 0.46692-0.09642
  -4  -6  -8  822.13  193.04   1-0.15442 0.86340-0.50006 0.14746-0.85210 0.48248
   4   6   8  210.01  116.72   1-0.38289-0.32460-0.50251 0.85449 0.77515-0.40555
  -4   6  -8  652.18  162.93   1-0.56733-0.14077-0.56783 0.21516 0.59639-0.96637
   4   6   8  644.47  153.03   1-0.49909-0.20727-0.58880 0.94148 0.63577-0.26578
   4  -6   9  418.59  130.44   1 0.61217 0.09623-0.64077 0.99427 0.46330-0.04649
  -4  -6  -9  745.70  181.43   1-0.17713 0.88616-0.47157 0.11824-0.86385 0.44802
   4   6   9  742.66  149.00   1-0.37123-0.33621-0.52035 0.87303 0.76903-0.35323
  -4   6  -9  463.61  154.33   1-0.62094-0.08727-0.54762 0.19424 0.56082-0.97706
   4   6   9  632.57  142.16   1-0.48236-0.22452-0.59440 0.94761 0.64343-0.22717
   4  -6  10  246.36  110.68   1 0.61214 0.09624-0.64114 0.99535 0.46283 0.00029
  -4  -6 -10  514.97  173.92   1-0.19780 0.90688-0.44475 0.09070-0.87353 0.41150
   4   6  10  453.95  115.19   1-0.36136-0.34602-0.53502 0.88841 0.76365-0.30164
  -4   6 -10  538.91  134.07   1-0.67237-0.03596-0.52460 0.17051 0.52221-0.98469
  -4  -7   4  119.25   91.26   1 0.25431 0.57239-0.85100 0.50683-0.45947 0.64458
  -4   7   4  111.09   53.02   1-0.03515-0.79264-0.86249 0.51900 0.50484-0.31992
   4   7  -4  558.03  212.59   1-0.78781-0.03745-0.45576 0.79959 0.41428-0.59937
  -4   7   4  548.40  178.15   1-0.06867-0.75739-0.63311 0.28820 0.77100-0.58590
  -4  -7   3  358.92  122.06   1 0.22969 0.59691-0.83904 0.49421-0.49319 0.63202
   4   7  -3  169.42   67.39   1-0.61190-0.21395 0.04155 0.30285 0.78984-0.92870
   4   7  -3  244.92  115.76   1-0.76631-0.05889-0.47080 0.81535 0.43714-0.57596
  -4   7   3  264.89  169.95   1-0.10292-0.72327-0.63451 0.28895 0.76602-0.62719
  -4  -7   2  138.89  125.84   1 0.20451 0.62199-0.82543 0.47993-0.52614 0.61869
   4   7  -2   97.62   50.49   1-0.59363-0.23217-0.03184 0.37689 0.80410-0.89668
   4   7  -2  567.20  204.51   1-0.74439-0.08076-0.48496 0.83022 0.45899-0.55154
  -4   7   2  797.43  180.06   1-0.13965-0.68666-0.63518 0.28895 0.75963-0.66707
  -4  -7   1 2627.22  366.86   1 0.17914 0.64766-0.81046 0.46445-0.55771 0.60399
   4   7  -1 1461.32  355.85   1-0.57368-0.25206-0.09931 0.44500 0.81303-0.85932
   4   7  -1 3511.29  496.03   1-0.72220-0.10290-0.49822 0.84420 0.47978-0.52605
  -4   7   1 2919.27  409.17   1-0.17874-0.64771-0.63490 0.28801 0.75162-0.70534
  -4  -7   0 1029.89  220.99   1 0.15324 0.67353-0.79375 0.44708-0.58862 0.58862
   4   7   0  658.34  140.26   1-0.55287-0.27281-0.16069 0.50701 0.81762-0.81762
   4   7   0  933.64  251.08   1-0.69991-0.12514-0.51056 0.85725 0.49945-0.49945
  -4   7   0  430.43  152.66   1-0.21998-0.60659-0.63350 0.28594 0.74180-0.74180
  -4  -7  -1 4282.85  573.73   1 0.12716 0.69956-0.77560 0.42828-0.61827 0.57199
   4   7   1 3215.15  413.27   1-0.53125-0.29429-0.21441 0.56144 0.81963-0.77341
   4   7   1 4154.13  559.93   1-0.67802-0.14700-0.52182 0.86956 0.51766-0.47142
  -4   7  -1 4202.43  559.67   1-0.26255-0.56252-0.63018 0.28268 0.73070-0.77695
  -4  -7  -2  732.66  183.12   1 0.10108 0.72561-0.75618 0.40819-0.64650 0.55395
   4   7   2  433.16  116.52   1-0.51066-0.31483-0.26388 0.61156 0.81828-0.72585
   4   7   2  782.45  246.33   1-0.65610-0.16881-0.53230 0.88075 0.53495-0.44245
  -4   7  -2  567.33  163.42   1-0.30744-0.51775-0.62596 0.27774 0.71668-0.80919
  -4  -7  -3  448.12  183.83   1 0.07519 0.75146-0.73566 0.38701-0.67316 0.53433
   4   7   3  307.02  101.41   1-0.49085-0.33459-0.30779 0.65613 0.81505-0.67641
   4   7   3  444.67  196.04   1-0.63466-0.19014-0.54185 0.89100 0.55099-0.41224
  -4   7  -3  489.55  141.13   1-0.35366-0.47163-0.62005 0.27112 0.70032-0.83907
  -4  -7  -4  182.33   98.54   1 0.04968 0.77693-0.71426 0.36496-0.69811 0.51300
   4   7   4   87.27   66.81   1-0.47214-0.35324-0.34651 0.69550 0.81055-0.62569
   4   7   4  494.82  184.34   1-0.61392-0.21076-0.55048 0.90033 0.56574-0.38075
  -4   7  -4  495.32  136.07   1-0.40087-0.42454-0.61228 0.26263 0.68147-0.86647
  -5   0  17  311.03  102.05   1 0.51970-0.51970-0.85287 0.43201 0.05011 0.73707
  -5   0  17  686.53  257.15   1 0.36480-0.36491-0.93103 0.51062 0.00903 0.77852
   5   0 -17  387.40  118.40   1-0.89475 0.89463 0.19020 0.23035-0.40403-0.38283
  -5   0  16  266.05  101.90   1 0.49981-0.49982-0.86612 0.44454-0.00245 0.74334
  -5   0  16  399.80  262.38   1 0.39131-0.39143-0.91969 0.49851-0.03225 0.77347
   5   0 -16  238.81   86.35   1-0.90394 0.90384 0.17695 0.24432-0.38932-0.35125
  -5   0  15  708.17  149.94   1 0.47721-0.47723-0.87690 0.45459-0.05747 0.75205
  -5   0  15  228.34  154.12   1 0.41735-0.41748-0.90570 0.48375-0.07431 0.76921
   5   0 -15  112.79   73.68   1-0.91218 0.91209 0.16443 0.25756-0.37533-0.31895
  -5   0  14  346.46  121.08   1 0.45199-0.45207-0.88462 0.46187-0.11464 0.76308
  -5   0  14  143.33  155.48   1 0.44288-0.44302-0.88888 0.46616-0.11720 0.76577
   5   0 -14  226.98  109.47   1-0.91952 0.91944 0.15271 0.27001-0.36216-0.28584
  -5   0  13  271.84  116.33   1 0.42280-0.42291-0.88910 0.46562-0.17526 0.77739
  -5   0  13  214.55  152.24   1 0.46785-0.46800-0.86902 0.44554-0.16094 0.76319
  -5   0  12  118.52  114.35   1 0.38959-0.38972-0.88944 0.46523-0.23897 0.79478
  -5   0  12  729.78  219.42   1 0.49197-0.49206-0.84592 0.42123-0.20581 0.76186
   5   0 -12   59.10   80.65   1-0.93155 0.93151 0.13204 0.29212-0.33877-0.21666
  -5   0  11 1052.63  181.54   1 0.35179-0.35194-0.88470 0.45976-0.30583 0.81532
  -5   0  11  887.66  200.52   1 0.51550-0.51560-0.81921 0.39379-0.25126 0.76097
   5   0 -11 1122.21  184.97   1-0.93628 0.93625 0.12335 0.30153-0.32887-0.18027
  -5   0  10 1941.71  195.28   1 0.30999-0.30921-0.87268 0.44581-0.37725 0.84002
  -5   0  10 2509.29  271.56   1 0.53809-0.53820-0.78863 0.36248-0.29751 0.76088
   5   0 -10 1989.31  188.03   1-0.94014 0.94012 0.11598 0.30963-0.32043-0.14242
  -5   0   9 1778.81  198.17   1 0.26133-0.26065-0.85415 0.42662-0.44957 0.86605
  -5   0   9 1896.98  243.71   1 0.55953-0.55965-0.75383 0.32695-0.34447 0.76150
   5   0  -9 1887.57  196.06   1-0.94310 0.94310 0.11013 0.31620-0.31373-0.10284
  -5   0   8 1690.30  173.04   1 0.20648-0.20589-0.82655 0.39834-0.52361 0.89382
  -5   0   8 2229.52  262.86   1 0.57999-0.57953-0.71404 0.28624-0.39211 0.76302
   5   0  -8 1787.70  151.14   1-0.94509 0.94511 0.10609 0.32096-0.30909-0.06119
  -5   0   7  222.44  104.43   1 0.14532-0.14522-0.78837 0.35963-0.59778 0.92172
  -5   0   7  373.10  186.12   1 0.59827-0.59783-0.66972 0.24118-0.43992 0.76447
   5   0  -7    7.24   72.47   1-0.94601 0.94604 0.10420 0.32358-0.30691-0.01709
  -5   0   6  149.28  153.80   1 0.07798-0.07792-0.73793 0.30853-0.67035 0.94801
  -5   0   6  183.71  121.53   1 0.61443-0.61401-0.62019 0.19091-0.48767 0.76585
   5   0  -6   19.03   66.92   1-0.94567 0.94571 0.10490 0.32360-0.30772 0.03000
  -5   0   5   99.08  107.06   1 0.00597-0.00560-0.67455 0.24470-0.73820 0.96958
  -5   0   5  -13.26  107.41   1 0.62802-0.62761-0.56524 0.13523-0.53487 0.76669
   5   0  -5  167.20   83.94   1-0.94376 0.94382 0.10880 0.32043-0.31220 0.08077
  -5   0   4   81.25  106.83   1-0.06981 0.07017-0.59829 0.16775-0.79822 0.98332
   5   0  -4  214.42   91.63   1-0.63776 0.63756 0.50458-0.07441 0.58194-0.76679
   5   0  -4   98.34   53.41   1-0.93978 0.93985 0.11667 0.31328-0.32122 0.13608
  -5   0   3  546.69  119.01   1-0.14601 0.14618-0.51034 0.07910-0.84748 0.98609
   5   0  -3  730.29   94.27   1-0.64477 0.64463 0.43890-0.00806 0.62580-0.76444
   5   0  -3  550.99   90.13   1-0.93291 0.93300 0.12958 0.30109-0.33597 0.19711
  -5   0   2  602.57  120.90   1-0.22008 0.22030-0.41484-0.01713-0.88287 0.97528
   5   0  -2  823.01   94.08   1-0.64774 0.64768 0.36838 0.06311 0.66686-0.75929
   5   0  -2  635.48   92.91   1-0.92174 0.92184 0.14902 0.28237-0.35800 0.26543
  -5   0   2  849.04   72.36   1-0.97514 0.97454-0.20772-0.22365 0.07704 0.01544
  -5   0   1 1213.13  162.04   1-0.28896 0.28915-0.31556-0.11705-0.90383 0.95009
   5   0  -1 2236.84  257.02   1-0.64706 0.64735 0.29433 0.13785 0.70333-0.74962
   5   0  -1 2474.95  128.12   1-0.90386 0.90398 0.17706 0.25505-0.38945 0.34316
  -5   0   1 1907.80  100.45   1-0.97490 0.97415-0.20849-0.22363 0.07804-0.03179
  -5   0   0  547.65  114.71   1-0.35028 0.35046-0.21680-0.21651-0.91120 0.91120
   5   0   0  726.92   94.61   1-0.64115 0.64150 0.21694 0.21591 0.73610-0.73610
   5   0   0  838.84   96.21   1-0.87488 0.87501 0.21668 0.21616-0.43315 0.43315
  -5   0   0  568.89   56.41   1-0.97296 0.97207-0.21441-0.21845 0.08577-0.08577
  -5   0  -1  398.21  135.77   1-0.40270 0.40288-0.12295-0.31106-0.90703 0.86076
   5   0   1  163.63   68.77   1-0.63074 0.63114 0.13830 0.29523 0.76356-0.71728
   5   0   1  164.72   46.43   1-0.82765 0.82769 0.27168 0.16168-0.49110 0.53737
  -5   0  -1  119.66   59.34   1-0.96814 0.96709-0.22797-0.20562 0.10356-0.14981
  -5   0  -2   50.71   94.07   1-0.44607 0.44616-0.03690-0.39778-0.89423 0.80168
   5   0   2   89.56   60.84   1-0.61591 0.61625 0.05994 0.37423 0.78552-0.69294
   5   0   2  153.72   39.49   1-0.74352 0.74356 0.34864 0.08543-0.57062 0.66317
  -5   0  -2   81.37   44.70   1-0.95805 0.95660-0.25267-0.18179 0.13524-0.22770
  -5   0  -3  110.57   93.43   1-0.48085 0.48094 0.03932-0.47474-0.87591 0.73709
   5   0   3   16.21   34.46   1-0.59792 0.59831-0.01581 0.45063 0.80139-0.66252
   5   0   3  145.01   35.85   1-0.58586 0.58588 0.45384-0.01906-0.67141 0.81016
  -5   0  -3  222.86   50.97   1-0.93337 0.93176-0.29934-0.13586 0.19800-0.33669
  -5   0  -4   63.79   92.89   1-0.50819 0.50827 0.10530-0.54145-0.85478 0.66968
   5   0   4   -3.00   45.74   1-0.57740 0.57785-0.08747 0.52293 0.81175-0.62660
   5   0   5  769.26  114.51   1 0.52891-0.52985-0.15968 0.59762 0.83351-0.60174
   5   0   5  909.06  113.92   1-0.55539 0.55589-0.15364 0.58973 0.81726-0.58582
   5   0   6 1234.38  126.30   1 0.54504-0.54598-0.20654 0.64519 0.81256-0.53443
   5   0   6 1265.52  104.84   1-0.53179 0.53239-0.21304 0.64993 0.81963-0.54234
   5   0   7  496.94  112.65   1 0.55730-0.55823-0.24518 0.68454 0.79328-0.46879
   5   0   7  623.36  102.38   1-0.50982 0.51047-0.26580 0.70335 0.81818-0.49467
   5   0   8  107.54  109.28   1 0.56654-0.56746-0.27662 0.71669 0.77621-0.40537
   5   0   8  130.62   64.81   1-0.48910 0.48981-0.31152 0.74972 0.81469-0.44497
   5   0   9  296.58  110.57   1 0.57346-0.57437-0.30182 0.74261 0.76160-0.34440
   5   0   9  245.32   67.70   1-0.47021 0.47097-0.35037 0.78922 0.81002-0.39408
   5   0  10  142.42   80.07   1 0.57860-0.57950-0.32165 0.76315 0.74950-0.28595
   5   0  10  160.52   81.04   1-0.45352 0.45433-0.38276 0.82227 0.80486-0.34271
   5   0  11   24.09   69.16   1 0.58234-0.58323-0.33685 0.77907 0.73986-0.22996
   5   0  11  207.26   84.71   1-0.43897 0.43986-0.40858 0.84926 0.80022-0.29201
   5   0  12   10.78   82.17   1 0.58433-0.58471-0.34938 0.79164 0.73245-0.17723
   5   0  12  247.21   99.57   1-0.42719 0.42814-0.42954 0.87092 0.79560-0.24120
   5   0  13  328.24  106.17   1 0.58611-0.58645-0.35720 0.80016 0.72723-0.12574
   5   0  13  147.12   71.78   1-0.41789 0.41889-0.44561 0.88769 0.79170-0.19109
   5   0  14  228.31  105.73   1 0.58718-0.58747-0.36199 0.80564 0.72399-0.07623
   5   0  14  178.02   79.52   1-0.41099 0.41205-0.45725 0.90004 0.78866-0.14186
   5   0  15   93.43   48.95   1 0.58765-0.58788-0.36409 0.80844 0.72256-0.02853
   5   0  15  171.27   79.47   1-0.40640 0.40751-0.46489 0.90839 0.78658-0.09357
   5   0  16  137.80   54.21   1 0.58758-0.58776-0.36379 0.80883 0.72277 0.01752
   5   0  16  252.43   96.59   1-0.40398 0.40515-0.46887 0.91307 0.78546-0.04625
   5   0  17  283.51  103.79   1 0.58704-0.58717-0.36133 0.80707 0.72444 0.06211
   5   0  17   86.51   70.01   1-0.40361 0.40484-0.46947 0.91438 0.78529 0.00011
  -5   1  17 5128.03  624.36   1 0.55575-0.67400-0.81522 0.39423 0.16294 0.62473
  -5  -1  17 5431.22  672.63   1 0.49108-0.37301-0.87077 0.44990-0.02425 0.81144
  -5  -1  17 7908.96 1007.00   1 0.39279-0.27476-0.91897 0.49856-0.03460 0.82215
  -5   1  17 7796.98  991.66   1 0.33003-0.44872-0.94193 0.52291 0.06200 0.72470
   5  -1 -17 5038.71  912.24   1-0.82623 0.94436 0.27316 0.14739-0.49266-0.29401
   5   1 -17 5316.53  660.30   1-0.94295 0.82479 0.11042 0.31012-0.31407-0.47279
  -5   1  16 1349.20  153.52   1 0.54081-0.65889-0.83370 0.41211 0.11159 0.62929
  -5  -1  16 1580.23  221.49   1 0.46936-0.35131-0.87976 0.45817-0.07560 0.81649
  -5  -1  16 1713.30  302.27   1 0.42122-0.30320-0.90335 0.48217-0.08070 0.82193
   5  -1 -16 1359.41  257.25   1-0.83515 0.95328 0.26373 0.15753-0.48266-0.25774
   5   1 -16 1332.31  148.48   1-0.95102 0.83288 0.09353 0.32774-0.29460-0.44597
  -5   1  15  331.73   99.02   1 0.52223-0.64032-0.85088 0.42857 0.05715 0.63741
  -5  -1  15  163.93  106.63   1 0.44563-0.32764-0.88597 0.46396-0.12827 0.82303
  -5   1  15  277.09  184.89   1 0.37841-0.49668-0.92555 0.50360-0.01198 0.70688
  -5  -1  15  720.23  266.54   1 0.44896-0.33095-0.88438 0.46243-0.12767 0.82257
   5  -1 -15  371.35  107.66   1-0.84290 0.96103 0.25528 0.16670-0.47363-0.22049
   5   1 -15  134.75   60.39   1-0.95819 0.84005 0.07710 0.34489-0.27554-0.41874
  -5   1  14 1511.45  131.00   1 0.50044-0.61854-0.86576 0.44274-0.00086 0.64914
  -5  -1  14 2179.11  219.75   1 0.41878-0.30081-0.88940 0.46665-0.18327 0.83171
  -5   1  14 2000.92  301.77   1 0.40221-0.52049-0.91419 0.49148-0.04966 0.69823
  -5  -1  14 2416.16  286.87   1 0.47571-0.35759-0.86186 0.43863-0.17573 0.82445
   5  -1 -14 1835.68  303.20   1-0.84949 0.96761 0.24790 0.17479-0.46573-0.18212
   5   1 -14 1658.43  158.38   1-0.96449 0.84637 0.06117 0.36155-0.25693-0.39107
  -5   1  13 1640.03  140.16   1 0.47482-0.59293-0.87781 0.45407-0.06304 0.66501
  -5  -1  13 2034.47  219.66   1 0.38894-0.27099-0.88940 0.46592-0.24018 0.84230
  -5   1  13 1060.91  188.20   1 0.42563-0.54393-0.90059 0.47711-0.08804 0.69028
  -5  -1  13 1547.48  242.83   1 0.50174-0.38364-0.83540 0.41144-0.22437 0.82675
   5  -1 -13 1586.15  257.27   1-0.85486 0.97298 0.24174 0.18167-0.45909-0.14248
   5   1 -13 1286.12  134.69   1-0.96983 0.85213 0.04600 0.37766-0.23939-0.36225
  -5   1  12 2745.43  227.94   1 0.44515-0.56333-0.88606 0.46185-0.12928 0.68508
  -5  -1  12 3404.11  299.01   1 0.35580-0.23788-0.88544 0.46122-0.29899 0.85479
  -5   1  12 4026.23  430.19   1 0.44867-0.56697-0.88460 0.46035-0.12717 0.68309
  -5  -1  12 3623.80  376.42   1 0.52667-0.40858-0.80477 0.38008-0.27377 0.82981
   5  -1 -12 2573.36  332.35   1-0.85896 0.97707 0.23693 0.18718-0.45391-0.10138
   5   1 -12 1947.53  210.16   1-0.97455 0.85688 0.03124 0.39315-0.22194-0.33342
  -5   1  11 1589.80  162.22   1 0.40945-0.52765-0.88980 0.46485-0.20148 0.71097
  -5  -1  11 1393.16  201.17   1 0.32019-0.20124-0.87577 0.44957-0.36123 0.87027
  -5   1  11 1465.05  271.23   1 0.47127-0.58958-0.86601 0.44099-0.16709 0.67669
  -5  -1  11 1047.31  206.89   1 0.55028-0.43220-0.76964 0.34422-0.32378 0.83349
   5  -1 -11 1201.46  242.90   1-0.86169 0.97981 0.23369 0.19114-0.45040-0.05862
   5   1 -11 1080.40  153.94   1-0.97857 0.86092 0.01714 0.40796-0.20517-0.30391
  -5   1  1012155.09  615.38   1 0.36710-0.48531-0.88722 0.46154-0.27941 0.74259
  -5  -1  1011345.82  612.50   1 0.27957-0.16072-0.86180 0.43493-0.42323 0.88600
  -5   1  1012221.84  685.71   1 0.49321-0.61149-0.84463 0.41848-0.20814 0.67151
  -5  -1  1012913.71  709.77   1 0.57228-0.45421-0.72969 0.30354-0.37421 0.83758
   5  -1 -1011742.85  779.06   1-0.86292 0.98103 0.23221 0.19332-0.44880-0.01394
   5   1 -1011543.87  610.94   1-0.98192 0.86430 0.00379 0.42203-0.18921-0.27359
  -5   1   962542.73 1852.43   1 0.31812-0.43550-0.87517 0.44763-0.36451 0.78099
  -5  -1   965183.14 1979.97   1 0.23480-0.11605-0.84164 0.41410-0.48631 0.90280
  -5   1   970458.77 2145.35   1 0.51474-0.63303-0.82016 0.39328-0.24974 0.66677
  -5  -1   966477.03 2019.21   1 0.59272-0.47400-0.68423 0.25717-0.42485 0.84212
   5  -1  -962066.89 1863.22   1-0.86245 0.98055 0.23279 0.19346-0.44942 0.03294
   5   1  -963002.70 1882.79   1-0.98467 0.86708-0.00870 0.43525-0.17419-0.24233
  -5   1   8 2375.98  177.77   1 0.25880-0.37628-0.85303 0.42482-0.45315 0.82336
  -5  -1   8 1860.36  217.95   1 0.18572-0.06745-0.81449 0.38641-0.54964 0.91985
  -5   1   8 1606.86  210.21   1 0.53556-0.65387-0.79233 0.36472-0.29219 0.66289
  -5  -1   8 2550.10  247.64   1 0.61041-0.49170-0.63374 0.20594-0.47514 0.84605
   5  -1  -8 2335.30  299.83   1-0.85998 0.97807 0.23573 0.19123-0.45261 0.08241
   5   1  -8 2458.09  216.10   1-0.98686 0.86929-0.02021 0.44748-0.16029-0.20995
  -5   1   7  438.06   88.60   1 0.18960-0.30763-0.81683 0.38809-0.54481 0.86875
  -5  -1   7  525.47  146.64   1 0.13235-0.01412-0.77932 0.35058-0.61248 0.93642
   5  -1  -7  387.93  114.45   1-0.33442 0.45234-0.24338 0.67178-0.91045 0.58659
  -5   1   7  517.86  140.47   1 0.55554-0.67386-0.76080 0.33247-0.33546 0.65982
  -5  -1   7   42.22  113.00   1 0.62529-0.50660-0.57773 0.14919-0.52462 0.84916
   5  -1  -7  426.23   87.16   1-0.85511 0.97320 0.24144 0.18623-0.45878 0.13485
   5   1  -7  328.90  107.96   1-0.98855 0.87101-0.03057 0.45856-0.14773-0.17622
  -5  -1   6 1201.66  175.75   1 0.07500 0.04318-0.73550 0.30610-0.67335 0.95101
  -5   1   6  612.51  103.88   1 0.10991-0.22798-0.76289 0.33350-0.63710 0.91476
   5  -1  -6 1001.40  125.90   1-0.38066 0.49858-0.16361 0.59271-0.91012 0.63252
  -5   1   6  847.27  162.64   1 0.57492-0.69274-0.72477 0.29550-0.37967 0.65786
   5  -1  -6 1241.03  145.94   1-0.84727 0.96536 0.25040 0.17798-0.46841 0.19076
   5   1  -6  647.92  110.62   1-0.98980 0.87229-0.03954 0.46825-0.13681-0.14086
  -5  -1   5  460.97  192.76   1 0.01472 0.10374-0.68270 0.25285-0.73054 0.96192
  -5   1   5   91.56  110.61   1 0.02175-0.13948-0.68914 0.25930-0.72429 0.95567
   5  -1  -5  300.67   88.88   1-0.42772 0.54572-0.07439 0.50396-0.90084 0.66947
   5   1  -5  167.88   63.26   1-0.64396 0.52573 0.44912-0.01962 0.61935-0.85042
  -5   1   5  258.16  105.51   1 0.59252-0.71035-0.68474 0.25473-0.42430 0.65612
   5  -1  -5  271.71  106.13   1-0.83565 0.95374 0.26319 0.16590-0.48208 0.25070
   5   1  -5  158.81  120.95   1-0.99067 0.87319-0.04683 0.47626-0.12791-0.10348
  -5   1   4 2283.01  162.74   1-0.07256-0.04518-0.59534 0.16479-0.80019 0.98529
  -5  -1   4 2769.56  204.59   1-0.04828 0.16674-0.62098 0.19044-0.78233 0.96743
   5  -1  -4 2566.90  142.84   1-0.47332 0.59133 0.02216 0.40814-0.88061 0.69551
   5   1  -4 2639.46  140.94   1-0.64760 0.52944 0.37755 0.05261 0.66185-0.84671
  -5   1   4 2405.74  194.31   1 0.60848-0.72633-0.63994 0.20919-0.46928 0.65473
   5  -1  -4 2994.77  286.99   1-0.81908 0.93716 0.28049 0.14931-0.50041 0.31531
   5   1  -4 2670.11  156.70   1-0.99122 0.87375-0.05204 0.48218-0.12154-0.06357
  -5  -1   3 4993.44  266.89   1-0.11216 0.23061-0.55120 0.11996-0.82679 0.96562
  -5   1   3 4753.86  188.51   1-0.16703 0.04914-0.48437 0.05312-0.85876 0.99737
   5  -1  -3 4833.74  160.19   1-0.51451 0.63253 0.12152 0.30950-0.84882 0.71000
   5   1  -3 5204.87  286.31   1-0.64741 0.52968 0.30243 0.12839 0.69955-0.83841
  -5   1   3 4144.99  214.92   1 0.62240-0.74027-0.59005 0.15856-0.51424 0.65333
   5  -1  -3 4898.47  324.22   1-0.79589 0.91396 0.30312 0.12740-0.52408 0.38526
   5   1  -3 5104.17  187.46   1-0.99146 0.87402-0.05458 0.48544-0.11842-0.02041
   5   1  -251102.24  625.02   1-0.64187 0.52420 0.22401 0.20749 0.73335-0.82592
   5  -1  -256137.14  770.64   1-0.76365 0.88172 0.33195 0.09928-0.55374 0.46119
  -5   1   1 1759.22  164.57   1 0.57557-0.69278-0.30981-0.12384 0.75679-0.71043
  -5  -1   1 2179.76  214.18   1-0.23506 0.35338-0.39414-0.03856-0.88848 0.93468
  -5   1   1 2193.40  165.38   1-0.33611 0.21815-0.24060-0.19201-0.91057 0.95683
   5  -1  -1 2396.87  136.25   1-0.64154 0.75950 0.47424-0.04207 0.60292-0.64913
   5   1  -1 2581.54  277.66   1-0.63168 0.51405 0.14423 0.28795 0.76169-0.80797
   5  -1  -1 2322.50  209.38   1-0.71886 0.83693 0.36789 0.06405-0.58982 0.54354
  -5   1   1 2154.07  103.53   1-0.97988 0.86153 0.01211-0.44441-0.19918 0.24546
   5   1  -1 2530.45  134.41   1-0.99080 0.87342-0.04800 0.48030-0.12648 0.08020
  -5  -1   1 2103.64  107.10   1-0.83058 0.94821-0.42173-0.01092 0.36370-0.31743
  -5   1   0 1129.13  133.89   1 0.59379-0.71120-0.39351-0.04038 0.70182-0.70182
  -5  -1   0 1723.94  197.07   1-0.29110 0.40942-0.31230-0.12101-0.90428 0.90428
  -5   1   0 1084.82  124.67   1-0.40262 0.28466-0.12311-0.31020-0.90704 0.90704
   5  -1   0 1596.71  114.60   1-0.64658 0.76461 0.40882 0.02401 0.64404-0.64404
   5   1   0 1670.82  180.52   1-0.61691 0.49915 0.06466 0.36824 0.78437-0.78437
   5  -1   0 1409.16  121.06   1-0.65624 0.77435 0.41160 0.02102-0.63240 0.63240
  -5   1   0 1166.65   65.56   1-0.97385 0.85547 0.03354-0.46656-0.22467 0.22467
   5   1   0 1653.32  102.64   1-0.98929 0.87193-0.03570 0.46872-0.14150 0.14150
  -5  -1   0 1177.58   74.79   1-0.79706 0.91464-0.44890 0.01553 0.40395-0.40395
  -5  -1  -1 1086.25  163.91   1-0.34151 0.45983-0.23160-0.20241-0.91089 0.86462
  -5   1  -1  614.61  104.28   1-0.45564 0.33760-0.01666-0.41729-0.89000 0.84373
   5  -1   1 1022.46   94.15   1-0.64772 0.76582 0.33902 0.09448 0.68228-0.63607
   5   1   1 1283.17  134.80   1-0.59870 0.48100-0.01282 0.44637 0.80086-0.75457
   5  -1   1 1093.44  124.57   1-0.56928 0.68736 0.46287-0.02953-0.67945 0.72571
   5   1   1 1432.77   89.92   1-0.98560 0.86828-0.01342 0.44716-0.16850 0.21478
  -5   1  -1 1127.64   66.43   1-0.96666 0.84825 0.05507-0.48881-0.25006 0.20378
  -5  -1  -1  923.30   71.76   1-0.74321 0.86074-0.48570 0.05161 0.46013-0.50641
  -5  -1  -2 1342.73  177.72   1-0.38561 0.50392-0.15464-0.28007-0.90960 0.81707
  -5   1  -2 1004.15  136.30   1-0.49623 0.37819 0.07566-0.51035-0.86488 0.77234
   5  -1   2 1602.91  206.81   1-0.64544 0.76381 0.26645 0.16776 0.71582-0.62325
   5   1   2 1576.16  209.70   1-0.57765 0.46000-0.08668 0.52086 0.81166-0.71909
   5  -1   2 1299.39   84.66   1-0.44744 0.56581 0.52014-0.08601-0.72748 0.82003
  -5   1  -2 1118.06   71.25   1-0.95851 0.84030 0.07632-0.51062-0.27463 0.18206
   5   1   2 1269.75   75.49   1-0.97639 0.85909 0.02501 0.40944-0.21454 0.30710
  -5  -1  -2 1016.52   65.72   1-0.65231 0.76999-0.53404 0.09883 0.53784-0.63034
  -5  -1  -310322.65  318.51   1-0.42329 0.54151-0.08318-0.35223-0.90216 0.76334
   5  -1   310340.67  281.57   1-0.63825 0.75667 0.19146 0.24343 0.74563-0.60677
   5   1   310395.49  523.85   1-0.55471 0.43712-0.15557 0.59039 0.81736-0.67850
   5   1   310361.63  144.13   1-0.95241 0.83453 0.09048 0.34453-0.29107 0.42993
  -5   1  -3 9817.80  156.56   1-0.94906 0.83084 0.09779-0.53280-0.29952 0.16066
  -5  -1  -3 9712.61  151.28   1-0.48997 0.60806-0.59242 0.15679 0.63949-0.77824
   5  -1   433113.55  955.79   1 0.54814-0.43088-0.21601 0.65324 0.80800-0.62258
  -5  -1  -429654.69  905.47   1-0.45468 0.57289-0.01871-0.41743-0.89045 0.70536
   5  -1   431484.33  975.39   1-0.62709 0.74556 0.11643 0.31913 0.77019-0.58504
   5   1   431203.34  906.94   1-0.52986 0.41238-0.21788 0.65347 0.81961-0.63475
   5   1   429781.40  808.26   1-0.86512 0.74726 0.22878 0.20695-0.44632 0.63147
  -5   1  -427982.08  776.47   1-0.93853 0.82030 0.11907-0.55481-0.32398 0.13883
  -5  -1  -429418.20  801.79   1-0.15103 0.26905-0.63520 0.19809 0.75742-0.94253
  -5   1  -430371.28  848.56   1 0.06153-0.17965-0.62128 0.18425 0.78116-0.96632
   5  -1   5 1184.21  124.81   1 0.56416-0.44690-0.26832 0.70626 0.78084-0.54906
  -5  -1  -5  513.07  121.56   1-0.48042 0.59863 0.03833-0.47521-0.87619 0.64483
   5  -1   5 1339.18  170.57   1-0.61219 0.73067 0.04285 0.39323 0.78954-0.55810
   5   1   5  957.62  111.48   1-0.50611 0.38868-0.27425 0.71048 0.81769-0.58662
  -5   1  -5 1083.28   57.88   1-0.92708 0.80883 0.13995-0.57641-0.34774 0.11631
  -5   1  -5 1052.45   82.01   1-0.20637 0.08800-0.63409 0.19632 0.74520-0.97658
   5  -1   615784.27  413.82   1 0.57571-0.45843-0.31037 0.74902 0.75644-0.47831
  -5  -1  -615909.16  488.26   1-0.50123 0.61944 0.08791-0.52552-0.86083 0.58319
   5  -1   614582.90  407.55   1-0.59507 0.71361-0.02652 0.46325 0.80323-0.52549
   5   1   613777.93  358.89   1-0.48323 0.36586-0.32386 0.76075 0.81338-0.53609
  -5   1  -613642.05  279.76   1-0.91502 0.79675 0.15997-0.59715-0.37032 0.09261
  -5   1  -614141.38  303.91   1-0.50062 0.38256-0.58956 0.15178 0.63386-0.91137
   5  -1   7 1549.44  181.33   1 0.58400-0.46671-0.34381 0.78318 0.73534-0.41085
  -5  -1  -7 1044.84  187.82   1-0.51788 0.63607 0.13032-0.56866-0.84546 0.52155
   5  -1   7 1413.72  157.27   1-0.57644 0.69504-0.09055 0.52791 0.81210-0.48807
   5   1   7  934.43  104.90   1-0.46184 0.34452-0.36681 0.80436 0.80755-0.48404
  -5   1  -7 1041.35   46.71   1-0.90307 0.78479 0.17823-0.61614-0.39075 0.06674
  -5   1  -7  823.91   48.27   1-0.76573 0.64715-0.47120 0.03281 0.43774-0.76165
   5   1   8  151.56   99.44   1 0.53065-0.64979-0.16457 0.60464 0.83145-0.46061
   5  -1   8  -60.72   79.75   1 0.58917-0.47135-0.37107 0.81055 0.71775-0.34761
   5  -1   8  102.81   64.13   1-0.55735 0.67600-0.14811 0.58611 0.81695-0.44664
   5   1   8  192.59   56.81   1-0.44240 0.32513-0.40342 0.84162 0.80095-0.43123
  -5   1  -8   89.20   15.78   1-0.89305 0.77476 0.19256-0.63120-0.40665 0.03636
  -5   1  -8  179.89   27.75   1-0.94066 0.82056-0.28692-0.15194 0.18117-0.55098
   5   1   9  136.96   75.21   1 0.54097-0.66010-0.19434 0.63513 0.81827-0.40107
   5  -1   9    4.89   66.71   1 0.59337-0.47550-0.39143 0.83160 0.70333-0.28691
   5  -1   9  135.70   64.93   1-0.53739 0.65612-0.19878 0.63763 0.81956-0.40363
   5   1   9  146.98   73.90   1-0.42489 0.30764-0.43355 0.87282 0.79466-0.37885
   5   1  10  849.79  160.48   1 0.54900-0.66812-0.21869 0.66019 0.80670-0.34315
   5  -1  10  369.32   93.29   1 0.59633-0.47840-0.40679 0.84765 0.69203-0.22934
   5  -1  10  671.44   81.55   1-0.51996 0.63875-0.24205 0.68156 0.81917-0.35701
   5   1  10  476.62   82.76   1-0.41007 0.29287-0.45879 0.89876 0.78825-0.32624
   5   1  11 5165.99  378.75   1 0.55516-0.67427-0.23822 0.68043 0.79689-0.28699
   5  -1  11 4801.99  678.65   1 0.59835-0.48037-0.41793 0.85949 0.68359-0.17464
   5  -1  11 4547.73  300.48   1-0.50434 0.62318-0.27825 0.71841 0.81744-0.30907
   5   1  11 4219.52  313.69   1-0.39766 0.28052-0.47914 0.91982 0.78248-0.27427
   5   1  12  156.30   90.70   1 0.55980-0.67889-0.25346 0.69639 0.78890-0.23264
   5  -1  12  178.18   94.81   1 0.59966-0.48164-0.42549 0.86776 0.67775-0.12253
   5  -1  12  320.09   92.72   1-0.49088 0.60977-0.30772 0.74854 0.81506-0.26048
   5   1  12  -24.20   58.48   1-0.38764 0.27056-0.49509 0.93648 0.77756-0.22315
   5   1  1311757.20  576.13   1 0.56318-0.68227-0.26492 0.70856 0.78271-0.18009
   5  -1  1310392.77 1051.19   1 0.60041-0.48234-0.42999 0.87295 0.67423-0.07274
   5  -1  13 8413.26  396.94   1-0.47980 0.59874-0.33096 0.77243 0.81255-0.21175
   5   1  1310531.22  513.22   1-0.37993 0.26291-0.50709 0.94917 0.77363-0.17302
   5   1  14 1739.11  190.27   1 0.56551-0.68459-0.27301 0.71736 0.77823-0.12926
   5  -1  14 2066.36  261.46   1 0.60072-0.48259-0.43183 0.87548 0.67279-0.02503
   5  -1  14 1281.60  117.45   1-0.47116 0.59016-0.34847 0.79060 0.81028-0.16327
   5   1  14 1809.92  193.77   1-0.37442 0.25745-0.51551 0.95830 0.77074-0.12393
   5   1  15 1654.60  214.83   1 0.56695-0.68602-0.27808 0.72315 0.77538-0.08006
   5  -1  15 1470.04  229.59   1 0.60063-0.48246-0.43131 0.87566 0.67319 0.02082
   5  -1  15 1026.23  120.53   1-0.46497 0.58401-0.36073 0.80351 0.80849-0.11526
   5   1  15 1471.45  189.19   1-0.37099 0.25408-0.52070 0.96419 0.76891-0.07590
   5   1  16  769.96  168.60   1 0.56762-0.68668-0.28045 0.72623 0.77404-0.03236
   5  -1  16  255.96  154.70   1 0.60020-0.48198-0.42871 0.87376 0.67524 0.06505
   5   1  16  665.74  146.57   1-0.36952 0.25266-0.52291 0.96712 0.76811-0.02891
   5   1  17   74.88   65.65   1 0.56760-0.68664-0.28036 0.72685 0.77409 0.01393
   5  -1  17  264.16  131.78   1 0.59944-0.48117-0.42422 0.86997 0.67874 0.10782
   5   1  17  269.68  141.32   1-0.36987 0.25307-0.52238 0.96729 0.76831 0.01709
  -5  -2  16  289.48  109.40   1 0.45014-0.21409-0.88503 0.46375-0.11863 0.85970
  -5   2  16  722.71  239.71   1 0.31076-0.54752-0.94622 0.52635 0.08993 0.65050
  -5  -2  16  694.07  241.23   1 0.44348-0.20732-0.88844 0.46726-0.11823 0.85946
   5  -2 -16  228.12  112.12   1-0.74613 0.98227 0.34653 0.07474-0.56850-0.17189
   5   2 -16   75.47   50.05   1-0.97835 0.74271 0.01795 0.40355-0.20615-0.53434
  -5  -2  15  448.29  167.72   1 0.42594-0.18991-0.88882 0.46681-0.16896 0.86372
  -5   2  15   80.51  154.99   1 0.33277-0.56951-0.94122 0.52050 0.05797 0.63618
  -5  -2  15  305.45  199.44   1 0.47287-0.23672-0.86457 0.44262-0.16999 0.86489
   5  -2 -15  305.26   85.85   1-0.75205 0.98819 0.34169 0.08029-0.56362-0.13051
   5   2 -15  359.28  104.70   1-0.98315 0.74753-0.00157 0.42381-0.18277-0.51144
  -5   2  14   79.62   37.97   1 0.56175-0.79811-0.80660 0.38340 0.18389 0.46477
  -5  -2  14  277.09  156.87   1 0.39948-0.16347-0.88981 0.46707-0.22053 0.86897
  -5   2  14  317.36  170.73   1 0.35429-0.59071-0.93479 0.51208 0.02501 0.62356
  -5  -2  14  460.56  220.24   1 0.50084-0.26456-0.83640 0.41317-0.22265 0.87137
   5  -2 -14  220.04   93.92   1-0.75639 0.99253 0.33808 0.08461-0.55997-0.08788
   5   2 -14  368.65  114.58   1-0.98696 0.75137-0.02082 0.44377-0.15956-0.48836
  -5   2  13  213.59   70.00   1 0.54601-0.78219-0.82795 0.40421 0.12785 0.47411
  -5  -2  13  521.00  192.83   1 0.37056-0.13457-0.88768 0.46420-0.27332 0.87544
  -5   2  13  518.12  252.55   1 0.37568-0.61211-0.92671 0.50323-0.00773 0.60997
  -5  -2  13  468.47  202.15   1 0.52762-0.29135-0.80348 0.37951-0.27572 0.87811
   5  -2 -13  139.60   56.60   1-0.75906 0.99519 0.33584 0.08756-0.55770-0.04387
   5   2 -13  276.40  107.23   1-0.98983 0.75426-0.03976 0.46343-0.13655-0.46509
  -5   2  12  561.37   66.00   1 0.52506-0.76125-0.84856 0.42410 0.06512 0.49054
  -5  -2  12  613.44  170.77   1 0.33901-0.10304-0.88203 0.45781-0.32724 0.88305
  -5   2  12  835.22  184.46   1 0.39677-0.63321-0.91700 0.49275-0.04093 0.59685
  -5  -2  12  688.84  159.14   1 0.55272-0.31646-0.76558 0.34089-0.32918 0.88523
   5  -2 -12  520.68  129.54   1-0.75990 0.99603 0.33513 0.08898-0.55698 0.00167
   5   2 -12  463.24  110.26   1-0.99179 0.75625-0.05838 0.48277-0.11376-0.44160
  -5   2  11 8118.37  510.92   1 0.49864-0.73484-0.86678 0.44160-0.00541 0.51477
  -5  -2  11 9584.08  659.69   1 0.30578-0.06877-0.87132 0.44511-0.38378 0.89282
  -5   2  11 8311.92  592.93   1 0.41755-0.65400-0.90558 0.48056-0.07464 0.58423
  -5  -2  11 9126.02  640.33   1 0.57618-0.33918-0.72216 0.29657-0.38274 0.89274
   5  -2 -11 7842.44  933.80   1-0.75873 0.99485 0.33612 0.08870-0.55798 0.04895
   5   2 -11 9733.88  658.10   1-0.99287 0.75736-0.07667 0.50178-0.09121-0.41786
  -5   2  10  368.02   73.49   1 0.46490-0.70110-0.88120 0.45529-0.08572 0.54877
  -5  -2  10  539.51  196.25   1 0.26850-0.03159-0.85726 0.43038-0.43932 0.90209
  -5   2  10  117.51  142.27   1 0.43802-0.67449-0.89233 0.46655-0.10891 0.57217
  -5  -2  10  288.64  153.97   1 0.59685-0.35987-0.67353 0.24721-0.43601 0.89965
   5  -2 -10  335.40  142.35   1-0.75528 0.99140 0.33901 0.08653-0.56090 0.09815
   5   2 -10  674.54  156.13   1-0.99312 0.75763-0.09461 0.52044-0.06894-0.39386
  -5   2   9 3320.88  199.17   1 0.42201-0.65829-0.88917 0.46276-0.17685 0.59370
  -5  -2   9 3132.31  286.76   1 0.22816 0.00865-0.83826 0.41072-0.49523 0.91171
   5  -2  -9 2648.81  168.20   1-0.35339 0.58944-0.21149 0.63848-0.91125 0.49486
  -5   2   9 4139.37  364.92   1 0.45818-0.69466-0.87715 0.45059-0.14378 0.56072
  -5  -2   9 3477.41  274.36   1 0.61468-0.37771-0.61932 0.19226-0.48846 0.90573
   5  -2  -9 4319.68  434.39   1-0.74922 0.98533 0.34401 0.08224-0.56596 0.14948
   5   2  -9 2432.10  203.36   1-0.99268 0.75703-0.11184 0.53805-0.04553-0.37067
  -5   2   8  513.97   79.88   1 0.36522-0.60153-0.88695 0.45981-0.28270 0.65324
  -5  -2   8  256.11  191.52   1 0.18468 0.05171-0.81386 0.38578-0.55092 0.92113
   5  -2  -8  302.44   88.89   1-0.40221 0.63825-0.12389 0.55159-0.90712 0.53700
  -5   2   8  288.16  146.88   1 0.47785-0.71433-0.85987 0.43226-0.17964 0.55033
  -5  -2   8  618.09  210.65   1 0.62920-0.39225-0.55953 0.13173-0.53946 0.91037
   5  -2  -8  607.47  107.40   1-0.74011 0.97622 0.35138 0.07558-0.57337 0.20317
   5   2  -8  543.84  151.66   1-0.99136 0.75585-0.12893 0.55588-0.02403-0.34593
  -5   2   7 1999.68  127.73   1 0.29321-0.52885-0.86697 0.43809-0.40296 0.72690
  -5  -2   7 1630.43  216.47   1 0.13823 0.09812-0.78346 0.35472-0.60586 0.92980
   5  -2  -7 1720.76  114.64   1-0.45264 0.68877-0.02306 0.45117-0.89139 0.56747
   5   2  -7 2498.96  176.11   1-0.63918 0.40286 0.49401-0.06585 0.58939-0.91288
  -5   2   7 2160.43  235.42   1 0.49729-0.73378-0.84029 0.41196-0.21587 0.54023
   5  -2  -7 2275.71  279.88   1-0.72737 0.96348 0.36138 0.06629-0.58337 0.25944
   5   2  -7 1676.59  163.10   1-0.98934 0.75399-0.14556 0.57325-0.00297-0.32074
  -5   2   6 1111.53   98.91   1 0.19990-0.43564-0.82280 0.39325-0.53201 0.80966
  -5  -2   6 1312.85  190.63   1 0.08898 0.14733-0.74674 0.31734-0.65913 0.93679
   5  -2  -6  773.75   67.82   1-0.50128 0.73742 0.08804 0.34080-0.86078 0.58314
   5   2  -6 1475.49  152.45   1-0.64577 0.40951 0.42394 0.00488 0.63501-0.91229
  -5   2   6  943.72  227.26   1 0.51630-0.75280-0.81822 0.38915-0.25285 0.53088
   5  -2  -6 1354.93  216.42   1-0.70994 0.94623 0.37442 0.05388-0.59648 0.31896
   5   2  -6 1195.85  124.66   1-0.98668 0.75148-0.16167 0.59010 0.01756-0.29504
  -5   2   5 1305.78   67.63   1 0.54279-0.77817-0.19974-0.23105 0.81576-0.58399
  -5   2   5 1552.03  133.57   1 0.08765-0.32389-0.74568 0.31563-0.66050 0.89189
  -5  -2   5 2540.24  267.83   1 0.03735 0.19892-0.70350 0.27345-0.70970 0.94109
   5   2  -5 2069.87  162.98   1-0.64781 0.41162 0.34969 0.07980 0.67678-0.90785
  -5   2   5 1420.29  190.43   1 0.53482-0.77133-0.79340 0.36361-0.29063 0.52232
   5  -2  -5 1712.31  198.03   1-0.68753 0.92380 0.39052 0.03850-0.61219 0.38093
   5   2  -5 1690.38  137.71   1-0.98346 0.74840-0.17719 0.60636 0.03749-0.26872
  -5   2   436825.06 1042.98   1-0.03770-0.19813-0.63184 0.20129-0.77417 0.95928
  -5  -2   436991.65 1143.34   1-0.01562 0.25218-0.65385 0.22331-0.75645 0.94156
   5   2  -434310.16 1153.95   1-0.64585 0.41015 0.27255 0.15759 0.71315-0.89829
  -5   2   435892.20 1076.28   1 0.55275-0.78927-0.76555 0.33503-0.32923 0.51458
   5  -2  -433673.61 1072.83   1-0.65862 0.89485 0.41005 0.01969-0.63092 0.44591
   5   2  -430850.39  892.70   1-0.97974 0.74484-0.19204 0.62194 0.05665-0.24164
  -5   2   3 5107.74  302.33   1 0.59597-0.83164-0.40488-0.02692 0.69345-0.55465
  -5  -2   3 6462.88  311.76   1-0.06991 0.30646-0.59818 0.16694-0.79830 0.93712
  -5   2   3 6682.03  257.51   1-0.16393-0.07201-0.48826 0.05701-0.85716 0.99577
   5   2  -3 6423.86  353.41   1-0.63846 0.40281 0.19314 0.23768 0.74502-0.88388
  -5   2   3 5629.95  295.20   1 0.56994-0.80648-0.73434 0.30309-0.36864 0.50765
   5  -2  -3 6967.97  525.55   1-0.62168 0.85788 0.43317-0.00270-0.65258 0.51382
   5   2  -3 6036.31  255.92   1-0.97566 0.74090-0.20607 0.63672 0.07489-0.21363
  -5   2   2  658.18   72.22   1 0.60855-0.84427-0.48822 0.05571 0.62554-0.53300
  -5  -2   2  712.02  151.88   1-0.12410 0.36063-0.53734 0.10540-0.83418 0.92673
  -5   2   2  957.20  130.66   1-0.27862 0.04254-0.33121-0.10069-0.90147 0.99400
   5   2  -2  817.03  112.01   1-0.62654 0.39095 0.11334 0.31816 0.77109-0.86366
  -5   2   2  783.28  138.73   1 0.58671-0.82284-0.69885 0.26663-0.40910 0.50182
   5  -2  -2  807.24  110.48   1-0.57486 0.81104 0.45987-0.02868-0.67679 0.58428
   5   2  -2  815.79  100.98   1-0.97134 0.73673-0.21914 0.65053 0.09197-0.18446
  -5   2   1  977.64  110.95   1 0.61406-0.84998-0.55809 0.12495 0.55808-0.51176
  -5  -2   1 1063.48  197.23   1-0.17670 0.41307-0.47212 0.03941-0.86363 0.90984
  -5   2   1 1185.55  125.29   1-0.37324 0.13715-0.17690-0.25570-0.91071 0.95697
   5   2  -1 1615.68  198.62   1-0.61035 0.37456 0.03473 0.39753 0.79136-0.83765
  -5   2   1  959.61  145.58   1 0.60184-0.83799-0.65980 0.22684-0.44993 0.49629
   5  -2  -1 1505.16  178.06   1-0.51596 0.75211 0.48983-0.05792-0.70273 0.65648
   5   2  -1  940.95   93.03   1-0.96698 0.73252-0.23101 0.66313 0.10756-0.15380
  -5   2   0  663.45  110.49   1 0.61386-0.84976-0.61484 0.18098 0.49511-0.49511
  -5  -2   0  848.98  164.47   1-0.22717 0.46359-0.40511-0.02832-0.88559 0.88559
  -5   2   0  909.87  114.12   1-0.44548 0.20932-0.03813-0.39508-0.89447 0.89447
   5   2   0 1188.32  152.25   1-0.59104 0.35530-0.04121 0.47412 0.80558-0.80558
  -5   2   0 1283.17  154.11   1 0.61553-0.85169-0.61632 0.18262-0.49118 0.49118
   5  -2   0 1075.22  113.52   1-0.44200 0.67837 0.52238-0.08972-0.72921 0.72921
   5   2   0  728.82   77.95   1-0.96284 0.72852-0.24134 0.67420 0.12120-0.12120
  -5  -2   0  618.66   90.74   1-0.54274 0.77852-0.57597 0.14217 0.61129-0.61129
  -5   2  -1   54.94   43.90   1 0.60999-0.84588-0.66138 0.22682 0.43642-0.48273
  -5  -2  -1 1328.28  251.61   1-0.27428 0.51075-0.33750-0.09666-0.90047 0.85427
  -5   2  -1  328.28   95.21   1-0.49770 0.26153 0.07924-0.51320-0.86371 0.81744
   5   2   1  237.95   65.40   1-0.56923 0.33355-0.11309 0.54663 0.81435-0.76806
  -5   2  -1  627.20  167.58   1 0.62740-0.86358-0.56814 0.13371-0.53250 0.48614
   5  -2   1  359.89   85.71   1-0.35153 0.58794 0.55582-0.12243-0.75330 0.79958
   5   2   1  400.70   76.33   1-0.95926 0.72510-0.24965 0.68325 0.13222-0.08597
  -5  -2  -1   89.22   48.83   1-0.45463 0.69085-0.60115 0.16695 0.65720-0.70345
   5  -2   214735.94  460.80   1 0.53365-0.29820-0.17306 0.60886 0.82780-0.73509
  -5  -2  -213566.15  493.22   1-0.31757 0.55402-0.27081-0.16390-0.90873 0.81620
  -5   2  -214783.39  485.56   1-0.54953 0.31319-0.16646-0.26780 0.81871-0.91114
   5   2   213578.65  447.97   1-0.54489 0.30933-0.17905 0.61332 0.81916-0.72673
  -5   2  -212777.86  420.24   1-0.83351 0.59744 0.26549-0.69957-0.48453 0.39198
   5   2   214113.80  422.11   1-0.95678 0.72276-0.25514 0.68949 0.13953-0.04704
  -5  -2  -212216.38  374.48   1-0.33328 0.56939-0.62286 0.18794 0.70778-0.80028
  -5   2  -212934.37  416.12   1 0.24049-0.47673-0.58650 0.15089 0.77342-0.86599
   5  -2   310218.91  349.94   1 0.55858-0.32311-0.24941 0.68592 0.79105-0.65199
  -5  -2  -3 9697.83  413.37   1-0.35607 0.59251-0.20691-0.22851-0.91126 0.77246
   5  -2   310108.77  331.44   1-0.64324 0.87943 0.45725-0.02241 0.61412-0.47548
   5   2   310792.81  398.74   1-0.52087 0.28536-0.23987 0.67480 0.81923-0.68058
  -5   2  -3 9846.59  318.06   1-0.49737 0.26098-0.29369-0.14123 0.81630-0.95495
  -5   2  -3 6969.91  415.81   1-0.80211 0.56605 0.29722-0.73201-0.51794 0.37912
   5   2   310055.26  308.92   1-0.95673 0.72306-0.25557 0.69077 0.13910-0.00041
  -5  -2  -3 8984.38  288.53   1-0.16811 0.40439-0.63508 0.19863 0.75392-0.89275
  -5   2  -3 9568.53  338.40   1 0.11195-0.34823-0.61362 0.17731 0.78161-0.92048
   5  -2   490309.29 2878.27   1 0.57551-0.34004-0.30961 0.74683 0.75691-0.57149
  -5  -2  -491327.49 2900.42   1-0.38980 0.62624-0.14699-0.28914-0.90909 0.72403
   5  -2   488104.26 2742.09   1-0.64712 0.88338 0.39547 0.04004 0.65178-0.46693
   5   2   481655.49 1593.14   1-0.49703 0.26158-0.29443 0.73001 0.81624-0.63138
  -5   2  -481355.00 1546.01   1-0.42919 0.19265-0.42603-0.00970 0.79641-0.98121
   5   2   482677.77 2561.64   1-0.95929 0.72580-0.24989 0.68582 0.13154 0.05336
  -5   2  -482527.94 2581.50   1-0.03489-0.20147-0.63098 0.19386 0.77501-0.96011
  -5  -2  -483377.51 2585.52   1 0.05668 0.17979-0.62193 0.18490 0.78101-0.96617
   5  -2   513604.94  569.65   1 0.58615-0.35008-0.35738 0.79476 0.72711-0.49577
  -5  -2  -513808.24  436.41   1-0.41889 0.65523-0.09182-0.34505-0.90337 0.67201
   5  -2   512094.94  467.55   1-0.64827 0.88471 0.33124 0.10500 0.68557-0.45414
   5   2   512851.03  372.30   1-0.47408 0.23867-0.34262 0.77886 0.81108-0.58000
  -5   2  -512610.33  299.24   1-0.34743 0.11083-0.55512 0.11868 0.75572-0.98672
   5   2   513730.78  286.24   1-0.96597 0.73241-0.23359 0.67015 0.11097 0.12025
  -5   2  -512779.25  337.31   1-0.19401-0.04248-0.63452 0.19675 0.74815-0.97953
   5  -2   6 8185.63  567.33   1 0.59388-0.35775-0.39399 0.83207 0.70147-0.42386
  -5  -2  -611199.85  517.76   1-0.44352 0.67985-0.04222-0.39538-0.89526 0.61762
   5  -2   6 9337.05  428.95   1-0.64531 0.88180 0.26449 0.17243 0.71666-0.43895
   5   2   6 8461.43  347.44   1-0.45255 0.21720-0.38458 0.82148 0.80454-0.52724
  -5   2  -6 8739.62  313.08   1-0.25377 0.01708-0.67337 0.23581 0.69437-0.97164
   5   2   6 8244.16  301.59   1-0.67792 0.44192 0.39730 0.03962-0.61852 0.89617
   5   2   6 8909.71  287.48   1-0.98147 0.74805-0.18544 0.62274 0.04812 0.22935
  -5   2  -6 9129.18  349.10   1-0.35950 0.12353-0.61918 0.18141 0.69811-0.97561
   5  -2   7 2607.81  272.37   1 0.59909-0.36291-0.42216 0.86094 0.68033-0.35646
  -5  -2  -7 2500.38  265.71   1-0.46413 0.70046 0.00174-0.44008-0.88576 0.56184
   5  -2   7 2104.09  179.89   1-0.63901 0.87556 0.19773 0.23987 0.74334-0.41934
   5   2   7 1854.20  145.41   1-0.43254 0.19714-0.42012 0.85798 0.79774-0.47434
  -5   2  -7 1971.23  109.60   1-0.15485-0.08188-0.77293 0.33465 0.61529-0.93877
  -5   2  -7  924.07  131.64   1-0.64560 0.40969 0.41842-0.85608-0.63883 0.31506
  -5   2  -7 1866.42  143.29   1-0.52006 0.28356-0.58288 0.14415 0.62431-0.94805
   5  -2   8  207.62   52.45   1 0.60259-0.36636-0.44357 0.88304 0.66341-0.29327
  -5  -2  -8  778.41  243.46   1-0.48119 0.71752 0.04011-0.47919-0.87569 0.50550
   5  -2   8  221.75   37.11   1-0.62988 0.86648 0.13295 0.30532 0.76522-0.39493
   5   2   8  411.36  120.44   1-0.41493 0.17960-0.45063 0.88919 0.79041-0.42081
  -5   2  -8  121.13   47.84   1-0.05406-0.18265-0.85028 0.41051 0.52353-0.89337
  -5   2  -8  129.88   25.06   1-0.60179 0.36591 0.44485-0.88323-0.66328 0.29326
  -5   2  -8  209.71   73.26   1-0.66163 0.42501-0.52973 0.09030 0.53068-0.90066
   5  -2   9  325.10   76.11   1 0.60493-0.36865-0.45948 0.89965 0.65033-0.23391
  -5  -2  -9  458.05  220.08   1-0.49517 0.73149 0.07311-0.51291-0.86571 0.44924
   5  -2   9   98.05   31.03   1-0.61826 0.85495 0.07121 0.36741 0.78273-0.36613
   5   2   9  448.11  106.27   1-0.39955 0.16426-0.47610 0.91537 0.78337-0.36757
  -5   2  -9  156.91   48.56   1 0.04312-0.28042-0.90474 0.46410 0.42376-0.84021
  -5   2  -9  155.15   32.74   1-0.55835 0.32250 0.46865-0.90775-0.68454 0.26826
  -5   2  -9  368.50   63.66   1-0.78007 0.54348-0.46132 0.02149 0.42268-0.83914
   5  -2  10  842.69  126.75   1 0.60646-0.37013-0.47090 0.91176 0.64066-0.17797
  -5  -2 -10  433.98   99.95   1-0.50651 0.74282 0.10105-0.54159-0.85629 0.39355
   5  -2  10  440.35   70.26   1-0.60586 0.84260 0.01566 0.42360 0.79541-0.33252
   5   2  10  725.67  111.56   1-0.38642 0.15120-0.49701 0.93698 0.77694-0.31494
  -5   2 -10  429.30   55.11   1-0.87299 0.63491-0.37831-0.06201 0.30781-0.77008
   5  -2  11 2654.01  397.36   1 0.60743-0.37105-0.47858 0.92015 0.63402-0.12506
  -5  -2 -11 2673.03  306.46   1-0.51558 0.75189 0.12431-0.56558-0.84776 0.33876
   5  -2  11 1878.41  203.90   1-0.59323 0.83003-0.03329 0.47320 0.80433-0.29516
   5   2  11 2830.60  255.88   1-0.37554 0.14037-0.51381 0.95449 0.77133-0.26312
  -5   2 -11 2210.58  162.69   1-0.93524 0.69699-0.29625-0.14481 0.19380-0.70230
   5  -2  12 2010.06  285.46   1 0.60797-0.37154-0.48313 0.92539 0.63003-0.07481
   5  -2  12  993.11  150.27   1-0.58120 0.81806-0.07505 0.51560 0.81028-0.25481
   5   2  12 1431.58  160.38   1-0.36685 0.13174-0.52690 0.96829 0.76667-0.21226
   5   2  1328592.73 5500.56   1 0.52789-0.76520-0.15686 0.60050 0.83469-0.23208
   5  -2  1324504.88 1159.71   1 0.60818-0.37170-0.48500 0.92795 0.62839-0.02690
   5   2  1326429.19 1159.14   1-0.36025 0.12519-0.53666 0.97874 0.76303-0.16242
   5   2  14 1041.94  190.27   1-0.35563 0.12063-0.54338 0.98617 0.76043-0.11362
   5   2  15 1523.74  196.56   1 0.53491-0.77220-0.17667 0.62174 0.82622-0.13090
   5  -2  15 1119.72  173.69   1 0.60784-0.37126-0.48203 0.92638 0.63100 0.06302
   5   2  15 1064.74  169.98   1-0.35289 0.11795-0.54733 0.99083 0.75887-0.06586
   5   2  16  491.40  141.91   1 0.53676-0.77404-0.18199 0.62777 0.82386-0.08219
   5  -2  16  120.02   86.20   1 0.60732-0.37068-0.47769 0.92274 0.63479 0.10550
   5   2  16  685.76  170.75   1-0.35191 0.11703-0.54874 0.99294 0.75831-0.01910
  -5   3  16  687.74  263.66   1 0.26090-0.61575-0.95210 0.53224 0.15944 0.58099
   5  -3 -16  174.59  103.54   1-0.64057 0.99516 0.42159-0.00047-0.64181-0.09823
   5   3 -16  713.95  150.95   1-0.99065 0.63714-0.04661 0.46812-0.12819-0.61229
  -5  -3  15 9633.59 1183.63   1 0.41688-0.06281-0.88951 0.46749-0.18700 0.88176
  -5   3  15 6523.90  832.85   1 0.28055-0.63538-0.95064 0.52993 0.13250 0.56165
  -5  -3  15 9006.21 1104.95   1 0.48844-0.13397-0.84955 0.42705-0.19919 0.89424
   5  -3 -15 5845.11 1119.59   1-0.64398 0.99853 0.41945 0.00238-0.63980-0.05399
   5   3 -15 7996.64  968.38   1-0.99247 0.63899-0.06823 0.49046-0.10164-0.59256
  -5  -3  14 1309.60  221.53   1 0.39168-0.03762-0.88955 0.46680-0.23511 0.88355
  -5   3  14  874.99  198.43   1 0.29983-0.65463-0.94813 0.52657 0.10550 0.54237
  -5  -3  14  795.36  188.55   1 0.51799-0.16353-0.81611 0.39287-0.25621 0.90493
   5  -3 -14  632.40  151.93   1-0.64542 0.99995 0.41853 0.00401-0.63894-0.00859
  -5  -3  13   53.15  100.30   1 0.36449-0.01046-0.88684 0.46336-0.28398 0.88610
  -5   3  13  385.00  197.28   1 0.31874-0.67352-0.94458 0.52217 0.07844 0.52316
  -5  -3  13  258.24  159.15   1 0.54551-0.19107-0.77729 0.35333-0.31339 0.91577
   5  -3 -13  179.95  102.91   1-0.64476 0.99926 0.41895 0.00431-0.63933 0.03804
   5   3 -13 -106.66   73.97   1-0.99275 0.63890-0.11051 0.53376-0.04721-0.55398
  -5  -3  12   11.84  135.03   1 0.33521 0.01879-0.88113 0.45692-0.33349 0.88930
  -5   3  12  704.81  263.76   1 0.33730-0.69205-0.93999 0.51673 0.05129 0.50403
  -5  -3  12  453.40  192.02   1 0.57067-0.21623-0.73291 0.30821-0.37036 0.92641
   5  -3 -12  120.12   80.10   1-0.64181 0.99628 0.42081 0.00317-0.64108 0.08604
   5   3 -12  128.56   86.16   1-0.99110 0.63740-0.13142 0.55541-0.02088-0.53406
  -5  -3  11 2898.12  254.78   1 0.30488 0.05019-0.87102 0.44482-0.38517 0.89421
  -5   3  11 2814.05  268.39   1 0.35539-0.70998-0.93442 0.50940 0.02335 0.48623
  -5  -3  11 3473.90  287.47   1 0.59338-0.23813-0.68256 0.25697-0.42661 0.93661
   5  -3 -11 3340.21  345.51   1-0.63633 0.99077 0.42423 0.00047-0.64428 0.13550
   5   3 -11 3253.99  261.13   1-0.98834 0.63479-0.15212 0.57685 0.00537-0.51407
  -5  -3  10  481.15  179.29   1 0.27120 0.08377-0.85839 0.43152-0.43543 0.89820
  -5   3  10  295.83  196.96   1 0.37324-0.72784-0.92772 0.50193-0.00395 0.46721
  -5  -3  10  473.71  134.03   1 0.61253-0.25730-0.62672 0.20040-0.48168 0.94532
   5  -3 -10  224.60   69.69   1-0.62803 0.98244 0.42933-0.00390-0.64903 0.18650
   5   3 -10  246.68   94.75   1-0.98448 0.63108-0.17259 0.59806 0.03156-0.49402
  -5  -3   9 2171.44  246.31   1 0.23522 0.11966-0.84185 0.41431-0.48574 0.90223
  -5   3   9 3066.05  344.83   1 0.39075-0.74536-0.91996 0.49340-0.03136 0.44830
  -5  -3   9 3208.19  319.87   1 0.62800-0.27279-0.56531 0.13825-0.53481 0.95208
   5  -3  -9 2570.37  349.40   1-0.61655 0.97093 0.43623-0.01008-0.65540 0.23913
   5   3  -9 2606.45  263.86   1-0.97953 0.62628-0.19282 0.61903 0.05767-0.47388
  -5  -3   8 2607.76  306.45   1 0.19696 0.15782-0.82109 0.39288-0.53573 0.90594
   5   3  -8 2233.13  202.99   1-0.63862 0.28427 0.49825-0.07076 0.58642-0.95612
  -5   3   8 1862.06  248.37   1 0.40791-0.76254-0.91111 0.48379-0.05888 0.42949
   5  -3  -8 2206.10  265.59   1-0.60145 0.95580 0.44504-0.01817-0.66346 0.29344
   5   3  -8 2822.06  256.03   1-0.97350 0.62039-0.21282 0.63976 0.08369-0.45366
  -5  -3   7 5066.22  392.06   1 0.15643 0.19805-0.79587 0.36714-0.58489 0.90883
   5   3  -7 5341.38  320.08   1-0.64558 0.29129 0.42702 0.00113 0.63314-0.95663
  -5   3   7 5013.35  357.00   1 0.42473-0.77937-0.90117 0.47308-0.08653 0.41081
   5  -3  -7 4922.98  455.78   1-0.58220 0.93652 0.45586-0.02827-0.67321 0.34944
   5   3  -7 4559.68  292.38   1-0.96638 0.61342-0.23256 0.66025 0.10960-0.43333
  -5   3   6  120.32   20.17   1 0.60097-0.95534-0.71207 0.28299 0.36300-0.08500
  -5  -3   6  322.34  206.31   1 0.11392 0.24052-0.76590 0.33650-0.63278 0.91044
   5   3  -6  207.01   95.83   1-0.64782 0.29359 0.35204 0.07678 0.67556-0.95284
  -5   3   6  376.28  204.31   1 0.44119-0.79584-0.89009 0.46124-0.11431 0.39227
   5  -3  -6   72.60   63.95   1-0.55819 0.91248 0.46873-0.04043-0.68461 0.40709
   5   3  -6  238.54  102.14   1-0.95819 0.60538-0.25204 0.68047 0.13540-0.41287
  -5   3   5  990.24   44.23   1 0.59170-0.94606-0.74422 0.31440 0.30986-0.07819
  -5   3   5  925.47   48.71   1 0.33560-0.68950-0.87989 0.44967-0.33639 0.56777
  -5  -3   5  401.80  157.28   1 0.06963 0.28477-0.73109 0.30104-0.67871 0.91009
   5   3  -5 1410.96  192.14   1-0.64597 0.29231 0.27457 0.15490 0.71226-0.94369
  -5   3   5 1172.71  209.28   1 0.45731-0.81197-0.87785 0.44823-0.14224 0.37387
   5  -3  -5 1261.65  167.46   1-0.52869 0.88295 0.48367-0.05464-0.69752 0.46625
   5   3  -5 1091.19  124.52   1-0.94899 0.59633-0.27146 0.70080 0.16034-0.39147
  -5   3   4 7899.91  261.97   1 0.58429-0.93863-0.76387 0.33332 0.27402-0.08869
  -5   3   4 7695.61  264.19   1 0.11583-0.47025-0.76732 0.33661-0.63070 0.81581
  -5  -3   4 9630.24  487.85   1 0.02433 0.33033-0.69149 0.26094-0.72197 0.90707
   5   3  -4 8603.20  543.37   1-0.63874 0.28513 0.19547 0.23467 0.74417-0.92931
  -5   3   4 9821.76  471.73   1 0.47306-0.82773-0.86440 0.43401-0.17033 0.35564
   5  -3  -4 8112.65  396.20   1-0.49274 0.84707 0.50050-0.07077-0.71182 0.52673
   5   3  -4 7742.42  327.01   1-0.93873 0.58624-0.29030 0.72037 0.18573-0.37064
  -5   3   3 1783.04   86.05   1 0.57729-0.93161-0.77934 0.34805 0.24361-0.10461
  -5  -3   3 1573.54  239.33   1-0.02223 0.37688-0.64734 0.21610-0.76186 0.90069
  -5   3   3 1944.33  115.47   1-0.10053-0.25342-0.56446 0.13322-0.81931 0.95813
   5   3  -3 2556.35  267.48   1-0.62709 0.27353 0.11647 0.31435 0.77018-0.90904
  -5   3   3 2175.36  223.83   1 0.48831-0.84302-0.84968 0.41843-0.19895 0.33796
   5  -3  -3 1873.90  159.70   1-0.44964 0.80399 0.51923-0.08877-0.72678 0.58796
   5   3  -3 1872.92  157.87   1-0.92744 0.57512-0.30879 0.73960 0.21090-0.34958
  -5   3   2  837.67   56.15   1 0.57026-0.92457-0.79269 0.36066 0.21548-0.12281
  -5  -3   2  866.04  200.36   1-0.06906 0.42370-0.59909 0.16715-0.79769 0.89024
  -5   3   2  750.88   81.73   1-0.27240-0.08181-0.34050-0.09140-0.89991 0.99244
   5   3  -2 1293.75  156.55   1-0.61135 0.25752 0.03913 0.39249 0.79038-0.88296
  -5   3   2 1193.96  163.60   1 0.50330-0.85803-0.83365 0.40167-0.22739 0.32006
   5  -3  -2  644.62  109.13   1-0.39838 0.75277 0.53935-0.10815-0.74188 0.64933
   5   3  -2  941.81  111.69   1-0.91515 0.56300-0.32692 0.75846 0.23580-0.32825
  -5   3   1 4683.03  143.02   1 0.56303-0.91732-0.80464 0.37188 0.18851-0.14217
  -5  -3   1 4921.55  307.64   1-0.11545 0.47007-0.54741 0.11478-0.82885 0.87513
  -5   3   1 5554.07  195.16   1-0.39487 0.04064-0.13762-0.29499-0.90836 0.95463
   5   3  -1 5225.67  628.50   1-0.59263 0.23886-0.03547 0.46774 0.80468-0.85097
  -5   3   1 5377.34  278.56   1 0.51789-0.87263-0.81623 0.38352-0.25602 0.30236
   5  -3  -1 5496.08  237.73   1-0.33807 0.69249 0.56024-0.12831-0.75619 0.70992
   5   3  -1 5105.26  221.23   1-0.90190 0.54992-0.34463 0.77690 0.26036-0.30659
  -5  -3   033894.12  795.32   1-0.16031 0.51478-0.49277 0.05933-0.85526 0.85526
  -5   3   032449.29  668.95   1-0.47570 0.12140 0.02754-0.46077-0.87917 0.87917
   5   3   036812.66 1250.64   1-0.57153 0.21781-0.10602 0.53893 0.81369-0.81369
  -5   3   035216.02  775.16   1 0.53205-0.88680-0.79735 0.36391-0.28486 0.28486
   5   3   033724.81  709.50   1-0.88775 0.53594-0.36186 0.79486 0.28451-0.28451
  -5   3   032453.46  727.32   1 0.26689-0.62125-0.57952 0.14535 0.77001-0.77001
  -5   3  -1  247.05   42.08   1 0.54780-0.90218-0.82587 0.39205 0.13357-0.17987
  -5  -3  -1 1327.18  256.56   1-0.20348 0.55801-0.43722 0.00305-0.87602 0.82982
   5   3   1 1255.22  127.05   1-0.54799 0.19440-0.17068 0.60431 0.81888-0.77266
  -5   3  -1  335.27   92.54   1 0.54575-0.90051-0.77692 0.34276-0.31390 0.26756
   5   3   1  825.34  105.33   1-0.87278 0.52114-0.37854 0.81228 0.30814-0.26191
  -5   3  -1  432.67  119.64   1 0.18658-0.54098-0.59923 0.16434 0.77852-0.82481
   5  -3   2  750.64   76.61   1 0.55890-0.20522-0.25047 0.68627 0.79049-0.69778
  -5  -3  -2  573.08  278.79   1-0.24411 0.59868-0.38139-0.05350-0.89159 0.79919
  -5   3  -2  434.21   99.71   1-0.58327 0.22899-0.06814-0.36603 0.80940-0.90198
   5   3   2  771.34  100.90   1-0.52468 0.17114-0.23066 0.66494 0.81945-0.72701
  -5   3  -2  669.95  116.90   1 0.55894-0.91371-0.75487 0.31997-0.34313 0.25046
   5   3   2  505.18   74.39   1-0.85711 0.50564-0.39460 0.82907 0.33111-0.23866
  -5   3  -2  503.04   89.32   1 0.09614-0.45058-0.61620 0.18060 0.78169-0.87427
   5  -3   3  372.19   70.32   1 0.57916-0.22548-0.32390 0.76041 0.74809-0.60903
  -5  -3  -3 1113.10  329.77   1-0.28195 0.63654-0.32621-0.10921-0.90226 0.76347
  -5   3  -3  144.03   40.85   1-0.53245 0.17808-0.21137-0.22355 0.81963-0.95828
   5   3   3   99.76   61.66   1-0.50142 0.14794-0.28476 0.71969 0.81699-0.67834
  -5   3  -3  433.83  142.13   1 0.57212-0.92657-0.73048 0.29456-0.37292 0.23383
   5   3   3  503.71   98.20   1-0.84243 0.48920-0.41113 0.84665 0.34824-0.20942
  -5  -3  -3  303.73   83.96   1 0.00539 0.34901-0.62748 0.19103 0.77861-0.91743
  -5   3  -3  140.49   76.16   1-0.00395-0.35041-0.62838 0.19194 0.77789-0.91671
   5  -3   4 8130.41  384.13   1 0.59103-0.23659-0.37988 0.81657 0.71159-0.52651
  -5  -3  -4 9005.42  441.04   1-0.31619 0.67077-0.27301-0.16311-0.90855 0.72349
  -5   3  -4 7737.02  275.34   1-0.46079 0.10637-0.36885-0.06672 0.80722-0.99208
   5   3   4 8007.35  333.78   1-0.47886 0.12543-0.33289 0.76847 0.81232-0.62746
  -5   3  -4 9273.72  353.86   1 0.58412-0.93860-0.70484 0.26819-0.40248 0.21702
   5   3   4 9560.67  345.97   1-0.82646 0.47328-0.42527 0.86151 0.36891-0.18381
  -5   3  -4 8989.75  373.53   1-0.11162-0.24287-0.63475 0.19764 0.76460-0.94970
  -5  -3  -4 7951.10  297.37   1 0.15612 0.19854-0.60555 0.16852 0.78033-0.96549
   5  -3   5 3963.41  411.59   1 0.59905-0.24456-0.42193 0.85931 0.68052-0.44918
  -5  -3  -5 3034.94  254.58   1-0.34685 0.70142-0.22262-0.21421-0.91111 0.67978
   5   3   5 2128.50  175.23   1-0.45750 0.10412-0.37519 0.81142 0.80617-0.57510
  -5   3  -5 2874.78  125.43   1-0.36244 0.00781-0.53343 0.09698 0.76425-0.99525
  -5   3  -5 2536.46  146.94   1 0.59541-0.94990-0.67734 0.23995-0.43207 0.20025
   5   3   5 3226.17  153.02   1-0.81073 0.45761-0.43827 0.87522 0.38810-0.15673
  -5   3  -5 2557.32  183.03   1-0.22447-0.13015-0.63328 0.19550 0.74064-0.97202
   5  -3   6  361.52   73.93   1 0.60410-0.24956-0.45362 0.89170 0.65519-0.37758
  -5  -3  -6  359.02  252.18   1-0.37390 0.72847-0.17572-0.26181-0.91066 0.63307
   5   3   6  271.90  100.82   1-0.43742 0.08394-0.41138 0.84853 0.79963-0.52243
  -5   3  -6  203.93   42.28   1-0.23913-0.11560-0.68967 0.25210 0.68349-0.96076
  -5   3  -6  273.44   66.88   1 0.60587-0.96038-0.64798 0.20986-0.46154 0.18336
   5   3   6   47.83   32.13   1-0.49639 0.14233 0.49898-0.06204-0.71035 0.98787
   5   3   6  251.11   58.86   1-0.79583 0.44276-0.44982 0.88749 0.40534-0.12770
  -5   3  -6  559.34  136.89   1-0.34021-0.01366-0.62194 0.18417 0.70529-0.98279
   5  -3   7 1040.53  178.95   1 0.60727-0.25269-0.47734 0.91612 0.63509-0.31121
  -5  -3  -7  970.45  174.54   1-0.39746 0.75202-0.13280-0.30543-0.90795 0.58409
   5   3   7 1017.13  141.36   1-0.41949 0.06607-0.44287 0.88072 0.79239-0.46898
  -5   3  -7  537.83   49.18   1-0.09668-0.25822-0.81997 0.38100 0.56417-0.88778
  -5   3  -7  534.76   70.71   1 0.61537-0.96990-0.61688 0.17802-0.49067 0.16612
   5   3   7  329.14   55.69   1-0.66783 0.31374 0.40397 0.03369-0.62513 0.94891
   5   3   7  901.99   81.93   1-0.78263 0.42961-0.45950 0.89789 0.41992-0.09601
  -5   3  -7  939.35  130.94   1-0.45325 0.09925-0.60147 0.16299 0.65786-0.98162
   5  -3   8  394.16   95.50   1 0.60927-0.25463-0.49482 0.93430 0.61962-0.24947
  -5  -3  -8  702.95  179.46   1-0.41777 0.77222-0.09403-0.34504-0.90367 0.53348
   5   3   8  504.11  107.22   1-0.40355 0.05019-0.46957 0.90813 0.78526-0.41566
  -5   3  -8  267.74   47.40   1 0.62376-0.97831-0.58435 0.14474-0.51908 0.14817
   5   3   8  339.81   51.32   1-0.77248 0.41951-0.46662 0.90572 0.43074-0.06055
  -5   3  -8  397.13   78.23   1-0.56236 0.20787-0.56954 0.13010 0.59947-0.96946
   5  -3   9  401.97  123.62   1 0.61050-0.25582-0.50734 0.94751 0.60817-0.19176
  -5  -3  -9  173.84  123.69   1-0.43499 0.78945-0.05973-0.38007-0.89844 0.48198
   5   3   9  447.22  154.91   1-0.38967 0.03636-0.49190 0.93116 0.77857-0.36277
   5   3   9  274.83   66.33   1-0.76764 0.41473-0.46991 0.90973 0.43577-0.01931
  -5   3  -9  412.65  117.10   1-0.66051 0.30591-0.53025 0.09011 0.53154-0.94778
   5  -3  10  223.82   71.36   1 0.61125-0.25651-0.51583 0.95670 0.60023-0.13754
  -5  -3 -10  432.43  168.82   1-0.44948 0.80393-0.02975-0.41078-0.89279 0.43005
   5   3  10  515.56  150.52   1-0.37787 0.02461-0.51026 0.95023 0.77255-0.31054
  -5   3 -10  227.05   74.70   1-0.74775 0.39320-0.48287 0.04233 0.45574-0.91847
   5  -3  11 1802.50  232.45   1 0.61167-0.25688-0.52101 0.96257 0.59531-0.08636
  -5  -3 -11 1403.35  213.75   1-0.46152 0.81596-0.00396-0.43730-0.88711 0.37811
   5   3  11 1274.05  171.94   1-0.36810 0.01490-0.52504 0.96572 0.76735-0.25914
  -5   3 -11 1532.99  116.91   1-0.82129 0.46670-0.42964-0.01161 0.37533-0.88433
   5  -3  12  182.21  121.81   1 0.61185-0.25701-0.52340 0.96566 0.59302-0.03780
  -5  -3 -12   26.09  117.27   1-0.47138 0.82582 0.01781-0.45981-0.88174 0.32646
   5   3  12   -3.39   94.27   1-0.36030 0.00716-0.53658 0.97796 0.76306-0.20865
  -5   3 -12  116.81   46.52   1-0.88334 0.52729-0.36692-0.07487 0.29165-0.84637
   5  -3  13  267.51  116.07   1 0.61185-0.25696-0.52342 0.96638 0.59300 0.00848
  -5  -3 -13  247.25  179.03   1-0.47933 0.83376 0.03582-0.47855-0.87690 0.27534
   5   3  13  -37.81   83.39   1-0.35439 0.00131-0.54517 0.98725 0.75973-0.15912
   5  -3  14  312.76  129.00   1 0.61169-0.25676-0.52137 0.96503 0.59496 0.05279
  -5  -3 -14  208.32  124.41   1-0.48558 0.84000 0.05030-0.49375-0.87274 0.22491
   5   3  14  140.37   88.59   1-0.35028-0.00273-0.55107 0.99386 0.75737-0.11056
   5  -3  15  420.98  170.98   1 0.61139-0.25640-0.51750 0.96185 0.59865 0.09537
  -5  -3 -15  809.53  243.56   1-0.49031 0.84474 0.06147-0.50566-0.86937 0.17527
   5   3  15  234.14  117.07   1-0.34787-0.00509-0.55450 0.99800 0.75597-0.06297
  -5  -4  14  763.60  205.54   1 0.39317 0.07892-0.88962 0.46687-0.23235 0.88079
  -5   4  14  647.54  174.70   1 0.23921-0.71211-0.95248 0.53092 0.18851 0.45936
  -5  -4  14  623.39  173.54   1 0.52685-0.05422-0.80453 0.38129-0.27414 0.92286
   5  -4 -14  337.98  112.89   1-0.52411 0.99664 0.48591-0.06336-0.69942 0.05188
   5   4 -14  261.09   96.13   1-0.98967 0.51806-0.14323 0.56574-0.00593-0.64151
  -5  -4  13 2529.94  384.92   1 0.36810 0.10397-0.88735 0.46387-0.27765 0.87977
  -5   4  13 1532.92  254.11   1 0.25534-0.72820-0.95232 0.52991 0.16696 0.43463
  -5  -4  13 1840.31  288.58   1 0.55557-0.08295-0.76075 0.33679-0.33553 0.93791
   5  -4 -13 1842.11  398.84   1-0.52043 0.99293 0.48769-0.06441-0.70093 0.09964
   5   4 -13 3054.87  439.20   1-0.98597 0.51451-0.16538 0.58863 0.02232-0.62351
  -5  -4  12  418.25  187.77   1 0.34139 0.13066-0.88256 0.45835-0.32330 0.87911
  -5   4  12  267.40  157.50   1 0.27094-0.74378-0.95149 0.52823 0.14575 0.40957
  -5  -4  12  270.32  143.10   1 0.58145-0.10794-0.71082 0.28597-0.39576 0.95213
   5  -4 -12  331.79  115.78   1-0.51420 0.98667 0.49067-0.06668-0.70344 0.14840
   5   4 -12  476.11  144.67   1-0.98100 0.50970-0.18727 0.61126 0.05048-0.60544
  -5  -4  11  441.60  224.70   1 0.31409 0.15905-0.87396 0.44775-0.37085 0.87989
  -5   4  11  101.34  121.55   1 0.28602-0.75883-0.95004 0.52593 0.12491 0.38413
  -5  -4  11  107.64   88.63   1 0.60347-0.12997-0.65511 0.22953-0.45458 0.96458
   5  -4 -11  170.24   88.56   1-0.50550 0.97770 0.49462-0.07003-0.70697 0.19798
   5   4 -11  327.57  142.97   1-0.97477 0.50361-0.20889 0.63362 0.07856-0.58727
  -5  -4  10 -228.72  115.53   1 0.28396 0.18908-0.86351 0.43664-0.41677 0.87953
  -5   4  10  843.00  190.52   1 0.30054-0.77333-0.94802 0.52305 0.10449 0.35827
  -5  -4  10  329.12  145.42   1 0.62149-0.14801-0.59376 0.16744-0.51106 0.97470
   5  -4 -10  139.03   96.69   1-0.49342 0.96564 0.50019-0.07487-0.71157 0.24885
   5   4 -10  544.08  120.05   1-0.96728 0.49627-0.23023 0.65570 0.10654-0.56900
  -5  -4   9  515.95  187.48   1 0.25209 0.22086-0.84998 0.42244-0.46258 0.87906
  -5   4   9  304.11  176.46   1 0.31449-0.78725-0.94548 0.51966 0.08457 0.33191
   5  -4  -9  721.06  157.16   1-0.47800 0.95025 0.50710-0.08105-0.71718 0.30073
   5   4  -9  445.45  158.19   1-0.95853 0.48767-0.25128 0.67749 0.13439-0.55061
  -5  -4   8 3245.38  243.24   1 0.21849 0.25436-0.83316 0.40495-0.50803 0.87824
   5   4  -8 3315.81  194.59   1-0.64339 0.17106 0.45567-0.02817 0.61515-0.98485
  -5   4   8 3151.71  292.12   1 0.32783-0.80057-0.94248 0.51581 0.06522 0.30499
   5  -4  -8 2671.02  197.76   1-0.45893 0.93120 0.51534-0.08855-0.72373 0.35356
   5   4  -8 2732.43  225.82   1-0.94850 0.47769-0.27241 0.69955 0.16161-0.53143
  -5  -4   7 1720.73  224.15   1 0.18318 0.28943-0.81295 0.38421-0.55276 0.87670
   5   4  -7 1717.95  171.70   1-0.64753 0.17527 0.38108 0.04707 0.65990-0.98339
  -5   4   7 1744.09  223.27   1 0.34052-0.81323-0.93908 0.51156 0.04653 0.27740
   5  -4  -7 1883.24  186.27   1-0.43581 0.90812 0.52488-0.09736-0.73113 0.40722
   5   4  -7 2186.45  213.41   1-0.93728 0.46664-0.29279 0.72067 0.18912-0.51271
  -5  -4   6 6507.69  533.42   1 0.14641 0.32616-0.78912 0.35972-0.59652 0.87419
   5   4  -6 6409.34  499.66   1-0.64748 0.17585 0.30410 0.12469 0.69877-0.97648
  -5   4   6 6028.19  480.81   1 0.35235-0.82514-0.93545 0.50659 0.02794 0.25001
   5  -4  -6 7003.28  498.08   1-0.40825 0.88058 0.53565-0.10739-0.73919 0.46155
   5   4  -6 5383.98  389.55   1-0.92482 0.45435-0.31283 0.74144 0.21642-0.49378
  -5  -4   5 6443.92  506.08   1 0.10826 0.36427-0.76165 0.33160-0.63886 0.87025
   5   4  -5 6077.81  469.54   1-0.64205 0.17047 0.22579 0.20367 0.73265-0.96408
  -5   4   5 7352.41  525.66   1 0.36351-0.83631-0.93152 0.50189 0.01100 0.22062
   5  -4  -5 6198.53  443.98   1-0.37580 0.84816 0.54751-0.11852-0.74766 0.51630
   5   4  -5 5140.50  382.24   1-0.91112 0.44082-0.33249 0.76183 0.24350-0.47463
  -5  -4   4 3257.01  300.51   1 0.06900 0.40350-0.73057 0.29986-0.67933 0.86444
   5   4  -4 3081.30  343.80   1-0.63221 0.16068 0.14770 0.28245 0.76058-0.94572
  -5   4   4 3411.74  316.20   1 0.37379-0.84660-0.92749 0.49710-0.00480 0.19010
   5  -4  -4 4052.53  302.56   1-0.33803 0.81042 0.56025-0.13053-0.75620 0.57111
   5   4  -4 3270.39  266.87   1-0.89622 0.42609-0.35173 0.78181 0.27029-0.45520
  -5  -4   3  460.80  165.14   1 0.02928 0.44346-0.69596 0.26472-0.71747 0.85630
   5   4  -3  445.13  101.18   1-0.61830 0.14644 0.07141 0.35958 0.78268-0.92155
  -5   4   3  517.55  177.12   1 0.38306-0.85588-0.92352 0.49235-0.01924 0.15822
   5   4  -3  602.22  129.01   1-0.88013 0.41017-0.37053 0.80134 0.29676-0.43544
  -5   4   2  141.42   22.53   1 0.22203-0.69464-0.83514 0.40311-0.50322 0.59578
  -5  -4   2  305.38  230.82   1-0.01120 0.48394-0.65814 0.22620-0.75280 0.84535
  -5   4   2  200.31   39.38   1-0.16497-0.30702-0.48695 0.05497-0.85770 0.95011
   5   4  -2  405.75   80.08   1-0.60139 0.12957-0.00240 0.43403 0.79895-0.89152
  -5   4   2  698.15  201.77   1 0.39115-0.86398-0.91976 0.48784-0.03199 0.12464
   5   4  -2  569.61  142.57   1-0.86289 0.39310-0.38882 0.82036 0.32282-0.41528
  -5   4   2  390.19  190.28   1 0.24425-0.71674-0.58553 0.15279 0.77297-0.68039
  -5   4   1  350.23   46.40   1 0.33722-0.80958-0.88028 0.44739-0.33373 0.38001
  -5  -4   1  213.05  157.37   1-0.05167 0.52439-0.61747 0.18483-0.78489 0.83116
  -5   4   1  453.98   81.83   1-0.38804-0.08432-0.15021-0.28240-0.90931 0.95558
   5   4  -1  704.29  107.66   1-0.58200 0.11024-0.07240 0.50467 0.80995-0.85624
  -5   4   1  412.50  168.62   1 0.39781-0.87065-0.91647 0.48378-0.04260 0.08892
   5   4  -1  557.93  117.20   1-0.84528 0.37394-0.40849 0.84114 0.34441-0.39068
  -5   4   1  680.73  173.60   1 0.18826-0.66079-0.59886 0.16540 0.77840-0.73211
  -5   4   034046.69 1582.51   1 0.37957-0.85216-0.88867 0.45568-0.25723 0.25723
  -5  -4   040085.19 1919.95   1-0.09162 0.56433-0.57445 0.14111-0.81339 0.81339
  -5   4   033656.86 1566.36   1-0.48954 0.01712 0.05964-0.49286-0.86993 0.86993
   5   4   041893.26 1977.24   1-0.56094 0.08924-0.13777 0.57068 0.81630-0.81630
   5   4   039951.32 1875.66   1-0.82617 0.35489-0.42552 0.85889 0.36926-0.36926
  -5   4   038421.18 1831.77   1 0.12584-0.59840-0.61122 0.17705 0.78138-0.78138
   5  -4   1 7613.02  381.59   1 0.54277-0.07089-0.19968 0.63477 0.81579-0.76944
  -5   4  -1 6341.94  327.71   1 0.40046-0.87307-0.88983 0.45611-0.21868 0.17236
  -5  -4  -1 7762.25  498.04   1-0.13024 0.60282-0.52928 0.09511-0.83838 0.79218
   5   4   1 7534.12  422.16   1-0.53812 0.06656-0.19687 0.63049 0.81954-0.77333
  -5   4  -1 7570.46  425.99   1 0.40526-0.87813-0.91256 0.47833-0.05459 0.00827
   5   4   1 6504.21  369.82   1-0.80621 0.33497-0.44185 0.87594 0.39342-0.34715
  -5   4  -1 7285.86  438.63   1 0.05709-0.52969-0.62188 0.18699 0.78102-0.82731
   5  -4   2 3026.06  184.66   1 0.57280-0.10091-0.29933 0.73513 0.76308-0.67037
  -5  -4  -2 3588.94  299.76   1-0.16758 0.64021-0.48367 0.04878-0.85905 0.76664
   5   4   2 4441.77  287.96   1-0.51596 0.04445-0.25154 0.68581 0.81884-0.72641
  -5   4  -2 2772.23  201.36   1 0.40467-0.87755-0.91288 0.47788-0.05363-0.03902
   5   4   2 3184.25  227.75   1-0.78553 0.31435-0.45741 0.89222 0.41677-0.32422
  -5   4  -2 2963.05  269.96   1-0.01760-0.45476-0.62960 0.19382 0.77671-0.86926
   5  -4   3  562.25   73.11   1 0.58914-0.11635-0.37096 0.80696 0.71783-0.57902
  -5  -4  -3  980.19  205.16   1-0.20298 0.67566-0.43789 0.00226-0.87581 0.73720
   5   4   3  730.23  104.77   1-0.49418 0.02272-0.30063 0.73556 0.81571-0.67707
  -5   4  -3  367.96   75.14   1 0.39939-0.87229-0.91566 0.47989-0.04514-0.09383
   5   4   3 1015.65  124.51   1-0.76435 0.29322-0.47212 0.90764 0.43915-0.30033
  -5   4  -3  733.87  134.97   1-0.09758-0.37491-0.63434 0.19790 0.76686-0.90568
   5  -4   4 1166.78  166.69   1 0.59928-0.12644-0.42330 0.85999 0.67945-0.49438
  -5  -4  -4 1264.40  199.72   1-0.23609 0.70882-0.39270-0.04365-0.88884 0.70403
   5   4   4 1417.07  165.39   1-0.47328 0.00187-0.34423 0.77981 0.81086-0.62600
   5   4   4 1007.31  124.53   1-0.74292 0.27185-0.48587 0.92211 0.46041-0.27531
  -5   4  -4  675.83  129.87   1-0.18166-0.29096-0.63484 0.19773 0.75097-0.93607
   5  -4   5  527.68   65.89   1 0.60525-0.13236-0.46181 0.89920 0.64837-0.41703
  -5  -4  -5  755.61  166.60   1-0.26663 0.73941-0.34883-0.08825-0.89845 0.66743
   5   4   5  636.49   99.21   1-0.45363-0.01771-0.38254 0.81878 0.80490-0.57382
  -5   4  -5  882.36   90.30   1 0.35858-0.83150-0.93331 0.49600 0.01851-0.25014
   5   4   5  807.46  110.29   1-0.72158 0.25055-0.49858 0.93553 0.48034-0.24898
  -5   4  -5  813.84  123.58   1-0.26888-0.20279-0.62968 0.19262 0.72883-0.96008
   5  -4   6   42.32   29.17   1 0.60877-0.13583-0.49021 0.92829 0.62376-0.34615
  -5  -4  -6  273.73  166.13   1-0.29485 0.76755-0.30653-0.13100-0.90503 0.62744
   5   4   6  150.73   85.13   1-0.43526-0.03624-0.41526 0.85241 0.79880-0.52160
   5   4   6   77.99   47.71   1-0.70072 0.22975-0.51012 0.94779 0.49875-0.22111
  -5   4  -6  320.54  100.98   1-0.35691-0.11487-0.61957 0.18180 0.69909-0.97660
   5  -4   7 1359.99  204.44   1 0.61084-0.13784-0.51101 0.94979 0.60476-0.28088
  -5  -4  -7 1166.79  211.99   1-0.31992 0.79262-0.26703-0.17121-0.90903 0.58517
   5   4   7 1337.32  152.33   1-0.41888-0.05256-0.44392 0.88177 0.79212-0.46872
   5   4   7 1082.45  104.69   1-0.68183 0.21108-0.51992 0.95865 0.51456-0.19083
  -5   4  -7 1404.27  145.18   1-0.44422-0.02767-0.60351 0.16502 0.66214-0.98590
   5  -4   8 4515.25  395.21   1 0.61204-0.13899-0.52598 0.96545 0.59054-0.22039
  -5  -4  -8 6071.62  377.65   1-0.34220 0.81489-0.23044-0.20849-0.91092 0.54080
   5   4   8 4916.59  250.74   1-0.40432-0.06707-0.46831 0.90687 0.78562-0.41601
   5   4   8 4932.51  205.72   1-0.66368 0.19304-0.52877 0.96820 0.52908-0.15909
  -5   4  -8 5313.14  265.77   1-0.53050 0.05814-0.57977 0.14033 0.61840-0.98839
   5  -4   9 5531.31  667.74   1 0.61273-0.13963-0.53635 0.97652 0.58041-0.16399
  -5  -4  -9 7636.62  478.37   1-0.36176 0.83445-0.19707-0.24257-0.91120 0.49481
   5   4   9 7093.89  401.82   1-0.39162-0.07971-0.48881 0.92808 0.77954-0.36373
  -5   4  -9 7768.08  411.59   1-0.61090 0.13843-0.55169 0.11155 0.56783-0.98406
   5  -4  10  791.88  156.27   1 0.61310-0.13996-0.54303 0.98390 0.57376-0.11107
  -5  -4 -10  456.30  159.28   1-0.37874 0.85143-0.16707-0.27328-0.91029 0.44764
   5   4  10  672.03  136.99   1-0.38079-0.09048-0.50576 0.94574 0.77407-0.31206
  -5   4 -10  621.45   87.46   1-0.68553 0.21295-0.51805 0.07721 0.51152-0.97400
   5  -4  11 2173.33  350.69   1 0.61329-0.14009-0.54668 0.98824 0.57009-0.06114
  -5  -4 -11 2807.17  342.27   1-0.39330 0.86598-0.14052-0.30053-0.90860 0.39968
   5   4  11 2061.62  237.48   1-0.37180-0.09942-0.51949 0.96016 0.76934-0.26113
  -5   4 -11 1834.63  176.53   1-0.75369 0.28119-0.47910 0.03784 0.44989-0.95890
   5  -4  12  188.52   63.69   1 0.61334-0.14009-0.54778 0.99004 0.56898-0.01376
  -5  -4 -12  310.08  189.15   1-0.40562 0.87829-0.11742-0.32433-0.90646 0.35127
   5   4  12  233.16  128.00   1-0.36458-0.10657-0.53027 0.97165 0.76543-0.21102
  -5   4 -12  357.67   95.62   1-0.81352 0.34097-0.43603-0.00594 0.38477-0.94005
   5  -4  13 1124.88  214.46   1 0.61329-0.13999-0.54669 0.98965 0.57008 0.03140
  -5  -4 -13 2616.97  435.40   1-0.41590 0.88846-0.09767-0.34505-0.90414 0.30259
   5   4  13 1228.32  230.74   1-0.35908-0.11202-0.53836 0.98044 0.76237-0.16177
   5  -4  14  555.47  160.80   1 0.61314-0.13979-0.54370 0.98736 0.57309 0.07466
  -5  -4 -14  327.32  163.62   1-0.42425 0.89681-0.08127-0.36217-0.90188 0.25405
   5   4  14  620.02  188.25   1-0.35521-0.11583-0.54398 0.98677 0.76019-0.11339
  -5  -5  12  -99.05  132.34   1 0.35528 0.23481-0.88534 0.46113-0.29988 0.85569
  -5   5  12  341.38  147.35   1 0.19884-0.78977-0.94995 0.52669 0.24092 0.31440
   5  -5 -12  482.43  126.70   1-0.38403 0.97426 0.54458-0.12073-0.74561 0.19035
   5   5 -12  362.63  179.28   1-0.96848 0.37957-0.22705 0.65104 0.10236-0.65731
  -5  -5  11  277.62  135.92   1 0.33099 0.26021-0.87873 0.45253-0.34389 0.85293
  -5   5  11  458.27  162.18   1 0.21046-0.80137-0.95110 0.52698 0.22606 0.28299
  -5  -5  11   51.95  106.72   1 0.60732-0.01558-0.64355 0.21797-0.46582 0.97583
   5  -5 -11   51.20   55.07   1-0.37270 0.96296 0.54860-0.12401-0.74841 0.23942
   5   5 -11  130.51  105.80   1-0.95972 0.37096-0.24860 0.67333 0.13083-0.63953
  -5  -5  10  121.76  121.98   1 0.30426 0.28685-0.87081 0.44394-0.38613 0.84889
  -5   5  10  531.19  120.92   1 0.22124-0.81212-0.95187 0.52690 0.21212 0.25065
  -5  -5  10  228.87  117.49   1 0.62517-0.03345-0.57825 0.15193-0.52418 0.98782
   5  -5 -10  158.33   87.31   1-0.35840 0.94869 0.55352-0.12819-0.75176 0.28904
   5   5 -10  205.68  101.68   1-0.94964 0.36085-0.27019 0.69587 0.15864-0.62091
  -5  -5   9  563.48  235.94   1 0.27619 0.31482-0.86044 0.43290-0.42818 0.84467
   5   5  -9  368.18  112.87   1-0.63731 0.04695 0.50771-0.08089 0.57969-0.99561
  -5   5   9  202.89  121.69   1 0.23109-0.82195-0.95231 0.52649 0.19923 0.21725
   5  -5  -9  335.16  147.46   1-0.34093 0.93124 0.55931-0.13326-0.75559 0.33915
   5   5  -9  281.83  113.87   1-0.93838 0.34976-0.29090 0.71731 0.18655-0.60259
  -5  -5   8  743.15  251.47   1 0.24682 0.34410-0.84751 0.41930-0.46989 0.84010
   5   5  -8  122.95   62.82   1-0.64511 0.05481 0.43413-0.00664 0.62876-0.99847
  -5   5   8  222.62  129.80   1 0.23992-0.83075-0.95249 0.52582 0.18758 0.18263
   5  -5  -8  508.06  168.61   1-0.32006 0.91040 0.56593-0.13914-0.75978 0.38961
   5   5  -8  299.23  151.55   1-0.92591 0.33746-0.31116 0.73831 0.21414-0.58396
  -5  -5   7 4955.11  605.73   1 0.21618 0.37463-0.83191 0.40304-0.51105 0.83498
   5   5  -7 4886.99  557.66   1-0.64782 0.05759 0.35808 0.07008 0.67238-0.99587
  -5   5   7 4437.81  541.84   1 0.24759-0.83840-0.95249 0.52497 0.17736 0.14658
   5   5  -7 4713.64  592.73   1-0.91224 0.32396-0.33096 0.75884 0.24139-0.56498
  -5  -5   627878.79 5368.81   1 0.18435 0.40635-0.81366 0.38427-0.55132 0.82898
   5   5  -625642.26 1407.11   1-0.64633 0.05678 0.28055 0.14824 0.70960-0.98731
  -5   5   627230.74 5237.80   1 0.25396-0.84473-0.95236 0.52399 0.16882 0.10883
   5   5  -625735.08 1131.75   1-0.89741 0.30931-0.35026 0.77887 0.26823-0.54560
  -5   5   625629.24 1141.66   1 0.26696-0.85748-0.57950 0.14962 0.77000-0.49226
  -5  -5   5 7863.21  515.29   1 0.15151 0.43915-0.79258 0.36253-0.59063 0.82201
   5   5  -5 7713.30  602.44   1-0.63964 0.05014 0.20316 0.22630 0.74133-0.97276
  -5   5   5 8648.19  496.29   1 0.25879-0.84954-0.95219 0.52297 0.16230 0.06907
   5   5  -5 8614.41  467.05   1-0.88147 0.29354-0.36903 0.79837 0.29463-0.52577
  -5   5   5 8095.37  470.66   1 0.23450-0.82506-0.58801 0.15741 0.77411-0.54266
  -5  -5   4 3490.87  321.64   1 0.11777 0.47286-0.76875 0.33804-0.62860 0.81371
   5   5  -4 2543.56  342.09   1-0.62891 0.03947 0.12710 0.30304 0.76701-0.95215
  -5   5   4 2231.65  200.29   1 0.26180-0.85252-0.95206 0.52199 0.15822 0.02688
   5   5  -4 2586.02  220.80   1-0.86448 0.27671-0.38721 0.81729 0.32052-0.50542
  -5   5   4 2546.76  244.38   1 0.19778-0.78838-0.59675 0.16543 0.77766-0.59251
  -5  -5   3  436.01  219.29   1 0.08332 0.50726-0.74223 0.31087-0.66493 0.80376
   5   5  -3  556.90   95.80   1-0.61462 0.02477 0.05390 0.37709 0.78697-0.92584
  -5   5   3  366.85  119.64   1 0.26259-0.85329-0.95202 0.52110 0.15714-0.01831
   5   5  -3  729.43  141.12   1-0.84703 0.25769-0.40685 0.83807 0.34204-0.48086
  -5   5   3  136.82  101.46   1 0.15666-0.74730-0.60544 0.17342 0.78031-0.64144
  -5  -5   2 1358.01  191.27   1 0.04842 0.54213-0.71317 0.28115-0.69930 0.79186
   5   5  -2 1403.18  245.70   1-0.59781 0.00801-0.01626 0.44789 0.80147-0.89405
  -5   5   2 1535.86  167.57   1 0.26062-0.85130-0.95211 0.52034 0.15981-0.06726
   5   5  -2 1217.06  164.70   1-0.82832 0.23903-0.42368 0.85561 0.36656-0.45911
  -5   5   2 1042.63  131.42   1 0.11105-0.70173-0.61377 0.18103 0.78162-0.68905
  -5  -5   1  425.63  152.45   1 0.01369 0.57712-0.68174 0.24911-0.73145 0.77773
   5   5  -1  144.87   68.67   1-0.57903-0.01070-0.08220 0.51447 0.81114-0.85743
  -5   5   1  202.30   82.51   1 0.25507-0.84572-0.95233 0.51970 0.16732-0.12104
   5   5  -1  129.87  107.64   1-0.80884 0.21959-0.43978 0.87243 0.39034-0.43661
  -5   5   1  323.64  143.96   1 0.06094-0.65166-0.62136 0.18790 0.78114-0.73485
  -5  -5   0 4299.49  299.63   1-0.02122 0.61203-0.64835 0.21501-0.76104 0.76104
   5   5   0 3989.95  336.71   1-0.55900-0.03067-0.14338 0.57628 0.81667-0.81667
  -5   5   0 4010.01  211.49   1 0.24469-0.83531-0.95251 0.51903 0.18124-0.18124
   5   5   0 4334.97  259.43   1-0.78871 0.19952-0.45510 0.88847 0.41328-0.41328
  -5   5   0 4195.26  266.01   1 0.00675-0.59699-0.62734 0.19289 0.77871-0.77871
   5  -5   1  213.96   42.19   1 0.54454 0.04555-0.20502 0.64011 0.81328-0.76693
  -5  -5  -1  876.98  207.80   1-0.05564 0.64644-0.61332 0.17928-0.78787 0.74159
   5   5   1  328.47   86.94   1-0.53760-0.05193-0.19822 0.63185 0.81956-0.77334
  -5   5  -1  288.70   63.22   1 0.22743-0.81802-0.95217 0.51785 0.20404-0.25032
   5   5   1  418.22  107.86   1-0.76812 0.17898-0.46959 0.90367 0.43528-0.38900
  -5   5  -1  449.11  140.14   1-0.05203-0.53833-0.63215 0.19703 0.77309-0.81937
   5  -5   2 5095.01  345.65   1 0.57665 0.01345-0.31400 0.74980 0.75423-0.66152
  -5  -5  -2 6789.86  361.67   1-0.08924 0.68002-0.57709 0.14236-0.81178 0.71923
   5   5   2 6908.84  309.98   1-0.51702-0.07246-0.24904 0.68332 0.81893-0.72650
  -5   5  -2 5619.55  206.04   1 0.19957-0.79014-0.95003 0.51486 0.23999-0.33255
   5   5   2 6382.40  303.84   1-0.74724 0.15816-0.48319 0.91799 0.45623-0.36368
  -5   5  -2 6115.30  310.56   1-0.11457-0.47592-0.63482 0.19904 0.76411-0.85666
   5  -5   3  307.81   59.27   1 0.59257-0.00138-0.38744 0.82343 0.70621-0.56740
  -5  -5  -3  415.20  153.70   1-0.12166 0.71243-0.54019 0.10476-0.83269 0.69387
   5   5   3  255.54  102.96   1-0.49692-0.09250-0.29467 0.72960 0.81622-0.67758
   5   5   3  493.16  119.89   1-0.72631 0.13728-0.49584 0.93136 0.47602-0.33720
  -5   5  -3  181.70   77.16   1-0.18032-0.41030-0.63487 0.19843 0.75127-0.89010
   5  -5   4   72.09   52.20   1 0.60199-0.01074-0.43972 0.87641 0.66651-0.48144
  -5  -5  -4  217.70  155.38   1-0.15214 0.74293-0.50286 0.06650-0.85086 0.66605
   5   5   4  147.98   60.94   1-0.47771-0.11167-0.33525 0.77083 0.81203-0.62717
   5   5   4   64.35   66.47   1-0.70560 0.11662-0.50750 0.94373 0.49454-0.30944
  -5   5  -4  570.13  187.05   1-0.24861-0.34087-0.63120 0.19485 0.73469-0.91969
   5  -5   5  212.00   71.70   1 0.60727-0.01597-0.47733 0.91472 0.63510-0.40376
  -5  -5  -5  106.64   99.11   1-0.18125 0.77208-0.46630 0.02921-0.86585 0.63484
   5   5   5   94.31   75.09   1-0.45968-0.12965-0.37100 0.80724 0.80687-0.57579
   5   5   5  150.59  103.33   1-0.68606 0.09722-0.51778 0.95510 0.51108-0.27984
  -5   5  -5   53.08   71.69   1-0.31869-0.27090-0.62467 0.18761 0.71289-0.94414
   5  -5   6  168.28   68.23   1 0.61025-0.01890-0.50462 0.94271 0.61068-0.33307
  -5  -5  -6  258.18  183.00   1-0.20840 0.79928-0.43066-0.00716-0.87812 0.60090
   5   5   6  433.42  137.50   1-0.44304-0.14623-0.40224 0.83913 0.80119-0.52390
   5   5   6  170.07  105.42   1-0.66679 0.07806-0.52728 0.96531 0.52663-0.24914
  -5   5  -6  366.07  161.06   1-0.38951-0.20019-0.61431 0.17654 0.68621-0.96371
   5  -5   7  361.88  106.76   1 0.61192-0.02052-0.52435 0.96313 0.59211-0.26823
  -5  -5  -7  501.86  178.29   1-0.23343 0.82437-0.39641-0.04213-0.88789 0.56447
   5   5   7  449.77  132.24   1-0.42776-0.16170-0.42854 0.86640 0.79583-0.47243
   5   5   7  424.01  133.13   1-0.64880 0.06018-0.53563 0.97436 0.54050-0.21677
  -5   5  -7  469.69  153.34   1-0.46007-0.12973-0.59988 0.16140 0.65456-0.97832
   5  -5   8  444.63  109.74   1 0.61284-0.02139-0.53836 0.97783 0.57843-0.20828
  -5  -5  -8  553.55  186.78   1-0.25625 0.84724-0.36398-0.07529-0.89545 0.52583
   5   5   8  241.91   99.06   1-0.41433-0.17509-0.45165 0.89021 0.79014-0.42054
   5   5   8  306.34  127.35   1-0.63252 0.04401-0.54277 0.98220 0.55254-0.18256
  -5   5  -8  271.29  110.90   1-0.53064-0.05958-0.57973 0.14029 0.61832-0.98831
   5  -5   9 1745.94  331.79   1 0.61335-0.02184-0.54789 0.98806 0.56886-0.15244
  -5  -5  -9 2567.18  314.88   1-0.27682 0.86786-0.33370-0.10630-0.90111 0.48528
   5   5   9 1785.34  200.45   1-0.40256-0.18680-0.47119 0.91046 0.78480-0.36899
  -5   5  -9 1893.26  223.14   1-0.59754 0.00719-0.55689 0.11675 0.57690-0.99313
   5  -5  10  325.37  128.37   1 0.61390-0.02374-0.55377 0.99476 0.56254-0.09941
  -5  -5 -10  578.95  206.86   1-0.29568 0.88650-0.30525-0.13510-0.90520 0.44254
   5   5  10  662.68  130.43   1-0.39247-0.19683-0.48747 0.92744 0.77995-0.31795
  -5   5 -10  718.77  154.48   1-0.66118 0.07073-0.52994 0.08909 0.53102-0.99350
   5  -5  11  571.70  157.15   1 0.61401-0.02388-0.55676 0.99846 0.55946-0.05002
  -5  -5 -11  414.30  174.14   1-0.31185 0.90266-0.27994-0.16111-0.90795 0.39903
   5   5  11  225.31  108.47   1-0.38402-0.20522-0.50076 0.94144 0.77573-0.26752
  -5   5 -11  134.70   64.43   1-0.72115 0.13075-0.49882 0.05756 0.48073-0.98974
  -5  -6   8  223.22  125.04   1 0.28026 0.42872-0.86207 0.43386-0.42222 0.79243
   5   6  -8  320.30   98.75   1-0.64505-0.06320 0.43494-0.00745 0.62826-0.99797
  -5   6   8  280.12  100.46   1 0.14509-0.85552-0.94056 0.51390 0.30706 0.06311
   5   6  -8  195.11  162.74   1-0.90992 0.20384-0.33411 0.76126 0.24575-0.61557
  -5   6   8    1.71  112.66   1 0.18824-0.89689-0.59887 0.17041 0.77840-0.40809
  -5  -6   7  382.07  190.82   1 0.25378 0.45510-0.85076 0.42188-0.46021 0.78414
   5   6  -7  123.14   65.75   1-0.64782-0.06037 0.35835 0.06980 0.67224-0.99573
  -5   6   7  141.29   92.96   1 0.14740-0.85778-0.94110 0.51362 0.30428 0.01962
   5   6  -7  489.02  197.28   1-0.89530 0.18938-0.35286 0.78073 0.27187-0.59546
  -5   6   7  435.64  136.24   1 0.16399-0.87268-0.60398 0.17481 0.77994-0.45592
  -5  -6   6 1211.01  242.97   1 0.22640 0.48238-0.83734 0.40780-0.49758 0.77523
   5   6  -6  576.31  166.66   1-0.64636-0.06110 0.28098 0.14781 0.70941-0.98712
  -5   6   6  973.29  173.01   1 0.14771-0.85805-0.94118 0.51287 0.30390-0.02627
   5   6  -6 1373.34  262.62   1-0.87972 0.17397-0.37099 0.79960 0.29741-0.57477
  -5   6   6  646.31  156.80   1 0.13651-0.84523-0.60929 0.17941 0.78110-0.50336
  -5  -6   5 1431.15  261.04   1 0.19821 0.51048-0.82182 0.39161-0.53415 0.76553
   5   6  -5  563.67  134.61   1-0.63984-0.06756 0.20490 0.22456 0.74068-0.97211
  -5   6   5  384.84  132.89   1 0.14565-0.85595-0.94069 0.51157 0.30639-0.07502
   5   6  -5  772.20  166.20   1-0.86324 0.15767-0.38847 0.81781 0.32232-0.55345
  -5   6   5  478.47  143.17   1 0.10571-0.81447-0.61466 0.18406 0.78167-0.55022
  -5  -6   4  557.59  171.36   1 0.16938 0.53937-0.80432 0.37361-0.56953 0.75464
   5   6  -4   91.14   48.10   1-0.62954-0.07781 0.13090 0.29924 0.76585-0.95099
  -5   6   4  242.47   94.15   1 0.14072-0.85098-0.93949 0.50955 0.31232-0.12723
   5   6  -4  267.83  140.16   1-0.84651 0.13921-0.40735 0.83785 0.34275-0.52785
  -5   6   4  112.66   85.40   1 0.07152-0.78032-0.61989 0.18858 0.78141-0.59626
  -5  -6   3  330.30  161.34   1 0.13995 0.56877-0.78466 0.35329-0.60391 0.74274
   5   6  -3   61.99   51.92   1-0.61602-0.09180 0.06045 0.37053 0.78540-0.92426
  -5   6   3  282.20   99.74   1 0.13221-0.84243-0.93729 0.50653 0.32247-0.18365
   5   6  -3  123.45   95.64   1-0.82869 0.12144-0.42336 0.85458 0.36609-0.50491
  -5   6   3  221.97  120.07   1 0.03393-0.74277-0.62478 0.19275 0.78006-0.64119
  -5  -6   2  801.99  200.23   1 0.11009 0.59859-0.76303 0.33101-0.63691 0.72946
   5   6  -2  246.47   90.89   1-0.60028-0.10749-0.00674 0.43837 0.79976-0.89233
  -5   6   2  634.11   93.19   1 0.11914-0.82932-0.93360 0.50201 0.33791-0.24536
   5   6  -2  490.90  176.95   1-0.81030 0.10311-0.43861 0.87055 0.38860-0.48115
  -5   6   2  506.23  145.55   1-0.00642-0.70168-0.62861 0.19549 0.77768-0.68513
  -5  -6   1   94.79  108.08   1 0.08000 0.62864-0.73957 0.30688-0.66830 0.71458
   5   6  -1   28.96   52.15   1-0.58284-0.12487-0.06959 0.50186 0.80959-0.85588
  -5   6   1  218.13   76.13   1 0.10002-0.81015-0.92752 0.49511 0.36013-0.31385
   5   6  -1    2.43  117.83   1-0.79148 0.08434-0.45307 0.88572 0.41021-0.45649
  -5  -6   0 2716.34  333.66   1 0.04989 0.65871-0.71444 0.28110-0.69790 0.69790
   5   6   0 1834.83  285.03   1-0.56437-0.14329-0.12771 0.56062 0.81557-0.81557
   5   6   0 2245.68  254.06   1-0.77237 0.06528-0.46669 0.90005 0.43084-0.43084
  -5   6   0 1882.38  226.42   1-0.09834-0.61002-0.63437 0.19992 0.76674-0.76674
  -5  -6  -1  410.53  180.96   1 0.02032 0.68857-0.68784 0.25380-0.72557 0.67929
   5   6   1  160.95   77.33   1-0.54469-0.16281-0.17958 0.61320 0.81917-0.77296
   5   6   1  640.53  168.35   1-0.75316 0.04612-0.47944 0.91352 0.45042-0.40415
  -5   6  -1  276.36  128.61   1-0.14876-0.55973-0.63520 0.20009 0.75787-0.80415
  -5  -6  -2 5756.50  507.99   1-0.00912 0.71801-0.66016 0.22543-0.75106 0.65851
   5   6   2 5142.57  409.36   1-0.52584-0.18162-0.22782 0.66210 0.81950-0.72706
   5   6   2 6772.93  559.55   1-0.73402 0.02704-0.49129 0.92609 0.46886-0.37632
  -5   6  -2 4052.92  377.07   1-0.20177-0.50685-0.63426 0.19848 0.74631-0.83886
  -5  -6  -3  -32.95  111.92   1-0.03788 0.74675-0.63166 0.19622-0.77431 0.63549
   5   6   3  217.60   63.80   1-0.50745-0.19996-0.27122 0.70615 0.81788-0.67923
   5   6   3  297.32  174.22   1-0.71519 0.00825-0.50220 0.93772 0.48609-0.34727
  -5   6  -3  445.11  175.17   1-0.25667-0.45061-0.63063 0.19500 0.73240-0.87115
  -5  -6  -4  280.94  169.50   1-0.06571 0.77456-0.60268 0.16655-0.79526 0.61016
   5   6   4  218.58   72.28   1-0.48985-0.21750-0.30993 0.74552 0.81485-0.62999
   5   6   4  318.03  152.89   1-0.69689-0.00998-0.51215 0.94839 0.50202-0.31693
  -5   6  -4   90.43   63.28   1-0.31366-0.39372-0.62526 0.18891 0.71460-0.89960
  -5  -6  -5  342.86  177.07   1-0.09238 0.80122-0.57361 0.13678-0.81389 0.58252
   5   6   5   40.32   45.28   1-0.47330-0.23400-0.34419 0.78043 0.81087-0.57979
   5   6   5  219.35  137.74   1-0.67994-0.02677-0.52087 0.95819 0.51610-0.28486
  -5   6  -5  330.07  141.52   1-0.37184-0.33566-0.61727 0.18021 0.69332-0.92458
  -5  -6  -6  486.32  179.28   1-0.11768 0.82651-0.54482 0.10730-0.83024 0.55259
   5   6   6  247.37  108.68   1-0.45798-0.24927-0.37426 0.81116 0.80633-0.52904
   5   6   6 -111.46   65.87   1-0.66356-0.04304-0.52882 0.96685 0.52917-0.25168
  -5   6  -6  147.94  109.33   1-0.43059-0.27701-0.60644 0.16867 0.66843-0.94594
   5  -6   7  533.58  127.93   1 0.61141 0.09839-0.51774 0.95652 0.59842-0.27454
  -5  -6  -7 1314.24  268.86   1-0.14089 0.84988-0.51655 0.07800-0.84458 0.52116
   5   6   7  730.58  150.32   1-0.44403-0.26317-0.40043 0.83798 0.80155-0.47804
   5   6   7  629.24  144.31   1-0.64857-0.05791-0.53573 0.97446 0.54067-0.21693
  -5   6  -7  545.02  130.24   1-0.49044-0.21755-0.59112 0.15239 0.64034-0.96407
   5  -6   8 1657.07  347.33   1 0.61248 0.09737-0.53247 0.97195 0.58423-0.21408
  -5  -6  -8 1972.03  345.46   1-0.16290 0.87195-0.48953 0.05025-0.85662 0.48700
   5   6   8 2578.11  415.12   1-0.43138-0.27606-0.42217 0.86073 0.79729-0.42768
  -5   6  -8 2429.65  397.44   1-0.54840-0.15970-0.57416 0.13472 0.60794-0.97792
  -6   0  1626007.66 3055.45   1 0.47757-0.47761-0.87676 0.36855-0.05664 0.79752
  -6   0  1629922.76 4358.71   1 0.41810-0.41828-0.90525 0.39737-0.07555 0.81677
   6   0 -1626441.01 3109.80   1-0.89078 0.89071 0.19570 0.31213-0.41012-0.33046
  -6   0  15  316.11  119.41   1 0.45233-0.45247-0.88454 0.37592-0.11391 0.80866
  -6   0  15  392.03  233.86   1 0.44275-0.44294-0.88898 0.38033-0.11697 0.81187
   6   0 -15  344.38  106.45   1-0.89858 0.89852 0.18475 0.32381-0.39799-0.29629
  -6   0  14  268.99  105.98   1 0.42345-0.42361-0.88905 0.37970-0.17397 0.82241
  -6   0  14  600.12  229.97   1 0.46668-0.46689-0.87003 0.36062-0.15886 0.80744
   6   0 -14  -30.07   86.00   1-0.90547 0.90542 0.17467 0.33461-0.38678-0.26121
  -6   0  13  309.23  117.32   1 0.39103-0.39122-0.88952 0.37944-0.23630 0.83843
  -6   0  13  134.57  178.76   1 0.48963-0.48975-0.84834 0.33769-0.20142 0.80380
   6   0 -13  185.20  113.37   1-0.91145 0.91142 0.16557 0.34444-0.37661-0.22510
  -6   0  12  440.05  135.61   1 0.35473-0.35494-0.88525 0.37444-0.30082 0.85662
  -6   0  12  515.30  222.67   1 0.51191-0.51204-0.82360 0.31222-0.24415 0.80020
   6   0 -12  850.52  163.45   1-0.91652 0.91651 0.15756 0.35317-0.36762-0.18781
  -6   0  11  424.89  137.55   1 0.31550-0.31466-0.87439 0.36147-0.36863 0.87767
  -6   0  11  -87.69  165.97   1 0.53319-0.53333-0.79574 0.28363-0.28722 0.79693
   6   0 -11  404.75  152.38   1-0.92068 0.92068 0.15078 0.36067-0.35999-0.14915
  -6   0  1039918.06 2380.16   1 0.27053-0.26978-0.85811 0.34453-0.43641 0.89917
  -6   0  1039150.46 2361.82   1 0.55333-0.55348-0.76457 0.25173-0.33053 0.79390
   6   0 -1040319.35 2409.38   1-0.92389 0.92391 0.14541 0.36677-0.35392-0.10893
  -6   0   9134621.125605.99   1 0.22086-0.22021-0.83443 0.32018-0.50491 0.92140
  -6   0   9139375.726512.92   1 0.57216-0.57233-0.72993 0.21636-0.37392 0.79096
   6   0  -9120915.522999.84   1-0.92609 0.92612 0.14166 0.37124-0.34968-0.06689
  -6   0   8133542.3 6179.69   1 0.16657-0.16646-0.80251 0.28776-0.57290 0.94312
  -6   0   8135692.7 6285.95   1 0.58990-0.58937-0.69123 0.17669-0.41738 0.78829
   6   0  -8138538.7 8093.31   1-0.92717 0.92721 0.13979 0.37383-0.34756-0.02272
  -6   0   722487.98  774.74   1 0.10782-0.10776-0.76132 0.24591-0.63934 0.96328
  -6   0   720918.15  742.66   1 0.60546-0.60495-0.64920 0.13393-0.46036 0.78491
   6   0  -720225.90  668.56   1-0.92697 0.92703 0.14013 0.37421-0.34795 0.02395
  -6   0   6 2140.07  246.75   1 0.04537-0.04535-0.71053 0.19447-0.70219 0.97985
  -6   0   6 1772.43  221.74   1 0.61903-0.61854-0.60340 0.08738-0.50269 0.78087
   6   0  -6 1282.16  132.23   1-0.92525 0.92532 0.14310 0.37197-0.35132 0.07360
  -6   0   5  262.79  186.24   1-0.01925 0.01968-0.65029 0.13378-0.75943 0.99081
  -6   0   5   26.96  119.10   1 0.63034-0.62986-0.55383 0.03708-0.54399 0.77581
   6   0  -5  -30.98   63.40   1-0.92162 0.92170 0.14923 0.36656-0.35824 0.12681
  -6   0   4  166.33  129.65   1-0.08537 0.08579-0.58137 0.06416-0.80914 0.99424
   6   0  -4   58.64   78.97   1-0.63833 0.63815 0.50043 0.01629 0.58488-0.76973
   6   0  -4  128.33   57.21   1-0.91551 0.91561 0.15919 0.35733-0.36945 0.18430
  -6   0   3 2390.81  222.36   1-0.15037 0.15060-0.50503-0.01290-0.84990 0.98851
   6   0  -3 2091.78  163.13   1-0.64438 0.64426 0.44396 0.07344 0.62263-0.76126
   6   0  -3 2209.48  152.72   1-0.90601 0.90612 0.17386 0.34338-0.38588 0.24702
  -6   0   2   24.48  125.77   1-0.21300 0.21328-0.42446-0.09419-0.88003 0.97243
   6   0  -2   10.61   56.36   1-0.64745 0.64739 0.38459 0.13348 0.65794-0.75037
   6   0  -2  107.76   66.42   1-0.89171 0.89183 0.19443 0.32354-0.40871 0.31613
  -6   0   173292.98 1480.89   1-0.27129 0.27161-0.34195-0.17743-0.89970 0.94590
   6   0  -171599.82 2033.23   1-0.64810 0.64846 0.32341 0.19534 0.68946-0.73575
   6   0  -173032.51 1403.51   1-0.87030 0.87044 0.22243 0.29625-0.43942 0.39314
  -6   0   0  557.25  229.41   1-0.32419 0.32441-0.26012-0.25985-0.90952 0.90952
   6   0   0  451.03   78.07   1-0.64500 0.64542 0.26023 0.25920 0.71850-0.71850
   6   0   0  482.12   93.73   1-0.83889 0.83895 0.25969 0.25949-0.47835 0.47835
  -6   0   0  627.40   76.99   1-0.95557 0.95449-0.25773-0.26170 0.14298-0.14298
  -6   0  -1 2040.28  185.25   1-0.37058 0.37079-0.18161-0.33907-0.91086 0.86460
   6   0   1 2455.37  208.71   1-0.63886 0.63933 0.19649 0.32361 0.74379-0.69751
   6   0   1 2390.24  278.31   1-0.78922 0.78928 0.30931 0.21058-0.53051 0.57678
  -6   0  -1 2673.36  123.87   1-0.94765 0.94616-0.27406-0.24627 0.16383-0.21006
  -6   0  -2 1451.06  179.59   1-0.41036 0.41057-0.10837-0.41301-0.90545 0.81292
   6   0   2 2441.08  275.59   1-0.62993 0.63045 0.13324 0.38754 0.76513-0.67256
   6   0   2 1577.76  208.74   1-0.70982 0.70987 0.37464 0.14597-0.59648 0.68903
  -6   0  -2 1932.78   95.21   1-0.93211 0.93045-0.30139-0.21967 0.20080-0.29326
  -6   0  -3  519.75  141.53   1-0.44384 0.44394-0.04155-0.48050-0.89514 0.75632
   6   0   3  873.54  115.55   1-0.61827 0.61871 0.07124 0.45015 0.78272-0.64385
   6   0   3  488.62   81.49   1-0.57620 0.57624 0.45914 0.06216-0.67614 0.81490
  -6   0  -3  533.62   51.23   1-0.90098 0.89915-0.34580-0.17599 0.26200-0.40069
  -6   0  -4 4719.71  257.67   1-0.47143 0.47153 0.01791-0.54070-0.88172 0.69662
   6   0   4 5977.03  587.23   1-0.60498 0.60547 0.01204 0.50998 0.79614-0.61098
  -6   0  -4 5024.07  128.93   1-0.82988 0.82930-0.42233-0.10057 0.36458-0.54967
  -6   0  -514377.06  587.02   1-0.49390 0.49400 0.07004-0.59357-0.86669 0.63532
   6   0   514576.00  595.97   1-0.59035 0.59089-0.04369 0.56636 0.80596-0.57451
  -6   0  -619990.48  735.84   1-0.51201 0.51210 0.11506-0.63932-0.85123 0.57359
   6   0   619957.39  697.61   1-0.57497 0.57557-0.09525 0.61856 0.81260-0.53487
   6   0   710625.32  419.24   1-0.55943 0.56009-0.14213 0.66608 0.81659-0.49257
   6   0   8 7456.91  419.68   1 0.53747-0.53858-0.18404 0.71099 0.82295-0.45211
   6   0   8 5912.96  324.49   1-0.54312 0.54388-0.18377 0.70857 0.81929-0.44957
   6   0   9  841.08  154.63   1 0.54647-0.54758-0.21089 0.73856 0.81048-0.39329
   6   0   9  421.61   73.64   1-0.52877 0.52958-0.22060 0.74605 0.81959-0.40365
   6   0  10  143.46  113.59   1 0.55349-0.55459-0.23285 0.76122 0.79963-0.33609
   6   0  10   15.56   47.07   1-0.51560 0.51647-0.25239 0.77849 0.81881-0.35665
   6   0  11  346.53   97.15   1 0.55889-0.55998-0.25044 0.77953 0.79051-0.28061
   6   0  11  272.83   88.16   1-0.50388 0.50480-0.27927 0.80603 0.81737-0.30900
   6   0  12  730.96  132.50   1 0.56296-0.56404-0.26416 0.79396 0.78312-0.22686
   6   0  12  746.27  111.37   1-0.49379 0.49477-0.30147 0.82888 0.81564-0.26106
   6   0  13  161.66   92.04   1 0.56592-0.56699-0.27443 0.80495 0.77743-0.17482
   6   0  13  154.78   85.92   1-0.48544 0.48647-0.31924 0.84731 0.81389-0.21309
   6   0  1410326.56  780.27   1 0.56795-0.56901-0.28163 0.81286 0.77337-0.12440
   6   0  1410341.79  758.63   1-0.47888 0.47996-0.33285 0.86157 0.81232-0.16531
   6   0  15 1779.28  279.32   1 0.56918-0.57023-0.28605 0.81800 0.77084-0.07551
   6   0  15 1654.96  237.08   1-0.47411 0.47524-0.34255 0.87192 0.81109-0.11786
   6   0  16 1048.49  217.89   1 0.56972-0.57076-0.28798 0.82063 0.76973-0.02805
   6   0  16  573.54  125.68   1-0.47112 0.47230-0.34855 0.87858 0.81027-0.07083
  -6   1  16  655.83  115.49   1 0.52060-0.63871-0.85217 0.34397 0.05260 0.68828
  -6  -1  16  498.41  138.43   1 0.44755-0.32962-0.88559 0.37770-0.12419 0.86526
  -6   1  16  201.51  193.68   1 0.38224-0.50056-0.92388 0.41601-0.01796 0.75918
  -6  -1  16 1000.92  303.95   1 0.44692-0.32896-0.88591 0.37804-0.12414 0.86537
   6  -1 -16  684.45  164.71   1-0.82338 0.94152 0.27610 0.23169-0.49578-0.24462
   6   1 -16  713.74  142.74   1-0.93898 0.82086 0.11821 0.38962-0.32300-0.41758
  -6   1  15  415.94  110.17   1 0.49807-0.61620-0.86710 0.35817-0.00685 0.70143
  -6  -1  15  292.02  107.39   1 0.42099-0.30308-0.88925 0.38063-0.17888 0.87364
  -6   1  15  552.82  252.35   1 0.40558-0.52390-0.91239 0.40375-0.05510 0.74999
  -6  -1  15  784.39  242.04   1 0.47265-0.35470-0.86477 0.35613-0.16959 0.86449
   6  -1 -15  120.11   86.43   1-0.83051 0.94865 0.26867 0.23984-0.48790-0.20622
   6   1 -15  175.35   80.75   1-0.94620 0.82809 0.10380 0.40476-0.30645-0.38783
  -6   1  14  503.38   86.15   1 0.47194-0.59007-0.87886 0.36922-0.06969 0.71797
  -6  -1  14  945.66  163.83   1 0.39175-0.27387-0.88955 0.38021-0.23498 0.88342
  -6   1  14  428.02  239.71   1 0.42840-0.54674-0.89882 0.38941-0.09266 0.74123
  -6  -1  14  773.75  191.03   1 0.49715-0.37908-0.84045 0.33052-0.21560 0.86431
   6  -1 -14  696.25  124.79   1-0.83646 0.95459 0.26232 0.24690-0.48116-0.16669
   6   1 -14  853.96  170.47   1-0.95261 0.83452 0.09002 0.41927-0.29054-0.35746
  -6   1  13   89.94   83.02   1 0.44219-0.56042-0.88661 0.37653-0.13553 0.73765
  -6  -1  13  227.79  118.02   1 0.35964-0.24178-0.88609 0.37601-0.29238 0.89451
  -6   1  13  422.20  188.64   1 0.45068-0.56903-0.88307 0.37289-0.13065 0.73290
  -6  -1  13  277.47  217.65   1 0.52073-0.40267-0.81261 0.30196-0.26171 0.86409
   6  -1 -13  384.19  118.10   1-0.84117 0.95930 0.25719 0.25274-0.47568-0.12589
   6   1 -13  419.93  174.24   1-0.95826 0.84018 0.07692 0.43308-0.27534-0.32638
  -6   1  12  400.28   97.54   1 0.40713-0.52538-0.88984 0.37903-0.20597 0.76177
  -6  -1  12  512.82  133.50   1 0.32571-0.20670-0.87733 0.36508-0.35241 0.90773
  -6   1  12  520.21  276.18   1 0.47238-0.59074-0.86502 0.35407-0.16909 0.72501
  -6  -1  12  407.96  234.16   1 0.54302-0.42497-0.78118 0.26980-0.30801 0.86405
   6  -1 -12  116.42  103.45   1-0.84459 0.96271 0.25341 0.25724-0.47163-0.08366
   6   1 -12  308.21  136.69   1-0.96318 0.84512 0.06459 0.44614-0.26094-0.29448
  -6   1  11 1071.95  130.87   1 0.36656-0.48484-0.88714 0.37560-0.28035 0.78983
  -6  -1  11 1355.88  185.20   1 0.28737-0.16846-0.86481 0.35190-0.41171 0.92075
  -6   1  11 1176.08  204.74   1 0.49325-0.61157-0.84459 0.33248-0.20822 0.71793
  -6  -1  11 1206.93  233.42   1 0.56383-0.44579-0.74602 0.23391-0.35432 0.86402
   6  -1 -11 1181.51  155.33   1-0.84661 0.96473 0.25115 0.26020-0.46922-0.03980
   6   1 -11 1270.31  169.28   1-0.96723 0.84968 0.05348 0.45822-0.24820-0.26088
  -6   1  10 1303.61  162.52   1 0.32122-0.43854-0.87607 0.36249-0.35959 0.82236
  -6  -1  10  519.49  147.34   1 0.24569-0.12688-0.84697 0.33339-0.47144 0.93420
  -6   1  10 1265.78  283.57   1 0.51361-0.63193-0.82154 0.30871-0.24751 0.71088
  -6  -1  10  648.76  240.75   1 0.58334-0.46453-0.70661 0.19355-0.40050 0.86414
   6  -1 -10 1152.77  217.57   1-0.84708 0.96519 0.25062 0.26144-0.46865 0.00589
   6   1 -10  385.66  126.60   1-0.97083 0.85331 0.04301 0.46941-0.23587-0.22693
  -6   1   9 3389.46  263.09   1 0.26780-0.38522-0.85696 0.34271-0.44034 0.85682
  -6  -1   9 4028.51  351.62   1 0.20066-0.08195-0.82324 0.30899-0.53104 0.94752
  -6   1   9 2864.06  326.60   1 0.53316-0.65150-0.79578 0.28221-0.28716 0.70420
  -6  -1   9 2737.69  283.47   1 0.60051-0.48172-0.66357 0.14977-0.44615 0.86342
   6  -1  -9 2792.70  385.76   1-0.84580 0.96391 0.25206 0.26072-0.47019 0.05371
   6   1  -9 2818.45  232.83   1-0.97382 0.85633 0.03364 0.47950-0.22479-0.19173
  -6  -1   8 5023.33  359.01   1 0.15237-0.03413-0.79316 0.27841-0.58963 0.95985
  -6   1   8 5635.37  338.69   1 0.20727-0.32478-0.82699 0.31207-0.52260 0.89281
  -6   1   8 5091.96  406.98   1 0.55180-0.67015-0.76713 0.25284-0.32713 0.69783
  -6  -1   8 4989.09  364.18   1 0.61547-0.49670-0.61653 0.10199-0.49099 0.86190
   6  -1  -8 4994.56  463.49   1-0.84249 0.96060 0.25573 0.25776-0.47412 0.10392
   6   1  -8 4894.69  321.44   1-0.97623 0.85877 0.02554 0.48832-0.21518-0.15506
  -6   1   7 1076.85  138.34   1 0.13994-0.25800-0.78465 0.26925-0.60392 0.92786
  -6  -1   7  403.25  203.09   1 0.10110 0.01709-0.75619 0.24078-0.64648 0.97042
  -6   1   7 1053.62  207.46   1 0.56938-0.68774-0.73544 0.22042-0.36731 0.69167
  -6  -1   7  502.05  145.96   1 0.62796-0.50920-0.56554 0.05026-0.53462 0.85917
   6  -1  -7 1071.80  151.03   1-0.83676 0.95487 0.26199 0.25221-0.48080 0.15688
   6   1  -7  783.18  119.65   1-0.97809 0.86065 0.01893 0.49565-0.20731-0.11664
  -6  -1   6  332.64  260.61   1 0.04733 0.07082-0.71223 0.19616-0.70034 0.97800
  -6   1   6  467.76  223.22   1 0.06632-0.18443-0.72835 0.21229-0.68198 0.95964
   6   1  -6   88.88   69.41   1-0.63691 0.51863 0.51048 0.00490 0.57770-0.85498
  -6   1   6  302.40  154.28   1 0.58620-0.70395-0.70004 0.18403-0.40780 0.68598
   6  -1  -6  113.94   54.03   1-0.82808 0.94618 0.27123 0.24368-0.49062 0.21297
   6   1  -6  441.95  112.09   1-0.97937 0.86196 0.01409 0.50121-0.20154-0.07614
  -6   1   5  779.83  253.18   1-0.01120-0.10646-0.65815 0.14164-0.75279 0.98417
  -6  -1   5 1074.44  302.47   1-0.00781 0.12634-0.66143 0.14491-0.74996 0.98134
   6   1  -5  306.49   99.19   1-0.64369 0.52547 0.45226 0.06380 0.61734-0.84841
  -6   1   5  733.26  190.52   1 0.60115-0.71892-0.66176 0.14501-0.44797 0.67979
   6  -1  -5  440.96   81.38   1-0.81570 0.93379 0.28391 0.23172-0.50400 0.27263
   6   1  -5  298.76   93.18   1-0.98007 0.86269 0.01138 0.50464-0.19830-0.03310
  -6   1   4  776.91  199.62   1-0.09081-0.02686-0.57535 0.05814-0.81284 0.99794
  -6  -1   4  383.46  155.04   1-0.06423 0.18275-0.60425 0.08704-0.79419 0.97929
   6   1  -4  256.14   94.45   1-0.64727 0.52912 0.39101 0.12572 0.65432-0.83918
  -6   1   4  257.39  150.44   1 0.61447-0.73226-0.62005 0.10256-0.48779 0.67325
   6  -1  -4  286.59   88.07   1-0.79859 0.91668 0.30057 0.21577-0.52143 0.33633
   6   1  -4  384.69   91.57   1-0.98010 0.86274 0.01127 0.50547-0.19817 0.01304
  -6   1   3  502.13  233.64   1-0.16842 0.05060-0.48261-0.03531-0.85948 0.99809
  -6  -1   3  616.05  210.21   1-0.12040 0.23891-0.54166 0.02375-0.83192 0.97075
   6   1  -3  -20.70   66.71   1-0.64752 0.52943 0.32735 0.19004 0.68815-0.82678
  -6   1   3  264.17  142.40   1 0.62593-0.74373-0.57489 0.05666-0.52697 0.66606
   6  -1  -3  257.43   86.08   1-0.77533 0.89342 0.32182 0.19523-0.54339 0.40456
   6   1  -3   33.38   48.51   1-0.97929 0.86195 0.01443 0.50303-0.20194 0.06310
  -6  -1   2  879.12  164.03   1-0.17474 0.29307-0.47462-0.04403-0.86266 0.95507
  -6   1   2  657.07  120.80   1-0.24174 0.12396-0.38474-0.13391-0.89080 0.98320
   6   1  -2 1431.24  158.32   1-0.64516 0.52755 0.26241 0.25566 0.71756-0.81013
   6  -1  -2  789.60   99.18   1-0.74391 0.86199 0.34833 0.16943-0.57031 0.47776
   6   1  -2  635.97   77.57   1-0.97731 0.86000 0.02176 0.49642-0.21068 0.11812
  -6  -1   121129.04  561.04   1-0.22675 0.34513-0.40568-0.11370-0.88543 0.93164
  -6   1   122807.66  555.88   1-0.30803 0.19011-0.28598-0.23329-0.90737 0.95363
   6  -1  -123261.76  529.23   1-0.64151 0.75949 0.47444 0.04429 0.60278-0.64900
   6   1  -123063.00  595.18   1-0.63885 0.52129 0.19636 0.32239 0.74384-0.79013
   6  -1  -123777.93  861.62   1-0.70121 0.81938 0.38079 0.13763-0.60273 0.55648
   6   1  -120759.60  450.54   1-0.97353 0.85625 0.03459 0.48431-0.22590 0.17962
  -6  -1   0 1438.81  181.10   1-0.27516 0.39359-0.33619-0.18392-0.90069 0.90069
  -6   1   0 1395.96  157.83   1-0.36555 0.24763-0.19046-0.32952-0.91109 0.91109
   6  -1   0 1296.33  118.11   1-0.64601 0.76405 0.41993 0.09947 0.63743-0.63743
   6   1   0 1562.26  159.18   1-0.62949 0.51199 0.13060 0.38882 0.76594-0.76594
   6  -1   0 1523.36  169.30   1-0.64385 0.76199 0.41953 0.09962-0.63988 0.63988
   6   1   0 1100.62   82.13   1-0.96672 0.84947 0.05490 0.46472-0.24986 0.24986
  -6  -1   0 1095.18   93.69   1-0.79242 0.90994-0.45237-0.06766 0.40917-0.40917
  -6  -1  -1 4977.21  295.93   1-0.31950 0.43786-0.26770-0.25298-0.90898 0.86271
  -6   1  -1 4502.24  234.50   1-0.41393 0.29591-0.10149-0.41910-0.90463 0.85835
   6  -1   1 4664.74  190.52   1-0.64779 0.76590 0.36310 0.15697 0.66970-0.62349
   6   1   1 5780.77  536.77   1-0.61719 0.49954 0.06603 0.45408 0.78403-0.73774
   6  -1   1 4454.48  384.95   1-0.56605 0.68416 0.46459 0.05527-0.68097 0.72722
   6   1   1 5021.70  169.62   1-0.95514 0.83726 0.08429 0.43585-0.28389 0.33018
  -6   1  -1 5118.24  166.34   1-0.98960 0.87109-0.03800-0.48234-0.13870 0.09242
  -6  -1  -1 4529.93  148.33   1-0.74516 0.86263-0.48449-0.03626 0.45825-0.50452
  -6  -1  -2 4485.25  287.07   1-0.35887 0.47722-0.20207-0.31931-0.91124 0.81871
  -6   1  -2 3848.52  246.79   1-0.45341 0.33539-0.02141-0.49991-0.89104 0.79849
   6  -1   2 4601.04  446.53   1-0.64753 0.76596 0.30523 0.21555 0.69823-0.60566
   6   1   2 4823.94  463.04   1-0.60297 0.48537 0.00390 0.51685 0.79774-0.70517
   6  -1   2 4579.58  166.37   1-0.45944 0.57786 0.51513 0.00553-0.72356 0.81611
   6   1   2 4645.99  146.13   1-0.93208 0.81421 0.13109 0.38976-0.33769 0.43026
  -6   1  -2 4266.97  136.70   1-0.98865 0.87011-0.03122-0.48983-0.14695 0.05439
  -6  -1  -2 3553.69  129.29   1-0.66887 0.78656-0.52629 0.00432 0.52499-0.61748
  -6  -1  -3 1114.07  205.22   1-0.39331 0.51165-0.14051-0.38158-0.90860 0.76980
  -6   1  -3  527.90  165.81   1-0.48501 0.36699 0.04898-0.57105-0.87312 0.73430
   6  -1   3  581.59  125.77   1-0.64389 0.76238 0.24608 0.27538 0.72445-0.58559
   6   1   3 1174.82  154.44   1-0.58712 0.46957-0.05502 0.57641 0.80762-0.66875
   6   1   3  715.02   53.41   1-0.88419 0.76634 0.20460 0.31698-0.41992 0.55878
  -6   1  -3  499.87   50.41   1-0.98819 0.86962-0.02821-0.49356-0.15060 0.01176
  -6  -1  -3  516.15   54.94   1-0.53919 0.65676-0.57709 0.05442 0.61338-0.75212
  -6  -1  -4 4320.19  279.25   1-0.42300 0.54123-0.08376-0.43903-0.90224 0.71715
  -6   1  -4 3480.02  221.82   1-0.50992 0.39189 0.10970-0.63250-0.85319 0.66810
   6  -1   4 4755.89  399.10   1-0.63772 0.75627 0.18720 0.33493 0.74716-0.56202
   6   1   4 5158.51  521.51   1-0.57024 0.45275-0.11000 0.63203 0.81407-0.62891
   6   1   4 3807.83  160.20   1-0.76681 0.64884 0.32924 0.19278-0.55098 0.73609
  -6   1  -4 4113.43  127.98   1-0.98860 0.87001-0.03093-0.49156-0.14730-0.03782
  -6  -1  -4 4090.80  116.49   1-0.29038 0.40848-0.62838 0.10438 0.72167-0.90677
  -6   1  -4 4886.14  170.85   1 0.12262-0.24069-0.61179 0.08792 0.78145-0.96660
   6  -1   514332.99  533.63   1 0.52883-0.41176-0.15947 0.68428 0.83360-0.60183
  -6  -1  -513106.63  552.10   1-0.44812 0.56635-0.03262-0.49090-0.89337 0.66201
   6  -1   514210.52  664.38   1-0.62934 0.74793 0.12966 0.39315 0.76623-0.53480
   6   1   512995.93  477.55   1-0.55294 0.43550-0.16051 0.68318 0.81761-0.58616
  -6   1  -512640.52  414.47   1-0.99025 0.87164-0.04318-0.48003-0.13238-0.09902
  -6   1  -513037.20  441.42   1-0.12393 0.00564-0.63500 0.11034 0.76250-0.99387
   6  -1   613971.74  500.73   1 0.54378-0.42671-0.20274 0.72826 0.81436-0.53623
  -6  -1  -615241.28  583.86   1-0.46916 0.58738 0.01285-0.53711-0.88301 0.60537
   6  -1   612984.15  507.30   1-0.61883 0.73741 0.07397 0.44933 0.78203-0.50429
   6   1   613684.14  475.48   1-0.53471 0.41739-0.20566 0.72914 0.81962-0.54233
  -6   1  -612293.70  370.22   1-0.99286 0.87329-0.07218-0.45169-0.09489-0.18258
  -6   1  -613728.88  421.21   1-0.42789 0.30993-0.60700 0.08253 0.66966-0.94716
   6  -1   7 3986.73  227.90   1 0.55528-0.43819-0.23861 0.76485 0.79669-0.47220
  -6  -1  -7 3551.12  269.26   1-0.48661 0.60483 0.05272-0.57771-0.87202 0.54811
   6  -1   7 3880.54  380.62   1-0.60739 0.72603 0.02204 0.50190 0.79409-0.47007
   6   1   7 3413.33  192.22   1-0.51813 0.40087-0.24641 0.77055 0.81903-0.49552
  -6   1  -7 2829.89   91.73   1-0.98686 0.86714-0.16069-0.36391 0.01631-0.34003
   6  -1   8  956.37  129.32   1 0.56407-0.44698-0.26801 0.79496 0.78101-0.41017
  -6  -1  -8 1060.13  186.51   1-0.50094 0.61916 0.08719-0.61291-0.86107 0.49088
   6  -1   8 1014.00  143.40   1-0.59526 0.71396-0.02581 0.55040 0.80311-0.43280
   6   1   8  745.30  112.89   1-0.50256 0.38535-0.28223 0.80702 0.81717-0.44745
   6  -1   9  232.86  102.97   1 0.57075-0.45365-0.29176 0.81942 0.76753-0.35033
  -6  -1  -9  236.73  137.42   1-0.51261 0.63082 0.11661-0.64306-0.85066 0.43420
   6  -1   9  140.37   51.63   1-0.58301 0.70176-0.06903 0.59425 0.80952-0.39292
   6   1   9  239.84   90.07   1-0.48830 0.37113-0.31323 0.83868 0.81452-0.39858
   6  -1  10  156.53   89.68   1 0.57578-0.45866-0.31062 0.83900 0.75629-0.29274
   6  -1  10   86.58   52.71   1-0.57113 0.68994-0.10725 0.63311 0.81381-0.35092
   6   1  10  143.88   84.66   1-0.47556 0.35845-0.33962 0.86572 0.81147-0.34932
   6   1  11  285.00  117.98   1 0.52906-0.64837-0.16011 0.68920 0.83333-0.32343
   6  -1  11  348.18  106.21   1 0.57949-0.46237-0.32523 0.85432 0.74726-0.23735
   6  -1  11   51.35   62.65   1-0.56007 0.67893-0.14030 0.66679 0.81647-0.30729
   6   1  11  307.70  103.12   1-0.46449 0.34743-0.36166 0.88842 0.80835-0.29998
   6   1  1211988.32  583.02   1 0.53492-0.65421-0.17667 0.70648 0.82622-0.26996
   6  -1  1210811.41 1081.73   1 0.58217-0.46503-0.33614 0.86594 0.74032-0.18406
   6  -1  12 8944.53  438.70   1-0.54879 0.66773-0.16851 0.69592 0.81879-0.26421
   6   1  1210161.13  478.80   1-0.45517 0.33817-0.37963 0.90704 0.80541-0.25083
   6   1  13 1673.37  259.50   1 0.53940-0.65868-0.18968 0.72020 0.82040-0.21779
   6  -1  13 1547.91  281.55   1 0.58399-0.46685-0.34380 0.87431 0.73535-0.13274
   6  -1  13  921.13  136.58   1-0.54024 0.65924-0.19136 0.71943 0.81945-0.21865
   6   1  13 1662.74  243.44   1-0.44762 0.33067-0.39380 0.92186 0.80283-0.20203
   6   1  1421665.89 5184.63   1 0.54269-0.66197-0.19946 0.73069 0.81589-0.16692
   6  -1  1417759.19 4288.81   1 0.58448-0.46655-0.35003 0.88046 0.73202-0.08426
   6  -1  1415805.31 1225.89   1-0.53328 0.65233-0.20929 0.73800 0.81963-0.17262
   6   1  1418533.75 4432.03   1-0.44164 0.32472-0.40374 0.93312 0.80121-0.15440
   6   1  15  861.44  196.78   1 0.54496-0.66423-0.20631 0.73825 0.81267-0.11735
   6  -1  15  910.32  233.26   1 0.58501-0.46703-0.35235 0.88348 0.73048-0.03645
   6   1  15  524.55  139.34   1-0.43761 0.32075-0.41105 0.94113 0.79970-0.10669
   6   1  16  995.92  210.83   1 0.54633-0.66559-0.21046 0.74311 0.81069-0.06901
   6  -1  16 1097.14  259.46   1 0.58502-0.46699-0.35237 0.88420 0.73046 0.00983
   6   1  16 1194.04  224.51   1-0.43526 0.31845-0.41527 0.94606 0.79880-0.05959
  -6  -2  15  377.55  162.64   1 0.40263-0.16668-0.88985 0.38124-0.21456 0.90932
  -6   2  15  296.32  228.67   1 0.36132-0.59778-0.93233 0.42369 0.01435 0.68054
  -6  -2  15  335.81  211.67   1 0.49497-0.25872-0.84278 0.33359-0.21146 0.90652
   6  -2 -15  112.16   72.07   1-0.74328 0.97943 0.34883 0.15968-0.57082-0.12330
   6   2 -15   50.53   71.82   1-0.97487 0.73936 0.03018 0.47865-0.22068-0.47352
  -6  -2  14 2959.73  319.89   1 0.37433-0.13840-0.88813 0.37878-0.26663 0.91507
  -6   2  14 3575.19  424.83   1 0.38262-0.61910-0.92371 0.41430-0.01855 0.66712
  -6  -2  14 3584.87  399.90   1 0.52031-0.28407-0.81315 0.30323-0.26087 0.90958
   6   2 -14 3056.32  328.50   1-0.97957 0.74408 0.01332 0.49623-0.20062-0.44730
  -6  -2  13  531.06  160.84   1 0.34372-0.10781-0.88307 0.37299-0.31942 0.92154
  -6   2  13 1543.65  309.01   1 0.40351-0.64000-0.91350 0.40333-0.05175 0.65400
  -6  -2  13  303.72  191.76   1 0.54406-0.30783-0.77956 0.26891-0.31026 0.91264
   6  -2 -13  -46.38   74.25   1-0.74933 0.98547 0.34392 0.16601-0.56587-0.03570
  -6   2  12  567.38   69.14   1 0.48801-0.72423-0.87225 0.36117-0.03173 0.58739
  -6  -2  12  663.41  178.35   1 0.31194-0.07487-0.87329 0.36105-0.37421 0.92953
  -6   2  12  231.59  158.33   1 0.42397-0.66047-0.90165 0.39070-0.08526 0.64118
  -6  -2  12  562.41  184.38   1 0.56602-0.32981-0.74190 0.23052-0.35942 0.91546
   6  -2 -12  626.46  167.95   1-0.74975 0.98589 0.34357 0.16707-0.56552 0.01022
   6   2 -12  739.03  140.55   1-0.98663 0.75119-0.01894 0.52993-0.16183-0.39353
  -6   2  11 3258.50  188.27   1 0.45367-0.68999-0.88422 0.37268-0.11100 0.62049
  -6  -2  11 4534.52  346.25   1 0.27649-0.03952-0.86056 0.34765-0.42774 0.93678
  -6   2  11 3691.65  313.73   1 0.44399-0.68050-0.88807 0.37636-0.11910 0.62869
  -6  -2  11 3300.90  340.68   1 0.58631-0.34924-0.69978 0.18746-0.40808 0.91808
   6  -2 -11 3434.65  443.20   1-0.74821 0.98434 0.34484 0.16652-0.56680 0.05777
   6   2 -11 3892.88  278.45   1-0.98909 0.75368-0.03428 0.54599-0.14323-0.36585
  -6   2  10 6390.58  245.48   1 0.41051-0.64685-0.88977 0.37750-0.19945 0.66262
  -6  -2  10 7318.23  384.96   1 0.23854-0.00166-0.84350 0.32992-0.48124 0.94400
  -6   2  10 6567.67  368.23   1 0.46355-0.70007-0.87271 0.36023-0.15327 0.61654
  -6  -2  10 7155.97  369.00   1 0.60394-0.36688-0.65374 0.14068-0.45592 0.91956
   6  -2 -10 6591.24  686.58   1-0.74446 0.98059 0.34788 0.16419-0.56986 0.10710
   6   2 -10 7224.45  361.59   1-0.99091 0.75552-0.04901 0.56145-0.12524-0.33755
  -6   2   9 1252.11  127.04   1 0.35740-0.59376-0.88571 0.37271-0.29625 0.71310
  -6  -2   9 2142.32  293.68   1 0.19812 0.03866-0.82176 0.30751-0.53426 0.95075
  -6   2   9 1891.94  246.51   1 0.48245-0.71896-0.85548 0.34192-0.18808 0.60512
  -6  -2   9 2068.24  259.65   1 0.61899-0.38195-0.60358 0.08978-0.50253 0.91980
   6  -2  -9 1463.56  205.11   1-0.73821 0.97434 0.35289 0.15989-0.57489 0.15841
   6   2  -9 1582.88  202.34   1-0.99214 0.75679-0.06309 0.57624-0.10797-0.30855
  -6   2   8 3225.63  235.65   1 0.29455-0.53013-0.86746 0.35254-0.40093 0.77114
  -6  -2   8 3611.80  347.47   1 0.15527 0.08108-0.79511 0.28036-0.58624 0.95646
  -6   2   8 3408.70  326.68   1 0.50099-0.73752-0.83623 0.32194-0.22294 0.59364
  -6  -2   8 2919.32  297.77   1 0.63119-0.39417-0.54943 0.03490-0.54746 0.91837
   6  -2  -8 3464.86  557.39   1-0.72906 0.96518 0.36008 0.15341-0.58207 0.21186
   6   2  -8 3180.99  270.73   1-0.99286 0.75753-0.07642 0.59030-0.09152-0.27872
  -6   2   7 4323.39  265.37   1 0.21774-0.45342-0.83276 0.31717-0.50901 0.83295
  -6  -2   7 4047.09  331.29   1 0.11034 0.12597-0.76322 0.24781-0.63664 0.96058
   6  -2  -7 2531.12  155.91   1-0.51041 0.74652 0.11097 0.40378-0.85273 0.52882
   6   2  -7 4386.19  290.70   1-0.63953 0.40322 0.49126 0.02346 0.59130-0.91479
  -6   2   7 3895.01  357.20   1 0.51895-0.75549-0.81488 0.29986-0.25814 0.58250
   6  -2  -7 3877.12  553.12   1-0.71616 0.95250 0.36979 0.14432-0.59191 0.26814
   6   2  -7 3482.78  259.32   1-0.99313 0.75782-0.08892 0.60351-0.07603-0.24793
  -6   2   6  701.21   66.97   1 0.54002-0.77520-0.19153-0.32543 0.81956-0.54143
  -6   2   6 1046.33  117.65   1 0.12956-0.36580-0.77732 0.26126-0.61560 0.89326
  -6  -2   6 1013.99  159.90   1 0.06359 0.17268-0.72607 0.21001-0.68466 0.96232
   6   2  -6 1021.23  129.34   1-0.64538 0.40913 0.43018 0.08521 0.63120-0.90848
  -6   2   6 1535.76  241.21   1 0.53626-0.77281-0.79131 0.27556-0.29366 0.57168
   6  -2  -6 1202.51  148.77   1-0.69953 0.93585 0.38200 0.13282-0.60391 0.32639
   6   2  -6 1078.87  122.23   1-0.99302 0.75775-0.10044 0.61575-0.06167-0.21601
  -6   2   5  211.89   38.67   1 0.56534-0.80053-0.27241-0.24526 0.77857-0.54679
  -6  -2   5  471.93  107.45   1 0.01590 0.22073-0.68378 0.16727-0.72950 0.96088
  -6   2   5  291.10   99.31   1 0.03246-0.26823-0.69880 0.18229-0.71457 0.94594
   6   2  -5  548.53   97.82   1-0.64777 0.41158 0.36641 0.14965 0.66793-0.89899
  -6   2   5  823.89  171.07   1 0.55284-0.78940-0.76538 0.24890-0.32945 0.56114
   6  -2  -5  381.05  100.77   1-0.67803 0.91432 0.39708 0.11846-0.61853 0.38727
   6   2  -5  268.78   89.25   1-0.99276 0.75789-0.11024 0.62598-0.04754-0.18368
  -6   2   4   86.93   35.77   1 0.58433-0.81975-0.34940-0.16848 0.73243-0.54736
  -6   2   4  415.13  108.50   1-0.06864-0.16714-0.59955 0.08234-0.79738 0.98248
  -6  -2   4  508.70  178.50   1-0.03294 0.26957-0.63665 0.11944-0.77044 0.95554
   6   2  -4  269.64   75.59   1-0.64735 0.41172 0.30095 0.21576 0.70025-0.88539
  -6   2   4  484.24  175.46   1 0.56860-0.80517-0.73696 0.21975-0.36546 0.55081
   6  -2  -4  341.40   74.87   1-0.65062 0.88687 0.41522 0.10104-0.63582 0.45081
   6   2  -4  -10.00   57.25   1-0.99220 0.75747-0.11922 0.63569-0.03627-0.14870
  -6   2   310405.65  380.49   1 0.59887-0.83434-0.42089-0.09769 0.68132-0.54251
  -6  -2   312204.20  520.29   1-0.08185 0.31846-0.58524 0.06733-0.80671 0.94554
  -6   2   313650.20  503.74   1-0.16638-0.06949-0.48518-0.03274-0.85843 0.99704
   6   2  -312995.31  683.41   1-0.64283 0.40726 0.23402 0.28337 0.72937-0.86823
  -6   2   312611.41  540.39   1 0.58389-0.81994-0.70536 0.18714-0.40190 0.54099
   6  -2  -312071.83  642.62   1-0.61600 0.85222 0.43656 0.08043-0.65570 0.51695
   6   2  -311484.70  429.34   1-0.99159 0.75701-0.12656 0.64378-0.02702-0.11170
  -6   2   2  132.80   40.73   1 0.60821-0.84373-0.48520-0.03408 0.62821-0.53567
  -6  -2   2  743.13  231.22   1-0.12974 0.36612-0.52987 0.01121-0.83808 0.93049
  -6   2   2  232.90  141.53   1-0.25605 0.02022-0.36428-0.15438-0.89539 0.98780
   6   2  -2  219.01   86.70   1-0.63503 0.39951 0.16692 0.35115 0.75423-0.84680
  -6   2   2  154.75  109.84   1 0.59759-0.83366-0.67155 0.15259-0.43804 0.53077
   6  -2  -2  447.01   99.73   1-0.57258 0.80877 0.46110 0.05660-0.67788 0.58538
   6   2  -2  256.99   87.27   1-0.99105 0.75662-0.13189 0.64985-0.02030-0.07219
  -6  -2   1  451.46  207.82   1-0.17630 0.41274-0.47263-0.04676-0.86344 0.90964
  -6   2   1  572.04  179.46   1-0.33354 0.09749-0.24484-0.27443-0.91038 0.95664
   6   2  -1  208.25   86.65   1-0.62425 0.38878 0.10065 0.41810 0.77471-0.82099
  -6   2   1  332.60  144.21   1 0.61004-0.84612-0.63494 0.11524-0.47400 0.52037
   6  -2  -1  103.10   57.36   1-0.51845 0.75462 0.48864 0.02978-0.70173 0.65548
   6   2  -1  157.66   71.07   1-0.99074 0.75646-0.13467 0.65336-0.01678-0.02945
  -6  -2   0  295.83  207.11   1-0.22061 0.45709-0.41412-0.10599-0.88307 0.88307
  -6   2   0  421.47  123.45   1-0.39722 0.16116-0.13324-0.38674-0.90799 0.90799
   6   2   0  309.50   75.84   1-0.61067 0.37498 0.03614 0.48334 0.79105-0.79105
  -6   2   0  309.59  129.28   1 0.62105-0.85715-0.59551 0.07507-0.50955 0.50955
   6  -2   0  393.56   81.49   1-0.45085 0.68728 0.51873 0.00045-0.72639 0.72639
   6   2   0  304.27   68.30   1-0.99081 0.75667-0.13411 0.65355-0.01748 0.01748
  -6  -2  -1 4796.12  309.74   1-0.26202 0.49856-0.35559-0.16525-0.89715 0.85095
  -6   2  -1 4151.27  237.98   1-0.44775 0.21160-0.03339-0.48720-0.89353 0.84726
   6   2   1 5451.67  509.22   1-0.59530 0.35966-0.02567 0.54579 0.80308-0.75679
  -6   2  -1 4015.08  251.83   1 0.63044-0.86655-0.55332 0.03214-0.54440 0.49804
   6  -2   1 4508.01  223.00   1-0.36848 0.60494 0.55007-0.03014-0.74942 0.79569
   6   2   1 4038.28  186.45   1-0.99135 0.75736-0.12903 0.64920-0.02391 0.07015
  -6  -2  -1 4248.07  192.06   1-0.48585 0.72217-0.59350 0.07260 0.64163-0.68788
  -6  -2  -2 1404.35  209.91   1-0.30037 0.53686-0.29797-0.22341-0.90608 0.81354
  -6   2  -2 1799.83  166.18   1-0.48668 0.25052 0.05287-0.57421-0.87197 0.77943
   6  -2   2 1930.96  138.52   1-0.63723 0.87337 0.50825 0.01248 0.57931-0.48688
   6   2   2 2766.98  313.33   1-0.57847 0.34288-0.08403 0.60479 0.81136-0.71878
   6   2   2 1558.01   95.59   1-0.99233 0.75849-0.11746 0.63838-0.03848 0.13097
  -6  -2  -2 1217.75   96.27   1-0.37815 0.61436-0.61624 0.09463 0.69082-0.78332
  -6   2  -2 1714.21  150.87   1 0.26632-0.50252-0.57968 0.05724 0.77009-0.86266
  -6  -2  -3 9265.92  460.58   1-0.33485 0.57133-0.24267-0.27941-0.91048 0.77168
  -6   2  -3 5929.78  314.06   1-0.51617 0.28002 0.12586-0.64792-0.84718 0.70836
   6  -2   3 6797.84  269.76   1-0.64286 0.87907 0.46126 0.06014 0.61151-0.47287
   6   2   3 8145.49  520.00   1-0.56075 0.32522-0.13833 0.65973 0.81634-0.67747
   6   2   3 6709.57  245.60   1-0.99323 0.75954-0.09591 0.61757-0.06545 0.20418
  -6  -2  -3 7275.49  270.56   1-0.22900 0.46536-0.63304 0.10971 0.73946-0.87829
  -6   2  -3 7701.24  316.57   1 0.14757-0.38381-0.60721 0.08406 0.78070-0.91957
   6  -2   441851.19 1265.62   1 0.53771-0.30244-0.18476 0.70886 0.82262-0.63720
  -6  -2  -445046.88 1428.29   1-0.36555 0.60202-0.19047-0.33232-0.91109 0.72603
   6  -2   440175.57 1201.00   1-0.64640 0.88267 0.41249 0.10959 0.64187-0.45702
   6   2   441300.56 1263.93   1-0.54174 0.30634-0.18742 0.70960 0.81938-0.63451
  -6   2  -434601.27 1026.76   1-0.88667 0.65037 0.20128-0.72360-0.41627 0.23112
   6   2   441281.52 1198.31   1-0.99186 0.75685-0.05934 0.58184-0.11258 0.29771
  -6  -2  -435739.35 1043.08   1-0.01566 0.25189-0.62944 0.10543 0.77689-0.96199
  -6   2  -434620.21 1039.65   1 0.00892-0.24521-0.62712 0.10312 0.77886-0.96396
   6  -2   545556.08 1381.84   1 0.55410-0.31881-0.23480 0.75961 0.79864-0.56687
  -6  -2  -544551.10 1404.97   1-0.39250 0.62897-0.14201-0.38148-0.90872 0.67739
   6  -2   542541.90 1259.50   1-0.64780 0.88413 0.36258 0.16016 0.66998-0.43892
   6   2   542918.30 1314.35   1-0.52391 0.28856-0.23254 0.75537 0.81941-0.58833
  -6   2  -534653.94 1023.19   1-0.87110 0.63478 0.22143-0.74447-0.43834 0.20690
  -6   2  -544125.83 1310.23   1-0.14615-0.09026-0.63520 0.11054 0.75838-0.98976
   6  -2   6 6228.33  359.55   1 0.56625-0.33096-0.27560 0.80112 0.77678-0.49865
  -6  -2  -6 7338.62  479.97   1-0.41592 0.65228-0.09761-0.42663-0.90414 0.62650
   6  -2   6 5359.04  509.45   1-0.64781 0.88438 0.31321 0.21028 0.69442-0.41671
   6   2   6 6198.93  372.61   1-0.50672 0.27142-0.27287 0.79636 0.81778-0.54049
  -6   2  -6 3458.26  290.07   1-0.85624 0.62018 0.24013-0.76359-0.45736 0.17970
  -6   2  -6 5737.99  317.91   1-0.31457 0.07870-0.62516 0.10069 0.71429-0.99180
   6  -2   7 1466.36  184.72   1 0.57524-0.33993-0.30856 0.83480 0.75754-0.43306
  -6  -2  -7 1718.04  260.24   1-0.43596 0.67231-0.05776-0.46722-0.89810 0.57419
   6  -2   7 1097.57  130.63   1-0.64525 0.88187 0.26371 0.26046 0.71700-0.39300
   6   2   7  976.61  127.03   1-0.49053 0.25529-0.30848 0.83262 0.81499-0.49148
  -6   2  -7 1022.03  104.87   1-0.48413 0.24816-0.59395 0.06876 0.64252-0.96627
   6  -2   8  396.88   97.26   1 0.58187-0.34655-0.33490 0.86185 0.74112-0.37028
  -6  -2  -8  667.53  264.52   1-0.45296 0.68931-0.02238-0.50333-0.89124 0.52106
   6  -2   8  169.42   56.50   1-0.64104 0.87771 0.21584 0.30900 0.73652-0.36624
   6   2   8  243.31   90.97   1-0.47561 0.24042-0.33951 0.86431 0.81148-0.44176
  -6   2  -8   66.83   37.72   1-0.64700 0.41039-0.53644 0.01025 0.54186-0.91184
   6  -2   9  357.55  119.42   1 0.58598-0.34990-0.35663 0.88358 0.72762-0.31120
  -6  -2  -9  454.83  178.18   1-0.46725 0.70359 0.00860-0.53505-0.88408 0.46762
   6  -2   9  267.67   83.13   1-0.63554 0.87226 0.17060 0.35493 0.75298-0.33640
   6   2   9  433.40  138.26   1-0.46217 0.22703-0.36618 0.89163 0.80765-0.39171
  -6   2  -9  269.53   67.33   1-0.78605 0.54940-0.45704-0.06945 0.41620-0.83266
   6  -2  10  231.06   84.00   1 0.58951-0.35338-0.37270 0.90034 0.71663-0.25394
  -6  -2 -10  371.68  209.82   1-0.47913 0.71546 0.03536-0.56254-0.87702 0.41429
   6  -2  10  135.22   58.72   1-0.62920 0.86598 0.12886 0.39734 0.76647-0.30361
   6   2  10   70.62   61.83   1-0.45033 0.21525-0.38875 0.91485 0.80378-0.34163
   6  -2  11  511.08  115.85   1 0.59202-0.35584-0.38472 0.91306 0.70816-0.19920
  -6  -2 -11  820.02  221.09   1-0.48890 0.72523 0.05811-0.58602-0.87039 0.36139
   6  -2  11  262.02   56.19   1-0.62251 0.85934 0.09140 0.43548 0.77725-0.26810
   6   2  11  641.09  120.88   1-0.43993 0.20481-0.40685 0.93411 0.80058-0.29237
   6  -2  12 5406.71  893.22   1 0.59373-0.35750-0.39326 0.92230 0.70201-0.14678
  -6  -2 -12 6200.42  753.69   1-0.49682 0.73314 0.07710-0.60574-0.86442 0.30914
   6   2  12 5411.39  630.22   1-0.43149 0.19643-0.42198 0.94994 0.79733-0.24292
   6  -2  13  255.94  113.24   1 0.59481-0.35853-0.39878 0.92851 0.69797-0.09648
  -6  -2 -13  345.48  224.08   1-0.50312 0.73944 0.09257-0.62195-0.85924 0.25768
   6   2  13  204.78  105.48   1-0.42475 0.18975-0.43380 0.96247 0.79460-0.19399
   6  -2  14 2731.15  419.32   1 0.59536-0.35903-0.40165 0.93208 0.69585-0.04809
   6   2  14 3238.64  443.58   1-0.41968 0.18473-0.44255 0.97193 0.79246-0.14566
   6  -2  15  400.06  136.62   1 0.59546-0.35908-0.40217 0.93330 0.69546-0.00144
  -6  -2 -15  560.90  231.66   1-0.51160 0.74791 0.11400-0.64483-0.85162 0.15752
   6   2  15  273.07  109.54   1-0.41622 0.18133-0.44844 0.97852 0.79097-0.09797
  -6  -3  14 6679.58  845.39   1 0.36834-0.01436-0.88739 0.37804-0.27723 0.92567
  -6   3  14 6788.42  860.29   1 0.32990-0.68473-0.94196 0.43370 0.06219 0.58569
  -6  -3  14 7062.78  889.81   1 0.53617-0.18175-0.79145 0.28153-0.29346 0.94217
   6  -3 -14 4541.18  667.43   1-0.64154 0.99609 0.42098 0.08809-0.64124-0.00629
   6   3 -14 6045.51  781.24   1-0.99124 0.63788-0.05230 0.56185-0.12122-0.52670
  -6  -3  13  583.07  198.56   1 0.33979 0.01415-0.88221 0.37213-0.32594 0.92807
  -6   3  13  160.79  131.84   1 0.34866-0.70329-0.93664 0.42647 0.03348 0.56876
  -6  -3  13  338.97  180.16   1 0.56011-0.20571-0.75278 0.24213-0.34580 0.94818
   6  -3 -13  253.22   86.89   1-0.64074 0.99527 0.42148 0.08831-0.64171 0.04042
   6   3 -13  207.06  102.90   1-0.99262 0.63929-0.07099 0.58127-0.09823-0.50341
  -6  -3  12 4162.42  375.42   1 0.31059 0.04454-0.87287 0.36062-0.37632 0.93164
  -6   3  12 3891.86  414.70   1 0.36724-0.72188-0.93010 0.41916 0.00529 0.55062
  -6  -3  12 2956.03  343.34   1 0.58205-0.22672-0.70949 0.19790-0.39727 0.95363
   6  -3 -12 3187.76  510.93   1-0.63776 0.99226 0.42334 0.08717-0.64345 0.08841
   6   3 -12 3289.05  324.27   1-0.99313 0.63983-0.08931 0.60031-0.07553-0.47983
  -6  -3  11 5373.30  645.00   1 0.27826 0.07678-0.86127 0.34836-0.42516 0.93420
  -6   3  11 5659.23  692.61   1 0.38541-0.74006-0.92245 0.41074-0.02293 0.53252
  -6  -3  11 6233.71  741.11   1 0.60105-0.24574-0.66203 0.14971-0.44770 0.95770
   6  -3 -11 4145.11  760.93   1-0.63238 0.98684 0.42667 0.08456-0.64656 0.13777
   6   3 -11 4742.72  567.17   1-0.99292 0.63954-0.10689 0.61819-0.05174-0.45696
  -6  -3  10 4938.62  334.77   1 0.24401 0.11092-0.84617 0.33259-0.47376 0.93652
  -6   3  10 5655.59  409.30   1 0.40318-0.75784-0.91368 0.40120-0.05122 0.51449
  -6  -3  10 4685.16  332.59   1 0.61718-0.26188-0.61035 0.09728-0.49654 0.96018
   6  -3 -10 5365.11  559.33   1-0.62432 0.97876 0.43158 0.08037-0.65111 0.18858
   6   3 -10 5643.56  350.64   1-0.99178 0.63856-0.12437 0.63641-0.02978-0.43267
  -6  -3   9  586.97  215.16   1 0.20790 0.14694-0.82734 0.31309-0.52179 0.93828
  -6   3   9  197.98  136.40   1 0.42053-0.77521-0.90377 0.39053-0.07957 0.49651
  -6  -3   9  417.46  159.40   1 0.63017-0.27489-0.55468 0.04088-0.54332 0.96060
   6  -3  -9  290.34  110.61   1-0.61327 0.96768 0.43817 0.07450-0.65718 0.24090
   6   3  -9  142.11   93.18   1-0.98991 0.63683-0.14142 0.65420-0.00822-0.40798
  -6  -3   8 1248.98  185.93   1 0.16994 0.18455-0.80467 0.28992-0.56887 0.93908
   6   3  -8 1621.57  167.01   1-0.63906 0.28471 0.49498 0.01907 0.58871-0.95842
  -6   3   8 1995.94  236.19   1 0.43748-0.79216-0.89272 0.37870-0.10797 0.47859
   6  -3  -8 1279.15  164.74   1-0.59884 0.95321 0.44654 0.06685-0.66482 0.29479
   6   3  -8  675.73  117.27   1-0.98735 0.63442-0.15799 0.67151 0.01286-0.38283
  -6  -3   7 4449.04  392.30   1 0.13045 0.22400-0.77796 0.26255-0.61461 0.93855
   6   3  -7 3876.59  296.43   1-0.64521 0.29093 0.43260 0.08212 0.62971-0.95321
  -6   3   7 4982.53  480.37   1 0.45399-0.80869-0.88049 0.36571-0.13643 0.46072
   6  -3  -7 4427.87  564.16   1-0.58054 0.93489 0.45677 0.05734-0.67403 0.35026
   6   3  -7 3760.64  303.51   1-0.98416 0.63138-0.17405 0.68831 0.03344-0.35716
  -6   3   6 2929.11  190.88   1 0.30312-0.65697-0.87043 0.35418-0.38788 0.66553
  -6  -3   6 3665.64  342.76   1 0.08958 0.26483-0.74721 0.23115-0.65851 0.93617
   6   3  -6 3245.19  259.79   1-0.64775 0.29353 0.36776 0.14762 0.66720-0.94447
  -6   3   6 4824.87  439.58   1 0.47007-0.82478-0.86707 0.35152-0.16493 0.44289
   6  -3  -6 3668.09  513.71   1-0.55784 0.91215 0.46892 0.04590-0.68477 0.40726
   6   3  -6 3062.00  253.91   1-0.98041 0.62778-0.18954 0.70454 0.05342-0.33090
  -6   3   5 5229.08  326.89   1 0.16653-0.52094-0.80249 0.28577-0.57295 0.80433
  -6  -3   5 5060.28  408.47   1 0.04763 0.30673-0.71249 0.19577-0.70005 0.93144
   6   3  -5 6012.93  667.41   1-0.64737 0.29377 0.30141 0.21462 0.70003-0.93146
  -6   3   5 6362.93  472.66   1 0.48555-0.84028-0.85245 0.33597-0.19381 0.42549
   6  -3  -5 5199.57  620.95   1-0.53006 0.88435 0.48300 0.03255-0.69695 0.46568
   6   3  -5 5083.16  366.44   1-0.97618 0.62369-0.20440 0.72014 0.07272-0.30395
  -6   3   4   92.42   18.06   1 0.60694-0.96100-0.68230 0.16453 0.40752-0.22227
  -6   3   4  178.85   72.40   1 0.01765-0.37154-0.68540 0.16818-0.72795 0.91305
  -6  -3   4  185.20  160.43   1 0.00541 0.34930-0.67402 0.15681-0.73869 0.92379
   6   3  -4  265.81   67.22   1-0.64283 0.28929 0.23399 0.28273 0.72939-0.91453
  -6   3   4  156.16  129.13   1 0.50069-0.85543-0.83657 0.31936-0.22236 0.40771
   6  -3  -4  378.94   92.62   1-0.49629 0.85067 0.49888 0.01737-0.71049 0.52540
   6   3  -4  131.40   64.28   1-0.97155 0.61921-0.21856 0.73504 0.09120-0.27619
  -6   3   3 7167.19  353.22   1 0.60086-0.95514-0.71255 0.19456 0.36226-0.22326
  -6  -3   3 7738.70  509.07   1-0.03742 0.39213-0.63212 0.11421-0.77396 0.91278
  -6   3   3 8033.05  410.44   1-0.12335-0.23057-0.53741 0.01948-0.83424 0.97285
   6   3  -3 8008.16  525.87   1-0.63500 0.28151 0.16669 0.35071 0.75431-0.89317
  -6   3   3 9047.17  552.88   1 0.51533-0.87008-0.81943 0.30149-0.25092 0.38993
   6  -3  -3 7296.08  404.20   1-0.45597 0.81038 0.51659 0.00039-0.72471 0.58590
   6   3  -3 7368.61  411.70   1-0.96663 0.61445-0.23191 0.74913 0.10874-0.24748
  -6  -3   2  885.49  282.76   1-0.07997 0.43467-0.58729 0.06868-0.80541 0.89796
  -6   3   2  559.04   95.36   1-0.24512-0.10875-0.37995-0.13871-0.89193 0.98434
   6   3  -2  708.90   89.45   1-0.62421 0.27077 0.10046 0.41761 0.77476-0.86733
  -6   3   2  820.76  146.92   1 0.52943-0.88420-0.80100 0.28233-0.27944 0.37211
   6  -3  -2  416.32   96.44   1-0.40810 0.76254 0.53571-0.01798-0.73923 0.64668
   6   3  -2  344.85   93.16   1-0.96158 0.60954-0.24433 0.76228 0.12516-0.21765
  -6   3   110040.12  490.35   1 0.58693-0.94118-0.75731 0.23785 0.28631-0.23998
  -6  -3   110345.91  605.14   1-0.12169 0.47637-0.54015 0.02085-0.83271 0.87899
  -6   3   112468.81  630.34   1-0.34241-0.01178-0.23010-0.28917-0.91093 0.95720
   6   3  -111479.54  789.62   1-0.61070 0.25697 0.03628 0.48256 0.79102-0.83731
  -6   3   111446.93  625.86   1 0.54296-0.89774-0.78127 0.26188-0.30788 0.35422
   6  -3  -110772.53  569.11   1-0.35178 0.70624 0.55574-0.03728-0.75325 0.70698
   6   3  -110325.97  528.20   1-0.95654 0.60465-0.25565 0.77435 0.14020-0.18645
  -6   3   0 1944.10  115.35   1 0.57929-0.93352-0.77518 0.25498 0.25201-0.25201
  -6  -3   0 3073.02  284.43   1-0.16166 0.51620-0.49109-0.02903-0.85597 0.85597
  -6   3   0 1748.15  140.86   1-0.41625 0.06197-0.09698-0.42288-0.90406 0.90406
   6   3   0 3614.36  331.85   1-0.59542 0.24174-0.02523 0.54472 0.80301-0.80301
  -6   3   0 2818.10  238.68   1 0.55587-0.91066-0.76024 0.24012-0.33620 0.33620
   6   3   0 2510.63  166.29   1-0.95202 0.60043-0.26543 0.78504 0.15226-0.15226
  -6  -3  -137563.52 1819.71   1-0.20004 0.55463-0.44178-0.07906-0.87453 0.82832
  -6   3  -133069.32 1560.54   1-0.47041 0.11613 0.01564-0.53624-0.88230 0.83603
   6   3   135712.92 1763.52   1-0.57869 0.22507-0.08330 0.60343 0.81127-0.76498
  -6   3  -135386.62 1676.02   1 0.56811-0.92291-0.73792 0.21706-0.36430 0.31797
   6   3   134567.94 1619.80   1-0.94781 0.59639-0.27374 0.79409 0.16341-0.11718
  -6   3  -133794.72 1606.23   1 0.20907-0.56342-0.59416 0.07244 0.77669-0.82298
  -6  -3  -2 2699.70  256.13   1-0.23614 0.59078-0.39262-0.12895-0.88886 0.79645
  -6   3  -2 1314.73  140.68   1-0.50944 0.15515 0.10847-0.62981-0.85364 0.76109
   6   3   2 2721.35  311.95   1-0.56107 0.20750-0.13741 0.65817 0.81628-0.72370
  -6   3  -2 1708.92  167.81   1 0.58015-0.93453-0.71368 0.19177-0.39251 0.29978
   6   3   2 1800.37  140.27   1-0.94448 0.59322-0.28003 0.80110 0.17186-0.07941
  -6   3  -2 1993.48  203.49   1 0.12322-0.47762-0.61168 0.08925 0.78144-0.87401
   6  -3   3 7751.60  410.78   1 0.53672-0.18323-0.18187 0.70526 0.82392-0.68485
  -6  -3  -3 8674.44  519.10   1-0.26962 0.62431-0.34443-0.17788-0.89926 0.76065
   6   3   3 7412.01  418.15   1-0.54217 0.18874-0.18629 0.70782 0.81935-0.68070
  -6   3  -3 7199.54  400.91   1 0.59086-0.94525-0.68888 0.16623-0.41990 0.28081
   6   3   3 7704.21  391.74   1-0.94249 0.59140-0.28366 0.80547 0.17676-0.03808
  -6   3  -3 7367.58  423.14   1 0.02732-0.38175-0.62554 0.10239 0.77970-0.91857
   6  -3   412171.48  608.28   1 0.55645-0.20296-0.24242 0.76652 0.79472-0.60930
  -6  -3  -412868.17  705.22   1-0.30063 0.65524-0.29758-0.22521-0.90612 0.72106
   6   3   411447.29  609.17   1-0.52432 0.17094-0.23154 0.75372 0.81943-0.63457
  -6   3  -411059.44  559.29   1 0.60070-0.95511-0.66302 0.13963-0.44670 0.26125
   6   3   412296.42  594.11   1-0.94248 0.59157-0.28366 0.80620 0.17676 0.00814
  -6   3  -411891.30  602.67   1-0.07817-0.27624-0.63357 0.10957 0.76971-0.95482
   6  -3   5 5306.49  364.98   1 0.57050-0.21700-0.29084 0.81565 0.76806-0.53629
  -6  -3  -5 5167.27  408.09   1-0.32838 0.68299-0.25331-0.27018-0.90994 0.67861
   6   3   5 6467.30  456.85   1-0.50701 0.15369-0.27222 0.79505 0.81782-0.58674
  -6   3  -5 5015.08  334.43   1 0.60961-0.96404-0.63632 0.11219-0.47271 0.24089
   6   3   5 5442.00  341.66   1-0.94538 0.59464-0.27836 0.80163 0.16961 0.06151
  -6   3  -5 5543.87  380.81   1-0.19060-0.16393-0.63462 0.10995 0.74894-0.98032
   6  -3   6 1838.59  219.35   1 0.58051-0.22700-0.32935 0.85487 0.74466-0.46653
  -6  -3  -6 1927.73  232.45   1-0.35316 0.70777-0.21189-0.31231-0.91124 0.63365
   6   3   6 1459.32  173.32   1-0.49057 0.13730-0.30838 0.83187 0.81500-0.53771
  -6   3  -6 1286.13  121.45   1 0.61752-0.97197-0.60907 0.08421-0.49767 0.21949
   6   3   6 1685.47  122.43   1-0.95249 0.60192-0.26448 0.78849 0.15099 0.12636
  -6   3  -6 1711.26  151.51   1-0.30856-0.04521-0.62584 0.10137 0.71631-0.99382
   6  -3   7  439.28  157.62   1 0.58684-0.23246-0.36046 0.88602 0.72503-0.40115
  -6  -3  -7  494.14  268.96   1-0.37505 0.72965-0.17368-0.35122-0.91058 0.58672
   6   3   7  498.22  160.75   1-0.47528 0.12207-0.34018 0.86432 0.81140-0.48789
  -6   3  -7  201.91   79.81   1 0.62438-0.97884-0.58170 0.05610-0.52130 0.19675
   6   3   7  182.16   49.27   1-0.96590 0.61551-0.23406 0.75880 0.11059 0.21299
  -6   3  -7  504.51  142.72   1-0.42668 0.07279-0.60725 0.08207 0.67020-0.99396
   6  -3   8   66.95   39.35   1 0.59194-0.23750-0.38431 0.91057 0.70845-0.33830
  -6  -3  -8  767.06  263.95   1-0.39417 0.74876-0.13892-0.38668-0.90847 0.53835
   6   3   8  464.01  108.28   1-0.46133 0.10817-0.36781 0.89260 0.80739-0.43766
  -6   3  -8  315.55   80.10   1-0.54377 0.18929-0.57564 0.04945 0.61068-0.98067
   6  -3   9  209.11   98.40   1 0.59556-0.24107-0.40268 0.92963 0.69509-0.27867
  -6  -3  -9  664.67  226.16   1-0.41070 0.76529-0.10772-0.41858-0.90538 0.48899
   6   3   9  289.08  129.08   1-0.44886 0.09574-0.39150 0.91695 0.80327-0.38733
  -6   3  -9  230.93   63.58   1-0.65111 0.29652-0.53459 0.00769 0.53876-0.95499
   6  -3  10  522.61  162.68   1 0.59809-0.24355-0.41648 0.94413 0.68470-0.22202
  -6  -3 -10   68.17  138.22   1-0.42487 0.77934-0.08005-0.44713-0.90170 0.43897
   6   3  10  349.71  129.12   1-0.43770 0.08450-0.41088 0.93743 0.79974-0.33773
  -6   3 -10  226.57   65.12   1-0.74788 0.39327-0.48279-0.04442 0.45561-0.91834
   6  -3  11  176.34   80.10   1 0.59982-0.24523-0.42644 0.95478 0.67702-0.16807
  -6  -3 -11  707.72  308.45   1-0.43682 0.79129-0.05600-0.47190-0.89779 0.38879
   6   3  11   14.64   77.59   1-0.42839 0.07525-0.42744 0.95470 0.79609-0.28788
   6  -3  12  206.34  109.90   1 0.60093-0.24629-0.43312 0.96216 0.67177-0.11655
  -6  -3 -12  238.11  144.55   1-0.44680 0.80125-0.03538-0.49325-0.89393 0.33865
   6   3  12  264.23  128.53   1-0.42069 0.06760-0.44082 0.96878 0.79290-0.23849
   6  -3  13   92.60   83.77   1 0.60155-0.24686-0.43697 0.96671 0.66871-0.06722
  -6  -3 -13  478.66  190.71   1-0.45498 0.80943-0.01807-0.51129-0.89031 0.28876
   6   3  13  204.45  127.92   1-0.41457 0.06154-0.45125 0.97992 0.79025-0.18964
   6  -3  14  449.54  152.04   1 0.60178-0.24704-0.43836 0.96880 0.66760-0.01984
  -6  -3 -14   35.04  129.40   1-0.46155 0.81600-0.00390-0.52620-0.88710 0.23927
   6   3  14  478.23  146.07   1-0.40999 0.05702-0.45893 0.98830 0.78821-0.14140
  -6  -4  13  809.82  232.02   1 0.34524 0.12675-0.88339 0.37332-0.31687 0.91900
  -6   4  13  455.26  178.66   1 0.28688-0.75978-0.94994 0.44083 0.12370 0.47790
  -6  -4  13  -13.33   99.66   1 0.56933-0.09675-0.73555 0.22490-0.36718 0.96956
   6  -4 -13  259.89  128.56   1-0.52231 0.99483 0.48678 0.02301-0.70016 0.09887
   6   4 -13   58.08   89.99   1-0.99177 0.52049-0.12450 0.63433-0.02961-0.57157
  -6  -4  12  347.87  165.10   1 0.31874 0.15446-0.87535 0.36310-0.36353 0.91885
  -6   4  12  491.80  178.83   1 0.30302-0.77590-0.94761 0.43765 0.10097 0.45434
  -6  -4  12  429.66  203.71   1 0.59123-0.11766-0.68795 0.17636-0.42090 0.97726
   6  -4 -12   31.74   57.36   1-0.51634 0.98883 0.48965 0.02086-0.70258 0.14755
   6   4 -12  446.49  209.81   1-0.98955 0.51842-0.14410 0.65467-0.00482-0.55013
  -6  -4  11  657.77  165.10   1 0.28951 0.18359-0.86562 0.35270-0.40850 0.91754
  -6   4  11  428.47  176.21   1 0.31866-0.79151-0.94460 0.43379 0.07855 0.43049
  -6  -4  11  674.06  198.62   1 0.60968-0.13612-0.63609 0.12377-0.47292 0.98292
   6  -4 -11  438.71  176.84   1-0.50799 0.98024 0.49345 0.01766-0.70600 0.19701
   6   4 -11  243.52  102.15   1-0.98637 0.51539-0.16334 0.67464 0.01970-0.52841
  -6  -4  10   85.27  109.17   1 0.25881 0.21419-0.85303 0.33945-0.45314 0.91590
  -6   4  10  101.47  104.52   1 0.33379-0.80661-0.94095 0.42928 0.05647 0.40629
  -6  -4  10  345.77  153.42   1 0.62473-0.15119-0.58017 0.06711-0.52258 0.98622
   6  -4 -10  114.13   55.06   1-0.49647 0.96874 0.49880 0.01305-0.71042 0.24770
   6   4 -10   75.32   84.30   1-0.98227 0.51144-0.18220 0.69424 0.04394-0.50640
  -6  -4   9  611.31  216.46   1 0.22666 0.24624-0.83748 0.32323-0.49723 0.91371
  -6   4   9  556.48  174.38   1 0.34821-0.82102-0.93679 0.42354 0.03416 0.38277
   6  -4  -9  985.55  192.17   1-0.48180 0.95410 0.50542 0.00716-0.71582 0.29937
   6   4  -9  388.11  123.07   1-0.97730 0.50662-0.20066 0.71344 0.06785-0.48406
  -6  -4   8  178.61  139.41   1 0.19316 0.27965-0.81886 0.30394-0.54050 0.91071
   6   4  -8  276.69  111.35   1-0.64322 0.17090 0.45751 0.05654 0.61395-0.98366
  -6   4   8  229.41  156.28   1 0.36225-0.83508-0.93198 0.41797 0.01293 0.35768
   6  -4  -8  247.04  135.40   1-0.46368 0.93601 0.51332-0.00000-0.72214 0.35196
   6   4  -8  467.43  180.53   1-0.97149 0.50096-0.21871 0.73223 0.09140-0.46137
  -6  -4   7  492.02  203.07   1 0.15835 0.31422-0.79715 0.28174-0.58263 0.90657
   6   4  -7  346.35  117.44   1-0.64722 0.17497 0.39252 0.12220 0.65346-0.97695
  -6   4   7  608.16  201.12   1 0.37572-0.84855-0.92670 0.41191-0.00778 0.33207
   6  -4  -7  615.69  166.58   1-0.44174 0.91410 0.52248-0.00842-0.72929 0.40538
   6   4  -7  222.71  116.50   1-0.96489 0.49451-0.23631 0.75057 0.11455-0.43828
  -6  -4   6  273.46  158.16   1 0.12254 0.34999-0.77226 0.25619-0.62337 0.90103
   6   4  -6  661.70  127.24   1-0.64816 0.17660 0.32601 0.18935 0.68818-0.96589
  -6   4   6  679.99  215.74   1 0.38857-0.86142-0.92099 0.40544-0.02791 0.30587
   6  -4  -6  385.92  124.49   1-0.41561 0.88800 0.53284-0.01805-0.73711 0.45948
   6   4  -6  681.88  130.67   1-0.95756 0.48732-0.25344 0.76844 0.13726-0.41473
  -6  -4   5 3559.34  296.95   1 0.08587 0.38663-0.74427 0.22755-0.66233 0.89371
   6   4  -5 3139.58  351.63   1-0.64488 0.17337 0.25862 0.25742 0.71918-0.95061
  -6   4   5 3858.29  321.34   1 0.40078-0.87364-0.91494 0.39862-0.04736 0.27899
   6  -4  -5 3344.63  227.44   1-0.38486 0.85728 0.54428-0.02876-0.74540 0.51404
   6   4  -5 2942.31  212.04   1-0.94962 0.47954-0.27023 0.78617 0.15869-0.38982
  -6  -4   4  105.47  149.64   1 0.04858 0.42388-0.71331 0.19593-0.69915 0.88426
   6   4  -4  239.40   70.28   1-0.63825 0.16679 0.19143 0.32529 0.74564-0.93078
  -6   4   4  122.90  113.11   1 0.41228-0.88516-0.90865 0.39157-0.06600 0.25131
   6  -4  -4  613.26  142.97   1-0.34906 0.82150 0.55664-0.04039-0.75385 0.56876
   6   4  -4  745.48  140.37   1-0.94104 0.47113-0.28624 0.80292 0.18025-0.36516
  -6  -4   3  449.48  255.53   1 0.01138 0.46142-0.67960 0.16169-0.73349 0.87231
   6   4  -3  720.35  182.28   1-0.62861 0.15721 0.12533 0.39206 0.76754-0.90640
  -6   4   3  517.80  147.04   1 0.42302-0.89591-0.90224 0.38438-0.08369 0.22267
   6   4  -3  596.12  160.27   1-0.93195 0.46221-0.30165 0.81906 0.20115-0.33983
  -6  -4   2  574.30  281.18   1-0.02616 0.49895-0.64345 0.12484-0.76503 0.85758
  -6   4   2  166.09   60.22   1-0.16949-0.30244-0.48127-0.03738-0.86002 0.95243
   6   4  -2  441.36  136.19   1-0.61622 0.14445 0.06139 0.45682 0.78517-0.87775
  -6   4   2  582.07  194.70   1 0.43291-0.90581-0.89584 0.37722-0.10024 0.19289
   6   4  -2  586.94  164.55   1-0.92245 0.45288-0.31639 0.83453 0.22131-0.31376
  -6   4   2  178.37   97.68   1 0.25961-0.73204-0.58150 0.06192 0.77101-0.67843
  -6  -4   1  285.59  178.66   1-0.06329 0.53607-0.60526 0.08595-0.79350 0.83978
  -6   4   1  357.63  112.33   1-0.32066-0.15166-0.26583-0.25344-0.90912 0.95538
   6   4  -1  103.02   65.33   1-0.60196 0.13025-0.00011 0.51897 0.79852-0.84480
  -6   4   1  359.52  157.47   1 0.44183-0.91474-0.88964 0.37025-0.11540 0.16173
   6   4  -1  206.45   92.63   1-0.91266 0.44326-0.33038 0.84926 0.24059-0.28681
  -6   4   1  105.85   86.06   1 0.20617-0.67865-0.59483 0.07454 0.77695-0.73066
  -6  -4   0  923.58  221.87   1-0.09962 0.57239-0.56549 0.04548-0.81871 0.81871
  -6   4   0 1165.51  129.77   1-0.41689-0.05551-0.09574-0.42412-0.90389 0.90389
   6   4   0  628.30  174.02   1-0.58616 0.11450-0.05833 0.57782 0.80808-0.80808
  -6   4   0  700.08  178.05   1 0.44963-0.92255-0.88386 0.36371-0.12884 0.12884
   6   4   0 1192.80  153.92   1-0.90275 0.43352-0.34355 0.86316 0.25886-0.25886
  -6   4   0  949.75  146.21   1 0.14630-0.61882-0.60746 0.08645 0.78076-0.78076
  -6  -4  -128618.63 1773.84   1-0.13442 0.60706-0.52431 0.00346-0.84084 0.79464
  -6   4  -126436.83 1590.95   1-0.47959 0.00718 0.03642-0.55703-0.87673 0.83046
   6   4   129034.55 2006.09   1-0.56934 0.09773-0.11277 0.63289 0.81432-0.76803
  -6   4  -128830.51 1746.08   1 0.45610-0.92903-0.87882 0.35789-0.14012 0.09379
   6   4   129153.95 1765.72   1-0.89289 0.42384-0.35577 0.87611 0.27596-0.22973
  -6   4  -125991.18 1587.51   1 0.07994-0.55250-0.61867 0.09695 0.78156-0.82785
  -6  -4  -2 2538.80  285.48   1-0.16798 0.64067-0.48317-0.03840-0.85925 0.76684
   6   4   2 2225.20  236.13   1-0.55200 0.08045-0.16310 0.68387 0.81773-0.72515
  -6   4  -2 2206.10  201.89   1 0.46092-0.93386-0.87490 0.35321-0.14861 0.05596
   6   4   2 2369.01  205.45   1-0.88334 0.41445-0.36692 0.88799 0.29165-0.19920
  -6   4  -2 2880.96  275.24   1 0.00718-0.47947-0.62730 0.10463 0.77874-0.87129
   6  -4   3 5051.27  339.97   1 0.54812-0.07642-0.21596 0.73935 0.80803-0.66896
  -6  -4  -3 3822.51  336.69   1-0.19972 0.67246-0.44221-0.08009-0.87438 0.73577
   6   4   3 3913.97  305.69   1-0.53374 0.06234-0.20811 0.72963 0.81963-0.68098
  -6   4  -3 4166.43  296.13   1 0.46360-0.93656-0.87266 0.35020-0.15337 0.01439
   6   4   3 4094.04  294.86   1-0.87438 0.40567-0.37682 0.89863 0.30569-0.16701
  -6   4  -3 4451.10  344.56   1-0.07143-0.40098-0.63325 0.10991 0.77064-0.90946
   6  -4   4 1119.11  101.51   1 0.56677-0.09506-0.27744 0.80154 0.77574-0.59032
  -6  -4  -4  766.28  171.05   1-0.22940 0.70220-0.40201-0.12102-0.88642 0.70161
   6   4   4  663.43  105.70   1-0.51671 0.04536-0.24978 0.77196 0.81891-0.63405
  -6   4  -4 1004.35  105.66   1 0.46335-0.93632-0.87287 0.34965-0.15292-0.03238
   6   4   4  816.95   90.95   1-0.86639 0.39785-0.38524 0.90778 0.31770-0.13279
  -6   4  -4  795.82  112.21   1-0.15507-0.31747-0.63519 0.11119 0.75662-0.94172
   6  -4   5  135.97   46.64   1 0.57951-0.10779-0.32530 0.85011 0.74722-0.51544
  -6  -4  -5 1040.36  155.24   1-0.25685 0.72970-0.36311-0.16065-0.89563 0.66462
   6   4   5  167.68   82.96   1-0.50035 0.02905-0.28714 0.80997 0.81681-0.58574
  -6   4  -5  186.39   56.15   1 0.45869-0.93167-0.87673 0.35274-0.14467-0.08695
   6   4   5  158.73   55.98   1-0.85986 0.39148-0.39188 0.91515 0.32720-0.09607
  -6   4  -5  245.65   96.00   1-0.24293-0.22864-0.63157 0.10782 0.73626-0.96752
   6  -4   6  271.82   83.40   1 0.58739-0.11464-0.36292 0.88778 0.72336-0.44575
  -6  -4  -6  197.93  114.80   1-0.28237 0.75511-0.32557-0.19862-0.90236 0.62477
   6   4   6  164.30   61.02   1-0.48493 0.01369-0.32031 0.84379 0.81377-0.53648
   6   4   6  179.78   73.28   1-0.85784 0.38693-0.39643 0.92078 0.32701-0.04937
  -6   4  -6  273.98   98.62   1-0.33292-0.13876-0.62290 0.09843 0.70791-0.98542
   6  -4   7  309.30   96.95   1 0.59346-0.12067-0.39188 0.91744 0.70301-0.37913
  -6  -4  -7  430.46  189.89   1-0.30515 0.77788-0.29051-0.23439-0.90690 0.58305
   6   4   7  195.50   78.57   1-0.47067-0.00051-0.34946 0.87360 0.81014-0.48664
  -6   4  -7  474.58  144.80   1-0.42348-0.04831-0.60791 0.08272 0.67164-0.99540
   6  -4   8 3453.36  482.90   1 0.59767-0.12483-0.41414 0.94039 0.68649-0.31634
  -6  -4  -8 3854.68  499.76   1-0.32554 0.79827-0.25793-0.26767-0.90966 0.53953
   6   4   8 3898.29  481.49   1-0.45770-0.01343-0.37480 0.89959 0.80624-0.43652
  -6   4  -8 3408.27  408.03   1-0.51447 0.04212-0.58450 0.05831 0.62742-0.99740
   6  -4   9 1013.42  216.91   1 0.60058-0.12768-0.43097 0.95792 0.67347-0.25705
  -6  -4  -9 1651.53  237.66   1-0.34362 0.81634-0.22807-0.29824-0.91099 0.49460
   6   4   9 1569.19  184.14   1-0.44613-0.02494-0.39655 0.92200 0.80231-0.38637
  -6   4  -9 1367.38  151.00   1-0.60014 0.12768-0.55589 0.02899 0.57515-0.99139
   6  -4  10  260.25   97.75   1 0.60256-0.12961-0.44334 0.97099 0.66359-0.20091
  -6  -4 -10  433.96  202.33   1-0.35946 0.83218-0.20106-0.32595-0.91124 0.44858
   6   4  10  762.79  164.13   1-0.43581-0.03540-0.41427 0.94083 0.79902-0.33701
  -6   4 -10  319.63   95.31   1-0.68052 0.20795-0.52058-0.00702 0.51563-0.97811
   6  -4  11  195.05   94.79   1 0.60386-0.13086-0.45201 0.98035 0.65653-0.14757
  -6  -4 -11  411.84  195.88   1-0.37319 0.84590-0.17699-0.35072-0.91071 0.40179
   6   4  11  443.76  130.42   1-0.42720-0.04396-0.42953 0.95680 0.79560-0.28740
   6  -4  12  204.26   62.96   1 0.60465-0.13161-0.45752 0.98656 0.65196-0.09673
  -6  -4 -12  -99.10  139.41   1-0.38493 0.85764-0.15588-0.37253-0.90968 0.35449
   6   4  12  214.08  125.38   1-0.42006-0.05104-0.44190 0.96986 0.79263-0.23822
  -6  -5  10  448.19  164.38   1 0.28069 0.31038-0.86224 0.34866-0.42159 0.88436
  -6   5  10  508.98  150.23   1 0.25622-0.84713-0.95229 0.44063 0.16578 0.29699
  -6  -5  10  241.13  102.82   1 0.62787-0.03608-0.56593 0.05287-0.53431 0.99794
   6  -5 -10  560.70  208.53   1-0.36677 0.95711 0.55066-0.03880-0.74983 0.28711
   6   5 -10  712.91  205.33   1-0.96982 0.38138-0.22341 0.73546 0.09757-0.56003
  -6  -5   9  724.11  256.77   1 0.25220 0.33877-0.85003 0.33578-0.46242 0.87890
   6   5  -9  470.60  119.50   1-0.63794 0.04760 0.50324 0.01015 0.58289-0.99881
  -6   5   9  280.71  181.57   1 0.26728-0.85817-0.95175 0.43923 0.15076 0.26573
   6  -5  -9  500.28  162.35   1-0.35005 0.94042 0.55632-0.04373-0.75363 0.33718
   6   5  -9  222.65  107.74   1-0.96249 0.37420-0.24217 0.75495 0.12231-0.53852
  -6  -5   8  259.35  195.53   1 0.22265 0.36822-0.83538 0.32046-0.50255 0.87276
   6   5  -8  123.35   58.26   1-0.64478 0.05450 0.43866 0.07539 0.62595-0.99566
  -6   5   8  209.03  168.46   1 0.27748-0.86834-0.95094 0.43758 0.13676 0.23345
   6  -5  -8  199.12  104.39   1-0.33008 0.92047 0.56279-0.04947-0.75782 0.38765
   6   5  -8  140.00   98.84   1-0.95428 0.36614-0.26047 0.77399 0.14663-0.51660
  -6  -5   7  392.01  218.65   1 0.19214 0.39864-0.81826 0.30267-0.54178 0.86571
   6   5  -7  507.57   98.68   1-0.64769 0.05747 0.37244 0.14229 0.66466-0.98815
  -6   5   7  833.79  178.51   1 0.28672-0.87756-0.94996 0.43574 0.12392 0.20001
   6   5  -7  513.32  158.22   1-0.94528 0.35722-0.27854 0.79302 0.16986-0.49345
  -6  -5   6 1082.94  257.72   1 0.16075 0.42992-0.79873 0.28266-0.57981 0.85747
   6   5  -6  220.96  101.80   1-0.64753 0.05804 0.30524 0.21012 0.69823-0.97594
  -6   5   6  318.78  119.01   1 0.29491-0.88572-0.94888 0.43381 0.11245 0.16520
   6   5  -6  815.55  155.44   1-0.93551 0.34762-0.29579 0.81100 0.19319-0.47055
  -6   5   6  380.96  140.64   1 0.27892-0.86939-0.57618 0.05946 0.76825-0.49052
  -6  -5   518023.14 3802.30   1 0.12870 0.46193-0.77671 0.25999-0.61656 0.84794
   6   5  -514133.55 1628.27   1-0.64321 0.05378 0.23820 0.27784 0.72768-0.95911
  -6   5   512064.78 1338.94   1 0.30189-0.89268-0.94780 0.43188 0.10258 0.12880
   6   5  -517275.20 3632.50   1-0.92504 0.33732-0.31249 0.82843 0.21596-0.44710
  -6   5   513998.00 1547.16   1 0.24775-0.83826-0.58463 0.06720 0.77254-0.54109
  -6  -5   4 3518.25  482.85   1 0.09612 0.49447-0.75234 0.23496-0.65172 0.83682
   6   5  -4 2169.71  348.99   1-0.63575 0.04637 0.17212 0.34460 0.75245-0.93760
  -6   5   4 2384.30  324.66   1 0.30749-0.89825-0.94683 0.43006 0.09462 0.09048
   6   5  -4 2037.63  279.02   1-0.91395 0.32640-0.32860 0.84528 0.23812-0.42303
  -6   5   4 2009.51  298.09   1 0.21243-0.80298-0.59337 0.07523 0.77638-0.59123
  -6  -5   3 1641.10  315.65   1 0.06321 0.52734-0.72576 0.20772-0.68503 0.82386
   6   5  -3 1063.58  223.57   1-0.62556 0.03623 0.10780 0.40959 0.77269-0.91154
  -6   5   3 1198.00  197.47   1 0.31144-0.90217-0.94609 0.42847 0.08896 0.04986
   6   5  -3 1213.97  206.85   1-0.90233 0.31495-0.34408 0.86149 0.25960-0.39828
  -6   5   3 1244.20  212.16   1 0.17276-0.76335-0.60217 0.08331 0.77944-0.64057
  -6  -5   2  386.29  194.01   1 0.03022 0.56030-0.69715 0.17846-0.71628 0.80883
   6   5  -2  333.57  109.11   1-0.61295 0.02320 0.04629 0.47191 0.78875-0.88133
  -6   5   2  244.51   89.20   1 0.31341-0.90411-0.94570 0.42723 0.08613 0.00641
   6   5  -2  527.74  149.71   1-0.89029 0.30308-0.35888 0.87702 0.28032-0.37277
  -6   5   2  589.96  146.30   1 0.12861-0.71925-0.61073 0.09115 0.78132-0.68874
  -6  -5   1  602.45  266.37   1-0.00220 0.59309-0.66680 0.14749-0.74523 0.79150
   6   5  -1  449.57  170.78   1-0.59879 0.00909-0.01251 0.53136 0.80080-0.84709
  -6   5   1  293.84  105.62   1 0.31290-0.90358-0.94580 0.42648 0.08687-0.04059
   6   5  -1  405.17  152.88   1-0.87794 0.29090-0.37295 0.89183 0.30019-0.34642
  -6   5   1  364.67  138.10   1 0.07991-0.67058-0.61868 0.09839 0.78156-0.73527
  -6  -5   0  178.45  136.24   1-0.03458 0.62545-0.63500 0.11499-0.77173 0.77173
   6   5   0  241.92   94.34   1-0.58338-0.00625-0.06778 0.58727 0.80936-0.80936
  -6   5   0  282.03   90.97   1 0.30919-0.89984-0.94652 0.42635 0.09219-0.09219
   6   5   0  560.57  152.14   1-0.86543 0.27857-0.38624 0.90584 0.31912-0.31912
  -6   5   0  153.00  115.29   1 0.02667-0.61738-0.62562 0.10461 0.77967-0.77967
  -6  -5  -1  482.26  202.26   1-0.06625 0.65711-0.60210 0.08140-0.79566 0.74938
   6   5   1 1161.81  174.96   1-0.56722-0.02236-0.11921 0.63933 0.81489-0.76860
  -6   5  -1  790.21  100.41   1 0.30115-0.89178-0.94792 0.42690 0.10364-0.14991
   6   5   1  868.51  141.12   1-0.85294 0.26624-0.39866 0.91900 0.33697-0.29074
  -6   5  -1  729.97  120.53   1-0.03083-0.55945-0.63067 0.10866 0.77543-0.82170
  -6  -5  -2 1389.92  218.72   1-0.09693 0.68778-0.56851 0.04711-0.81693 0.72438
   6   5   2 1777.65  218.84   1-0.55074-0.03878-0.16657 0.68733 0.81788-0.72530
   6   5   2 2345.41  233.84   1-0.84209 0.25307-0.41144 0.93292 0.34869-0.25615
  -6   5  -2 1273.29  166.02   1-0.09272-0.49769-0.63417 0.11150 0.76760-0.86015
   6  -5   3 6666.12  738.58   1 0.54976 0.04015-0.22106 0.74444 0.80553-0.66647
  -6  -5  -3 6546.32  768.78   1-0.12638 0.71721-0.53465 0.01256-0.83556 0.69673
   6   5   3 7305.63  829.07   1-0.53354-0.05583-0.20863 0.73016 0.81963-0.68098
   6   5   3 7139.51  800.93   1-0.83054 0.24157-0.42176 0.94395 0.36374-0.22492
  -6   5  -3 5823.95  662.36   1-0.15830-0.43224-0.63517 0.11184 0.75596-0.89479
   6  -5   4 1261.83  167.57   1 0.56933 0.02059-0.28659 0.81069 0.77053-0.58511
  -6  -5  -4  856.81  173.46   1-0.15387 0.74472-0.50073-0.02230-0.85181 0.66699
   6   5   4 1709.45  237.42   1-0.51758-0.07173-0.24771 0.76989 0.81898-0.63412
   6   5   4 1608.68  214.55   1-0.81976 0.23084-0.43092 0.95383 0.37721-0.19212
  -6   5  -4 1739.41  266.30   1-0.22697-0.36369-0.63315 0.10915 0.73999-0.92509
   6  -5   5  207.06   71.16   1 0.58218 0.00774-0.33621 0.86102 0.74028-0.50850
  -6  -5  -5  197.80  161.05   1-0.18014 0.77104-0.46772-0.05605-0.86532 0.63430
   6   5   5   77.20   54.14   1-0.50232-0.08694-0.28275 0.80558 0.81713-0.58606
   6   5   5   62.33   49.98   1-0.81008 0.22122-0.43879 0.96242 0.38887-0.15750
  -6   5  -5  182.99   95.16   1-0.29808-0.29140-0.62696 0.10321 0.71976-0.95101
   6  -5   6  392.92  124.88   1 0.58981 0.00133-0.37408 0.89894 0.71566-0.43805
  -6  -5  -6  404.90  167.07   1-0.20463 0.79558-0.43570-0.08880-0.87652 0.59930
   6   5   6  199.84   97.79   1-0.48798-0.10123-0.31389 0.83738 0.81445-0.53716
   6   5   6  433.76  110.99   1-0.80192 0.21311-0.44519 0.96953 0.39840-0.12076
  -6   5  -6  374.66  125.79   1-0.37066-0.21894-0.61746 0.09299 0.69379-0.97129
   6  -5   7  134.65   68.23   1 0.59563-0.00443-0.40310 0.92866 0.69478-0.37090
  -6  -5  -7  117.64  116.11   1-0.22722 0.81822-0.40504-0.12019-0.88561 0.56219
   6   5   7  137.06   61.07   1-0.47473-0.11443-0.34131 0.86545 0.81125-0.48774
  -6   5  -7  252.07  112.96   1-0.44366-0.14604-0.60363 0.07845 0.66240-0.98616
   6  -5   8 1027.91  243.48   1 0.59960-0.00834-0.42512 0.95138 0.67804-0.30789
  -6  -5  -8 1904.39  326.43   1-0.24786 0.83891-0.37605-0.14991-0.89283 0.52320
   6   5   8 1816.63  264.22   1-0.46268-0.12643-0.36520 0.88999 0.80780-0.43808
  -6   5  -8 1396.97  212.66   1-0.51755-0.07266-0.58361 0.05742 0.62571-0.99570
   6  -5   9  160.25   75.61   1 0.60228-0.01098-0.44159 0.96854 0.66501-0.24859
  -6  -5  -9  387.54  236.04   1-0.26652 0.85762-0.34900-0.17769-0.89842 0.48259
   6   5   9  217.34   99.89   1-0.45191-0.13714-0.38578 0.91123 0.80432-0.38838
  -6   5  -9  461.46  122.39   1-0.58801-0.00232-0.56046 0.03356 0.58319-0.99943
   6  -5  10 1538.59  339.05   1 0.60408-0.01273-0.45355 0.98119 0.65526-0.19257
  -6  -5 -10 2738.41  467.94   1-0.28375 0.87461-0.32349-0.20352-0.90268 0.44002
   6   5  10 2469.91  404.20   1-0.44248-0.14652-0.40326 0.92936 0.80098-0.33883
  -6   5 -10 1742.22  282.62   1-0.65554 0.06509-0.53256 0.00496 0.53538-0.99786
  -6  -6   6  779.60  201.07   1 0.20302 0.50573-0.82459 0.30833-0.52804 0.80570
   6   6  -6  382.78  129.51   1-0.64753-0.05985 0.30540 0.20996 0.69815-0.97587
  -6   6   6  546.17  133.18   1 0.19158-0.90048-0.94907 0.43400 0.25011 0.02754
   6   6  -6 1027.16  233.07   1-0.91930 0.21378-0.32100 0.83621 0.22764-0.50501
  -6   6   6  905.89  197.26   1 0.15102-0.85970-0.60655 0.08983 0.78056-0.50283
  -6  -6   519033.73 2272.73   1 0.17513 0.53363-0.80796 0.29124-0.56260 0.79398
   6   6  -514208.16 1816.07   1-0.64329-0.06404 0.23910 0.27694 0.72732-0.95875
  -6   6   516221.95 1919.03   1 0.19222-0.90110-0.94915 0.43323 0.24930-0.01792
   6   6  -517398.78 2063.54   1-0.90770 0.20234-0.33709 0.85303 0.24988-0.48102
  -6   6   517139.05 2035.65   1 0.12104-0.82975-0.61207 0.09463 0.78148-0.55004
  -6  -6   4 2790.91  441.72   1 0.14680 0.56192-0.78939 0.27201-0.59607 0.78118
   6   6  -4 1541.61  358.59   1-0.63604-0.07124 0.17431 0.34241 0.75170-0.93684
  -6   6   4 2599.76  348.48   1 0.19049-0.89934-0.94892 0.43216 0.25148-0.06637
   6   6  -4 1832.11  271.00   1-0.89557 0.19039-0.35253 0.86920 0.27141-0.45631
  -6   6   4 2675.38  382.12   1 0.08768-0.79643-0.61751 0.09937 0.78165-0.59649
  -6  -6   3 1852.59  335.08   1 0.11817 0.59051-0.76905 0.25102-0.62816 0.76699
   6   6  -3 1285.03  274.06   1-0.62626-0.08097 0.11172 0.40567 0.77156-0.91042
  -6   6   3 1163.65  183.46   1 0.18390-0.89441-0.94809 0.43067 0.25942-0.12060
   6   6  -3 1186.21  208.29   1-0.88302 0.17801-0.36728 0.88469 0.29216-0.43084
  -6  -6   2  548.16  189.90   1 0.08940 0.61924-0.74707 0.22838-0.65869 0.75124
   6   6  -2  213.53  102.71   1-0.61429-0.09344 0.05236 0.46584 0.78734-0.87991
   6   6  -2  534.67  144.07   1-0.87017 0.16533-0.38131 0.89945 0.31208-0.40453
  -6   6   2  702.14  150.41   1 0.01122-0.71925-0.62689 0.10687 0.77902-0.68647
  -6  -6   1  246.07  191.38   1 0.06068 0.64793-0.72363 0.20428-0.68751 0.73379
   6   6  -1  200.38   94.47   1-0.60092-0.10674-0.00421 0.52306 0.79929-0.84558
   6   6  -1    3.53   77.23   1-0.85714 0.15246-0.39457 0.91345 0.33107-0.37730
  -6   6   1  324.14  138.96   1-0.03254-0.67561-0.63080 0.11012 0.77525-0.72898
  -6  -6   0  122.13  130.66   1 0.03218 0.67639-0.69891 0.17890-0.71448 0.71448
   6   6   0  303.45  110.19   1-0.58649-0.12113-0.05720 0.57669 0.80793-0.80793
   6   6   0   72.32  111.00   1-0.84525 0.13822-0.40852 0.92856 0.34446-0.34446
  -6   6   0  471.04  109.30   1-0.07961-0.62867-0.63364 0.11230 0.76951-0.76951
  -6  -6  -1  585.52  196.29   1 0.00451 0.70444-0.67317 0.15247-0.73946 0.69319
   6   6   1  476.12  141.43   1-0.57142-0.13614-0.10637 0.62649 0.81373-0.76744
   6   6   1  556.52  177.73   1-0.83254 0.12556-0.42001 0.94077 0.36119-0.31492
  -6   6  -1  413.25  153.62   1-0.12980-0.57860-0.63509 0.11308 0.76145-0.80772
  -6  -6  -2  723.84  204.94   1-0.02290 0.73184-0.64669 0.12529-0.76240 0.66985
   6   6   2  743.40  172.35   1-0.55612-0.15139-0.15159 0.67235 0.81715-0.72457
   6   6   2  756.19  150.06   1-0.82016 0.11324-0.43058 0.95206 0.37672-0.28417
  -6   6  -2  980.88  189.17   1-0.18286-0.52567-0.63482 0.11215 0.75070-0.84325
  -6  -6  -3 2751.24  427.21   1-0.04948 0.75841-0.61974 0.09764-0.78323 0.64441
   6   6   3 2031.00  291.00   1-0.54015-0.16719-0.19159 0.71311 0.81946-0.68081
   6   6   3 2581.06  361.49   1-0.80834 0.10148-0.44017 0.96236 0.39092-0.25210
  -6   6  -3 1629.51  251.82   1-0.23845-0.47022-0.63250 0.10916 0.73694-0.87576
  -6  -6  -4  125.85  112.69   1-0.07505 0.78397-0.59264 0.06985-0.80195 0.61685
   6   6   4  385.86  111.27   1-0.52539-0.18190-0.22893 0.75110 0.81948-0.63462
   6   6   4  111.85   70.56   1-0.79732 0.09050-0.44870 0.97161 0.40366-0.21856
  -6   6  -4  106.83   72.07   1-0.29587-0.41141-0.62719 0.10415 0.72047-0.90547
  -6  -6  -5  287.56  120.03   1-0.09943 0.80833-0.56571 0.04221-0.81858 0.58720
   6   6   5  159.60   56.01   1-0.51127-0.19597-0.26246 0.78529 0.81835-0.58728
  -6   6  -5  413.55  109.56   1-0.35522-0.35217-0.61982 0.09606 0.69973-0.93098
  -7   0  15  449.25  139.73   1 0.43110-0.43132-0.88826 0.29305-0.15851 0.85327
  -7   0  15  645.90  199.91   1 0.46023-0.46048-0.87547 0.28013-0.14740 0.84230
   7   0 -15  232.70  167.71   1-0.88153 0.88149 0.20812 0.38702-0.42377-0.27051
  -7   0  14  435.86  122.98   1 0.39999-0.40023-0.88982 0.29388-0.21957 0.86801
  -7   0  14  650.96  225.01   1 0.48240-0.48255-0.85553 0.25892-0.18799 0.83671
   7   0 -14  341.10  189.48   1-0.88793 0.88791 0.19959 0.39627-0.41440-0.23360
  -7   0  13  230.71   99.58   1 0.36555-0.36582-0.88700 0.29032-0.28211 0.88424
  -7   0  13  361.52  169.58   1 0.50389-0.50405-0.83298 0.23565-0.22852 0.83090
   7   0 -13  165.45  101.13   1-0.89339 0.89338 0.19210 0.40448-0.40613-0.19558
  -7   0  12  295.19  119.25   1 0.32902-0.32811-0.87821 0.27926-0.34709 0.90241
  -7   0  12  510.36  210.57   1 0.52437-0.52454-0.80785 0.20978-0.26908 0.82512
   7   0 -12  207.71  137.18   1-0.89787 0.89788 0.18577 0.41153-0.39912-0.15631
  -7   0  11  364.58  158.54   1 0.28749-0.28668-0.86486 0.26523-0.41153 0.92057
  -7   0  11  725.42  248.72   1 0.54376-0.54394-0.78004 0.18124-0.30960 0.81931
   7   0 -11  312.65  179.09   1-0.90136 0.90138 0.18074 0.41729-0.39353-0.11561
  -7   0  10  183.33   89.28   1 0.24225-0.24154-0.84531 0.24502-0.47618 0.93894
  -7   0  10  538.23  241.74   1 0.56193-0.56213-0.74950 0.14997-0.34996 0.81333
   7   0 -10  202.16  142.47   1-0.90378 0.90382 0.17718 0.42157-0.38957-0.07328
  -7   0   9 1892.10  195.87   1 0.19338-0.19277-0.81899 0.21803-0.54022 0.95671
  -7   0   9 1770.07  242.95   1 0.57920-0.57859-0.71574 0.11521-0.39016 0.80743
   7   0  -9 1593.13  175.49   1-0.90505 0.90510 0.17529 0.42418-0.38747-0.02909
  -7   0   8 1973.57  260.63   1 0.14119-0.14112-0.78552 0.18410-0.60250 0.97272
  -7   0   8 1778.26  249.17   1 0.59455-0.59396-0.67956 0.07828-0.42976 0.80067
   7   0  -8 1352.28  168.74   1-0.90502 0.90509 0.17534 0.42486-0.38752 0.01723
  -7   0   7 2824.29  293.08   1 0.08606-0.08604-0.74442 0.14235-0.66213 0.98606
  -7   0   7 3827.24  387.06   1 0.60827-0.60770-0.64057 0.03856-0.46868 0.79322
   7   0  -7 2709.30  261.12   1-0.90349 0.90357 0.17761 0.42330-0.39006 0.06606
  -7   0   6  753.12  203.19   1 0.02919-0.02868-0.69588 0.09339-0.71756 0.99521
  -7   0   6  102.19  128.70   1 0.62021-0.61965-0.59883-0.00391-0.50667 0.78486
   7   0  -6  168.48   85.37   1-0.90015 0.90024 0.18250 0.41914-0.39549 0.11778
  -7   0   5  126.33  180.29   1-0.02922 0.02971-0.64039 0.03721-0.76748 0.99886
  -7   0   5  415.06  165.27   1 0.63021-0.62967-0.55447-0.04901-0.54349 0.77531
   7   0  -5  556.60  102.89   1-0.89456 0.89467 0.19046 0.41190-0.40432 0.17289
  -7   0   4  140.14  169.44   1-0.08764 0.08812-0.57887-0.02500-0.81069 0.99579
   7   0  -4  129.35  105.83   1-0.63735 0.63718 0.50746 0.09583 0.57988-0.76473
   7   0  -4  -33.79   52.70   1-0.88608 0.88620 0.20208 0.40100-0.41715 0.23200
  -7   0   3  379.64  187.92   1-0.14437 0.14466-0.51234-0.09227-0.84655 0.98516
   7   0  -3   78.99   65.39   1-0.64312 0.64301 0.45856 0.14541 0.61327-0.75191
   7   0  -3   22.35   49.12   1-0.87376 0.87389 0.21810 0.38571-0.43470 0.29584
  -7   0   2  815.44  189.61   1-0.19893 0.19927-0.44326-0.16208-0.87403 0.96644
   7   0  -2  300.78   96.64   1-0.64662 0.64658 0.40787 0.19676 0.64460-0.73702
   7   0  -2  331.49   79.01   1-0.85685 0.85693 0.23942 0.36487-0.45659 0.36404
  -7   0   1 2019.75  230.54   1-0.24994 0.25033-0.37307-0.23300-0.89350 0.93970
   7   0  -1 2684.93  215.19   1-0.64782 0.64784 0.35586 0.24944 0.67355-0.71977
   7   0  -1 2177.40  246.86   1-0.83192 0.83200 0.26718 0.33783-0.48632 0.44005
  -7   0   0 2755.90  277.06   1-0.29685 0.29710-0.30344-0.30319-0.90542 0.90542
   7   0   0 2211.25  253.23   1-0.64746 0.64794 0.30352 0.30248 0.69904-0.69904
   7   0   0 1838.38  218.88   1-0.79607 0.79614 0.30295 0.30276-0.52391 0.52391
  -7   0  -1  518.55  229.82   1-0.33876 0.33900-0.23620-0.37115-0.91074 0.86447
   7   0   1  759.83   98.58   1-0.64426 0.64480 0.25054 0.35613 0.72259-0.67631
   7   0   1  723.36  101.14   1-0.74357 0.74364 0.34860 0.25783-0.57059 0.61686
  -7   0  -1  501.36   58.24   1-0.92009 0.91838-0.31985-0.28708 0.22606-0.27229
  -7   0  -2  250.08  128.92   1-0.37562 0.37587-0.17265-0.43539-0.91054 0.81801
   7   0   2  285.06   85.03   1-0.63905 0.63964 0.19807 0.40928 0.74321-0.65064
   7   0   2  174.84   42.54   1-0.66432 0.66442 0.40630 0.20080-0.62736 0.71987
  -7   0  -2  117.64   40.56   1-0.89881 0.89693-0.34853-0.25914 0.26581-0.35826
  -7   0  -3  562.22  198.15   1-0.40754 0.40778-0.11377-0.49498-0.90606 0.76727
   7   0   3  117.10   55.59   1-0.63207 0.63271 0.14678 0.46125 0.76087-0.62202
   7   0   3  105.79   36.33   1-0.54026 0.54034 0.47792 0.12990-0.69259 0.83135
  -7   0  -3  212.41   47.37   1-0.86151 0.86092-0.39276-0.21609 0.32174-0.46056
  -7   0  -4  205.91  114.63   1-0.43484 0.43497-0.06003-0.54940-0.89849 0.71340
   7   0   4  259.52   73.10   1-0.62363 0.62432 0.09731 0.51140 0.77563-0.59049
  -7   0  -4  165.82   38.05   1-0.78248 0.78183-0.45961-0.14997 0.42009-0.60518
  -7   0  -5   25.24  113.50   1-0.45783 0.45794-0.01196-0.59821-0.88895 0.65759
   7   0   5  218.04   73.12   1-0.61374 0.61433 0.04986 0.55938 0.78792-0.55648
  -7   0  -6  738.00  166.37   1-0.47702 0.47714 0.03056-0.64146-0.87835 0.60071
   7   0   6  996.95  145.38   1-0.60342 0.60407 0.00570 0.60418 0.79740-0.51966
  -7   0  -7 3159.61  343.25   1-0.49293 0.49303 0.06770-0.67934-0.86743 0.54351
   7   0   7 2100.06  339.90   1-0.59273 0.59344-0.03510 0.64563 0.80462-0.48060
  -7   0  -8 1468.87  211.91   1-0.50599 0.50609 0.09976-0.71212-0.85674 0.48656
   7   0   8 1262.34  176.73   1-0.58205 0.58280-0.07225 0.68342 0.80993-0.43962
  -7   0  -9  123.03  100.71   1-0.51664 0.51674 0.12707-0.74017-0.84671 0.43025
   7   0   9  127.65   66.11   1-0.57168 0.57250-0.10555 0.71735 0.81365-0.39705
   7   0  10   78.90   43.77   1-0.56194 0.56280-0.13488 0.74731 0.81610-0.35321
   7   0  11   79.85   78.89   1 0.53159-0.53288-0.16721 0.78317 0.83033-0.32042
   7   0  11  245.68   93.82   1-0.55304 0.55396-0.16023 0.77330 0.81759-0.30842
   7   0  12  163.86   88.42   1 0.53696-0.53824-0.18258 0.79925 0.82360-0.26734
   7   0  12  292.47  105.82   1-0.54394 0.54497-0.18158 0.79558 0.81923-0.26465
   7   0  13  -53.07   78.10   1 0.54108-0.54235-0.19464 0.81203 0.81813-0.21552
   7   0  13  211.61   81.46   1-0.53723 0.53831-0.19919 0.81385 0.81957-0.21877
   7   0  14 1648.43  301.35   1 0.54410-0.54536-0.20370 0.82180 0.81391-0.16494
   7   0  14  879.57  149.06   1-0.53179 0.53292-0.21305 0.82836 0.81963-0.17262
  -7  -1  15 8417.73 1252.33   1 0.40083-0.28300-0.88984 0.29462-0.21798 0.91274
  -7   1  1510547.87 1606.61   1 0.42498-0.54337-0.90101 0.30567-0.08695 0.78185
  -7  -1  15 9975.95 1509.09   1 0.48829-0.37049-0.84970 0.25387-0.19891 0.89346
   7  -1 -15 8725.63 1457.42   1-0.81395 0.93210 0.28565 0.30939-0.50584-0.18829
   7   1 -15 9259.46 1393.85   1-0.93100 0.81292 0.13302 0.46211-0.33989-0.35440
  -7   1  14  372.65  110.52   1 0.44800-0.56628-0.88549 0.28955-0.12323 0.77167
  -7  -1  14  590.84  155.24   1 0.37005-0.25225-0.88761 0.29167-0.27421 0.92265
  -7   1  14  724.14  249.85   1 0.44672-0.56512-0.88606 0.28996-0.12379 0.77237
  -7  -1  14   88.85  148.29   1 0.51086-0.39284-0.82486 0.22825-0.24210 0.89082
   7  -1 -14  628.35  151.58   1-0.81925 0.93739 0.28033 0.31543-0.50023-0.14761
   7   1 -14  546.26  153.76   1-0.93740 0.81934 0.12123 0.47463-0.32644-0.32156
  -7   1  13  330.13  102.97   1 0.41442-0.53273-0.88963 0.29295-0.19183 0.79395
  -7  -1  13  158.25  126.57   1 0.33665-0.21887-0.88148 0.28480-0.33114 0.93326
  -7   1  13  550.17  235.95   1 0.46778-0.58619-0.86909 0.27222-0.16082 0.76306
  -7  -1  13  417.54  219.25   1 0.53239-0.41438-0.79686 0.19952-0.28557 0.88795
   7  -1 -13  248.19  109.61   1-0.82327 0.94141 0.27621 0.32025-0.49589-0.10568
   7   1 -13  214.75  138.13   1-0.94304 0.82499 0.11024 0.48633-0.31386-0.28785
  -7   1  12  450.89  107.00   1 0.37627-0.49460-0.88834 0.29093-0.26316 0.81897
  -7  -1  12  347.40  145.82   1 0.30195-0.18298-0.87004 0.27108-0.38968 0.94500
  -7   1  12  -12.96  144.25   1 0.48792-0.60627-0.85008 0.25201-0.19822 0.75426
  -7  -1  12  542.14  265.27   1 0.55256-0.43456-0.76586 0.16779-0.32882 0.88487
   7  -1 -12  291.77  139.32   1-0.82595 0.94409 0.27345 0.32373-0.49297-0.06233
   7   1 -12  289.71  144.18   1-0.94794 0.82990 0.10016 0.49714-0.30226-0.25317
  -7   1  11  162.55   86.68   1 0.33467-0.45193-0.87966 0.28003-0.33791 0.84695
  -7  -1  11  286.42  146.00   1 0.26315-0.14428-0.85495 0.25533-0.44698 0.95602
  -7   1  11  122.02  139.87   1 0.50750-0.62586-0.82883 0.23003-0.23552 0.74523
  -7  -1  11  563.30  213.76   1 0.57123-0.45324-0.73180 0.13300-0.37169 0.88140
   7  -1 -11  538.61  144.33   1-0.82717 0.94530 0.27218 0.32571-0.49162-0.01740
   7   1 -11  399.28  173.10   1-0.95214 0.83411 0.09108 0.50694-0.29177-0.21737
  -7  -1  10  301.31  142.15   1 0.22165-0.10287-0.83485 0.23455-0.50387 0.96664
  -7   1  10  345.84  109.75   1 0.28642-0.40378-0.86445 0.26416-0.41312 0.87588
  -7   1  10    4.78  113.52   1 0.52624-0.64462-0.80534 0.20582-0.27290 0.73627
  -7  -1  10  113.91  143.93   1 0.58863-0.46976-0.69429 0.09449-0.41408 0.87771
   7  -1 -10  127.37  117.35   1-0.82678 0.94490 0.27259 0.32601-0.49206 0.02930
   7   1 -10  120.57   96.37   1-0.95564 0.83763 0.08313 0.51562-0.28255-0.18030
  -7   1   9 2817.90  207.06   1 0.23284-0.35030-0.84065 0.23969-0.48896 0.90544
  -7  -1   9 2679.14  273.97   1 0.17753-0.05929-0.80946 0.20870-0.55968 0.97617
  -7   1   9 2383.29  239.92   1 0.54407-0.66246-0.77955 0.17929-0.31028 0.72732
  -7  -1   9 2784.56  314.72   1 0.60383-0.48497-0.65406 0.05352-0.45561 0.87288
   7  -1  -9 1898.11  296.08   1-0.82456 0.94268 0.27489 0.32442-0.49449 0.07801
   7   1  -9 2481.23  229.97   1-0.95845 0.84045 0.07647 0.52300-0.27481-0.14176
  -7   1   841383.45 1210.28   1 0.17427-0.29233-0.80742 0.20600-0.56364 0.93386
  -7  -1   841560.67 1277.28   1 0.13108-0.01288-0.77841 0.17699-0.61391 0.98412
  -7   1   838102.95 2327.27   1 0.56090-0.67929-0.75137 0.15039-0.34758 0.71828
  -7  -1   838387.66 2354.13   1 0.61704-0.49820-0.61085 0.00957-0.49609 0.86700
   7  -1  -834841.37 2209.47   1-0.82023 0.93835 0.27932 0.32070-0.49918 0.12897
   7   1  -837835.34 2282.93   1-0.96056 0.84258 0.07129 0.52891-0.26876-0.10152
  -7  -1   7 4613.95  398.40   1 0.08264 0.03551-0.74169 0.13961-0.66563 0.98956
  -7   1   7 4607.71  362.24   1 0.11098-0.22908-0.76370 0.16163-0.63595 0.95989
  -7   1   7 3930.79  355.17   1 0.57707-0.69474-0.72029 0.11828-0.38491 0.70946
  -7  -1   7 4593.39  398.56   1 0.62811-0.50929-0.56478-0.03722-0.53523 0.85978
   7  -1  -7 4006.87  435.22   1-0.81342 0.93153 0.28618 0.31455-0.50640 0.18247
   7   1  -7 3792.47  306.46   1-0.96193 0.84397 0.06782 0.53310-0.26471-0.05928
  -7  -1   6 2826.54  301.38   1 0.03272 0.08539-0.69939 0.09666-0.71398 0.99164
  -7   1   6 2220.85  254.41   1 0.04424-0.16238-0.70954 0.10681-0.70326 0.98092
  -7   1   6 2341.22  268.93   1 0.59154-0.70923-0.68718 0.08443-0.42171 0.69989
   7  -1  -6 1949.08  219.67   1-0.80359 0.92170 0.29579 0.30565-0.51646 0.23881
   7   1  -6 1611.94  174.99   1-0.96250 0.84455 0.06637 0.53527-0.26302-0.01469
  -7   1   5  524.59  114.45   1-0.02404-0.09355-0.64555 0.04237-0.76333 0.99471
  -7  -1   5 1056.92  267.10   1-0.01762 0.13621-0.65189 0.04871-0.75810 0.98948
   7   1  -5 1558.25  174.42   1-0.64252 0.52432 0.46476 0.13786 0.60921-0.84028
  -7   1   5  872.98  173.15   1 0.60466-0.72236-0.65161 0.04812-0.45801 0.68983
   7  -1  -5  766.55  119.35   1-0.79007 0.90817 0.30854 0.29362-0.52970 0.29833
   7   1  -5  811.51  105.81   1-0.96213 0.84419 0.06733 0.53504-0.26414 0.03271
  -7   1   4 1763.09  189.80   1-0.09270-0.02491-0.57325-0.03062-0.81411 0.99922
  -7  -1   4 1796.60  246.39   1-0.06844 0.18702-0.59976-0.00411-0.79724 0.98234
   7   1  -4 1534.30  158.38   1-0.64644 0.52830 0.41175 0.19154 0.64231-0.82716
  -7   1   4 1234.20  147.15   1 0.61628-0.73400-0.61361 0.00939-0.49361 0.67907
   7  -1  -4 1715.83  268.26   1-0.77189 0.88999 0.32484 0.27803-0.54648 0.36138
   7   1  -4 1891.00  162.28   1-0.96060 0.84267 0.07119 0.53190-0.26865 0.08350
  -7  -1   3  913.89  180.87   1-0.11851 0.23708-0.54386-0.06071-0.83076 0.96958
  -7   1   3  924.20  164.51   1-0.15882 0.04106-0.49462-0.10999-0.85447 0.99308
   7   1  -3  910.09  137.09   1-0.64782 0.52975 0.35723 0.24673 0.67283-0.81147
  -7   1   3  817.76  134.23   1 0.62629-0.74402-0.57328-0.03168-0.52830 0.66739
   7  -1  -3  763.58  102.38   1-0.74779 0.86589 0.34518 0.25840-0.56714 0.42831
   7   1  -3  575.07   95.28   1-0.95755 0.83964 0.07862 0.52518-0.27731 0.13846
  -7  -1   2 1267.01  225.87   1-0.16658 0.28497-0.48494-0.12040-0.85853 0.95094
  -7   1   2  907.91  178.18   1-0.22146 0.10375-0.41296-0.19238-0.88341 0.97581
   7   1  -2 1125.10  184.57   1-0.64740 0.52986 0.30211 0.30253 0.69970-0.79228
   7  -1  -2 1002.22  159.18   1-0.71601 0.83410 0.37003 0.23426-0.59194 0.49939
   7   1  -2  999.84  103.87   1-0.95238 0.83448 0.09054 0.51400-0.29114 0.19857
  -7   1   1 2765.84  192.73   1-0.27874 0.16107-0.33083-0.27524-0.90158 0.94778
  -7  -1   1 3062.38  274.41   1-0.21260 0.33105-0.42499-0.18108-0.87987 0.92607
   7  -1  -1 3175.60  190.92   1-0.64017 0.75816 0.48612 0.11918 0.59486-0.64107
   7   1  -1 3276.26  347.48   1-0.64391 0.52642 0.24625 0.35907 0.72438-0.77067
   7  -1  -1 2869.53  282.68   1-0.67384 0.79203 0.39993 0.20501-0.62127 0.57502
   7   1  -1 2907.75  157.62   1-0.94406 0.82618 0.10819 0.49707-0.31150 0.26522
  -7  -1   010520.66  444.88   1-0.25562 0.37412-0.36489-0.24191-0.89526 0.89526
  -7   1   010676.99  441.30   1-0.33001 0.21212-0.25065-0.35599-0.91009 0.91009
   7  -1   010336.34  380.93   1-0.64468 0.76273 0.44008 0.16589 0.62506-0.62506
   7   1   011299.96  682.34   1-0.63816 0.52073 0.19071 0.41528 0.74590-0.74590
   7  -1   0 8964.06  438.82   1-0.61856 0.73672 0.43503 0.17063-0.65430 0.65430
   7   1   010010.10  347.37   1-0.93079 0.81292 0.13341 0.47257-0.34032 0.34032
  -7  -1  -1 1530.67  209.74   1-0.29544 0.41383-0.30561-0.30173-0.90515 0.85889
  -7   1  -1 1115.08  162.63   1-0.37440 0.25651-0.17483-0.43251-0.91063 0.86436
   7  -1   1 1241.17  119.86   1-0.64721 0.76533 0.39283 0.21381 0.65329-0.60708
   7   1   1 1495.92  238.30   1-0.63040 0.51302 0.13618 0.47049 0.76422-0.71793
   7  -1   1 1187.66  143.11   1-0.54534 0.66347 0.47536 0.13103-0.69038 0.73663
   7   1   1 1017.43   86.61   1-0.90924 0.79139 0.16897 0.43774-0.38041 0.42670
  -7  -1  -1  865.47   86.14   1-0.72966 0.84706-0.49388-0.11354 0.47294-0.51921
  -7  -1  -2 -126.62  144.43   1-0.33127 0.44965-0.24857-0.35947-0.91020 0.81766
  -7   1  -2  408.32  184.71   1-0.41226 0.29426-0.10470-0.50327-0.90502 0.81247
   7  -1   2  285.08  103.34   1-0.64778 0.76597 0.34487 0.26244 0.67929-0.58686
   7   1   2  168.20   67.70   1-0.62094 0.50361 0.08332 0.52403 0.77941-0.68684
   7  -1   2  313.19   60.54   1-0.44701 0.56548 0.52032 0.08686-0.72762 0.82016
   7   1   2  208.96   53.93   1-0.87277 0.75494 0.21934 0.38809-0.43605 0.52862
  -7   1  -2  316.87   50.22   1-0.99189 0.87273-0.12313-0.48435-0.03135-0.06113
  -7  -1  -2  272.18   45.79   1-0.65869 0.77639-0.53110-0.07761 0.53295-0.62545
  -7  -1  -3  339.96  221.76   1-0.36319 0.48156-0.19459-0.41416-0.91116 0.77237
  -7   1  -3  394.88  125.23   1-0.44390 0.32589-0.04143-0.56727-0.89511 0.75629
   7  -1   3  529.72   83.53   1-0.64719 0.76575 0.29732 0.31071 0.70194-0.56309
   7   1   3  422.09   95.92   1-0.60983 0.49233 0.03247 0.57550 0.79186-0.65299
   7   1   3  389.89   59.46   1-0.80829 0.69033 0.29124 0.31661-0.51170 0.65053
  -7   1  -3  180.91   44.53   1-0.99094 0.87163-0.13292-0.47530-0.01900-0.11973
  -7  -1  -4  374.57  184.74   1-0.39124 0.50962-0.14432-0.46513-0.90889 0.72383
  -7   1  -4  537.61  171.64   1-0.47003 0.35202 0.01479-0.62423-0.88252 0.69743
   7  -1   4  354.54   71.47   1-0.64419 0.76281 0.24970 0.35900 0.72294-0.53780
   7   1   4  310.90   75.61   1-0.59804 0.48059-0.01538 0.62399 0.80131-0.61616
   7   1   4   72.41   22.19   1-0.66617 0.54821 0.40508 0.20347-0.62619 0.81121
  -7   1  -4  112.60   32.43   1-0.98836 0.86890-0.15199-0.45697 0.00520-0.19019
  -7  -1  -4  126.69   41.26   1-0.32918 0.44737-0.62338 0.01364 0.70924-0.89424
  -7   1  -4  219.88   60.50   1 0.13996-0.25798-0.60865-0.00204 0.78099-0.96614
  -7  -1  -5 1751.07  230.26   1-0.41567 0.53392-0.09810-0.51206-0.90420 0.67283
  -7   1  -5  954.04  143.66   1-0.49139 0.37337 0.06402-0.67420-0.86858 0.63721
   7  -1   5 1207.97  146.66   1-0.63965 0.75831 0.20322 0.40616 0.74131-0.50988
   7   1   5  916.85  149.36   1-0.58567 0.46828-0.06001 0.66927 0.80832-0.57687
  -7   1  -5  758.43   76.95   1-0.09024-0.02795-0.63408 0.02253 0.76797-0.99935
  -7  -1  -6  325.46  233.07   1-0.43661 0.55486-0.05643-0.55446-0.89787 0.62023
  -7   1  -6   39.64  143.39   1-0.50870 0.39068 0.10659-0.71750-0.85431 0.57667
   7  -1   6  246.90   89.34   1-0.63383 0.75255 0.15851 0.45155 0.75705-0.47933
   7   1   6   85.28   43.03   1-0.57311 0.45577-0.10111 0.71100 0.81321-0.53548
  -7   1  -6  233.94   37.26   1-0.39982 0.28197-0.61247 0.00130 0.68191-0.95942
  -7  -1  -7 5669.51  444.56   1-0.45444 0.57268-0.01923-0.59240-0.89056 0.56665
   7  -1   7 4967.58  551.80   1-0.62704 0.74582 0.11618 0.49456 0.77026-0.44626
   7   1   7 5437.74  574.75   1-0.56071 0.44343-0.13845 0.74898 0.81635-0.49232
   7  -1   8 1036.18  164.20   1 0.53325-0.41635-0.17190 0.78573 0.82830-0.45746
  -7  -1  -8  890.60  213.22   1-0.46948 0.58771 0.01355-0.62592-0.88283 0.51265
   7  -1   8  583.55   75.85   1-0.61926 0.73800 0.07610 0.53505 0.78148-0.41117
   7   1   8  328.59   92.59   1-0.54770 0.43055-0.17146 0.78284 0.81891-0.44918
   7  -1   9 1286.80  158.07   1 0.54207-0.42516-0.19760 0.81214 0.81676-0.39957
  -7  -1  -9 1128.23  178.13   1-0.48205 0.60028 0.04209-0.65519-0.87512 0.45866
   7  -1   9  957.70  125.78   1-0.61153 0.73033 0.03993 0.57186 0.79020-0.37360
   7   1   9 1233.73  145.86   1-0.53650 0.41939-0.20108 0.81312 0.81959-0.40365
   7  -1  10  482.49  179.77   1 0.54902-0.43210-0.21874 0.83399 0.80667-0.34312
  -7  -1 -10 1322.88  216.76   1-0.49247 0.61069 0.06660-0.68043-0.86777 0.40504
   7  -1  10  209.64   74.35   1-0.60385 0.72270 0.00743 0.60500 0.79706-0.33417
   7   1  10  224.93   98.85   1-0.52623 0.40918-0.22686 0.83955 0.81951-0.35736
   7  -1  11  582.57  153.30   1 0.55441-0.43749-0.23581 0.85177 0.79812-0.28822
  -7  -1 -11  590.59  186.95   1-0.50100 0.61922 0.08733-0.70188-0.86102 0.35202
   7  -1  11  132.99   64.47   1-0.59651 0.71542-0.02114 0.63422 0.80232-0.29314
   7   1  11  237.50   95.05   1-0.51708 0.40008-0.24889 0.86224 0.81894-0.31057
   7  -1  12  954.99  182.32   1 0.55853-0.44159-0.24924 0.86592 0.79115-0.23489
  -7  -1 -12 1137.08  232.73   1-0.50788 0.62609 0.10452-0.71981-0.85505 0.29977
   7  -1  12  579.96  125.18   1-0.58979 0.70875-0.04565 0.65936 0.80626-0.25079
   7   1  12  485.32   96.38   1-0.50916 0.39222-0.26731 0.88131 0.81810-0.26351
   7  -1  13   24.91   79.03   1 0.56156-0.44462-0.25941 0.87680 0.78571-0.18309
  -7  -1 -13  135.33  129.20   1-0.51332 0.63153 0.11844-0.73446-0.84997 0.24842
   7  -1  13   49.79   34.37   1-0.58391 0.70292-0.06601 0.68036 0.80912-0.20737
   7   1  13   54.69   58.94   1-0.50255 0.38566-0.28225 0.89691 0.81717-0.21637
   7  -1  14 2260.47  334.10   1 0.56368-0.44672-0.26665 0.88475 0.78176-0.13279
  -7  -1 -14 1830.06  343.71   1-0.51750 0.63571 0.12934-0.74609-0.84584 0.19801
   7   1  14 2142.19  311.62   1-0.49730 0.38045-0.29386 0.90917 0.81629-0.16928
  -7  -2  14  615.01  170.32   1 0.35436-0.11851-0.88518 0.28923-0.30145 0.94989
  -7   2  14  573.41  195.16   1 0.40323-0.63977-0.91365 0.31755-0.05131 0.69988
  -7  -2  14  749.90  231.67   1 0.53220-0.29601-0.79713 0.20052-0.28517 0.93389
   7  -2 -14  657.84  207.09   1-0.73258 0.96874 0.35733 0.23842-0.57933-0.06852
   7   2 -14  359.46  119.41   1-0.96862 0.73324 0.04951 0.54664-0.24353-0.40439
  -7  -2  13 3796.99  546.97   1 0.32419-0.08706-0.87691 0.27862-0.35485 0.95644
  -7   2  13 2392.55  393.88   1 0.42339-0.65994-0.90201 0.30514-0.08430 0.68655
  -7  -2  13 2937.76  430.36   1 0.55359-0.31741-0.76412 0.16678-0.33112 0.93350
   7  -2 -13 2748.00  555.17   1-0.73423 0.97038 0.35604 0.24042-0.57804-0.02353
   7   2 -13 2844.46  408.00   1-0.97325 0.73789 0.03550 0.56137-0.22698-0.37466
  -7  -2  12  328.89  155.12   1 0.29061-0.05357-0.86602 0.26707-0.40687 0.96218
  -7  -2  12  -48.14  130.95   1 0.57321-0.33704-0.72780 0.12973-0.37646 0.93250
   7  -2 -12  100.05   79.39   1-0.73409 0.97024 0.35614 0.24103-0.57814 0.02284
   7   2 -12  316.33  161.35   1-0.97720 0.74186 0.02215 0.57544-0.21114-0.34422
  -7  -2  11  239.72  119.97   1 0.25493-0.01799-0.85128 0.25166-0.45860 0.96764
  -7   2  11  455.19  189.24   1 0.46208-0.69866-0.87394 0.27553-0.15067 0.66026
  -7  -2  11  390.97  204.22   1 0.59126-0.35412-0.68789 0.08882-0.42096 0.93096
   7  -2 -11  191.88   62.79   1-0.73201 0.96816 0.35777 0.24011-0.57977 0.07074
   7   2 -11  144.03  114.06   1-0.98053 0.74523 0.00953 0.58878-0.19609-0.31299
  -7   2  10 2207.13  152.32   1 0.36621-0.60263-0.88709 0.28822-0.28097 0.74414
  -7  -2  10 3359.45  317.25   1 0.21721 0.01962-0.83247 0.23218-0.50971 0.97247
  -7   2  10 3054.29  299.04   1 0.48039-0.71693-0.85747 0.25794-0.18428 0.64765
  -7  -2  10 2597.58  276.84   1 0.60684-0.36972-0.64503 0.04523-0.46440 0.92803
   7  -2 -10 2462.65  346.07   1-0.72776 0.96390 0.36108 0.23752-0.58307 0.12031
   7   2 -10 2432.58  214.08   1-0.98330 0.74802-0.00227 0.60130-0.18194-0.28086
  -7   2   9  300.23   83.92   1 0.31120-0.54673-0.87306 0.27210-0.37537 0.79185
  -7  -2   9  799.31  237.40   1 0.17750 0.05885-0.80944 0.20868-0.55971 0.97620
  -7   2   9  575.69  221.26   1 0.49826-0.73482-0.83924 0.23898-0.21772 0.63475
  -7  -2   9  483.03  203.93   1 0.62015-0.38304-0.59909-0.00143-0.50645 0.92372
   7  -2  -9  346.11  171.25   1-0.72104 0.95717 0.36623 0.23308-0.58818 0.17170
   7   2  -9  654.48  157.42   1-0.98556 0.75030-0.01317 0.61292-0.16881-0.24771
  -7   2   8  692.24   84.30   1 0.24592-0.48154-0.84708 0.24545-0.47113 0.84134
  -7  -2   8  804.29  189.11   1 0.13614 0.10018-0.78199 0.18058-0.60822 0.97844
  -7   2   8  914.42  154.74   1 0.51548-0.75205-0.81924 0.21826-0.25121 0.62191
  -7  -2   8  650.33  237.02   1 0.63103-0.39394-0.55027-0.05100-0.54680 0.91771
   7  -2  -8  587.60  148.43   1-0.71115 0.94755 0.37352 0.22639-0.59559 0.22557
   7   2  -8 1071.33  155.62   1-0.98735 0.75212-0.02304 0.62352-0.15686-0.21337
  -7   2   7  246.64   74.81   1 0.17286-0.40909-0.80653 0.20445-0.56535 0.88928
  -7  -2   7  895.15  270.19   1 0.09331 0.14297-0.75015 0.14807-0.65464 0.97858
   7   2  -7  109.74   70.31   1-0.63859 0.40229 0.49852 0.10277 0.58623-0.90972
  -7   2   7  380.45  129.44   1 0.53199-0.76857-0.79744 0.19573-0.28472 0.60908
   7  -2  -7  352.15   88.01   1-0.69830 0.93467 0.38289 0.21774-0.60477 0.28100
   7   2  -7  170.47   79.33   1-0.98873 0.75352-0.03175 0.63295-0.14629-0.17766
  -7  -2   6 3912.40  356.51   1 0.04937 0.18687-0.71400 0.11127-0.69840 0.97606
  -7   2   6 3914.04  301.21   1 0.09289-0.32916-0.74982 0.14709-0.65508 0.93274
   7   2  -6 3851.15  304.62   1-0.64430 0.40807 0.44487 0.15709 0.62205-0.89933
  -7   2   6 3817.35  344.72   1 0.54772-0.78432-0.77378 0.17134-0.31819 0.59622
   7  -2  -6 3714.99  368.30   1-0.68157 0.91791 0.39465 0.20670-0.61619 0.33867
   7   2  -6 4136.45  349.58   1-0.98975 0.75457-0.03911 0.64103-0.13734-0.14034
  -7   2   5 1081.30  141.57   1 0.00936-0.24507-0.67772 0.07454-0.73525 0.96663
  -7  -2   5  930.84  246.08   1 0.00518 0.23150-0.67380 0.07062-0.73888 0.97026
   7   2  -5  875.55  130.85   1-0.64732 0.41114 0.38943 0.21319 0.65522-0.88628
  -7   2   5 1392.29  244.73   1 0.56263-0.79923-0.74823 0.14506-0.35155 0.58324
   7  -2  -5  791.20  111.07   1-0.66023 0.89654 0.40899 0.19308-0.62993 0.39866
   7   2  -5  649.49  119.80   1-0.99045 0.75530-0.04489 0.64752-0.13029-0.10110
  -7   2   4  178.87  109.34   1-0.07484-0.16087-0.59287-0.01100-0.80181 0.98691
  -7  -2   4  846.56  302.19   1-0.03956 0.27625-0.62994 0.02606-0.77562 0.96073
   7   2  -4  240.88   94.39   1-0.64762 0.41152 0.33274 0.27056 0.68546-0.87031
  -7   2   4  233.36  163.38   1 0.57711-0.81308-0.72020 0.11597-0.38502 0.57047
   7  -2  -4  157.90   53.62   1-0.63335 0.86962 0.42607 0.17671-0.64600 0.46099
   7   2  -4  324.69   92.81   1-0.99088 0.75576-0.04877 0.65212-0.12554-0.05957
  -7  -2   3 1249.97  245.63   1-0.08392 0.32059-0.58297-0.02160-0.80814 0.94697
  -7   2   3 1053.09  143.83   1-0.15520-0.08060-0.49909-0.10552-0.85253 0.99114
   7   2  -3 1162.56  213.07   1-0.64604 0.41053 0.27560 0.32837 0.71180-0.85066
  -7   2   3  462.14  158.43   1 0.59009-0.82607-0.69076 0.08579-0.41789 0.55698
   7  -2  -3 1059.10  223.08   1-0.59979 0.83603 0.44599 0.15751-0.66433 0.52557
   7   2  -3  686.62   92.08   1-0.99105 0.75595-0.05037 0.65444-0.12359-0.01525
  -7  -2   2 3502.84  316.91   1-0.12729 0.36394-0.53359-0.07168-0.83610 0.92865
  -7   2   2 3143.02  236.50   1-0.22979-0.00596-0.40147-0.20387-0.88657 0.97897
   7   2  -2 3408.99  393.56   1-0.64128 0.40582 0.21816 0.38648 0.73563-0.82820
  -7   2   2 2826.26  248.41   1 0.60198-0.83798-0.65941 0.05371-0.45031 0.54304
   7  -2  -2 3134.22  368.79   1-0.55815 0.79437 0.46876 0.13547-0.68463 0.59213
   7   2  -2 3586.99  236.77   1-0.99092 0.75585-0.04913 0.65392-0.12510 0.03253
  -7  -2   1  602.52  234.18   1-0.16868 0.40518-0.48229-0.12378-0.85961 0.90581
  -7   2   1  542.32  141.91   1-0.29620 0.06018-0.30445-0.30149-0.90530 0.95156
   7   2  -1  654.29  137.31   1-0.63424 0.39884 0.16137 0.44395 0.75610-0.80238
  -7   2   1  880.44  179.77   1 0.61268-0.84869-0.62622 0.01978-0.48214 0.52850
   7  -2  -1  412.16   91.09   1-0.50624 0.74269 0.49427 0.11071-0.70668 0.66041
   7   2  -1  391.52   78.11   1-0.99039 0.75534-0.04431 0.64982-0.13099 0.08471
  -7  -2   0 2948.21  284.04   1-0.20834 0.44489-0.43073-0.17608-0.87810 0.87810
  -7   2   0 2720.36  242.57   1-0.35321 0.11718-0.21181-0.39483-0.91124 0.91124
   7   2   0 3568.57  373.63   1-0.62521 0.38986 0.10589 0.50011 0.77323-0.77323
  -7   2   0 2673.27  219.58   1 0.62210-0.85813-0.59129-0.01587-0.51318 0.51318
   7  -2   0 2763.37  185.96   1-0.44300 0.67947 0.52197 0.08375-0.72889 0.72889
   7   2   0 3326.57  216.64   1-0.98916 0.75415-0.03480 0.64103-0.14259 0.14259
  -7  -2  -1 1814.50  225.76   1-0.24553 0.48212-0.37937-0.22816-0.89207 0.84586
  -7   2  -1  937.07  164.88   1-0.40088 0.16485-0.12638-0.48096-0.90736 0.86110
   7   2   1 1441.02  159.75   1-0.61426 0.37867 0.05225 0.55444 0.78736-0.74107
  -7   2  -1 1005.43  137.53   1 0.63015-0.86620-0.55480-0.05310-0.54323 0.49686
   7  -2   1 1445.67  157.30   1-0.36580 0.60231 0.55099 0.05546-0.75005 0.79633
   7   2   1 1268.74  113.01   1-0.98663 0.75163-0.01892 0.62586-0.16186 0.20814
  -7  -2  -2 3889.34  319.63   1-0.27990 0.51656-0.32908-0.27919-0.90186 0.80945
  -7   2  -2 2986.99  249.81   1-0.43999 0.20386-0.04951-0.55846-0.89663 0.80408
   7   2   2 4964.04  455.93   1-0.60228 0.36674 0.00114 0.60620 0.79828-0.70570
   7   2   2 3427.16  193.91   1-0.98138 0.74641 0.00607 0.60158-0.19195 0.28451
  -7   2  -2 3276.98  208.94   1 0.26946-0.50561-0.57882-0.03044 0.76964-0.86222
  -7  -2  -3 2279.33  278.46   1-0.31166 0.54818-0.28023-0.32852-0.90792 0.76913
  -7   2  -3 1870.42  213.39   1-0.47146 0.23532 0.01798-0.62669-0.88170 0.74288
   7  -2   3 2415.52  199.10   1-0.64114 0.87735 0.47785 0.13012 0.60049-0.46185
   7   2   3 2912.34  372.88   1-0.58940 0.35392-0.04703 0.65501 0.80646-0.66759
   7   2   3 2454.75  172.35   1-0.97010 0.73516 0.04518 0.56319-0.23843 0.37727
  -7   2  -3 2238.16  181.35   1 0.15774-0.39393-0.60523-0.00475 0.78026-0.91912
  -7  -2  -4 1236.99  208.66   1-0.34001 0.57653-0.23410-0.37535-0.91081 0.72575
  -7   2  -4 1437.02  193.58   1-0.49654 0.26040 0.07641-0.68586-0.86464 0.67954
   7  -2   4 1741.39  174.61   1-0.64480 0.88108 0.43842 0.17023 0.62610-0.44125
   7   2   4 1654.29  205.57   1-0.57602 0.34059-0.09191 0.70053 0.81225-0.62709
   7   2   4 1533.72  116.50   1-0.94502 0.70916 0.10624 0.50263-0.30926 0.49441
  -7   2  -4 1949.30  171.21   1 0.02631-0.26253-0.62566 0.01496 0.77965-0.96480
  -7  -2  -522818.28 1428.60   1-0.36528 0.60179-0.19093-0.41922-0.91110 0.67977
  -7   2  -519341.65 1188.72   1-0.51636 0.28022 0.12635-0.73653-0.84699 0.61562
   7  -2   521922.69 1309.97   1-0.64700 0.88335 0.39883 0.21048 0.64985-0.41879
   7   2   520241.92 1519.32   1-0.56250 0.32712-0.13323 0.74249 0.81598-0.58454
  -7   2  -520033.14 1193.52   1-0.12563-0.11069-0.63503 0.02347 0.76219-0.99357
   7  -2   6 4269.18  317.64   1 0.53142-0.29632-0.16672 0.77912 0.83053-0.55240
  -7  -2  -6 5551.60  465.76   1-0.38756 0.62406-0.15109-0.45977-0.90937 0.63178
   7  -2   6 4555.79  323.40   1-0.64781 0.88422 0.35963 0.25035 0.67156-0.39428
   7   2   6 4592.23  363.08   1-0.54819 0.31295-0.17015 0.78023 0.81886-0.54156
  -7   2  -6 4631.84  318.77   1-0.29555 0.05978-0.62722 0.01606 0.72057-0.99808
   7  -2   7 4027.16  227.32   1 0.54357-0.30846-0.20209 0.81521 0.81466-0.49018
  -7  -2  -7 4827.18  334.92   1-0.40701 0.64350-0.11478-0.49678-0.90617 0.58232
   7  -2   7 3627.06  337.75   1-0.64807 0.88476 0.32227 0.28847 0.69002-0.36602
   7   2   7 4401.64  249.42   1-0.53536 0.30018-0.20398 0.81471 0.81961-0.49610
  -7   2  -7 3476.51  147.06   1-0.47526 0.23938-0.59620-0.01567 0.64704-0.97079
   7  -2   8  305.15  118.50   1 0.55304-0.31792-0.23141 0.84523 0.80036-0.42952
  -7  -2  -8  400.42  154.50   1-0.42387 0.66024-0.08202-0.53033-0.90199 0.53180
   7   2   8  662.28  134.09   1-0.52329 0.28815-0.23405 0.84544 0.81938-0.44965
   7  -2   9  488.80  156.32   1 0.56038-0.32525-0.25540 0.86994 0.78787-0.37067
  -7  -2  -9  701.57  216.57   1-0.43828 0.67464-0.05302-0.56006-0.89727 0.48081
   7  -2   9  309.85   81.88   1-0.64432 0.88112 0.25131 0.36079 0.72227-0.30570
   7   2   9  212.96  101.32   1-0.51215 0.27707-0.26043 0.87247 0.81845-0.40251
   7  -2  10  188.95  104.73   1 0.56601-0.33087-0.27475 0.89000 0.77726-0.31371
  -7  -2 -10  616.32  268.06   1-0.45050 0.68685-0.02760-0.58622-0.89234 0.42961
   7  -2  10   99.02   47.12   1-0.64144 0.87828 0.21968 0.39309 0.73504-0.27218
   7   2  10  353.78  146.03   1-0.50211 0.26709-0.28322 0.89591 0.81710-0.35495
   7  -2  11  560.54  148.61   1 0.57027-0.33513-0.29000 0.90597 0.76855-0.25865
  -7  -2 -11  668.00  220.45   1-0.46075 0.69710-0.00563-0.60891-0.88751 0.37850
   7   2  11  215.99   99.11   1-0.49328 0.25831-0.30257 0.91592 0.81554-0.30717
   7  -2  12  494.71  137.86   1 0.57342-0.33827-0.30167 0.91835 0.76169-0.20543
  -7  -2 -12   76.30  149.68   1-0.46923 0.70558 0.01301-0.62830-0.88297 0.32769
   7   2  12 1004.57  159.75   1-0.48573 0.25081-0.31863 0.93263 0.81395-0.25937
   7  -2  13 1255.55  227.07   1 0.57566-0.34049-0.31016 0.92755 0.75657-0.15396
  -7  -2 -13 1742.60  354.04   1-0.47613 0.71248 0.02853-0.64455-0.87890 0.27735
   7   2  13 1984.26  300.93   1-0.47951 0.24464-0.33156 0.94622 0.81248-0.21168
  -7  -3  13 3669.37  583.95   1 0.32196 0.03323-0.87628 0.27799-0.35841 0.96000
  -7   3  13 4997.48  811.13   1 0.37100-0.72569-0.92862 0.33176-0.00049 0.60274
  -7  -3  13 4918.01  780.73   1 0.56812-0.21376-0.73789 0.14055-0.36433 0.96671
   7  -3 -13 3520.75  742.71   1-0.63009 0.98464 0.42807 0.16824-0.64786 0.04657
   7   3 -13 3766.80  615.94   1-0.98835 0.63512-0.02925 0.62613-0.14934-0.45230
  -7   3  12  155.49  178.61   1 0.38927-0.74397-0.92066 0.32302-0.02901 0.58493
  -7  -3  12  405.25  190.32   1 0.58756-0.23217-0.69684 0.09851-0.41130 0.96767
   7  -3 -12   52.84   79.91   1-0.62688 0.98140 0.43003 0.16700-0.64968 0.09464
   7   3 -12  -12.32   95.52   1-0.99047 0.63727-0.04506 0.64266-0.13008-0.42528
  -7  -3  11  772.21  212.98   1 0.25854 0.09646-0.85291 0.25329-0.45352 0.96256
  -7   3  11  237.21  177.03   1 0.40706-0.76178-0.91158 0.31318-0.05751 0.56710
  -7  -3  11  587.30  256.10   1 0.60432-0.24894-0.65262 0.05355-0.45703 0.96703
   7  -3 -11  260.79  128.70   1-0.62134 0.97582 0.43337 0.16438-0.65277 0.14399
   7   3 -11   74.52   92.74   1-0.99194 0.63876-0.06032 0.65863-0.11138-0.39770
  -7  -3  10 2675.60  292.23   1 0.22444 0.13046-0.83632 0.23603-0.50018 0.96294
  -7   3  10 4013.86  401.69   1 0.42438-0.77911-0.90139 0.30221-0.08595 0.54922
  -7  -3  10 2864.82  349.18   1 0.61855-0.26319-0.60522 0.00542-0.50108 0.96472
   7  -3 -10 2335.12  429.40   1-0.61322 0.96768 0.43820 0.16027-0.65721 0.19468
   7   3 -10 3001.74  304.83   1-0.99280 0.63966-0.07498 0.67402-0.09330-0.36949
  -7  -3   9 2167.00  324.22   1 0.18888 0.16592-0.81631 0.21535-0.54584 0.96233
  -7   3   9 2683.08  388.44   1 0.44122-0.79595-0.89008 0.29014-0.11435 0.53129
  -7  -3   9 2061.20  312.09   1 0.63013-0.27478-0.55491-0.04562-0.54314 0.96042
   7  -3  -9 1477.06  341.55   1-0.60223 0.95665 0.44459 0.15460-0.66305 0.24678
   7   3  -9 2281.90  327.67   1-0.99313 0.64001-0.08899 0.68875-0.07593-0.34059
  -7  -3   8 1750.50  243.12   1 0.15191 0.20254-0.79286 0.19144-0.59016 0.96037
   7   3  -8 1643.76  185.06   1-0.63817 0.28383 0.50162 0.09900 0.58404-0.95374
  -7   3   8  756.89  175.58   1 0.45755-0.81230-0.87766 0.27695-0.14267 0.51328
   7  -3  -8 1418.10  212.44   1-0.58800 0.94240 0.45265 0.14726-0.67033 0.30031
   7   3  -8  994.10  140.30   1-0.99298 0.63988-0.10230 0.70277-0.05935-0.31089
  -7  -3   7  640.39  245.97   1 0.11392 0.24049-0.76590 0.16382-0.63278 0.95672
   7   3  -7  212.61   97.98   1-0.64417 0.28990 0.44657 0.15472 0.62097-0.94446
  -7   3   7  542.37  185.97   1 0.47337-0.82813-0.86412 0.26264-0.17089 0.49518
   7  -3  -7  233.80  104.20   1-0.57011 0.92448 0.46243 0.13820-0.67906 0.35529
   7   3  -7   96.28   70.93   1-0.99254 0.63994-0.11427 0.71511-0.04248-0.28123
  -7  -3   6 7749.25  502.22   1 0.07505 0.27932-0.73554 0.13281-0.67330 0.95096
   7   3  -6 6720.27  360.19   1-0.64730 0.29310 0.38986 0.21210 0.65497-0.93225
  -7   3   6 6816.22  451.30   1 0.48851-0.84327-0.84948 0.24704-0.19931 0.47733
   7  -3  -6 5780.74  657.89   1-0.54804 0.90238 0.47398 0.12737-0.68918 0.41167
   7   3  -6 6713.50  391.51   1-0.99165 0.63920-0.12585 0.72742-0.02792-0.24954
  -7   3   5  235.13   75.67   1 0.10327-0.45771-0.75785 0.15447-0.64419 0.87557
  -7  -3   5  920.61  218.16   1 0.03561 0.31872-0.70196 0.09857-0.71132 0.94270
   7   3  -5  133.64   90.69   1-0.64761 0.29347 0.33205 0.27058 0.68580-0.91687
  -7   3   5  298.03  174.66   1 0.50324-0.85802-0.83372 0.23055-0.22727 0.45895
   7  -3  -5  386.00   91.45   1-0.52121 0.87552 0.48731 0.11476-0.70061 0.46934
   7   3  -5  324.65  118.02   1-0.99054 0.63824-0.13641 0.73872-0.01458-0.21664
  -7   3   4 1244.10  109.41   1-0.01120-0.34261-0.65814 0.05426-0.75280 0.93790
  -7  -3   4 1810.31  228.47   1-0.00362 0.35840-0.66545 0.06157-0.74643 0.93153
   7   3  -4 1259.49  183.99   1-0.64593 0.29245 0.27383 0.32945 0.71258-0.89773
  -7   3   4 1400.13  177.16   1 0.51739-0.87218-0.81685 0.21296-0.25503 0.44038
   7  -3  -4 1191.38  188.34   1-0.48870 0.84313 0.50233 0.10045-0.71331 0.52823
   7   3  -4 1177.44  155.29   1-0.98930 0.63715-0.14580 0.74886-0.00266-0.18232
  -7   3   3  519.36  129.21   1-0.11865-0.23521-0.54289-0.06172-0.83137 0.96998
  -7  -3   3  641.80  240.49   1-0.04309 0.39786-0.62633 0.02176-0.77835 0.91718
   7   3  -3 1084.04  149.67   1-0.64101 0.28759 0.21561 0.38836 0.73662-0.87547
  -7   3   3 1140.88  218.89   1 0.53093-0.88574-0.79891 0.19429-0.28255 0.42156
   7  -3  -3  773.14  124.07   1-0.45011 0.80457 0.51904 0.08448-0.72662 0.58781
   7   3  -3  497.09  125.21   1-0.98806 0.63606-0.15385 0.75764 0.00757-0.14631
  -7  -3   215022.20  974.13   1-0.08198 0.43674-0.58509-0.02017-0.80680 0.89935
  -7   3   214855.74  918.39   1-0.21480-0.13901-0.42202-0.18332-0.88076 0.97317
   7   3  -214999.48 1348.49   1-0.63378 0.28041 0.15819 0.44645 0.75715-0.84973
  -7   3   216707.90 1063.02   1 0.54383-0.89864-0.77993 0.17457-0.30976 0.40243
   7  -3  -215002.64  942.59   1-0.40444 0.75893 0.53709 0.06716-0.74024 0.64769
   7   3  -214048.47  874.30   1-0.98694 0.63508-0.16028 0.76481 0.01578-0.10827
  -7  -3   1  783.28  247.19   1-0.11988 0.47462-0.54227-0.06369-0.83160 0.87787
  -7   3   1  905.66  130.81   1-0.29642-0.05773-0.30410-0.30183-0.90534 0.95161
   7   3  -1 1140.68  147.43   1-0.62454 0.27122 0.10221 0.50310 0.77427-0.82055
  -7   3   1  546.15  179.26   1 0.55604-0.91087-0.75994 0.15386-0.33659 0.38293
   7  -3  -1  465.68  129.41   1-0.35080 0.70531 0.55607 0.04892-0.75347 0.70719
   7   3  -1  497.71  131.73   1-0.98609 0.63439-0.16476 0.77003 0.02152-0.06777
  -7  -3   0 4006.99  362.11   1-0.15596 0.51056-0.49815-0.10865-0.85294 0.85294
  -7   3   0 4141.24  316.71   1-0.36312 0.00895-0.19471-0.41193-0.91116 0.91116
   7   3   0 4021.87  491.27   1-0.61339 0.25976 0.04829 0.55777 0.78829-0.78829
  -7   3   0 4374.31  344.22   1 0.56753-0.92237-0.73902 0.13221-0.36296 0.36296
   7   3   0 3424.25  263.85   1-0.98568 0.63412-0.16684 0.77284 0.02418-0.02418
  -7  -3  -1 8233.63  605.62   1-0.19064 0.54529-0.45414-0.15339-0.87029 0.82408
  -7   3  -1 7204.59  502.16   1-0.41624 0.06198-0.09700-0.51024-0.90406 0.85778
   7   3   1 8434.79  882.09   1-0.60119 0.24761-0.00318 0.60988 0.79909-0.75280
  -7   3  -1 7301.00  516.15   1 0.57880-0.93309-0.71661 0.10869-0.38916 0.34280
   7   3   1 7638.76  498.97   1-0.98588 0.63447-0.16584 0.77258 0.02290 0.02334
  -7   3  -1 6676.57  450.24   1 0.21423-0.56854-0.59295-0.01560 0.77621-0.82250
  -7  -3  -222564.06 1424.10   1-0.22328 0.57798-0.41046-0.19780-0.88411 0.79170
  -7   3  -219762.33 1219.04   1-0.45771 0.10345-0.01221-0.59576-0.88901 0.79646
   7   3   223430.24 1561.54   1-0.58807 0.23455-0.05172 0.65906 0.80715-0.71457
  -7   3  -220318.88 1257.46   1 0.58871-0.94302-0.69410 0.08545-0.41428 0.32155
   7   3   220138.33 1214.16   1-0.98685 0.63559-0.16078 0.76826 0.01642 0.07606
  -7   3  -222739.00 1386.91   1 0.13191-0.48626-0.61013 0.00086 0.78123-0.87381
  -7  -3  -3 1280.40  240.45   1-0.25365 0.60841-0.36773-0.24126-0.89466 0.75605
  -7   3  -3  447.90  114.23   1-0.48974 0.13547 0.06011-0.66882-0.86978 0.73096
   7   3   3  701.42  168.62   1-0.57441 0.22095-0.09700 0.70498 0.81279-0.67392
  -7   3  -3  908.02  128.41   1 0.59778-0.95211-0.67105 0.06166-0.43856 0.29946
   7   3   3  550.57  124.38   1-0.98866 0.63755-0.15008 0.75831 0.00277 0.13596
  -7   3  -3  702.15  170.34   1 0.03918-0.39357-0.62415 0.01416 0.78031-0.91918
  -7  -3  -4 2698.32  262.84   1-0.28200 0.63665-0.32614-0.28332-0.90227 0.71721
  -7   3  -4 1969.31  145.43   1-0.51432 0.16005 0.12103-0.73047-0.84901 0.66391
   7   3   4 2008.57  274.45   1-0.56059 0.20718-0.13880 0.74742 0.81637-0.63121
  -7   3  -4 2393.87  166.40   1 0.60597-0.96031-0.64769 0.03756-0.46183 0.27637
   7   3   4 2031.85  106.82   1-0.99115 0.64018-0.13100 0.73997-0.02142 0.20640
  -7   3  -4 2357.00  157.17   1-0.06410-0.29022-0.63286 0.02197 0.77160-0.95670
   7  -3   512411.32  439.20   1 0.53257-0.17927-0.16999 0.78167 0.82913-0.59735
  -7  -3  -514401.48  601.79   1-0.30753 0.66217-0.28677-0.32339-0.90729 0.67596
   7   3   512896.36  474.84   1-0.54597 0.19271-0.17614 0.78557 0.81907-0.58799
  -7   3  -5 9778.66  340.31   1 0.61324-0.96760-0.62430 0.01343-0.48391 0.25209
  -7   3  -512324.69  414.62   1-0.17584-0.17862-0.63496 0.02340 0.75226-0.98363
   7  -3   6 2508.94  186.53   1 0.54685-0.19354-0.21206 0.82446 0.80992-0.53179
  -7  -3  -6 2255.20  266.05   1-0.33055 0.68519-0.24976-0.36110-0.91013 0.63254
   7   3   6 2411.45  208.76   1-0.53273 0.17952-0.21067 0.82075 0.81963-0.54234
  -7   3  -6 1462.31  115.66   1 0.61960-0.97397-0.60123-0.01036-0.50458 0.22640
  -7   3  -6 2377.46  172.89   1-0.29529-0.05838-0.62725 0.01608 0.72066-0.99816
   7  -3   7 3378.95  241.04   1 0.55773-0.20441-0.24662 0.85973 0.79252-0.46804
  -7  -3  -7 5403.93  430.10   1-0.35110 0.70573-0.21541-0.39615-0.91122 0.58736
   7   3   7 4563.43  303.44   1-0.52017 0.16701-0.24156 0.85229 0.81918-0.49567
  -7   3  -7 2464.48  150.21   1 0.62502-0.97941-0.57894-0.03340-0.52361 0.19906
  -7   3  -7 3925.38  216.35   1-0.41773 0.06394-0.60906-0.00281 0.67419-0.99794
   7  -3   8  426.98  127.11   1 0.56601-0.21268-0.27476 0.88858 0.77725-0.40641
  -7  -3  -8 1867.92  331.29   1-0.36927 0.72390-0.18392-0.42834-0.91093 0.54081
   7   3   8  655.92  153.52   1-0.50847 0.15536-0.26889 0.88028 0.81801-0.44829
   7  -3   9 2333.05  240.29   1 0.57228-0.21894-0.29740 0.91193 0.76422-0.34703
  -7  -3  -9 3800.28  424.52   1-0.38519 0.73981-0.15541-0.45756-0.90965 0.49326
   7   3   9 2569.00  273.83   1-0.49779 0.14474-0.29277 0.90481 0.81638-0.40044
   7  -3  10  324.11  126.61   1 0.57699-0.22363-0.31531 0.93056 0.75342-0.28988
  -7  -3 -10  610.22  239.41   1-0.39899 0.75360-0.12994-0.48374-0.90769 0.44504
   7   3  10  246.78  115.65   1-0.48824 0.13524-0.31334 0.92604 0.81451-0.35235
   7  -3  11  142.82   74.88   1 0.58047-0.22710-0.32915 0.94511 0.74478-0.23488
  -7  -3 -11  483.00  237.53   1-0.41082 0.76543-0.10749-0.50689-0.90535 0.39643
   7  -3  12  188.18  116.83   1 0.58296-0.22959-0.33945 0.95613 0.73818-0.18192
  -7  -3 -12  536.14  229.80   1-0.42085 0.77533-0.08798-0.52730-0.90284 0.34756
  -7  -4  11  477.76  182.09   1 0.27112 0.20195-0.85835 0.25873-0.43556 0.94460
  -7   4  11    6.16   93.98   1 0.34328-0.81616-0.93827 0.34076 0.04241 0.46663
  -7  -4  11  219.54  162.78   1 0.61197-0.13834-0.62860 0.02954-0.47994 0.98994
   7  -4 -11  272.10   93.35   1-0.50239 0.97468 0.49607 0.10157-0.70817 0.19918
   7   4 -11    9.91   77.06   1-0.99245 0.52165-0.11556 0.71344-0.04086-0.46783
  -7  -4  10  472.93  185.23   1 0.24042 0.23254-0.84442 0.24413-0.47868 0.94144
  -7   4  10  517.19  168.17   1 0.35831-0.83117-0.93340 0.33423 0.01893 0.44433
  -7  -4  10  611.08  214.30   1 0.62527-0.15166-0.57782-0.02197-0.52454 0.98818
   7  -4 -10  142.96  139.09   1-0.49111 0.96343 0.50124 0.09713-0.71243 0.24971
   7   4 -10  261.49  128.83   1-0.99105 0.52040-0.13190 0.73052-0.02028-0.44217
  -7  -4   9  361.28  157.92   1 0.20858 0.26429-0.82773 0.22677-0.52091 0.93740
  -7   4   9  218.69  116.74   1 0.37305-0.84593-0.92780 0.32786-0.00366 0.42060
   7  -4  -9  275.17  121.57   1-0.47682 0.94917 0.50762 0.09149-0.71760 0.30115
   7   4  -9  415.97  133.33   1-0.98903 0.51852-0.14770 0.74706-0.00024-0.41596
   7   4  -8  636.43  127.09   1-0.64216 0.16986 0.46836 0.13226 0.60684-0.97655
  -7   4   8  534.35  181.37   1 0.38725-0.86014-0.92160 0.32090-0.02583 0.39645
   7  -4  -8  753.52  171.19   1-0.45923 0.93161 0.51521 0.08463-0.72363 0.35346
   7   4  -8  907.31  156.24   1-0.98645 0.51609-0.16293 0.76302 0.01917-0.38914
   7   4  -7  454.01  118.16   1-0.64647 0.17423 0.41114 0.19015 0.64267-0.96616
  -7   4   7  605.44  188.01   1 0.40089-0.87379-0.91488 0.31341-0.04754 0.37183
   7  -4  -7   85.52   92.15   1-0.43800 0.91041 0.52400 0.07658-0.73045 0.40655
   7   4  -7   68.87   72.75   1-0.98338 0.51317-0.17753 0.77836 0.03792-0.36164
  -7  -4   6 1051.70  240.90   1 0.10743 0.36507-0.76102 0.15829-0.63975 0.91742
   7   4  -6  811.81  142.24   1-0.64782 0.17565 0.35286 0.24910 0.67513-0.95241
  -7   4   6 1663.31  268.93   1 0.41394-0.88685-0.90770 0.30546-0.06871 0.34667
   7  -4  -6  928.40  210.67   1-0.41277 0.88520 0.53393 0.06738-0.73792 0.46029
   7   4  -6  844.96  159.06   1-0.97990 0.50984-0.19146 0.79303 0.05591-0.33338
  -7  -4   5  787.89  311.89   1 0.07249 0.39997-0.73345 0.13006-0.67586 0.90724
   7   4  -5  233.84   82.26   1-0.64705 0.17560 0.29410 0.30851 0.70344-0.93486
  -7   4   5  173.19  144.69   1 0.42637-0.89929-0.90012 0.29711-0.08927 0.32090
   7  -4  -5  298.11  132.04   1-0.38313 0.85559 0.54491 0.05714-0.74584 0.51448
   7   4  -5  364.96  128.71   1-0.97610 0.50619-0.20464 0.80696 0.07303-0.30426
  -7  -4   4  623.28  218.54   1 0.03730 0.43513-0.70346 0.09941-0.70975 0.89486
   7   4  -4  117.62   60.49   1-0.64297 0.17158 0.23548 0.36781 0.72878-0.91393
  -7   4   4  391.83  177.09   1 0.43816-0.91109-0.89224 0.28846-0.10913 0.29443
   7  -4  -4  175.17  118.51   1-0.34865 0.82115 0.55678 0.04600-0.75394 0.56885
   7   4  -4  346.06  133.55   1-0.97208 0.50232-0.21701 0.82006 0.08917-0.27416
  -7  -4   3  814.29  206.94   1 0.00256 0.47030-0.67133 0.06675-0.74114 0.87997
   7   4  -3  801.20  139.33   1-0.63650 0.16516 0.17769 0.42628 0.75052-0.88938
  -7   4   3  835.76  189.20   1 0.44924-0.92219-0.88416 0.27961-0.12817 0.26715
   7   4  -3  515.68  156.29   1-0.96796 0.49835-0.22845 0.83224 0.10419-0.24293
  -7  -4   2  762.39  177.71   1-0.03226 0.50512-0.63734 0.03207-0.76990 0.86245
   7   4  -2  401.78  113.37   1-0.62793 0.15665 0.12133 0.48331 0.76874-0.86131
  -7   4   2  403.28  182.02   1 0.45959-0.93254-0.87600 0.27069-0.14625 0.23891
   7   4  -2  390.51  118.73   1-0.96387 0.49440-0.23885 0.84338 0.11790-0.21040
  -7   4   2  334.87  145.99   1 0.26214-0.73453-0.58081-0.02559 0.77066-0.67809
  -7  -4   1  745.43  240.14   1-0.06647 0.53931-0.60187-0.00409-0.79581 0.84209
   7   4  -1  381.46   86.50   1-0.61742 0.14575 0.06712 0.53830 0.78375-0.83004
  -7   4   1  595.33  154.80   1 0.46911-0.94208-0.86792 0.26183-0.16322 0.20954
   7   4  -1  399.57   87.43   1-0.95997 0.49065-0.24805 0.85332 0.13009-0.17634
  -7   4   1  506.79  112.17   1 0.21060-0.68303-0.59380-0.01331 0.77655-0.73026
  -7  -4   0  572.88  261.24   1-0.09975 0.57258-0.56534-0.04132-0.81880 0.81880
  -7   4   0  193.19   78.46   1-0.35281-0.11948-0.21249-0.39415-0.91124 0.91124
   7   4   0   73.91   35.87   1-0.60574 0.13413 0.01516 0.59090 0.79551-0.79551
  -7   4   0  131.11   92.62   1 0.47763-0.95064-0.86007 0.25326-0.17924 0.17924
   7   4   0  256.89   97.95   1-0.95645 0.48728-0.25585 0.86186 0.14048-0.14048
  -7   4   0  153.62   64.74   1 0.15269-0.62516-0.60622-0.00161 0.78049-0.78049
  -7  -4  -1 3287.83  315.79   1-0.13143 0.60413-0.52787-0.07966-0.83908 0.79288
  -7   4  -1 2978.12  200.48   1-0.41672-0.05566-0.09606-0.51118-0.90394 0.85766
   7   4   1 3232.08  426.27   1-0.59305 0.12149-0.03394 0.64065 0.80444-0.75815
  -7   4  -1 3329.93  236.21   1 0.48525-0.95827-0.85275 0.24521-0.19325 0.14691
   7   4   1 3251.70  205.60   1-0.95384 0.48500-0.26171 0.86865 0.14728-0.10106
  -7   4  -1 2702.36  213.25   1 0.08823-0.56073-0.61743 0.00887 0.78165-0.82794
  -7  -4  -2 5796.72  407.09   1-0.16197 0.63473-0.49070-0.11757-0.85614 0.76373
  -7   4  -2 4079.74  240.14   1-0.46357-0.00882 0.00050-0.60849-0.88605 0.79351
   7   4   2 4070.28  422.65   1-0.57973 0.10822-0.07992 0.68726 0.81087-0.71830
  -7   4  -2 4459.99  296.90   1 0.49169-0.96472-0.84622 0.23795-0.20527 0.11260
   7   4   2 4334.98  242.54   1-0.95186 0.48320-0.26575 0.87343 0.15270-0.06024
  -7   4  -2 4763.87  288.20   1 0.01707-0.48927-0.62627 0.01671 0.77941-0.87196
  -7  -4  -3  182.01  173.90   1-0.19084 0.66365-0.45387-0.15512-0.87038 0.73177
  -7   4  -3  177.34   79.07   1-0.49796 0.02556 0.07989-0.68860-0.86350 0.72468
   7   4   3  173.08  113.29   1-0.56611 0.09466-0.12253 0.73051 0.81516-0.67630
  -7   4  -3  482.05  133.79   1 0.49673-0.96978-0.84089 0.23190-0.21481 0.07579
   7   4   3   97.90   63.13   1-0.95111 0.48261-0.26727 0.87568 0.15473-0.01604
  -7   4  -3  453.00  152.74   1-0.06033-0.41199-0.63265 0.02242 0.77208-0.91090
  -7  -4  -4  976.18  248.33   1-0.21787 0.69073-0.41785-0.19187-0.88199 0.69718
   7   4   4  206.23   90.88   1-0.55252 0.08113-0.16167 0.77029 0.81766-0.63251
  -7   4  -4  295.89   98.63   1 0.50004-0.97310-0.83729 0.22756-0.22112 0.03577
   7   4   4  274.25   99.22   1-0.95199 0.48366-0.26550 0.87464 0.15236 0.03254
  -7   4  -4  340.39  103.40   1-0.14344-0.32901-0.63520 0.02430 0.75890-0.94401
   7  -4   5  108.50   51.59   1 0.54143-0.06991-0.19569 0.80737 0.81765-0.58587
  -7  -4  -5 1424.80  328.89   1-0.24293 0.71584-0.38305-0.22740-0.89120 0.66018
   7   4   5  173.11   81.27   1-0.53834 0.06710-0.19630 0.80573 0.81953-0.58846
  -7   4  -5  309.86  105.92   1-0.23133-0.24125-0.63291 0.02136 0.73884-0.97022
   7  -4   6  208.06   80.78   1 0.55524-0.08371-0.23849 0.85089 0.79675-0.51862
  -7  -4  -6  409.91  185.83   1-0.26595 0.73891-0.34983-0.26135-0.89826 0.62104
   7   4   6  -11.40   64.62   1-0.52560 0.05442-0.22840 0.83848 0.81949-0.54219
  -7   4  -6   43.62   73.76   1-0.32319-0.14839-0.62413 0.01296 0.71133-0.98884
   7  -4   7  100.80   75.63   1 0.56553-0.09398-0.27305 0.88617 0.77821-0.45372
  -7  -4  -7  174.65  140.54   1-0.28738 0.76015-0.31798-0.29358-0.90349 0.57963
   7   4   7  403.70  118.95   1-0.51360 0.04247-0.25706 0.86779 0.81861-0.49510
  -7   4  -7  244.51   86.03   1-0.41654-0.05515-0.60929-0.00258 0.67471-0.99847
   7  -4   8  121.64   63.99   1 0.57318-0.10163-0.30077 0.91459 0.76222-0.39138
  -7  -4  -8  632.32  196.80   1-0.30630 0.77907-0.28870-0.32357-0.90709 0.53697
   7   4   8  313.79  157.31   1-0.50250 0.03141-0.28237 0.89376 0.81716-0.44744
   7  -4   9  969.67  194.39   1 0.57887-0.10731-0.32274 0.93728 0.74882-0.33162
  -7  -4  -9 1890.95  356.69   1-0.32320 0.79596-0.26174-0.35123-0.90941 0.49302
   7   4   9 1276.58  213.67   1-0.49240 0.02137-0.30447 0.91651 0.81537-0.39943
   7  -4  10  300.39  116.85   1 0.58307-0.11150-0.33989 0.95514 0.73790-0.27435
  -7  -4 -10  221.71  150.94   1-0.33813 0.81089-0.23724-0.37644-0.91070 0.44804
   7   4  10  385.12  141.92   1-0.48341 0.01243-0.32349 0.93619 0.81342-0.35127
  -7  -5   8  219.65  236.40   1 0.20550 0.38534-0.82600 0.22437-0.52487 0.89508
   7   5  -8  190.57   84.27   1-0.64374 0.05346 0.45171 0.14891 0.61769-0.98740
  -7   5   8  276.75  133.95   1 0.30614-0.89703-0.94707 0.34701 0.09654 0.27367
   7  -5  -8  184.80  107.23   1-0.33066 0.92110 0.56261 0.03723-0.75771 0.38753
   7   5  -8  169.90  115.48   1-0.97543 0.38747-0.20681 0.80690 0.07585-0.44582
  -7  -5   7  874.53  284.05   1 0.17551 0.41517-0.80820 0.20612-0.56214 0.88608
   7   5  -7  121.27   70.20   1-0.64719 0.05699 0.39336 0.20793 0.65299-0.97648
  -7   5   7  493.79  178.89   1 0.31631-0.90717-0.94510 0.34419 0.08196 0.24197
   7   5  -7  221.23  128.63   1-0.97023 0.38242-0.22228 0.82311 0.09608-0.41980
  -7  -5   6  304.10  166.73   1 0.14501 0.44563-0.78816 0.18543-0.59813 0.87580
   7   5  -6  486.16  122.83   1-0.64766 0.05751 0.33450 0.26745 0.68457-0.96185
  -7   5   6  153.04  115.38   1 0.32556-0.91640-0.94303 0.34127 0.06854 0.20912
   7   5  -6  438.58  160.23   1-0.96457 0.37691-0.23712 0.83869 0.11562-0.39310
  -7   5   6  533.81  157.76   1 0.28070-0.87113-0.57567-0.02787 0.76798-0.49024
  -7  -5   5  624.59  240.20   1 0.11408 0.47651-0.76602 0.16263-0.63260 0.86399
   7   5  -5  219.53  115.12   1-0.64603 0.05667 0.27550 0.32711 0.71185-0.94328
  -7   5   5  368.65  172.45   1 0.33380-0.92462-0.94094 0.33833 0.05646 0.17492
   7   5  -5  540.23  115.60   1-0.95853 0.37101-0.25129 0.85361 0.13441-0.36564
  -7   5   5  610.98  139.45   1 0.25046-0.84093-0.58392-0.02034 0.77220-0.54076
  -7  -5   419828.53 3720.86   1 0.08291 0.50765-0.74190 0.13786-0.66535 0.85046
   7   5  -414828.15 1957.72   1-0.64120 0.05189 0.21739 0.38590 0.73593-0.92107
  -7   5   417737.42 3318.70   1 0.34091-0.93170-0.93897 0.33551 0.04595 0.13915
   7   5  -416977.93 3173.13   1-0.95232 0.36499-0.26484 0.86811 0.15147-0.33637
  -7   5   415070.26 1814.85   1 0.21615-0.80666-0.59249-0.01248 0.77603-0.59087
  -7  -5   3  384.92  177.90   1 0.05168 0.53883-0.71598 0.11128-0.69619 0.83502
   7   5  -3  185.24   89.55   1-0.63413 0.04488 0.16060 0.44336 0.75635-0.89521
  -7   5   3  449.91  184.39   1 0.34636-0.93744-0.93737 0.33282 0.03692 0.10205
   7   5  -3  332.94  128.02   1-0.94585 0.35869-0.27747 0.88148 0.16842-0.30710
  -7   5   3  292.09  132.07   1 0.17758-0.76813-0.60116-0.00452 0.77914-0.64027
  -7  -5   2 1389.47  258.21   1 0.02104 0.56991-0.68850 0.08322-0.72492 0.81747
   7   5  -2  759.18  164.89   1-0.62517 0.03597 0.10567 0.49897 0.77329-0.86586
  -7   5   2 1034.94  146.45   1 0.35059-0.94168-0.93602 0.33071 0.03059 0.06206
   7   5  -2  765.63  131.01   1-0.93933 0.35234-0.28926 0.89400 0.18432-0.27678
  -7   5   2  974.96  143.78   1 0.13456-0.72514-0.60965 0.00324 0.78116-0.68858
  -7  -5   1  556.19  166.79   1-0.00962 0.60057-0.65967 0.05370-0.75148 0.79776
   7   5  -1   57.94   55.44   1-0.61449 0.02484 0.05332 0.55210 0.78711-0.83340
  -7   5   1  329.19  112.09   1 0.35296-0.94407-0.93524 0.32916 0.02701 0.01931
   7   5  -1  269.23  112.90   1-0.93291 0.34609-0.30009 0.90557 0.19903-0.24526
  -7   5   1  215.74  101.21   1 0.08697-0.67759-0.61762 0.01050 0.78164-0.73535
  -7  -5   0  699.91  303.06   1-0.03970 0.63063-0.62980 0.02313-0.77573 0.77573
   7   5   0  188.32   87.03   1-0.60284 0.01324 0.00336 0.60270 0.79785-0.79785
  -7   5   0  154.55   71.84   1 0.35304-0.94416-0.93521 0.32836 0.02689-0.02689
   7   5   0  186.35   97.75   1-0.92675 0.34010-0.30988 0.91609 0.21238-0.21238
  -7   5   0  285.03  110.39   1 0.03475-0.62542-0.62468 0.01684 0.78010-0.78010
  -7  -5  -1  571.64  305.34   1-0.06895 0.65987-0.59921-0.00814-0.79760 0.75133
   7   5   1  301.63  113.44   1-0.59037 0.00083-0.04361 0.65031 0.80595-0.75966
   7   5   1  366.24  126.53   1-0.92104 0.33456-0.31847 0.92541 0.22417-0.17794
  -7   5  -1  326.10  110.88   1-0.02195-0.56825-0.62997 0.02107 0.77630-0.82258
  -7  -5  -2  538.87  192.45   1-0.09717 0.68807-0.56825-0.03981-0.81709 0.72454
   7   5   2  604.38  141.00   1-0.57743-0.01205-0.08738 0.69473 0.81174-0.71916
   7   5   2  362.38  115.32   1-0.91601 0.32971-0.32571 0.93338 0.23413-0.14168
  -7   5  -2  963.68  160.49   1-0.08324-0.50708-0.63380 0.02424 0.76900-0.86155
  -7  -5  -3 2071.26  264.66   1-0.12417 0.71506-0.53726-0.07150-0.83422 0.69539
   7   5   3 2469.99  373.05   1-0.56433-0.02509-0.12783 0.73581 0.81558-0.67672
   7   5   3 2443.12  252.73   1-0.91195 0.32581-0.33136 0.93977 0.24194-0.10326
  -7   5  -3 1678.09  196.06   1-0.14860-0.44186-0.63520 0.02498 0.75790-0.89673
  -7  -5  -4  854.18  224.12   1-0.14923 0.74015-0.50642-0.10330-0.84927 0.66445
   7   5   4 1305.92  244.24   1-0.55136-0.03801-0.16488 0.77350 0.81780-0.63265
  -7   5  -4  495.75  121.08   1-0.21753-0.37305-0.63362 0.02273 0.74242-0.92752
  -7  -5  -5  512.42  146.84   1-0.17324 0.76421-0.47652-0.13394-0.86192 0.63090
   7   5   5  362.00  133.68   1-0.53790-0.05131-0.19745 0.80688 0.81955-0.58847
  -7   5  -5  217.88  113.48   1-0.28941-0.29997-0.62783 0.01738 0.72253-0.95378
   7  -5   6  114.71   56.08   1 0.55680 0.03294-0.24355 0.85595 0.79413-0.51600
  -7  -5  -6  593.02  203.54   1-0.19562 0.78664-0.44761-0.16357-0.87256 0.59534
   7   5   6  325.53  118.37   1-0.52586-0.06329-0.22777 0.83785 0.81950-0.54220
  -7   5  -6  260.48   87.25   1-0.36347-0.22602-0.61858 0.00741 0.69658-0.97409
   7  -5   7   91.64   58.88   1 0.56739 0.02236-0.27961 0.89273 0.77451-0.45003
  -7  -5  -7   62.29  142.44   1-0.21630 0.80737-0.41999-0.19193-0.88137 0.55795
   7   5   7  102.62   52.76   1-0.51455-0.07455-0.25483 0.86557 0.81870-0.49520
  -7   5  -7  422.07  106.81   1-0.43862-0.15098-0.60473-0.00714 0.66475-0.98851
  -8   0  13  643.70  170.49   1 0.34699-0.34734-0.88376 0.20048-0.31393 0.91605
  -8   0  13  803.94  312.80   1 0.51231-0.51252-0.82312 0.13909-0.24495 0.84733
   8   0 -13  489.66  190.11   1-0.87148 0.87150 0.22096 0.46219-0.43782-0.16389
  -8   0  12 1954.31  298.51   1 0.31010-0.30924-0.87271 0.18705-0.37709 0.93240
  -8   0  12 2033.56  350.36   1 0.53131-0.53153-0.79838 0.11363-0.28333 0.83937
   8   0 -12 1462.06  259.30   1-0.87527 0.87531 0.21618 0.46769-0.43260-0.12282
  -8   0  11 1316.95  189.94   1 0.26865-0.26788-0.85732 0.17098-0.43911 0.94815
  -8   0  11 2092.40  311.55   1 0.54919-0.54942-0.77141 0.08593-0.32140 0.83110
   8   0 -11 1802.69  219.04   1-0.87796 0.87801 0.21275 0.47185-0.42885-0.08029
  -8   0  10 1196.84  198.70   1 0.22426-0.22359-0.83622 0.14922-0.50042 0.96319
  -8   0  10  691.50  218.20   1 0.56586-0.56611-0.74220 0.05599-0.35905 0.82242
   8   0 -10  448.74  148.11   1-0.87945 0.87951 0.21082 0.47449-0.42674-0.03611
  -8   0   9  415.83  164.32   1 0.17716-0.17709-0.80923 0.12180-0.56013 0.97662
  -8   0   9  847.76  199.46   1 0.58167-0.58099-0.71035 0.02307-0.39630 0.81357
   8   0  -9  550.00  145.10   1-0.87961 0.87969 0.21061 0.47543-0.42651 0.00993
  -8   0   8  978.77  215.28   1 0.12768-0.12764-0.77597 0.08789-0.61770 0.98791
  -8   0   8 1615.46  244.36   1 0.59565-0.59499-0.67670-0.01130-0.43273 0.80364
   8   0  -8  303.72  108.49   1-0.87828 0.87837 0.21234 0.47442-0.42840 0.05811
  -8   0   7118265.423669.58   1 0.07635-0.07636-0.73661 0.04786-0.67199 0.99593
  -8   0   798668.69 4107.79   1 0.60815-0.60751-0.64095-0.04780-0.46831 0.79286
   8   0  -7101006.020210.84   1-0.87519 0.87529 0.21629 0.47120-0.43272 0.10872
  -8   0   6 1003.91  172.29   1 0.02423-0.02366-0.69140 0.00225-0.72206 0.99971
  -8   0   6  300.82  135.73   1 0.61909-0.61846-0.60319-0.08629-0.50287 0.78105
   8   0  -6  384.18   83.17   1-0.87000 0.87012 0.22280 0.46540-0.43983 0.16211
  -8   0   5 5986.38  363.84   1-0.02861 0.02917-0.64100-0.04884-0.76700 0.99838
  -8   0   5 4645.65  284.66   1 0.62837-0.62776-0.56358-0.12664-0.53621 0.76803
   8   0  -5 4154.48  505.61   1-0.86271 0.86282 0.23247 0.45622-0.44908 0.21770
  -8   0   4 1042.71  194.81   1-0.08095 0.08150-0.58622-0.10432-0.80609 0.99119
   8   0  -4  753.36  152.97   1-0.85172 0.85181 0.24536 0.44404-0.46300 0.27789
  -8   0   3  107.45  113.96   1-0.13144 0.13180-0.52785-0.16344-0.83909 0.97770
   8   0  -3  455.46  165.68   1-0.64096 0.64086 0.47944 0.21109 0.59941-0.73805
   8   0  -3  286.77  100.77   1-0.83644 0.83654 0.26234 0.42777-0.48117 0.34235
  -8   0   2  492.24  212.13   1-0.18006 0.18046-0.46783-0.22420-0.86528 0.95768
   8   0  -2  247.85   89.14   1-0.64500 0.64497 0.43570 0.25550 0.62780-0.72022
   8   0  -2  360.66  103.18   1-0.81544 0.81553 0.28416 0.40666-0.50427 0.41172
  -8   0   1 3676.34  305.59   1-0.22573 0.22618-0.40710-0.28566-0.88505 0.93125
   8   0  -1 4105.85  317.76   1-0.64726 0.64730 0.39121 0.30066 0.65421-0.70042
   8   0  -1 3124.03  363.74   1-0.78657 0.78665 0.31175 0.37979-0.53302 0.48675
  -8   0   019134.20 1198.17   1-0.26791 0.26842-0.34694-0.34655-0.89880 0.89880
   8   0   021386.29 1298.30   1-0.64779 0.64789 0.34636 0.34618 0.67851-0.67851
   8   0   018924.37 1183.55   1-0.74652 0.74660 0.34621 0.34604-0.56818 0.56818
  -8   0  -121239.92 1315.85   1-0.30662 0.30691-0.28820-0.40581-0.90714 0.86088
   8   0   120149.04 1236.18   1-0.64740 0.64800 0.30202 0.39123 0.69975-0.65346
   8   0   118407.49 1110.74   1-0.68982 0.68997 0.38891 0.30400-0.61064 0.65689
  -8   0  -2 6482.91  507.04   1-0.34107 0.34135-0.23233-0.46238-0.91087 0.81834
   8   0   2 6931.31  761.35   1-0.64482 0.64548 0.25776 0.43616 0.71955-0.62698
   8   0   2 6086.81  419.38   1-0.60828 0.60840 0.44109 0.25254-0.65986 0.75237
  -8   0  -3  292.40  142.79   1-0.37154 0.37181-0.17992-0.51549-0.91081 0.77201
   8   0   3   89.10   76.12   1-0.64089 0.64161 0.21450 0.48010 0.73704-0.59818
   8   0   3  142.33   49.77   1-0.48420 0.48468 0.50435 0.19010-0.71496 0.85377
  -8   0  -4 1822.46  251.48   1-0.39817 0.39844-0.13147-0.56465-0.90783 0.72277
   8   0   4 2599.19  337.73   1-0.63582 0.63659 0.17268 0.52260 0.75226-0.56712
  -8   0  -5  492.63  163.27   1-0.42127 0.42141-0.08716-0.60965-0.90273 0.67136
   8   0   5  109.16   56.21   1-0.62984 0.63066 0.13272 0.56324 0.76529-0.53386
  -8   0  -6 3604.53  292.04   1-0.44102 0.44115-0.04738-0.65016-0.89624 0.61860
   8   0   6 3566.97  380.23   1-0.62319 0.62406 0.09499 0.60164 0.77627-0.49855
  -8   0  -7  186.89  155.55   1-0.45782 0.45794-0.01198-0.68629-0.88896 0.56505
   8   0   7  185.44   74.32   1-0.61578 0.61653 0.05932 0.63777 0.78567-0.46165
  -8   0  -820737.03  966.56   1-0.47198 0.47211 0.01916-0.71817-0.88139 0.51120
   8   0   817462.54 1078.34   1-0.60854 0.60935 0.02694 0.67080 0.79305-0.42274
  -8   0  -9  641.01  196.37   1-0.48384 0.48396 0.04624-0.74598-0.87393 0.45747
   8   0   9  284.96   92.87   1-0.60138 0.60224-0.00240 0.70078 0.79895-0.38235
  -8   0 -10 1013.78  186.46   1-0.49367 0.49378 0.06949-0.76996-0.86686 0.40413
   8   0  10  592.06   98.34   1-0.59452 0.59543-0.02857 0.72759 0.80357-0.34068
  -8   0 -11  279.72  164.02   1-0.50173 0.50184 0.08915-0.79035-0.86041 0.35140
   8   0  11  128.96   71.35   1-0.58814 0.58911-0.05146 0.75111 0.80711-0.29793
  -8   0 -12  118.97  107.73   1-0.50825 0.50836 0.10547-0.80740-0.85472 0.29944
   8   0  12  154.66   64.36   1-0.58242 0.58344-0.07101 0.77130 0.80977-0.25431
  -8  -1  13  239.92  125.29   1 0.32172-0.20269-0.87621 0.19121-0.35879 0.96039
  -8   1  13  -29.34  157.61   1 0.47839-0.59677-0.85936 0.17533-0.18063 0.78301
  -8  -1  13  -46.51  149.66   1 0.53872-0.42075-0.78769 0.10367-0.29884 0.90122
   8  -1 -13  236.14  134.88   1-0.80112 0.91927 0.29816 0.38483-0.51893-0.08264
   8   1 -13   96.69  101.51   1-0.92389 0.80587 0.14541 0.53774-0.35392-0.24779
  -8   1  12  359.80  111.47   1 0.35378-0.47219-0.88507 0.20107-0.30244 0.85825
  -8  -1  12  698.42  173.94   1 0.28555-0.16662-0.86412 0.17846-0.41442 0.96973
  -8   1  12  428.74  186.33   1 0.49752-0.61591-0.84004 0.15529-0.21630 0.77235
  -8  -1  12  762.76  257.25   1 0.55725-0.43930-0.75784 0.07309-0.33931 0.89535
   8  -1 -12  391.82  166.56   1-0.80299 0.92114 0.29637 0.38734-0.51706-0.03823
   8   1 -12  326.95  149.09   1-0.92855 0.81054 0.13737 0.54650-0.34483-0.21060
  -8   1  11  332.45  113.68   1 0.31158-0.42888-0.87318 0.18685-0.37478 0.88382
  -8  -1  11  712.11  178.86   1 0.24711-0.12828-0.84765 0.16131-0.46949 0.97852
  -8   1  11  -64.80  133.39   1 0.51580-0.63421-0.81884 0.13336-0.25186 0.76157
  -8  -1  11  560.05  214.68   1 0.57473-0.45578-0.72517 0.03936-0.37921 0.88922
   8  -1 -11  405.12  134.33   1-0.80332 0.92147 0.29605 0.38837-0.51673 0.00770
   8   1 -11  493.37  170.83   1-0.93242 0.81442 0.13047 0.55413-0.33698-0.17216
  -8   1  10  130.29   86.40   1 0.26355-0.38095-0.85513 0.16812-0.44641 0.90917
  -8  -1  10  662.65  200.00   1 0.20653-0.08780-0.82658 0.13958-0.52354 0.98631
  -8   1  10  178.94  151.84   1 0.53319-0.65161-0.79573 0.10952-0.28723 0.75060
  -8  -1  10  286.19  197.02   1 0.59025-0.47132-0.69036 0.00382-0.41831 0.88195
   8  -1 -10  463.81  148.05   1-0.80195 0.92009 0.29737 0.38776-0.51810 0.05535
   8   1 -10  399.56  149.85   1-0.93549 0.81751 0.12482 0.56050-0.33054-0.13231
  -8   1   9 7263.13  822.45   1 0.21149-0.32898-0.82934 0.14167-0.51715 0.93364
  -8  -1   9 7109.74  836.05   1 0.16397-0.04576-0.80083 0.11340-0.57600 0.99249
  -8   1   9 6116.18  712.24   1 0.54962-0.66805-0.77071 0.08377-0.32234 0.73938
  -8  -1   9 7515.22  903.07   1 0.60412-0.48520-0.65320-0.03407-0.45646 0.87373
   8  -1  -9 6213.11  916.70   1-0.79866 0.91679 0.30051 0.38534-0.52137 0.10489
   8   1  -9 5232.43  612.70   1-0.93773 0.81976 0.12060 0.56544-0.32573-0.09084
  -8   1   8  798.99  135.93   1 0.15593-0.27403-0.79554 0.10746-0.58548 0.95569
  -8  -1   8 1140.71  198.73   1 0.11978-0.00162-0.77024 0.08215-0.62640 0.99661
  -8   1   8  621.94  168.81   1 0.56503-0.68347-0.74377 0.05610-0.35711 0.72781
   8  -1  -8  658.61  133.77   1-0.79314 0.91127 0.30568 0.38087-0.52675 0.15654
   8   1  -8  928.79  156.06   1-0.93908 0.82113 0.11801 0.56875-0.32277-0.04751
  -8  -1   725989.72 1198.42   1 0.07432 0.04379-0.73495 0.04621-0.67403 0.99797
  -8   1   724830.73 1100.73   1 0.09735-0.21549-0.75330 0.06455-0.65043 0.97436
  -8   1   722703.43 1044.12   1 0.57981-0.69741-0.71443 0.02568-0.39166 0.71620
  -8  -1   723110.39 1077.79   1 0.62651-0.50762-0.57228-0.11646-0.52912 0.85367
   8  -1  -721961.09 1060.32   1-0.78503 0.90316 0.31314 0.37412-0.53446 0.21053
   8   1  -721197.60  948.85   1-0.93945 0.82151 0.11731 0.57018-0.32196-0.00204
  -8  -1   6 1473.48  219.58   1 0.02844 0.09022-0.69520 0.00605-0.71824 0.99590
  -8   1   6 1655.04  197.01   1 0.03687-0.15505-0.70308 0.01368-0.71014 0.98781
  -8   1   6  782.32  152.50   1 0.59294-0.71056-0.68369-0.00580-0.42542 0.70360
   8  -1  -6 1378.67  204.72   1-0.77381 0.89193 0.32316 0.36482-0.54476 0.26711
   8   1  -6 1236.64  148.54   1-0.93868 0.82075 0.11879 0.56942-0.32365 0.04594
  -8   1   5 3600.85  261.49   1-0.02394-0.09360-0.64565-0.04418-0.76325 0.99462
  -8  -1   5 4182.63  343.11   1-0.01808 0.13674-0.65144-0.03840-0.75848 0.98986
   8   1  -5 3719.43  234.98   1-0.64047 0.52228 0.48364 0.20556 0.59656-0.82762
  -8   1   5 2272.10  230.92   1 0.60482-0.72246-0.65113-0.03909-0.45848 0.69030
   8  -1  -5 2745.32  416.55   1-0.75882 0.87693 0.33605 0.35264-0.55790 0.32653
   8   1  -5 3508.12  220.23   1-0.93654 0.81863 0.12285 0.56608-0.32830 0.09687
  -8   1   4  779.34  156.41   1-0.08441-0.03314-0.58243-0.10811-0.80848 0.99358
  -8  -1   4  351.91  215.70   1-0.06427 0.18292-0.60421-0.08633-0.79422 0.97932
   8   1  -4  828.36  143.63   1-0.64488 0.52675 0.43733 0.25253 0.62678-0.81163
  -8   1   4  362.56  105.31   1 0.61538-0.73303-0.61687-0.07409-0.49068 0.67614
   8  -1  -4  733.48  140.46   1-0.73915 0.85726 0.35214 0.33726-0.57414 0.38904
   8   1  -4  453.75   75.85   1-0.93268 0.81478 0.12999 0.55966-0.33644 0.15129
  -8  -1   3  267.68  155.96   1-0.10951 0.22814-0.55424-0.13699-0.82511 0.96394
  -8   1   3  185.62  159.65   1-0.14231 0.02460-0.51484-0.17646-0.84538 0.98399
   8   1  -3    8.02   73.20   1-0.64730 0.52923 0.39008 0.30045 0.65485-0.79349
  -8   1   3  410.31  166.55   1 0.62454-0.74221-0.58103-0.11067-0.52187 0.66096
   8  -1  -3  130.11   44.99   1-0.71331 0.83158 0.37191 0.31812-0.59401 0.45525
   8   1  -3  145.47   76.70   1-0.92655 0.80867 0.14086 0.54952-0.34877 0.20992
  -8   1   2  227.63  158.16   1-0.19743 0.07978-0.44524-0.24679-0.87337 0.96577
  -8  -1   2  533.57  189.35   1-0.15274 0.27119-0.50212-0.18990-0.85119 0.94360
   8   1  -2  184.18   83.36   1-0.64776 0.52976 0.34228 0.34892 0.68061-0.77304
  -8   1   2  245.58  149.27   1 0.63225-0.74993-0.54379-0.14865-0.55186 0.64458
   8  -1  -2  125.64   71.43   1-0.68032 0.79856 0.39551 0.29524-0.61702 0.52452
   8   1  -2  295.24  107.60   1-0.91730 0.79944 0.15630 0.53480-0.36621 0.27363
  -8  -1   1  785.47  267.32   1-0.19424 0.31274-0.44944-0.24332-0.87193 0.91813
  -8   1   1  794.32  154.27   1-0.24838 0.13078-0.37529-0.31746-0.89300 0.93920
   8  -1  -1  878.75  139.37   1-0.63768 0.75568 0.50514 0.18673 0.58153-0.62775
   8   1  -1  615.72  170.99   1-0.64707 0.52966 0.29469 0.39720 0.70316-0.74945
   8  -1  -1  565.48  179.85   1-0.63772 0.75593 0.42337 0.26811-0.64347 0.59722
   8   1  -1  409.47  100.96   1-0.90358 0.78572 0.17749 0.51434-0.38992 0.34363
  -8  -1   0  253.48  220.10   1-0.23319 0.35175-0.39674-0.29674-0.88781 0.88781
  -8   1   0  390.31  238.76   1-0.29484 0.17699-0.30655-0.38675-0.90503 0.90503
   8  -1   0  120.01   99.20   1-0.64241 0.76048 0.46585 0.22668 0.60850-0.60850
   8   1   0  238.37   87.14   1-0.64398 0.52662 0.24710 0.44547 0.72403-0.72403
   8  -1   0  189.82   72.09   1-0.58258 0.70076 0.45565 0.23654-0.67303 0.67303
   8   1   0  178.14   69.59   1-0.88311 0.76527 0.20604 0.48651-0.42149 0.42149
  -8  -1  -1  837.49  273.79   1-0.26927 0.38788-0.34494-0.34928-0.89916 0.85296
  -8   1  -1  864.70  196.86   1-0.33599 0.21813-0.24080-0.45321-0.91056 0.86429
   8  -1   1  258.55  104.68   1-0.64565 0.76378 0.42599 0.26722 0.63377-0.58755
   8   1   1  149.14   84.08   1-0.63932 0.52201 0.20035 0.49290 0.74237-0.69609
   8  -1   1  570.83  135.70   1-0.51090 0.62905 0.49223 0.20068-0.70475 0.75100
   8   1   1  187.90   60.77   1-0.85320 0.73527 0.24365 0.44931-0.46116 0.50743
  -8  -1  -2 1190.87  206.11   1-0.30263 0.42105-0.29446-0.40025-0.90647 0.81394
  -8   1  -2 1013.02  173.99   1-0.37200 0.25414-0.17909-0.51562-0.91078 0.81825
   8  -1   2 1283.30  143.36   1-0.64741 0.76561 0.38590 0.30797 0.65721-0.56478
   8   1   2 1091.53  202.76   1-0.63329 0.51604 0.15488 0.53904 0.75824-0.66567
   8  -1   2 1386.39  138.65   1-0.41627 0.53479 0.53258 0.16113-0.73692 0.82947
   8   1   2  784.77  128.46   1-0.80432 0.68638 0.29509 0.39858-0.51573 0.60828
  -8  -1  -3  463.46  231.23   1-0.33249 0.45090-0.24657-0.44884-0.91030 0.77150
  -8   1  -3  135.39  147.72   1-0.40310 0.28523-0.12221-0.57320-0.90695 0.76816
   8  -1   3   85.95   61.95   1-0.64779 0.76605 0.34600 0.34854 0.67870-0.54006
   8   1   3  226.13   97.69   1-0.62615 0.50895 0.11114 0.58346 0.77173-0.63287
   8   1   3   84.90   29.92   1-0.72110 0.60316 0.36619 0.32819-0.58814 0.72696
  -8  -1  -4  126.64  143.45   1-0.35916 0.47757-0.20157-0.49455-0.91124 0.72618
  -8   1  -4  464.58  146.15   1-0.42969 0.31170-0.07044-0.62564-0.90022 0.71512
   8  -1   4   60.33   60.64   1-0.64760 0.76629 0.30729 0.38799 0.69725-0.51211
   8   1   4  277.28   83.59   1-0.61785 0.50046 0.06922 0.62597 0.78323-0.59807
  -8   1  -4  237.64   62.40   1 0.12352-0.24150-0.61163-0.08589 0.78143-0.96659
  -8  -1  -5    9.19  116.64   1-0.38275 0.50115-0.15984-0.53698-0.90991 0.67858
  -8   1  -5  488.01  184.93   1-0.45210 0.33411-0.02420-0.67261-0.89163 0.66026
   8  -1   5  100.14   54.59   1-0.64562 0.76436 0.26908 0.42688 0.71467-0.48324
   8   1   5   53.74   57.10   1-0.60926 0.49191 0.02999 0.66584 0.79240-0.56095
  -8  -1  -6 1350.01  210.17   1-0.40341 0.52181-0.12161-0.57591-0.90689 0.62930
  -8   1  -6 1471.50  227.86   1-0.47089 0.35289 0.01671-0.71426-0.88203 0.60439
   8  -1   6 1189.54  158.05   1-0.64268 0.76147 0.23236 0.46428 0.73004-0.45232
   8   1   6 1908.30  202.62   1-0.60033 0.48305-0.00651 0.70298 0.79971-0.52198
  -8  -1  -7  660.15  214.61   1-0.42140 0.53966-0.08691-0.61136-0.90269 0.57878
  -8   1  -7  526.58  224.43   1-0.48652 0.36852 0.05251-0.75079-0.87208 0.54817
   8  -1   7  381.87  111.20   1-0.63899 0.75783 0.19754 0.49978 0.74341-0.41941
   8   1   7  547.47  113.41   1-0.59135 0.47412-0.04009 0.73720 0.80541-0.48139
  -8  -1  -8  799.89  196.62   1-0.43684 0.55509-0.05597-0.64303-0.89779 0.52760
  -8   1  -8  500.59  153.13   1-0.49944 0.38143 0.08349-0.78250-0.86231 0.49212
   8  -1   8  285.85   83.70   1-0.63476 0.75365 0.16500 0.53299 0.75488-0.38459
   8   1   8  366.81  127.10   1-0.58254 0.46536-0.07059 0.76834 0.80972-0.43941
  -8  -1  -9  737.90  206.81   1-0.45001 0.56826-0.02862-0.67111-0.89255 0.47609
  -8   1  -9   91.24  107.41   1-0.51003 0.39202 0.10999-0.80973-0.85309 0.43663
   8  -1   9  233.35   88.66   1-0.63022 0.74917 0.13508 0.56358 0.76456-0.34799
   8   1   9  287.81   89.51   1-0.57412 0.45700-0.09792 0.79630 0.81288-0.39628
  -8  -1 -10  328.84  133.92   1-0.46116 0.57940-0.00475-0.69572-0.88730 0.42456
  -8   1 -10  359.02  170.95   1-0.51865 0.40063 0.13236-0.83283-0.84467 0.38194
   8  -1  10    6.16   33.80   1-0.62560 0.74461 0.10808 0.59127 0.77261-0.30975
   8   1  10  109.51   76.06   1-0.56628 0.44921-0.12204 0.82105 0.81512-0.35223
  -8  -1 -11  309.93  140.10   1-0.47048 0.58872 0.01579-0.71699-0.88226 0.37326
   8  -1  11   26.90   34.75   1-0.62111 0.74017 0.08422 0.61581 0.77917-0.27003
   8   1  11   -2.08   59.80   1-0.55915 0.44214-0.14294 0.84259 0.81664-0.30746
   8  -1  12  285.63  132.37   1 0.53051-0.41378-0.16418 0.86773 0.83162-0.27536
  -8  -1 -12  431.70  160.75   1-0.47817 0.59640 0.03317-0.73510-0.87763 0.32235
   8  -1  12  148.88   60.91   1-0.61652 0.73552 0.06280 0.63748 0.78482-0.22936
   8   1  12  289.20  127.73   1-0.55288 0.43592-0.16066 0.86095 0.81761-0.26215
  -8  -2  12 2050.45  381.91   1 0.27595-0.03896-0.86035 0.17468-0.42853 0.98385
  -8   2  12 1670.49  335.46   1 0.45548-0.69210-0.87931 0.19499-0.13903 0.69495
  -8  -2  12 1550.48  326.61   1 0.57653-0.33932-0.72142 0.03636-0.38360 0.93996
   8  -2 -12  747.30  243.14   1-0.71294 0.94947 0.37219 0.31136-0.59429 0.03925
   8   2 -12 1861.07  340.36   1-0.96335 0.72729 0.06417 0.61970-0.26045-0.29498
  -8  -2  11 1573.35  301.15   1 0.24066-0.00376-0.84454 0.15820-0.47835 0.98739
  -8   2  11  593.65  181.72   1 0.47359-0.71022-0.86392 0.17883-0.17128 0.68088
  -8  -2  11  919.35  236.13   1 0.59266-0.35546-0.68439-0.00141-0.42468 0.93468
   8  -2 -11  333.44  137.97   1-0.71017 0.94668 0.37424 0.31003-0.59630 0.08752
   8   2 -11  969.05  208.82   1-0.96683 0.73163 0.05458 0.63033-0.24949-0.25959
  -8  -2  10  377.09  188.30   1 0.20375 0.03305-0.82500 0.13800-0.52711 0.98988
  -8   2  10  303.85  138.17   1 0.49084-0.72743-0.84710 0.16089-0.20368 0.66705
  -8  -2  10  746.76  259.48   1 0.60689-0.36971-0.64486-0.04167-0.46457 0.92820
   8   2 -10   31.92   74.21   1-0.97001 0.73483 0.04546 0.64017-0.23876-0.22404
  -8  -2   9  284.98  195.03   1 0.16530 0.07102-0.80169 0.11427-0.57441 0.99090
  -8   2   9  522.33  184.44   1 0.50759-0.74419-0.82872 0.14178-0.23570 0.65273
  -8  -2   9  461.59  198.46   1 0.61914-0.38197-0.60299-0.08428-0.50304 0.92032
   8  -2  -9  350.31  112.59   1-0.69781 0.93426 0.38324 0.30247-0.60512 0.18884
   8   2  -9   53.27   70.99   1-0.97263 0.73748 0.03746 0.64889-0.22930-0.18722
  -8   2   8  529.38  102.51   1 0.21731-0.45297-0.83253 0.14419-0.50957 0.87978
  -8  -2   8  363.22  193.92   1 0.12571 0.11058-0.77455 0.08647-0.61988 0.99009
  -8   2   8  381.09  195.06   1 0.52361-0.76023-0.80885 0.12118-0.26755 0.63824
  -8  -2   8  716.43  203.30   1 0.62931-0.39216-0.55900-0.12901-0.53989 0.91080
   8  -2  -8  133.69   65.60   1-0.68758 0.92400 0.39049 0.29595-0.61216 0.24214
   8   2  -8  286.42  152.26   1-0.97471 0.73959 0.03071 0.65636-0.22131-0.14893
  -8   2   7  322.92  100.09   1 0.14953-0.38579-0.79124 0.10250-0.59293 0.91687
  -8  -2   7  778.77  236.27   1 0.08516 0.15108-0.74371 0.05497-0.66305 0.98699
   8   2  -7  533.09  133.45   1-0.63656 0.40027 0.51281 0.17505 0.57602-0.89951
  -8   2   7  660.08  172.45   1 0.53887-0.77549-0.78747 0.09907-0.29916 0.62352
   8  -2  -7  519.63  129.69   1-0.67409 0.91048 0.39976 0.28740-0.62111 0.29733
   8   2  -7  351.31  138.75   1-0.97628 0.74118 0.02539 0.66240-0.21500-0.10896
  -8   2   6  539.71  160.06   1 0.07787-0.31418-0.73784 0.04844-0.67046 0.94812
  -8  -2   6  143.18  136.57   1 0.04400 0.19221-0.70934 0.01994-0.70348 0.98115
   8   2  -6  120.52  103.43   1-0.64246 0.40624 0.46537 0.22315 0.60881-0.88609
  -8   2   6  167.90  121.18   1 0.55331-0.78995-0.76460 0.07548-0.33048 0.60850
   8  -2  -6  231.65  131.24   1-0.65682 0.89318 0.41122 0.27665-0.63204 0.35452
   8   2  -6  283.65  116.07   1-0.97731 0.74224 0.02174 0.66677-0.21066-0.06702
  -8   2   5 6272.69  348.14   1 0.00492-0.24057-0.67355-0.01628-0.73911 0.97049
  -8  -2   5 7495.58  461.01   1 0.00302 0.23373-0.67176-0.01807-0.74075 0.97213
   8   2  -5 6798.69  386.08   1-0.64618 0.41002 0.41673 0.27247 0.63935-0.87042
  -8   2   5 6070.48  396.37   1 0.56688-0.80353-0.74027 0.05042-0.36143 0.59311
   8  -2  -5 4982.87  518.34   1-0.63506 0.87139 0.42502 0.26358-0.64501 0.41375
   8   2  -5 5606.07  330.77   1-0.97778 0.74274 0.02004 0.66919-0.20863-0.02276
  -8   2   4  948.54  175.32   1-0.06749-0.16816-0.60077-0.08976-0.79656 0.98166
  -8  -2   4  302.86  176.89   1-0.03817 0.27491-0.63136-0.05917-0.77454 0.95964
   8   2  -4  374.37   93.99   1-0.64776 0.41166 0.36726 0.32260 0.66747-0.85232
  -8   2   4  452.30  161.81   1 0.58003-0.81593-0.71394 0.02297-0.39222 0.57768
   8  -2  -4  304.16   71.39   1-0.60799 0.84429 0.44126 0.24805-0.66002 0.47500
   8   2  -4  245.55   79.97   1-0.97761 0.74259 0.02065 0.66929-0.20936 0.02424
  -8  -2   3  554.87  215.38   1-0.07873 0.31546-0.58864-0.10259-0.80454 0.94337
  -8   2   3  696.35  161.98   1-0.13629-0.09946-0.52208-0.16922-0.84193 0.98054
   8   2  -3  518.82  121.62   1-0.64795 0.41251 0.31766 0.37288 0.69227-0.83113
  -8   2   3  555.97  169.13   1 0.59171-0.82763-0.68677-0.00493-0.42215 0.56125
   8  -2  -3  641.42  137.44   1-0.57456 0.81083 0.46003 0.23001-0.67693 0.53817
   8   2  -3  335.45   81.49   1-0.97666 0.74166 0.02406 0.66660-0.21342 0.07458
  -8  -2   2  313.44  149.12   1-0.11823 0.35494-0.54419-0.14774-0.83058 0.92313
  -8   2   2  369.66  149.49   1-0.20083-0.03486-0.44074-0.25129-0.87487 0.96728
   8   2  -2  325.03   88.93   1-0.64554 0.41015 0.26784 0.42337 0.71521-0.80778
  -8   2   2  230.49   88.30   1 0.60236-0.83830-0.65831-0.03412-0.45141 0.54413
   8  -2  -2  136.12   73.80   1-0.53351 0.76976 0.48129 0.20946-0.69549 0.60298
   8   2  -2  142.42   68.59   1-0.97465 0.73968 0.03092 0.66047-0.22156 0.12900
  -8  -2   1  742.42  175.39   1-0.15578 0.39234-0.49838-0.19438-0.85284 0.89904
  -8   2   1  596.92  107.04   1-0.25928 0.02363-0.35958-0.33318-0.89636 0.94256
   8   2  -1  994.30  129.86   1-0.64132 0.40599 0.21859 0.47331 0.73547-0.78175
  -8   2   1 1380.03  156.16   1 0.61194-0.84789-0.62869-0.06448-0.47985 0.52622
   8  -2  -1  789.26  104.16   1-0.48278 0.71928 0.50499 0.18653-0.71547 0.66920
   8   2  -1  462.68   72.57   1-0.97112 0.73618 0.04212 0.64998-0.23481 0.18853
  -8  -2   0 -155.60  142.32   1-0.19185 0.42846-0.45257-0.24092-0.87084 0.87084
  -8   2   0  220.95  121.79   1-0.31126 0.07527-0.28087-0.41244-0.90786 0.90786
   8   2   0  130.29   86.60   1-0.63551 0.40023 0.17036 0.52221 0.75306-0.75306
  -8   2   0  480.30  167.94   1 0.62041-0.85638-0.59805-0.09586-0.50736 0.50736
   8  -2   0  148.41   58.27   1-0.42150 0.65803 0.53055 0.16170-0.73541 0.73541
   8   2   0  190.76   62.97   1-0.96524 0.73032 0.05896 0.63386-0.25462 0.25462
  -8  -2  -1 5404.97  317.61   1-0.22576 0.46242-0.40705-0.28717-0.88506 0.83886
  -8   2  -1 6413.60  305.31   1-0.35612 0.12012-0.20683-0.48718-0.91126 0.86499
   8   2   1 5772.20  534.44   1-0.62832 0.39310 0.12360 0.56965 0.76806-0.72178
  -8   2  -1 4998.79  267.79   1 0.62774-0.86372-0.56658-0.12807-0.53378 0.48741
   8  -2   1 5842.16  251.92   1-0.34715 0.58370 0.55728 0.13571-0.75426 0.80054
   8   2   1 5426.20  211.19   1-0.95624 0.72037 0.08172 0.61155-0.28091 0.32720
  -8  -2  -2 9938.67  456.39   1-0.25730 0.49401-0.36247-0.33248-0.89577 0.80336
  -8   2  -2 7571.10  347.32   1-0.39431 0.15831-0.13865-0.55606-0.90845 0.81592
   8   2   2 9502.98  898.40   1-0.62003 0.38486 0.07873 0.61520 0.78061-0.68804
   8   2   2 8728.29  290.94   1-0.93975 0.70389 0.11673 0.57726-0.32130 0.41387
  -8   2  -2 8249.72  297.09   1 0.25393-0.49002-0.58301-0.11309 0.77176-0.86433
  -8  -2  -3 2741.84  294.73   1-0.28669 0.52325-0.31902-0.37639-0.90334 0.76454
  -8   2  -3 2088.51  241.67   1-0.42646 0.19035-0.07689-0.61846-0.90122 0.76240
   8  -2   3 2473.26  211.45   1-0.63815 0.87438 0.50177 0.19278 0.58393-0.44530
   8   2   3 2831.78  359.56   1-0.61062 0.37518 0.03591 0.65864 0.79110-0.65223
   8   2   3 2081.22  125.92   1-0.90963 0.67379 0.16837 0.52635-0.37974 0.51860
  -8   2  -3 2312.41  153.89   1 0.14635-0.38249-0.60745-0.08936 0.78075-0.91962
  -8  -2  -4 4159.75  316.39   1-0.31317 0.54971-0.27784-0.41828-0.90814 0.72308
  -8   2  -4 4429.75  332.43   1-0.45313 0.21701-0.02202-0.67406-0.89117 0.70607
   8  -2   4 4035.42  255.12   1-0.64205 0.87835 0.46939 0.22582 0.60616-0.42130
   8   2   4 4010.92  435.28   1-0.60092 0.36554-0.00423 0.69943 0.79929-0.61414
  -8   2  -4 4419.82  227.71   1 0.01873-0.25490-0.62649-0.07103 0.77919-0.96435
  -8  -2  -5  360.91  199.28   1-0.33703 0.57357-0.23906-0.45776-0.91063 0.67930
  -8   2  -5  595.12  177.64   1-0.47511 0.23898 0.02620-0.72302-0.87953 0.64816
   8  -2   5  325.39  101.23   1-0.64488 0.88124 0.43736 0.25852 0.62676-0.39570
   8   2   5  533.99  137.81   1-0.59093 0.35560-0.04161 0.73745 0.80564-0.57420
  -8   2  -5  356.75   67.64   1-0.13164-0.10460-0.63511-0.06333 0.76111-0.99249
  -8  -2  -610743.44  591.12   1-0.35835 0.59489-0.20298-0.49455-0.91125 0.63365
  -8   2  -610383.48  515.54   1-0.49310 0.25697 0.06813-0.76568-0.86729 0.58965
   8  -2   612010.01  554.85   1-0.64670 0.88313 0.40607 0.29048 0.64565-0.36837
   8   2   6 9483.60  684.21   1-0.58090 0.34563-0.07605 0.77252 0.81040-0.53267
  -8  -2  -7  283.23  162.33   1-0.37722 0.61375-0.16980-0.52843-0.91042 0.58656
  -8   2  -7  448.60  179.89   1-0.50775 0.27162 0.10420-0.80248-0.85517 0.53126
   8  -2   7  276.43   99.86   1-0.64763 0.88412 0.37593 0.32128 0.66274-0.33925
   8   2   7  152.81   92.70   1-0.57108 0.33586-0.10743 0.80453 0.81383-0.48981
  -8  -2  -8  762.16  216.97   1-0.39378 0.63031-0.13963-0.55930-0.90853 0.53840
   8  -2   8  588.28   92.88   1-0.64780 0.88435 0.34737 0.35052 0.67799-0.30829
   8   2   8  592.14  153.08   1-0.56166 0.32650-0.13569 0.83343 0.81616-0.44585
   8  -2   9   73.54   72.71   1 0.52862-0.29370-0.15890 0.86031 0.83384-0.41665
  -8  -2  -9  813.28  257.38   1-0.40819 0.64471-0.11253-0.58710-0.90593 0.48954
   8  -2   9  241.68   89.13   1-0.64806 0.88493 0.32184 0.37683 0.69023-0.27366
   8   2   9  201.73  114.48   1-0.55283 0.31772-0.16082 0.85920 0.81762-0.40102
   8  -2  10  172.72   85.86   1 0.53622-0.30128-0.18042 0.88254 0.82456-0.36101
  -8  -2 -10  819.24  228.11   1-0.42062 0.65700-0.08843-0.61203-0.90291 0.44017
   8   2  10  209.18  106.27   1-0.54368 0.30871-0.18228 0.88157 0.81925-0.35710
   8  -2  11  327.00  141.36   1 0.54221-0.30726-0.19801 0.90085 0.81657-0.30667
  -8  -2 -11  219.46  155.31   1-0.43119 0.66756-0.06741-0.63378-0.89973 0.39072
   8   2  11  235.63  132.79   1-0.53641 0.30149-0.20129 0.90124 0.81959-0.31122
  -8  -3  10  944.17  232.64   1 0.21189 0.14297-0.82956 0.14256-0.51664 0.97940
  -8   3  10  418.08  167.17   1 0.43846-0.79325-0.89203 0.20616-0.10965 0.57292
  -8  -3  10  812.48  230.26   1 0.61768-0.26225-0.60849-0.07804-0.49819 0.96183
   8  -3 -10  299.80  130.02   1-0.59547 0.94995 0.44845 0.23655-0.66655 0.20402
   8   3 -10  545.27  152.78   1-0.98747 0.63443-0.02381 0.70945-0.15594-0.30686
  -8  -3   9 7849.68 1000.14   1 0.17719 0.17727-0.80925 0.12182-0.56010 0.97659
  -8   3   9 6738.74  873.23   1 0.45462-0.80942-0.87999 0.19336-0.13753 0.55447
  -8  -3   9 7176.08  912.17   1 0.62848-0.27307-0.56302-0.12425-0.53666 0.95393
   8  -3  -9 5616.29  878.02   1-0.58424 0.93869 0.45474 0.23098-0.67221 0.25593
   8   3  -9 6418.13  803.30   1-0.98918 0.63616-0.03489 0.72125-0.14249-0.27403
  -8  -3   8  219.50  137.71   1 0.14164 0.21277-0.78584 0.09776-0.60198 0.97219
  -8   3   8  439.81  214.21   1 0.47021-0.82502-0.86695 0.17955-0.16519 0.53580
   8  -3  -8  240.31  107.85   1-0.56986 0.92428 0.46256 0.22387-0.67918 0.30915
   8   3  -8  274.29  123.37   1-0.99047 0.63747-0.04501 0.73209-0.13013-0.24010
  -8  -3   7  968.47  200.03   1 0.10536 0.24902-0.75945 0.07071-0.64197 0.96591
   8   3  -7 1019.94  149.72   1-0.64236 0.28810 0.46639 0.22146 0.60814-0.93163
  -8   3   7 1037.58  194.32   1 0.48506-0.83986-0.85293 0.16454-0.19290 0.51726
   8  -3  -7 1033.19  204.00   1-0.55193 0.90632 0.47198 0.21517-0.68745 0.36368
   8   3  -7 1119.66  168.65   1-0.99141 0.63844-0.05408 0.74188-0.11904-0.20492
  -8  -3   6  140.52  135.00   1 0.06856 0.28577-0.73021 0.04081-0.67976 0.95742
   8   3  -6   42.99   58.94   1-0.64620 0.29201 0.41634 0.27218 0.63958-0.91686
  -8   3   6  557.28  158.43   1 0.49947-0.85428-0.83792 0.14879-0.22003 0.49805
   8  -3  -6  279.27  135.30   1-0.52999 0.88435 0.48303 0.20484-0.69697 0.41946
   8   3  -6    7.00   65.76   1-0.99206 0.63912-0.06194 0.75046-0.10938-0.16829
  -8  -3   5 1743.59  297.35   1 0.03155 0.32275-0.69834 0.00829-0.71506 0.94644
   8   3  -5 1825.70  255.84   1-0.64777 0.29365 0.36556 0.32364 0.66839-0.89945
  -8   3   5 1572.91  260.09   1 0.51326-0.86808-0.82197 0.13211-0.24682 0.47850
   8  -3  -5 1246.60  263.66   1-0.50331 0.85776 0.49564 0.19294-0.70782 0.47646
   8   3  -5 1202.08  196.87   1-0.99248 0.63957-0.06842 0.75765-0.10141-0.12999
  -8  -3   4  292.60  163.95   1-0.00495 0.35979-0.66418-0.02636-0.74755 0.93265
   8   3  -4   85.14   53.72   1-0.64786 0.29445 0.31460 0.37526 0.69375-0.87890
  -8   3   4  251.74  110.63   1 0.52640-0.88124-0.80513 0.11455-0.27322 0.45857
   8  -3  -4   86.11   77.97   1-0.47151 0.82599 0.50994 0.17937-0.71946 0.53437
   8   3  -4  257.05  103.53   1-0.99273 0.63984-0.07329 0.76324-0.09540-0.08972
  -8   3   3 1038.76  119.40   1-0.10224-0.25153-0.56253-0.12870-0.82042 0.95925
  -8  -3   3 1339.15  273.59   1-0.04147 0.39630-0.62799-0.06324-0.77710 0.91593
   8   3  -3  708.05  140.70   1-0.64525 0.29189 0.26364 0.42689 0.71703-0.85589
  -8   3   3  648.87  118.54   1 0.53887-0.89372-0.78746 0.09615-0.29917 0.43818
   8  -3  -3  846.66  134.43   1-0.43378 0.78829 0.52570 0.16435-0.73175 0.59293
   8   3  -3  557.92  108.23   1-0.99285 0.63999-0.07625 0.76693-0.09173-0.04710
  -8  -3   2 1844.03  241.10   1-0.07727 0.43209-0.59023-0.10170-0.80352 0.89607
  -8   3   2 1439.51  140.94   1-0.18212-0.17162-0.46517-0.22685-0.86627 0.95868
   8   3  -2 1542.83  244.89   1-0.64077 0.28747 0.21335 0.47787 0.73748-0.83005
  -8   3   2 2043.10  229.69   1 0.55065-0.90551-0.76903 0.07699-0.32460 0.41727
   8  -3  -2 2013.73  208.21   1-0.38932 0.74385 0.54267 0.14811-0.74426 0.65171
   8   3  -2 1436.79  133.06   1-0.99288 0.64004-0.07693 0.76833-0.09089-0.00166
  -8  -3   1 2066.59  226.79   1-0.11203 0.46683-0.55136-0.14127-0.82670 0.87298
  -8   3   1 1891.05  174.80   1-0.25298-0.10072-0.36870-0.32405-0.89445 0.94065
   8   3  -1 1889.40  225.13   1-0.63464 0.28140 0.16417 0.52772 0.75516-0.80144
  -8   3   1 1475.57  161.16   1 0.56170-0.91657-0.74992 0.05715-0.34942 0.39575
   8  -3  -1 1573.34  172.04   1-0.33724 0.69180 0.56051 0.13101-0.75636 0.71009
   8   3  -1 1822.07  151.18   1-0.99280 0.63999-0.07481 0.76692-0.09351 0.04723
  -8  -3   0  810.24  204.57   1-0.14499 0.49965-0.51159-0.18190-0.84690 0.84690
  -8   3   0  549.82  129.86   1-0.31382-0.04029-0.27680-0.41651-0.90823 0.90823
   8   3   0  724.38  139.48   1-0.62711 0.27391 0.11654 0.57603 0.77016-0.77016
  -8   3   0  640.79  117.32   1 0.57200-0.92688-0.73026 0.03676-0.37354 0.37353
   8   3   0  520.58  138.09   1-0.99252 0.63974-0.06915 0.76198-0.10051 0.10051
  -8   3   0  311.54  114.74   1 0.27425-0.62847-0.57749-0.11718 0.76895-0.76895
  -8  -3  -1  829.25  195.73   1-0.17672 0.53144-0.47209-0.22213-0.86365 0.81744
  -8   3  -1 1391.57  171.79   1-0.36461 0.01047-0.19211-0.50190-0.91112 0.86486
   8   3   1 1322.55  227.14   1-0.61818 0.26465 0.07082 0.62246 0.78283-0.73654
  -8   3  -1 1663.01  163.97   1 0.58206-0.93629-0.70948 0.01483-0.39727 0.35091
   8   3   1 1419.43  134.28   1-0.99183 0.63907-0.05888 0.75244-0.11314 0.15942
  -8   3  -1 1508.32  133.18   1 0.20428-0.55854-0.59527-0.10011 0.77712-0.82341
  -8  -3  -2 9984.28  556.92   1-0.20665 0.56141-0.43300-0.26195-0.87738 0.78497
  -8   3  -2 9868.26  491.52   1-0.40643 0.05229-0.11588-0.57883-0.90629 0.81376
   8   3   2 8959.04  797.32   1-0.60864 0.25516 0.02733 0.66658 0.79297-0.70039
  -8   3  -2 8272.49  407.47   1 0.59077-0.94502-0.68909-0.00629-0.41967 0.32694
   8   3   210196.94  462.80   1-0.99015 0.63742-0.04236 0.73663-0.13337 0.22593
  -8   3  -2 9575.17  453.82   1 0.12420-0.47850-0.61151-0.08458 0.78142-0.87399
  -8  -3  -3 8980.46  541.35   1-0.23459 0.58941-0.39479-0.30089-0.88831 0.74970
  -8   3  -3 6894.34  387.71   1-0.44054 0.08630-0.04837-0.64698-0.89642 0.75760
   8   3   3 7303.96  744.97   1-0.59850 0.24508-0.01361 0.70817 0.80100-0.66213
  -8   3  -3 6984.65  370.44   1 0.59867-0.95293-0.66865-0.02748-0.44101 0.30192
  -8   3  -3 6725.14  338.63   1 0.03351-0.38785-0.62483-0.07198 0.78004-0.91890
  -8  -3  -4 8877.61 1035.82   1-0.26044 0.61531-0.35789-0.33852-0.89670 0.71188
  -8   3  -4 6910.22  789.82   1-0.46804 0.11379 0.01036-0.70645-0.88364 0.69855
   8   3   4 7674.89 1091.70   1-0.58804 0.23468-0.05181 0.74701 0.80716-0.62201
  -8   3  -4 6778.61  760.45   1 0.60574-0.96001-0.64839-0.04847-0.46115 0.27570
  -8   3  -4 7510.00  834.42   1-0.06853-0.28571-0.63310-0.06467 0.77102-0.95612
  -8  -3  -5 1583.20  286.78   1-0.28460 0.63928-0.32221-0.37461-0.90287 0.67154
  -8   3  -5 1250.77  213.35   1-0.49012 0.13586 0.06101-0.75783-0.86951 0.63814
   8   3   5 1586.50  271.05   1-0.57751 0.22420-0.08711 0.78295 0.81171-0.58027
  -8   3  -5  802.61  128.27   1 0.61197-0.96626-0.62860-0.06899-0.47993 0.24811
  -8   3  -5  761.01  113.94   1-0.18025-0.17413-0.63487-0.06356 0.75129-0.98266
  -8  -3  -622223.24 4133.08   1-0.30619 0.66086-0.28888-0.40865-0.90707 0.62948
  -8   3  -618110.83 3355.40   1-0.50778 0.15352 0.10426-0.80181-0.85515 0.57751
   8   3   618323.67 3504.97   1-0.56714 0.21389-0.11942 0.81589 0.81490-0.53717
  -8   3  -616042.61 1138.13   1 0.61737-0.97168-0.60964-0.08869-0.49717 0.21898
  -8  -3  -7  792.01  262.05   1-0.32564 0.68031-0.25778-0.44045-0.90967 0.58581
   8   3   7  221.90  119.54   1-0.55714 0.20394-0.14869 0.84580 0.81699-0.49296
   8  -3   8 2653.12  363.22   1 0.53249-0.17936-0.16976 0.87046 0.82923-0.45839
  -8  -3  -8 3259.00  506.25   1-0.34300 0.69767-0.22910-0.46983-0.91096 0.54084
   8   3   8 2187.72  323.26   1-0.54671 0.19366-0.17416 0.87214 0.81900-0.44928
   8  -3   9  924.25  174.29   1 0.54129-0.18815-0.19529 0.89670 0.81783-0.40064
  -8  -3  -9  589.22  205.05   1-0.35837 0.71302-0.20295-0.49668-0.91125 0.49486
   8   3   9 1004.07  198.04   1-0.53792 0.18492-0.19741 0.89604 0.81955-0.40361
   8  -3  10 1392.62  256.09   1 0.54820-0.19505-0.21622 0.91835 0.80790-0.34435
  -8  -3 -10 2829.30  535.56   1-0.37183 0.72648-0.17940-0.52094-0.91079 0.44814
   8   3  10 1442.36  264.84   1-0.52993 0.17698-0.21771 0.91700 0.81961-0.35746
  -8  -4   8  186.98  141.51   1 0.16517 0.30738-0.80161 0.11352-0.57457 0.94478
   8   4  -8  217.06   83.10   1-0.64024 0.16795 0.48555 0.20163 0.59524-0.96495
  -8   4   8  586.26  196.40   1 0.40430-0.87725-0.91308 0.22568-0.05304 0.42365
   8  -4  -8  298.35  137.72   1-0.44660 0.91902 0.52049 0.16589-0.72775 0.35758
   8   4  -8   47.05   74.26   1-0.99299 0.52282-0.10506 0.79173-0.05402-0.31593
  -8  -4   7   77.92  138.81   1 0.13266 0.33985-0.77953 0.09079-0.61214 0.93608
   8   4  -7  335.45  115.67   1-0.64506 0.17284 0.43476 0.25310 0.62838-0.95187
  -8   4   7  132.92  100.78   1 0.41775-0.89071-0.90546 0.21729-0.07497 0.39926
   8  -4  -7  321.46  154.77   1-0.42567 0.89812 0.52892 0.15819-0.73419 0.41028
   8   4  -7  168.24   97.22   1-0.99239 0.52236-0.11658 0.80399-0.03958-0.28413
  -8  -4   6  132.12  140.91   1 0.09972 0.37275-0.75513 0.06573-0.64793 0.92559
   8   4  -6  535.55  126.42   1-0.64748 0.17532 0.38324 0.30529 0.65870-0.93597
  -8   4   6  397.92  165.52   1 0.43060-0.90357-0.89738 0.20844-0.09634 0.37430
   8  -4  -6  376.70  196.18   1-0.40087 0.87336 0.53842 0.14942-0.74121 0.46357
   8   4  -6  183.65  107.91   1-0.99153 0.52165-0.12718 0.81532-0.02624-0.25122
  -8  -4   5  153.13  189.69   1 0.06657 0.40586-0.72856 0.03850-0.68173 0.91312
   8   4  -5  247.85  107.88   1-0.64760 0.17550 0.33145 0.35775 0.68610-0.91717
  -8   4   5  124.93   82.65   1 0.44282-0.91580-0.88893 0.19922-0.11709 0.34872
   8  -4  -5  213.13  143.74   1-0.37183 0.84434 0.54890 0.13968-0.74862 0.51726
   8   4  -5  -42.69   66.30   1-0.99050 0.52077-0.13674 0.82563-0.01415-0.21707
  -8  -4   4  234.51  212.08   1 0.03342 0.43897-0.70001 0.00930-0.71334 0.89845
   8   4  -4  199.11  108.50   1-0.64629 0.17497 0.27976 0.41010 0.70995-0.89509
  -8   4   4  112.10  122.17   1 0.45439-0.92738-0.88018 0.18971-0.13712 0.32243
   8  -4  -4  -13.77   82.76   1-0.33812 0.81066 0.56022 0.12909-0.75618 0.57109
   8   4  -4  119.20   96.29   1-0.98940 0.51982-0.14514 0.83477-0.00350-0.18148
  -8  -4   3  928.34  282.54   1 0.00096 0.47197-0.66981-0.02142-0.74252 0.88135
   8   4  -3  542.53  113.47   1-0.64234 0.17107 0.22876 0.46178 0.73148-0.87033
  -8   4   3  180.76   91.95   1 0.46527-0.93828-0.87124 0.18000-0.15634 0.29532
   8   4  -3  401.72  144.53   1-0.98833 0.51890-0.15221 0.84257 0.00549-0.14422
  -8  -4   2  153.97  165.76   1-0.03145 0.50437-0.63816-0.05378-0.76925 0.86181
   8   4  -2  188.15   80.48   1-0.63665 0.16544 0.17887 0.51235 0.75011-0.84268
  -8   4   2  579.03  125.02   1 0.47532-0.94835-0.86222 0.17018-0.17502 0.26769
   8   4  -2  197.59   93.49   1-0.98740 0.51812-0.15773 0.84883 0.01252-0.10502
  -8   4   2  551.40  119.60   1 0.25324-0.72558-0.58319-0.11005 0.77184-0.67927
  -8  -4   1 1463.00  237.50   1-0.06313 0.53604-0.60542-0.08721-0.79339 0.83967
   8   4  -1 1323.71  190.58   1-0.62948 0.15831 0.13050 0.56139 0.76597-0.81226
  -8   4   1 1356.02  190.06   1 0.48471-0.95776-0.85327 0.16050-0.19226 0.23860
   8   4  -1  947.47  129.98   1-0.98673 0.51760-0.16142 0.85326 0.01724-0.06348
  -8   4   1 1343.73  157.99   1 0.20292-0.67530-0.59558-0.09837 0.77723-0.73095
  -8  -4   0 2208.17  305.86   1-0.09386 0.56675-0.57195-0.12138-0.81489 0.81489
   8   4   0 2077.16  268.02   1-0.62108 0.14997 0.08404 0.60853 0.77922-0.77922
  -8   4   0 2457.49  243.01   1 0.49327-0.96633-0.84457 0.15107-0.20826 0.20826
   8   4   0 2040.82  208.74   1-0.98645 0.51747-0.16290 0.85548 0.01914-0.01914
  -8   4   0 1852.38  193.42   1 0.14629-0.61871-0.60746-0.08721 0.78076-0.78076
  -8  -4  -1  271.96  174.32   1-0.12341 0.59629-0.53815-0.15588-0.83376 0.78748
  -8   4  -1  362.81  120.48   1 0.50092-0.97399-0.83631 0.14208-0.22281 0.17647
   8   4   1  237.23   89.56   1-0.98668 0.51785-0.16166 0.85498 0.01755 0.02868
  -8   4  -1  195.13   85.80   1 0.08308-0.55554-0.61821-0.07717 0.78160-0.82789
  -8  -4  -2 1455.22  298.75   1-0.15106 0.62388-0.50418-0.19077-0.85027 0.75787
   8   4   2  464.99  115.89   1-0.60150 0.13004-0.00195 0.69587 0.79886-0.70628
  -8   4  -2  374.25  100.17   1 0.50756-0.98064-0.82876 0.13381-0.23563 0.14296
  -8   4  -2  339.70   94.53   1 0.01293-0.48506-0.62671-0.06973 0.77914-0.87169
  -8  -4  -3  408.26  180.27   1-0.17763 0.65050-0.47093-0.22475-0.86409 0.72548
  -8   4  -3  188.39   80.53   1-0.44370-0.02867-0.04184-0.65350-0.89519 0.75637
   8   4   3   75.38   76.09   1-0.59107 0.11967-0.04109 0.73565 0.80556-0.66669
  -8   4  -3  249.86   84.56   1-0.06372-0.40853-0.63284-0.06427 0.77165-0.91047
  -8  -4  -4  372.99  249.42   1-0.20254 0.67546-0.43848-0.25794-0.87562 0.69080
  -8   4  -4  253.95   88.95   1-0.47347 0.00109 0.02250-0.71859-0.88051 0.69542
   8   4   4  174.62   70.68   1-0.58049 0.10914-0.07741 0.77261 0.81057-0.62542
  -8   4  -4  238.17   83.04   1-0.14665-0.32572-0.63520-0.06257 0.75828-0.94339
  -8  -4  -5  218.14  241.61   1-0.22570 0.69867-0.40714-0.29001-0.88503 0.65402
  -8   4  -5  678.46  159.38   1-0.49671 0.02432 0.07683-0.77365-0.86450 0.63313
   8   4   5  147.85   78.95   1-0.56997 0.09868-0.11083 0.80666 0.81415-0.58270
  -8   4  -5  192.39   81.57   1-0.23518-0.23733-0.63269-0.06574 0.73782-0.96920
  -8  -4  -6 4262.84  615.15   1-0.24705 0.72007-0.37720-0.32067-0.89256 0.61534
  -8   4  -6 2413.49  335.93   1-0.51485 0.04245 0.12240-0.81995-0.84849 0.57085
   8   4   6 2585.53  451.18   1-0.55973 0.08849-0.14129 0.83776 0.81653-0.53880
  -8  -4  -7  -37.95  165.67   1-0.26657 0.73964-0.34892-0.34968-0.89843 0.57501
   8   4   7  448.56  149.21   1-0.54901 0.07793-0.16791 0.86523 0.81877-0.49526
   8  -4   8  189.26   87.45   1 0.53951-0.06816-0.19001 0.89071 0.82025-0.44941
  -8  -4  -8  287.80  159.05   1-0.28480 0.75760-0.32190-0.37703-0.90292 0.53279
   8   4   8  286.11  129.72   1-0.53980 0.06877-0.19251 0.89049 0.81948-0.44975
  -8  -5   3 1068.41  305.88   1 0.04720 0.54328-0.71212 0.02075-0.70046 0.83929
   8   5  -3  776.27  191.29   1-0.64066 0.05148 0.21233 0.47821 0.73787-0.87673
  -8   5   3  558.81  152.79   1 0.37029-0.96143-0.92891 0.23767 0.00060 0.13837
   8   5  -3  567.92  137.51   1-0.97570 0.38866-0.20594 0.89630 0.07472-0.21346
  -8   5   3  426.52  111.75   1 0.17204-0.76254-0.60232-0.09020 0.77948-0.64062
  -8  -5   2  936.09  293.32   1 0.01842 0.57259-0.68610-0.00583-0.72726 0.81981
   8   5  -2  199.25  102.08   1-0.63451 0.04538 0.16324 0.52797 0.75547-0.84804
  -8   5   2  654.54  177.23   1 0.37571-0.96686-0.92670 0.23469-0.00777 0.10042
   8   5  -2  192.63  115.44   1-0.97310 0.38621-0.21401 0.90512 0.08525-0.17775
  -8   5   2  333.83   98.27   1 0.12975-0.72029-0.61052-0.08271 0.78129-0.68871
  -8  -5   1  564.39  208.16   1-0.01029 0.60130-0.65903-0.03360-0.75204 0.79831
   8   5  -1  204.29   85.86   1-0.62701 0.03793 0.11596 0.57593 0.77033-0.81661
   8   5  -1  366.79  134.30   1-0.97078 0.38404-0.22074 0.91259 0.09407-0.14031
  -8   5   1  485.97  121.27   1 0.08290-0.67348-0.61824-0.07571 0.78160-0.73531
  -8  -5   0  367.66  277.51   1-0.03832 0.62931-0.63121-0.06212-0.77466 0.77466
   8   5   0  203.42  110.25   1-0.61822 0.02867 0.07101 0.62163 0.78278-0.78278
   8   5   0   90.07   60.04   1-0.96890 0.38231-0.22592 0.91850 0.10087-0.10087
  -8   5   0  462.70  113.84   1 0.03136-0.62198-0.62508-0.06959 0.77992-0.77992
  -8  -5  -1  196.48  165.78   1-0.06548 0.65646-0.60292-0.09111-0.79510 0.74883
   8   5   1   50.36   64.30   1-0.60883 0.01934 0.02818 0.66510 0.79279-0.74650
  -8   5  -1  122.37   66.34   1-0.02487-0.56525-0.63020-0.06557 0.77602-0.82230
  -8  -5  -2  493.54  180.95   1-0.09162 0.68258-0.57445-0.12027-0.81339 0.72083
   8   5   2  872.66  214.05   1-0.59890 0.00946-0.01207 0.70599 0.80072-0.70815
  -8   5  -2  616.87  127.73   1-0.08581-0.50443-0.63391-0.06254 0.76863-0.86118
   8   5   3  925.61  211.01   1-0.58867-0.00071-0.04961 0.74417 0.80684-0.66797
  -9   0  10  425.52  177.26   1 0.21529-0.21466-0.83143 0.05771-0.51221 0.97498
  -9   0  10  677.98  292.46   1 0.56628-0.56657-0.74141-0.03148-0.36003 0.82340
   9   0 -10   15.67   57.72   1-0.85080 0.85093 0.24641 0.52526-0.46412 0.00137
  -9   0   9  210.38  116.61   1 0.17031-0.17027-0.80491 0.03082-0.56842 0.98491
  -9   0   9  485.78  247.92   1 0.58104-0.58030-0.71173-0.06228-0.39473 0.81201
   9   0  -9  107.80   91.30   1-0.84972 0.84985 0.24764 0.52474-0.46545 0.04897
  -9   0   8   42.98   97.93   1 0.12370-0.12370-0.77310-0.00165-0.62210 0.99231
  -9   0   8  409.33  183.08   1 0.59409-0.59336-0.68075-0.09399-0.42851 0.79942
   9   0  -8   59.99   54.59   1-0.84691 0.84704 0.25081 0.52228-0.46885 0.09864
  -9   0   7  241.43  124.65   1 0.07595-0.07599-0.73627-0.03912-0.67240 0.99634
  -9   0   7  432.51  133.75   1 0.60580-0.60510-0.64818-0.12730-0.46135 0.78590
   9   0  -7  507.66  127.75   1-0.84210 0.84223 0.25616 0.51763-0.47458 0.15065
  -9   0   6  222.97  130.23   1 0.02796-0.02733-0.69477-0.08104-0.71868 0.99633
  -9   0   6  933.45  174.21   1 0.61614-0.61545-0.61414-0.16208-0.49314 0.77132
   9   0  -6  342.02  116.38   1-0.83489 0.83500 0.26401 0.51049-0.48296 0.20530
  -9   0   5  831.25  241.25   1-0.02027 0.02089-0.64928-0.12723-0.76027 0.99165
  -9   0   5  813.61  192.74   1 0.62505-0.62438-0.57879-0.19817-0.52374 0.75556
   9   0  -5  427.42  150.48   1-0.82472 0.82483 0.27472 0.50050-0.49432 0.26294
  -9   0   4  670.73  222.03   1-0.06779 0.06839-0.60046-0.17675-0.79677 0.98187
  -9   0   4  247.01  132.67   1 0.63252-0.63186-0.54230-0.23540-0.55301 0.73846
   9   0  -4  136.07   74.44   1-0.81085 0.81096 0.28872 0.48721-0.50906 0.32396
  -9   0   3  350.95  169.41   1-0.11392 0.11451-0.54917-0.22873-0.82790 0.96673
   9   0  -3   66.70   81.86   1-0.63774 0.63766 0.50466 0.27244 0.58188-0.72052
   9   0  -3  144.44   66.93   1-0.79224 0.79235 0.30652 0.47012-0.52762 0.38879
  -9   0   2  554.47  157.35   1-0.15750 0.15797-0.49625-0.28247-0.85377 0.94617
   9   0  -2  352.26  160.10   1-0.64234 0.64232 0.46661 0.31116 0.60800-0.70042
   9   0  -2   84.70   48.20   1-0.76739 0.76749 0.32875 0.44861-0.55048 0.45793
  -9   0   1  -59.43   99.10   1-0.19909 0.19961-0.44304-0.33641-0.87411 0.92031
   9   0  -1  114.85   77.70   1-0.64551 0.64555 0.42817 0.35026 0.63243-0.67864
   9   0  -1   36.56   46.64   1-0.73413 0.73422 0.35612 0.42195-0.57812 0.53184
  -9   0   0 1010.81  171.50   1-0.23782 0.23839-0.39026-0.38991-0.88945 0.88945
   9   0   0 1162.83  191.13   1-0.64731 0.64742 0.38965 0.38946 0.65510-0.65510
   9   0   0  376.75  100.72   1-0.68893 0.68913 0.38954 0.38918-0.61124 0.61124
  -9   0  -1  597.47  146.40   1-0.27343 0.27404-0.33877-0.44213-0.90025 0.85405
   9   0   1 1049.36  142.27   1-0.64782 0.64799 0.35134 0.42843 0.67592-0.62971
   9   0   1  636.12  111.57   1-0.62731 0.62748 0.42977 0.34967-0.64944 0.69569
  -9   0  -2  359.31  178.88   1-0.30619 0.30651-0.28887-0.49250-0.90707 0.81454
   9   0   2  721.08  124.22   1-0.64784 0.64857 0.31403 0.46647 0.69403-0.60146
  -9   0  -3  398.37  194.13   1-0.33532 0.33563-0.24190-0.54018-0.91051 0.77172
   9   0   3  160.03   82.96   1-0.64613 0.64692 0.27717 0.50400 0.71111-0.57225
  -9   0  -4  213.70  125.52   1-0.36123 0.36154-0.19798-0.58480-0.91121 0.72615
   9   0   4  372.51  134.11   1-0.64351 0.64434 0.24154 0.54031 0.72632-0.54117
  -9   0  -5 -127.11  133.24   1-0.38408 0.38438-0.15743-0.62606-0.90977 0.67844
   9   0   5  332.74  123.86   1-0.64013 0.64101 0.20745 0.57508 0.73972-0.50829
  -9   0  -6   63.68  123.99   1-0.40406 0.40435-0.12039-0.66379-0.90677 0.62918
   9   0   6  213.17   92.86   1-0.63616 0.63710 0.17517 0.60804 0.75140-0.47368
  -9   0  -7  511.55  182.77   1-0.42142 0.42157-0.08686-0.69806-0.90269 0.57877
   9   0   7  320.66  106.54   1-0.63179 0.63279 0.14498 0.63891 0.76145-0.43745
  -9   0  -8 1283.70  254.55   1-0.43633 0.43647-0.05701-0.72864-0.89797 0.52778
   9   0   8  607.92  127.02   1-0.62720 0.62825 0.11709 0.66747 0.77000-0.39971
  -9   0  -9  981.11  248.83   1-0.44906 0.44920-0.03064-0.75574-0.89297 0.47651
   9   0   9  331.40  124.95   1-0.62256 0.62367 0.09170 0.69354 0.77717-0.36059
  -9   0 -10  177.76  126.43   1-0.45983 0.45996-0.00762-0.77948-0.88797 0.42523
   9   0  10  168.99   86.14   1-0.61766 0.61862 0.06829 0.71730 0.78346-0.32057
  -9  -1  10  134.33  147.01   1 0.19928-0.08058-0.82244 0.04873-0.53279 0.99555
  -9   1  10  108.85   98.62   1 0.53579-0.65425-0.79200 0.01910-0.29266 0.75603
  -9  -1  10  468.20  218.89   1 0.58911-0.47011-0.69314-0.08013-0.41532 0.87896
   9  -1 -10  149.90   96.00   1-0.77237 0.89052 0.32442 0.44724-0.54606 0.08330
   9   1 -10  367.41  157.13   1-0.91020 0.79224 0.16751 0.60438-0.37878-0.08408
  -9  -1   9  365.86  187.81   1 0.15853-0.04037-0.79727 0.02318-0.58242 0.99891
  -9   1   9  453.25  117.99   1 0.20151-0.31904-0.82372 0.04934-0.52996 0.94645
  -9   1   9  395.13  179.26   1 0.55113-0.66960-0.76824-0.00538-0.32566 0.74269
  -9  -1   9  416.99  251.37   1 0.60211-0.48312-0.65904-0.11497-0.45069 0.86796
   9  -1  -9   49.29   61.17   1-0.76785 0.88599 0.32835 0.44402-0.55007 0.13359
   9   1  -9  119.54   84.46   1-0.91152 0.79357 0.16547 0.60714-0.37649-0.04008
  -9   1   8 3364.74  456.58   1 0.14927-0.26740-0.79107 0.01632-0.59323 0.96344
  -9  -1   8 2810.35  425.20   1 0.11671 0.00141-0.76797-0.00678-0.62976 0.99997
  -9   1   8 2544.96  374.34   1 0.56547-0.68396-0.74294-0.03141-0.35814 0.72883
  -9  -1   8 2453.90  390.08   1 0.61356-0.49459-0.62322-0.15152-0.48490 0.85581
   9  -1  -8 1848.90  366.89   1-0.76098 0.87912 0.33422 0.43886-0.55605 0.18585
   9   1  -8 2222.20  316.57   1-0.91171 0.79378 0.16517 0.60817-0.37616 0.00587
  -9  -1   7 2643.72  340.15   1 0.07409 0.04399-0.73476-0.04064-0.67426 0.99820
  -9   1   7 2772.47  309.62   1 0.09513-0.21330-0.75157-0.02383-0.65275 0.97669
  -9   1   7 2353.79  282.51   1 0.57923-0.69677-0.71567-0.05981-0.39024 0.71478
  -9  -1   7 2090.35  283.49   1 0.62341-0.50445-0.58586-0.18963-0.51780 0.84235
   9  -1  -7 2013.79  386.53   1-0.75136 0.86950 0.34225 0.43155-0.56418 0.24026
   9   1  -7 1450.32  173.64   1-0.91062 0.79270 0.16686 0.60720-0.37805 0.05405
  -9  -1   613747.25 1055.49   1 0.03109 0.08695-0.69793-0.07812-0.71548 0.99314
  -9   1   613637.39 1009.85   1 0.04000-0.15821-0.70583-0.07022-0.70724 0.98490
  -9   1   612468.26  956.79   1 0.59143-0.70899-0.68746-0.08876-0.42142 0.69960
  -9  -1   612913.06  981.13   1 0.63162-0.51269-0.54713-0.22909-0.54926 0.82744
   9  -1  -610420.66 1055.35   1-0.73850 0.85663 0.35266 0.42185-0.57466 0.29701
   9   1  -612164.10  911.48   1-0.90801 0.79011 0.17085 0.60393-0.38251 0.10480
  -9   1   5  545.33  176.98   1-0.01487-0.10261-0.65458-0.12193-0.75584 0.98722
  -9  -1   5  956.88  222.17   1-0.01144 0.13015-0.65792-0.11859-0.75299 0.98437
   9   1  -5  976.49  198.64   1-0.63741 0.51923 0.50701 0.26876 0.58020-0.81127
  -9   1   5 1082.21  213.82   1 0.60250-0.72007-0.65793-0.11903-0.45179 0.68361
   9  -1  -5  697.11  190.15   1-0.72172 0.83985 0.36571 0.40951-0.58767 0.35629
   9   1  -5  709.33  145.48   1-0.90355 0.78567 0.17752 0.59798-0.38995 0.15852
  -9   1   4  628.67  158.93   1-0.06909-0.04840-0.59906-0.17814-0.79771 0.98281
  -9  -1   4  760.33  180.86   1-0.05381 0.17251-0.61524-0.16196-0.78649 0.97159
   9   1  -4 1014.97  193.07   1-0.64237 0.52426 0.46629 0.31015 0.60821-0.79306
  -9   1   4  788.24  182.70   1 0.61239-0.72998-0.62720-0.15050-0.48123 0.66669
   9  -1  -4  661.78  134.01   1-0.69985 0.81817 0.38178 0.39406-0.60369 0.41868
   9   1  -4  524.22  127.30   1-0.89676 0.77889 0.18735 0.58888-0.40088 0.21573
  -9  -1   3  808.27  227.07   1-0.09516 0.21385-0.57050-0.20741-0.81576 0.95459
  -9   1   3  451.77  164.23   1-0.12144 0.00393-0.54045-0.23745-0.83256 0.97138
   9   1  -3  168.35   87.12   1-0.64571 0.52766 0.42497 0.35213 0.63438-0.77302
  -9   1   3  363.96  155.18   1 0.62107-0.73868-0.59542-0.18301-0.50963 0.64872
   9  -1  -3  132.12   70.01   1-0.67237 0.79066 0.40093 0.37563-0.62222 0.48346
   9   1  -3  159.71   85.90   1-0.88692 0.76906 0.20095 0.57600-0.41590 0.27704
  -9   1   2  449.56  172.45   1-0.17042 0.05283-0.48009-0.29862-0.86050 0.95290
  -9  -1   2  333.28  190.87   1-0.13457 0.25309-0.52413-0.25459-0.84093 0.93334
   9   1  -2  -31.01   70.91   1-0.64748 0.52949 0.38337 0.39440 0.65862-0.75105
  -9   1   2  404.21  190.44   1 0.62854-0.74616-0.56276-0.21642-0.53687 0.62960
   9  -1  -2  168.69   97.98   1-0.63746 0.75572 0.42353 0.35375-0.64363 0.55112
   9   1  -2  164.43   74.31   1-0.87295 0.75511 0.21912 0.55856-0.43581 0.34324
  -9  -1   1  105.71  121.53   1-0.17253 0.29110-0.47743-0.30202-0.86156 0.90776
  -9   1   1  430.17  205.97   1-0.21663 0.09910-0.41954-0.35991-0.88150 0.92770
   9   1  -1  239.94  132.23   1-0.64775 0.52983 0.34182 0.43662 0.68085-0.72706
   9  -1  -1    6.02   47.36   1-0.59310 0.71133 0.44979 0.32821-0.66776 0.62151
   9   1  -1  137.63   62.40   1-0.85416 0.73625 0.24254 0.53553-0.45996 0.41369
  -9   1   0  451.58  175.68   1-0.25905 0.14156-0.35992-0.42025-0.89629 0.89629
  -9  -1   0 1080.77  201.27   1-0.20831 0.32693-0.43078-0.34940-0.87808 0.87808
   9  -1   0  351.93  162.18   1-0.63901 0.75709 0.49535 0.28376 0.58846-0.58846
   9   1   0  218.47   68.16   1-0.64735 0.53006 0.30095 0.47820 0.70025-0.70025
   9  -1   0  161.24   92.02   1-0.53656 0.65477 0.47978 0.29894-0.69419 0.69419
   9   1   0  225.43   92.05   1-0.82617 0.70825 0.27322 0.50556-0.49273 0.49273
  -9  -1  -1 2407.81  274.64   1-0.24166 0.36033-0.38486-0.39605-0.89077 0.84457
  -9   1  -1 2674.30  259.57   1-0.29779 0.17997-0.30199-0.47869-0.90560 0.85933
   9  -1   1 3586.93  250.07   1-0.64285 0.76100 0.46137 0.31841 0.61144-0.56523
   9   1   1 2731.08  375.42   1-0.64502 0.52778 0.26048 0.51934 0.71839-0.67210
   9  -1   1 2267.62  156.61   1-0.46331 0.58186 0.51348 0.26604-0.72226 0.76853
   9   1   1 1143.42  245.24   1-0.78523 0.66730 0.31297 0.46652-0.53428 0.58056
  -9  -1  -2  647.22  237.26   1-0.27241 0.39114-0.34028-0.44136-0.89999 0.80759
  -9   1  -2  181.53  146.99   1-0.33212 0.21430-0.24717-0.53420-0.91027 0.81774
   9  -1   2  439.29  149.08   1-0.64555 0.76376 0.42748 0.35297 0.63286-0.54043
   9   1   2  217.09  112.87   1-0.64158 0.52439 0.22109 0.55940 0.73449-0.64192
   9  -1   2  154.99   76.61   1-0.36967 0.48824 0.54965 0.23060-0.74914 0.84168
  -9  -1  -3  734.38  193.35   1-0.30094 0.41939-0.29709-0.48499-0.90618 0.76738
  -9   1  -3  320.43  126.21   1-0.36242 0.24459-0.19592-0.58616-0.91118 0.77239
   9  -1   3    7.77   59.97   1-0.64717 0.76545 0.39397 0.38714 0.65264-0.51400
   9   1   3   13.98   61.85   1-0.63720 0.52007 0.18309 0.59808 0.74862-0.60976
  -9  -1  -4  486.55  218.47   1-0.32640 0.44484-0.25654-0.52624-0.90974 0.72468
  -9   1  -4  416.89  175.30   1-0.38889 0.27106-0.14864-0.63414-0.90920 0.72414
   9  -1   4  156.48   89.62   1-0.64781 0.76614 0.36116 0.42062 0.67074-0.48589
   9   1   4   86.16   83.71   1-0.63207 0.51499 0.14679 0.63506 0.76087-0.57573
  -9  -1  -5  828.72  199.06   1-0.34922 0.46766-0.21861-0.56488-0.91118 0.67985
  -9   1  -5  464.13  160.24   1-0.41182 0.29398-0.10557-0.67791-0.90512 0.67380
   9  -1   5  226.79   99.42   1-0.64825 0.76705 0.32998 0.45255 0.68620-0.45477
   9   1   5  324.23   98.56   1-0.62638 0.50936 0.11244 0.67009 0.77135-0.53992
  -9  -1  -6  364.15  207.66   1-0.36950 0.48793-0.18352-0.60067-0.91092 0.63333
  -9   1  -6  378.95  138.22   1-0.43155 0.31358-0.06669-0.71750-0.89961 0.62197
   9  -1   6  339.35  100.28   1-0.64729 0.76615 0.29956 0.48365 0.70090-0.42318
   9   1   6  174.47   61.72   1-0.62034 0.50336 0.08028 0.70293 0.78021-0.50249
  -9  -1  -7  569.62  207.06   1-0.38738 0.50581-0.15142-0.63348-0.90939 0.58554
  -9   1  -7  331.39  161.30   1-0.44834 0.33036-0.03214-0.75278-0.89328 0.56936
   9  -1   7  342.71  117.61   1-0.64573 0.76464 0.27079 0.51309 0.71392-0.38992
   9   1   7  127.64   56.13   1-0.61378 0.49659 0.05005 0.73363 0.78788-0.46386
  -9  -1  -8  319.56  194.04   1-0.40302 0.52144-0.12236-0.66324-0.90697 0.53684
  -9   1  -8  703.71  245.55   1-0.46256 0.34457-0.00169-0.78396-0.88658 0.51639
   9  -1   8  172.54  107.51   1-0.64372 0.76268 0.24396 0.54060 0.72533-0.35504
   9   1   8  416.41  125.49   1-0.60755 0.49042 0.02273 0.76158 0.79394-0.42363
  -9  -1  -9 2014.54  351.11   1-0.41661 0.53488-0.09628-0.69009-0.90397 0.48751
  -9   1  -9 2398.73  378.56   1-0.47451 0.35652 0.02485-0.81124-0.87989 0.46343
   9  -1   9 1316.31  244.37   1-0.64140 0.76042 0.21934 0.56590 0.73517-0.31860
   9   1   9 1772.09  332.89   1-0.60150 0.48442-0.00193 0.78689 0.79886-0.38226
  -9  -1 -10 1090.77  258.84   1-0.42825 0.54652-0.07331-0.71380-0.90067 0.43794
  -9   1 -10  832.48  234.37   1-0.48447 0.36648 0.04772-0.83484-0.87350 0.41076
   9  -1  10  451.81  101.81   1-0.63894 0.75802 0.19718 0.58874 0.74354-0.28068
   9   1  10  278.10   96.19   1-0.59578 0.47876-0.02387 0.80947 0.80278-0.33989
  -9  -2   9  671.71  172.02   1 0.16032 0.07597-0.79845 0.02435-0.58032 0.99681
  -9   2   9  183.36  108.76   1 0.51190-0.74855-0.82361 0.04998-0.24415 0.66118
  -9  -2   9  154.90  216.82   1 0.61639-0.37916-0.61322-0.16079-0.49397 0.91125
   9  -2  -9  284.89  120.22   1-0.66929 0.90576 0.40299 0.36925-0.62420 0.20793
   9   2  -9  120.13   80.57   1-0.95351 0.71752 0.08801 0.68460-0.28821-0.12836
  -9  -2   8  308.85  131.36   1 0.12261 0.11364-0.77230-0.00244-0.62330 0.99351
  -9   2   8  664.77  209.66   1 0.52693-0.76359-0.80442 0.03006-0.27430 0.64499
  -9  -2   8  848.54  280.54   1 0.62623-0.38901-0.57355-0.20120-0.52808 0.89899
   9  -2  -8  433.27  148.25   1-0.65814 0.89458 0.41036 0.36260-0.63122 0.26120
   9   2  -8   69.53   70.02   1-0.95524 0.71927 0.08404 0.68929-0.28361-0.08667
  -9  -2   7  545.64  235.78   1 0.08431 0.15190-0.74302-0.03237-0.66392 0.98786
  -9   2   7  550.71  198.74   1 0.54116-0.77783-0.78402 0.00894-0.30404 0.62840
   9  -2  -7  307.24  123.52   1-0.64373 0.88014 0.41960 0.35408-0.63995 0.31618
   9   2  -7  327.51  130.00   1-0.95624 0.72028 0.08172 0.69234-0.28091-0.04308
  -9  -2   6 6737.19  639.03   1 0.04572 0.19045-0.71084-0.06522-0.70186 0.97952
   9   2  -6 6501.25  562.60   1-0.63969 0.40348 0.49003 0.28507 0.59216-0.86944
  -9   2   6 6329.95  571.92   1 0.55457-0.79126-0.76246-0.01335-0.33330 0.61132
   9  -2  -6 4493.46  751.79   1-0.62553 0.86191 0.43085 0.34355-0.65044 0.37292
   9   2  -6 5087.10  453.75   1-0.95642 0.72047 0.08131 0.69347-0.28043 0.00272
  -9  -2   5 2635.29  336.60   1 0.00759 0.22922-0.67606-0.10044-0.73679 0.96817
  -9   2   5 3375.09  321.64   1 0.01237-0.24796-0.68052-0.09599-0.73262 0.96400
   9   2  -5 3298.38  322.53   1-0.64413 0.40798 0.44703 0.32873 0.62068-0.85175
  -9   2   5 4027.35  414.07   1 0.56714-0.80383-0.73978-0.03675-0.36202 0.59371
   9  -2  -5 2060.81  346.88   1-0.60290 0.83925 0.44421 0.33091-0.66270 0.43144
   9   2  -5 2945.43  295.94   1-0.95564 0.71971 0.08312 0.69238-0.28254 0.05111
  -9  -2   4 4730.75  496.71   1-0.03054 0.26735-0.63906-0.13814-0.76854 0.95364
  -9   2   4 2800.86  276.81   1-0.05150-0.18409-0.61764-0.15956-0.78476 0.96987
   9   2  -4 3078.80  292.27   1-0.64681 0.41073 0.40351 0.37292 0.64714-0.83199
  -9   2   4 2405.59  260.99   1 0.57931-0.81515-0.71550-0.06220-0.39044 0.57589
   9  -2  -4 2403.06  328.21   1-0.57505 0.81137 0.45976 0.31607-0.67670 0.49168
   9   2  -4 2930.51  270.96   1-0.95370 0.71778 0.08756 0.68866-0.28770 0.10255
  -9   2   3  231.46  140.05   1-0.11279-0.12281-0.55048-0.22742-0.82719 0.96601
  -9  -2   3  237.89  215.43   1-0.06796 0.30475-0.60028-0.17762-0.79689 0.93572
   9   2  -3  312.92  132.50   1-0.64781 0.41179 0.35980 0.41730 0.67147-0.81011
  -9   2   3  559.48  134.32   1 0.59007-0.82592-0.69081-0.08762-0.41783 0.55692
   9  -2  -3  191.17   96.56   1-0.54101 0.77730 0.47755 0.29901-0.69227 0.55351
   9   2  -3  148.42   81.37   1-0.95027 0.71436 0.09517 0.68177-0.29650 0.15765
  -9  -2   2  744.95  248.61   1-0.10429 0.34107-0.56020-0.21840-0.82176 0.91431
  -9   2   2  255.18  122.66   1-0.16950-0.06613-0.48126-0.29746-0.86003 0.95243
   9   2  -2  215.93  100.51   1-0.64791 0.41260 0.31644 0.46135 0.69286-0.78543
  -9   2   2  191.32  102.55   1 0.59989-0.83576-0.66529-0.11388-0.44442 0.53715
   9  -2  -2  188.49   87.52   1-0.49914 0.73566 0.49757 0.27974-0.70941 0.61687
   9   2  -2   47.67   49.81   1-0.94481 0.70892 0.10666 0.67101-0.30975 0.21717
  -9  -2   1  478.65  246.11   1-0.13875 0.37537-0.51912-0.26032-0.84335 0.88956
  -9   2   1  516.47  180.55   1-0.22222-0.01336-0.41191-0.36754-0.88370 0.92991
   9   2  -1  110.02   59.40   1-0.64590 0.41063 0.27334 0.50512 0.71280-0.75909
  -9   2   1  336.08  135.88   1 0.60875-0.84464-0.63907-0.14084-0.47010 0.51647
   9  -2  -1  291.83  115.66   1-0.44882 0.68537 0.51958 0.25847-0.72704 0.68077
   9   2  -1  111.69   78.13   1-0.93646 0.70059 0.12301 0.65539-0.32847 0.28219
  -9  -2   0  402.64  236.93   1-0.17196 0.40863-0.47815-0.30202-0.86127 0.86127
  -9   2   0  266.64  120.95   1-0.26977 0.03423-0.34420-0.43598-0.89930 0.89930
   9   2   0   73.55  101.97   1-0.64256 0.40735 0.23110 0.54805 0.73054-0.73054
  -9   2   0  630.28  138.28   1 0.61664-0.85254-0.61231-0.16834-0.49479 0.49479
   9  -2   0  301.05  106.05   1-0.38794 0.62452 0.54317 0.23561-0.74461 0.74461
   9   2   0  233.37   89.01   1-0.92378 0.68791 0.14561 0.63351-0.35415 0.35415
  -9  -2  -1 2954.07  417.60   1-0.20327 0.44000-0.43750-0.34341-0.87593 0.82973
  -9   2  -1 2780.22  373.38   1-0.31235 0.07639-0.27915-0.50152-0.90802 0.86176
   9   2   1 2779.38  451.96   1-0.63808 0.40292 0.19004 0.58978 0.74614-0.69985
  -9   2  -1 2363.60  318.66   1 0.62356-0.85948-0.58519-0.19619-0.51836 0.47200
  -9  -2  -2 1409.56  252.12   1-0.23254 0.46931-0.39766-0.38398-0.88757 0.79516
  -9   2  -2 1395.04  197.42   1-0.34934 0.11338-0.21840-0.56298-0.91118 0.81865
   9   2   2  844.57  185.03   1-0.63264 0.39753 0.15048 0.63001 0.75968-0.66711
  -9   2  -2 1742.44  216.74   1 0.62952-0.86546-0.55793-0.22419-0.54073 0.44801
  -9   2  -2 1202.03  119.64   1 0.22189-0.45794-0.59112-0.19181 0.77546-0.86803
  -9  -2  -312716.65  979.69   1-0.25963 0.49646-0.35908-0.42329-0.89646 0.75785
  -9   2  -3 9408.64  723.82   1-0.38134 0.14537-0.16239-0.61969-0.91005 0.77126
   9   2   310976.62 1086.33   1-0.62643 0.39138 0.11271 0.66847 0.77128-0.63242
  -9  -2  -4 1087.00  219.45   1-0.28495 0.52153-0.32167-0.46111-0.90295 0.71789
  -9   2  -4  443.44  154.95   1-0.40875 0.17277-0.11147-0.67131-0.90581 0.72075
   9  -2   4  844.65  140.79   1-0.63791 0.87421 0.50349 0.27829 0.58271-0.39786
   9   2   4  990.81  143.26   1-0.61938 0.38405 0.07673 0.70504 0.78132-0.59616
  -9  -2  -5 1148.25  211.21   1-0.30762 0.54420-0.28662-0.49687-0.90731 0.67598
  -9   2  -5 1073.28  189.67   1-0.43207 0.19597-0.06564-0.71782-0.89944 0.66807
   9  -2   5 1151.30  171.78   1-0.64120 0.87757 0.47730 0.30514 0.60086-0.36979
   9   2   5 1518.84  255.95   1-0.61226 0.37698 0.04316 0.73924 0.78947-0.55803
  -9  -2  -6 2161.97  371.98   1-0.32808 0.56466-0.25379-0.53040-0.90991 0.63232
  -9   2  -6 1619.94  256.10   1-0.45171 0.21560-0.02504-0.75914-0.89181 0.61417
   9  -2   6 1836.41  274.98   1-0.64371 0.88014 0.45205 0.33106 0.61747-0.34020
  -9  -2  -7 1190.59  236.32   1-0.34640 0.58296-0.22338-0.56151-0.91109 0.58724
  -9   2  -7  954.68  187.96   1-0.46816 0.23205 0.01064-0.79556-0.88357 0.55966
   9  -2   7 1148.99  182.27   1-0.64552 0.88202 0.42805 0.35573 0.63250-0.30901
   9   2   7 1131.60  269.82   1-0.59770 0.36253-0.01665 0.80033 0.80154-0.47751
  -9  -2  -8  149.07  157.61   1-0.36265 0.59921-0.19552-0.59008-0.91118 0.54105
  -9   2  -8  200.36  137.82   1-0.48188 0.24576 0.04170-0.82735-0.87524 0.50505
   9  -2   8   36.40   42.29   1-0.64672 0.88329 0.40564 0.37882 0.64590-0.27620
   9   2   8   -4.06   47.22   1-0.59063 0.35551-0.04268 0.82701 0.80581-0.43549
  -9  -2  -9  299.67  258.71   1-0.37696 0.61351-0.17026-0.61603-0.91044 0.49405
  -9   2  -9  566.98  191.31   1-0.49323 0.25711 0.06843-0.85482-0.86719 0.45073
   9   2   9  198.25   89.36   1-0.58389 0.34883-0.06605 0.85101 0.80913-0.39253
  -9  -3   7  230.63  135.40   1 0.10351 0.25083-0.75804-0.01736-0.64393 0.96787
   9   3  -7  300.95  107.32   1-0.63964 0.28539 0.49044 0.28398 0.59187-0.91536
  -9   3   7  319.24  138.84   1 0.49106-0.84591-0.84687 0.07178-0.20410 0.52846
   9  -3  -7   87.30   59.77   1-0.52657 0.88098 0.48471 0.28897-0.69840 0.37463
   9   3  -7  263.67  123.61   1-0.98107 0.62820 0.00737 0.76703-0.19350-0.13046
  -9  -3   6  148.40  137.16   1 0.06873 0.28557-0.73035-0.04571-0.67960 0.95726
   9   3  -6  194.48  100.72   1-0.64422 0.29004 0.44597 0.32913 0.62135-0.89863
  -9   3   6  236.34  164.92   1 0.50465-0.85950-0.83212 0.05631-0.22998 0.50801
   9  -3  -6  325.94  108.88   1-0.50418 0.85866 0.49523 0.27915-0.70748 0.42985
   9   3  -6  196.10   97.24   1-0.98209 0.62925 0.00307 0.77204-0.18835-0.08932
  -9  -3   5  712.44  266.67   1 0.03395 0.32031-0.70049-0.07623-0.71285 0.94423
   9   3  -5   99.70   68.15   1-0.64692 0.29280 0.40100 0.37476 0.64860-0.87966
  -9   3   5  183.56   97.99   1 0.51757-0.87244-0.81663 0.04009-0.25538 0.48706
   9  -3  -5  462.28  145.33   1-0.47741 0.83191 0.50737 0.26775-0.71739 0.48603
   9   3  -5  386.73  136.71   1-0.98268 0.62987 0.00051 0.77532-0.18528-0.04612
  -9  -3   4 1721.12  324.41   1-0.00011 0.35502-0.66879-0.10841-0.74344 0.92854
   9   3  -4 1141.23  189.05   1-0.64782 0.29377 0.35589 0.42054 0.67354-0.85839
  -9   3   4  579.75  137.96   1 0.52981-0.88469-0.80047 0.02320-0.28023 0.46558
   9  -3  -4  742.98  166.57   1-0.44557 0.80010 0.52092 0.25493-0.72808 0.54299
   9   3  -4  905.60  172.79   1-0.98280 0.63001-0.00001 0.77657-0.18464-0.00048
  -9  -3   3  449.50  161.12   1-0.03409 0.38898-0.63550-0.14240-0.77134 0.91017
   9   3  -3  237.66   96.04   1-0.64774 0.29445 0.31106 0.46605 0.69546-0.83431
  -9   3   3  418.93  134.23   1 0.54136-0.89626-0.78371 0.00571-0.30447 0.44348
   9  -3  -3  389.55  167.44   1-0.40797 0.76253 0.53576 0.24082-0.73926 0.60045
   9   3  -3   94.12   92.68   1-0.98237 0.62961 0.00186 0.77541-0.18690 0.04805
  -9  -3   2  191.98  144.60   1-0.06728 0.42215-0.60101-0.17759-0.79640 0.88895
   9   3  -2  194.01  130.02   1-0.64546 0.29223 0.26666 0.51112 0.71572-0.80829
  -9   3   2  126.66  106.68   1 0.55220-0.90711-0.76645-0.01226-0.32803 0.42070
   9  -3  -2  177.80  100.53   1-0.36385 0.71843 0.55166 0.22565-0.75051 0.65797
   9   3  -2  392.69  122.55   1-0.98124 0.62851 0.00666 0.77133-0.19265 0.10009
  -9  -3   1 2052.08  280.26   1-0.09943 0.45429-0.56570-0.21359-0.81858 0.86486
   9   3  -1 2004.65  247.69   1-0.64179 0.28861 0.22318 0.55529 0.73368-0.77996
  -9   3   1 1986.27  217.99   1 0.56231-0.91723-0.74881-0.03064-0.35083 0.39716
   9   3  -1 1528.39  170.64   1-0.97911 0.62641 0.01508 0.76363-0.20272 0.15644
  -9  -3   0  780.29  245.87   1-0.12983 0.48456-0.52976-0.25041-0.83814 0.83814
  -9   3   0  663.46  116.26   1-0.26610-0.08748-0.34961-0.43056-0.89830 0.89830
   9   3   0  220.73   72.77   1-0.63692 0.28380 0.18093 0.59821 0.74939-0.74939
  -9   3   0  576.01  118.83   1 0.57168-0.92661-0.73090-0.04928-0.37277 0.37277
  -9   3   0  252.85   82.58   1 0.24963-0.60380-0.58414-0.19736 0.77230-0.77230
  -9  -3  -1  373.13  159.10   1-0.15918 0.51396-0.49416-0.28674-0.85466 0.80846
  -9   3  -1  666.62  139.51   1-0.31467-0.03942-0.27545-0.50522-0.90835 0.86208
   9   3   1  579.42  143.57   1-0.63105 0.27798 0.14022 0.63960 0.76296-0.71667
  -9   3  -1  458.55  108.38   1 0.58083-0.93499-0.71220-0.06919-0.39420 0.34784
  -9   3  -1  762.26   98.19   1 0.18055-0.53476-0.60053-0.18168 0.77894-0.82523
  -9  -3  -2 1173.75  257.77   1-0.18691 0.54174-0.45899-0.32265-0.86855 0.77614
  -9   3  -2  668.10  161.24   1-0.35590 0.00179-0.20721-0.57417-0.91126 0.81873
   9   3   2  453.78  156.44   1-0.62437 0.27135 0.10131 0.67919 0.77452-0.68195
  -9   3  -2  730.91  134.71   1 0.58866-0.94284-0.69422-0.08790-0.41415 0.32142
  -9   3  -2  284.86   80.56   1 0.10135-0.45560-0.61537-0.16756 0.78169-0.87426
  -9  -3  -3 8594.67 1094.52   1-0.21289 0.56777-0.42461-0.35776-0.87998 0.74137
  -9   3  -3 7670.35  948.58   1-0.39071 0.03661-0.14530-0.63678-0.90896 0.77017
   9   3   3 6479.68 1184.29   1-0.61684 0.26347 0.06433 0.71680 0.78445-0.64558
  -9   3  -3 6967.02  853.17   1 0.59572-0.94992-0.67652-0.10634-0.43292 0.29383
  -9  -3  -4  566.87  239.47   1-0.23703 0.59196-0.39138-0.39172-0.88917 0.70436
  -9   3  -4  568.59  158.59   1-0.41993 0.06569-0.08980-0.69292-0.90310 0.71800
   9   3   4  391.73  150.67   1-0.60918 0.25586 0.02965 0.75212 0.79247-0.60732
  -9   3  -4  191.71   75.61   1 0.60201-0.95622-0.65933-0.12427-0.45039 0.26494
  -9  -3  -5  361.83  184.27   1-0.25928 0.61426-0.35959-0.42424-0.89636 0.66534
  -9   3  -5   -0.62   77.24   1-0.44419 0.08995-0.04083-0.74262-0.89500 0.66363
   9   3   5   40.81   85.68   1-0.60132 0.24805-0.00266 0.78507 0.79900-0.56755
  -9  -3  -6  862.69  284.75   1-0.27963 0.63467-0.32949-0.45507-0.90179 0.62457
  -9   3  -6  428.53  162.33   1-0.46427 0.11002 0.00204-0.78623-0.88569 0.60805
   9   3   6  740.86  182.66   1-0.59345 0.24024-0.03248 0.81553 0.80420-0.52647
  -9  -3  -7 7916.00 1212.22   1-0.29865 0.65336-0.30065-0.48424-0.90576 0.58190
  -9   3  -7 7682.38 1150.53   1-0.48081 0.12656 0.03923-0.82416-0.87594 0.55202
   9   3   7 5124.03 1068.68   1-0.58575 0.23259-0.05974 0.84343 0.80828-0.48426
  -9  -4   3  482.55  224.04   1 0.00521 0.46778-0.67383-0.10408-0.73886 0.87769
   9   4  -3  532.85  140.73   1-0.64624 0.17504 0.27890 0.49821 0.71034-0.84919
  -9   4   3  628.66  152.85   1 0.47365-0.94671-0.86387 0.08594-0.17140 0.31038
   9   4  -3  545.07  139.67   1-0.99278 0.52215-0.07439 0.85167-0.09404-0.04480
  -9   4   3  332.13   93.93   1 0.27774-0.75000-0.57651-0.20284 0.76843-0.62956
  -9  -4   2  388.77  234.87   1-0.02507 0.49805-0.64453-0.13407-0.76416 0.85671
   9   4  -2  808.44  218.45   1-0.64288 0.17173 0.23447 0.54332 0.72919-0.82176
  -9   4   2  534.42  149.98   1 0.48325-0.95633-0.85471 0.07598-0.18955 0.28223
  -9   4   2  413.96   96.06   1 0.23381-0.70610-0.58818-0.19189 0.77418-0.68161
  -9  -4   1 3058.23  531.72   1-0.05459 0.52756-0.61442-0.16488-0.78708 0.83336
   9   4  -1 2813.08  608.09   1-0.63823 0.16714 0.19126 0.58720 0.74570-0.79199
  -9   4   1 4095.47  636.81   1 0.49221-0.96530-0.84568 0.06622-0.20625 0.25259
  -9   4   1 3411.22  518.78   1 0.18401-0.65635-0.59979-0.18100 0.77870-0.73242
  -9  -4   0 1457.39  369.23   1-0.08315 0.55611-0.58381-0.19619-0.80761 0.80761
   9   4   0  410.59  115.51   1-0.63250 0.16146 0.14957 0.62957 0.75997-0.75997
  -9   4   0  573.19  136.19   1 0.50035-0.97345-0.83695 0.05676-0.22171 0.22171
  -9   4   0  513.82  107.51   1 0.12795-0.60032-0.61085-0.17065 0.78133-0.78133
  -9  -4  -1   47.04  175.18   1-0.11059 0.58352-0.55301-0.22768-0.82579 0.77952
   9   4   1  182.22   81.28   1-0.62589 0.15491 0.10967 0.67015 0.77215-0.72587
  -9   4  -1  139.23   80.79   1 0.50762-0.98073-0.82869 0.04778-0.23575 0.18941
  -9   4  -1  172.81   64.00   1 0.06525-0.53766-0.62077-0.16144 0.78126-0.82755
  -9  -4  -2  338.40  245.41   1-0.13619 0.60907-0.52219-0.25944-0.84187 0.74947
   9   4   2  196.23  108.93   1-0.61838 0.14697 0.07178 0.70871 0.78258-0.69001
  -9   4  -2  533.08  107.10   1-0.00466-0.46737-0.62845-0.15488 0.77783-0.87038
 -10   0   7  987.13  241.32   1 0.08292-0.08300-0.74191-0.12015-0.66534 0.98927
 -10   0   7  431.82  157.30   1 0.60153-0.60076-0.66068-0.20154-0.44905 0.77360
  10   0  -7  369.69  114.82   1-0.80283 0.80296 0.29653 0.56380-0.51722 0.19330
 -10   0   6 3153.91  440.10   1 0.03816-0.03828-0.70422-0.15851-0.70895 0.98661
 -10   0   6 2303.11  347.18   1 0.61153-0.61078-0.63006-0.23290-0.47858 0.75676
  10   0  -6 1561.25  361.16   1-0.79325 0.79338 0.30558 0.55546-0.52664 0.24899
 -10   0   5 3091.02  460.94   1-0.00595 0.00663-0.66321-0.19996-0.74840 0.97978
 -10   0   5 1678.56  275.50   1 0.62030-0.61956-0.59850-0.26520-0.50696 0.73878
  10   0  -5 1372.20  397.50   1-0.78033 0.78046 0.31738 0.54438-0.53883 0.30745
 -10   0   4  452.85  191.86   1-0.04958 0.05024-0.61964-0.24423-0.78331 0.96841
  10   0  -4  139.08   81.94   1-0.76326 0.76338 0.33228 0.53018-0.55408 0.36898
 -10   0   3  428.88  167.76   1-0.09190 0.09255-0.57414-0.29043-0.81358 0.95240
  10   0  -3  186.48   74.96   1-0.74091 0.74102 0.35074 0.51244-0.57273 0.43390
 -10   0   2  340.86  172.80   1-0.13188 0.13241-0.52734-0.33806-0.83935 0.93176
  10   0  -2  237.85   81.63   1-0.71141 0.71170 0.37333 0.49048-0.59540 0.50290
 -10   0   1  224.91  130.00   1-0.17025 0.17083-0.48031-0.38582-0.86041 0.90661
  10   0  -1  341.73  165.75   1-0.64237 0.64243 0.46628 0.39873 0.60822-0.65443
  10   0  -1   -4.86   42.71   1-0.67310 0.67335 0.40043 0.46409-0.62175 0.57550
 -10   0   0  180.63  122.28   1-0.20621 0.20684-0.43358-0.43328-0.87719 0.87719
  10   0   0   93.33   75.92   1-0.64519 0.64532 0.43293 0.43274 0.62951-0.62951
 -10   0  -1   64.37  111.16   1-0.23956 0.24024-0.38782-0.47978-0.89005 0.84385
  10   0   1    4.16   71.65   1-0.64696 0.64715 0.39991 0.46643 0.64923-0.60301
 -10   0  -2 5817.32  762.31   1-0.27018 0.27091-0.34359-0.52473-0.89941 0.80700
  10   0   2 5132.86  651.24   1-0.64775 0.64801 0.36748 0.49953 0.66735-0.57492
 -10   0  -3  168.78  124.88   1-0.29851 0.29885-0.30087-0.56787-0.90573 0.76694
  10   0   3   -4.70   67.49   1-0.64768 0.64799 0.33588 0.53180 0.68387-0.54523
 -10   0  -4  310.52  171.19   1-0.32367 0.32402-0.26097-0.60848-0.90946 0.72440
  10   0   4  229.94   91.01   1-0.64755 0.64845 0.30582 0.56260 0.69795-0.51281
 -10   0  -5  416.53  185.67   1-0.34618 0.34652-0.22375-0.64640-0.91109 0.67976
  10   0   5  145.43   45.13   1-0.64610 0.64706 0.27666 0.59244 0.71133-0.47990
 -10   0  -6  519.70  224.39   1-0.36616 0.36649-0.18940-0.68145-0.91107 0.63347
  10   0   6  174.60   72.14   1-0.64414 0.64515 0.24906 0.62072 0.72321-0.44550
 -10   1   6 9450.38 1402.28   1 0.05102-0.16926-0.71541-0.14732-0.69683 0.97449
 -10  -1   6 9188.54 1380.56   1 0.04032 0.07768-0.70612-0.15660-0.70693 0.98460
 -10   1   6 7741.38 1166.97   1 0.58755-0.70504-0.69688-0.16608-0.41126 0.68944
 -10  -1   6 5603.70  869.34   1 0.62714-0.50814-0.56937-0.29359-0.53150 0.80968
  10  -1  -6 6008.86 1031.66   1-0.69688 0.81528 0.38391 0.47702-0.60577 0.32825
  10   1  -6 7082.58 1055.51   1-0.87010 0.75223 0.22267 0.63867-0.43969 0.16197
 -10   1   514334.49 1709.64   1 0.00090-0.11832-0.66976-0.19342-0.74257 0.97395
 -10  -1   514551.41 1750.97   1 0.00085 0.11792-0.66971-0.19346-0.74261 0.97399
 -10   1   511773.87 1418.66   1 0.59808-0.71558-0.67025-0.19345-0.43938 0.67120
  10  -1  -5 9180.64 1391.86   1-0.67799 0.79636 0.39711 0.46453-0.61856 0.38730
  10   1  -511446.41 1480.76   1-0.86346 0.74557 0.23157 0.63019-0.44810 0.21672
 -10  -1   4 7381.61  934.85   1-0.03834 0.15710-0.63119-0.23268-0.77467 0.95977
 -10   1   4 7136.90  902.30   1-0.04844-0.06899-0.62082-0.24305-0.78245 0.96755
  10   1  -4 7964.47  982.99   1-0.63870 0.52060 0.49767 0.36533 0.58683-0.77168
 -10   1   4 6240.90  785.76   1 0.60756-0.72509-0.64279-0.22164-0.46655 0.65200
  10  -1  -4 3236.86  714.66   1-0.65413 0.77247 0.41296 0.44940-0.63369 0.44868
  10   1  -4 3425.58  775.70   1-0.85328 0.73539 0.24356 0.61890-0.46106 0.27596
 -10   1   3 1082.11  248.48   1-0.09611-0.02134-0.56944-0.29513-0.81639 0.95521
 -10  -1   3  860.30  208.64   1-0.07653 0.19528-0.59104-0.27353-0.80300 0.94182
  10   1  -3  619.55  161.09   1-0.64286 0.52482 0.46132 0.40235 0.61147-0.75011
 -10   1   3  681.27  176.89   1 0.61600-0.73354-0.61465-0.25053-0.49269 0.63178
  10  -1  -3  375.63  124.28   1-0.62416 0.74248 0.43167 0.43141-0.65120 0.51244
  10   1  -3  598.99  121.66   1-0.83923 0.72134 0.25931 0.60387-0.47794 0.33911
 -10  -1   2  840.45  208.96   1-0.11338 0.23211-0.54980-0.31546-0.82755 0.92011
 -10   1   2 1259.45  248.99   1-0.14079 0.02326-0.51667-0.34873-0.84452 0.93693
  10   1  -2 1252.17  224.87   1-0.64572 0.52774 0.42487 0.43947 0.63444-0.72687
 -10   1   2 1355.10  222.70   1 0.62338-0.74094-0.58597-0.27994-0.51771 0.61043
  10  -1  -2  530.84  141.16   1-0.58661 0.70490 0.45342 0.41038-0.67103 0.57852
  10   1  -2  615.83  121.97   1-0.82003 0.70213 0.27953 0.58436-0.49939 0.40684
 -10   1   1  134.84  102.81   1-0.18331 0.06584-0.46364-0.40249-0.86684 0.91305
 -10  -1   1  -54.18  114.99   1-0.14797 0.26661-0.50796-0.35818-0.84857 0.89477
  10   1  -1  106.10   84.69   1-0.64734 0.52943 0.38857 0.47644 0.65571-0.70192
 -10   1   1  753.48  160.77   1 0.62972-0.74729-0.55694-0.30971-0.54153 0.58789
  10  -1  -1  118.55   58.62   1-0.53949 0.65775 0.47831 0.38621-0.69293 0.64668
 -10  -1   0  343.19  184.15   1-0.18120 0.29988-0.46636-0.40050-0.86583 0.86583
 -10   1   0  507.63  184.32   1-0.22273 0.10531-0.41121-0.45565-0.88390 0.88390
  10   1   0  349.00  142.46   1-0.64782 0.52998 0.35267 0.51300 0.67523-0.67523
 -10   1  -1  351.12  135.08   1-0.25884 0.14147-0.36022-0.50737-0.89623 0.85003
 -10  -1  -1  666.08  224.43   1-0.21233 0.33107-0.42536-0.44223-0.87975 0.83355
  10  -1   1  158.77  110.15   1-0.63862 0.75678 0.49828 0.36806 0.58640-0.54019
  10   1   1   51.28   43.46   1-0.64795 0.53078 0.31775 0.54865 0.69223-0.64594
 -10  -1  -2 5827.97  754.34   1-0.24125 0.36004-0.38543-0.48290-0.89063 0.79823
 -10   1  -2 7220.43  909.36   1-0.29201 0.17422-0.31091-0.55713-0.90446 0.81193
  10  -1   2 7175.86  887.10   1-0.64205 0.76027 0.46942 0.39759 0.60613-0.51371
  10   1   2 4983.10  869.99   1-0.64650 0.52938 0.28344 0.58363 0.70830-0.61573
 -10  -1  -3 1336.75  280.82   1-0.26788 0.38672-0.34699-0.52207-0.89879 0.76018
 -10   1  -3  424.10  142.29   1-0.32143 0.20364-0.26460-0.60414-0.90921 0.77041
  10  -1   3  571.63  148.78   1-0.64460 0.76289 0.44108 0.42660 0.62444-0.48580
  10   1   3  825.86  177.85   1-0.64424 0.52718 0.25032 0.61742 0.72269-0.58383
 -10   1  -4 4235.96  560.08   1-0.34759 0.22979-0.22137-0.64808-0.91113 0.72607
 -10  -1  -4 5829.97  750.81   1-0.29270 0.41119-0.30983-0.55961-0.90461 0.71954
  10   1   4 3139.93  560.45   1-0.64133 0.52432 0.21863 0.64980 0.73545-0.55031
 -10  -1  -5 2071.03  385.46   1-0.31478 0.43326-0.27526-0.59489-0.90836 0.67704
 -10   1  -5 2063.80  406.42   1-0.37066 0.25286-0.18147-0.68868-0.91086 0.67953
  10  -1   5 1491.38  266.65   1-0.64739 0.76580 0.38692 0.48210 0.65663-0.42557
  10   1   5 1114.02  250.85   1-0.63789 0.52094 0.18856 0.68054 0.74667-0.51524
 -10  -1  -6  326.44  180.97   1-0.33463 0.45310-0.24303-0.62782-0.91046 0.63287
 -10   1  -6  454.79  192.78   1-0.39086 0.27305-0.14503-0.72582-0.90894 0.63135
  10  -1   6  212.84   89.19   1-0.64780 0.76628 0.36159 0.50810 0.67051-0.39323
  10   1   6  466.20  122.94   1-0.63409 0.51719 0.16033 0.70945 0.75644-0.47873
 -10  -2   4  721.17  263.26   1-0.01788 0.25475-0.65163-0.21224-0.75832 0.94342
  10   2  -4   66.77   63.01   1-0.64461 0.40854 0.44102 0.42198 0.62448-0.80933
 -10   2   4  165.52   84.58   1 0.57570-0.81147-0.72315-0.14129-0.38158 0.56704
  10  -2  -4   71.50   63.05   1-0.53452 0.77087 0.48079 0.38157-0.69506 0.51005
  10   2  -4   19.50   58.10   1-0.91855 0.68266 0.15428 0.70852-0.36393 0.17878
 -10  -2   3 1398.13  264.08   1-0.05265 0.28950-0.61645-0.24812-0.78562 0.92445
  10   2  -3 1180.92  214.79   1-0.64686 0.41085 0.40243 0.46124 0.64777-0.78641
 -10   2   3  580.53  157.22   1 0.58581-0.82160-0.70095-0.16423-0.40679 0.54589
  10  -2  -3 1009.41  222.68   1-0.49881 0.73536 0.49772 0.36539-0.70954 0.57072
  10   2  -3  693.86  136.93   1-0.91142 0.67554 0.16561 0.69791-0.37665 0.23779
 -10  -2   2   55.60  128.14   1-0.08638 0.32321-0.58026-0.28501-0.80983 0.90238
 -10   2   2  706.80  155.19   1-0.13586-0.09971-0.52259-0.34282-0.84168 0.93409
  10   2  -2  372.14  117.66   1-0.64779 0.41184 0.36404 0.50029 0.66920-0.76163
 -10   2   2  698.93  165.52   1 0.59506-0.83086-0.67824-0.18767-0.43113 0.52386
  10  -2  -2  407.82  131.14   1-0.45608 0.69266 0.51654 0.34730-0.72468 0.63213
 -10   2   1  432.52  162.22   1-0.18420-0.05132-0.46250-0.40364-0.86727 0.91347
 -10  -2   1  204.83  132.11   1-0.11882 0.35564-0.54350-0.32246-0.83095 0.87722
  10   2  -1  225.28   85.29   1-0.64817 0.41298 0.32632 0.53872 0.68802-0.73431
 -10   2   1  120.34   74.05   1 0.60345-0.83927-0.65516-0.21148-0.45452 0.50089
  10  -2  -1  244.69  104.55   1-0.40462 0.64123 0.53702 0.32756-0.74019 0.69391
 -10  -2   0  648.20  212.76   1-0.14917 0.38591-0.50650-0.36037-0.84923 0.84923
 -10   2   0  390.92  147.85   1-0.22843-0.00704-0.40336-0.46350-0.88606 0.88606
  10   2   0  496.68  137.94   1-0.64680 0.41166 0.28911 0.57660 0.70573-0.70573
 -10   2   0  533.86  150.29   1 0.61098-0.84682-0.63187-0.23551-0.47688 0.47688
 -10  -2  -1  375.77  197.55   1-0.17837 0.41516-0.46999-0.39761-0.86445 0.81825
 -10   2  -1  241.66  137.13   1-0.26836 0.03294-0.34628-0.52132-0.89892 0.85272
  10   2   1  103.71   49.34   1-0.64445 0.40936 0.25291 0.61348 0.72160-0.67531
 -10   2  -1  240.76  118.64   1 0.61767-0.85352-0.60854-0.25958-0.49814 0.45178
 -10  -2  -2  248.30  236.44   1-0.20577 0.44261-0.43417-0.43415-0.87701 0.78460
 -10   2  -2   63.30   90.96   1-0.30445 0.06852-0.29160-0.57644-0.90679 0.81426
  10   2   2  448.30  137.07   1-0.64126 0.40623 0.21796 0.64911 0.73571-0.64314
 -10   2  -2  356.24  134.90   1 0.62353-0.85939-0.58535-0.28351-0.51823 0.42550
 -10  -2  -3 1040.70  259.71   1-0.23127 0.46816-0.39942-0.46964-0.88711 0.74850
  10   2   3  613.32  167.23   1-0.63738 0.40240 0.18449 0.68326 0.74813-0.60927
 -10   2  -3  617.61  133.55   1 0.62859-0.86447-0.56252-0.30708-0.53706 0.39797
 -10  -2  -4 8430.80 1279.22   1-0.25482 0.49177-0.36605-0.50374-0.89502 0.71021
 -10   2  -4 7019.92 1068.58   1-0.36363 0.12769-0.19382-0.67563-0.91115 0.72609
  10   2   4 5881.06 1186.22   1-0.63297 0.39804 0.15269 0.71574 0.75896-0.57382
;
_shelx_hkl_checksum              33682
_shelx_shelxl_version_number     2014/7
_olex2_submission_special_instructions 'No special instructions were received'
loop_
_space_group_symop_operation_xyz
'x, y, z'
'-x, y+1/2, -z'
loop_
_atom_site_label
_atom_site_type_symbol
_atom_site_fract_x
_atom_site_fract_y
_atom_site_fract_z
_atom_site_U_iso_or_equiv
_atom_site_adp_type
_atom_site_occupancy
_atom_site_site_symmetry_order
_atom_site_calc_flag
_atom_site_refinement_flags_posn
_atom_site_refinement_flags_adp
_atom_site_refinement_flags_occupancy
_atom_site_disorder_assembly
_atom_site_disorder_group
C1 C 0.8164(6) 0.0750(10) 0.0095(3) 0.0326(14) Uani 0.686(7) 1 d . . P A 1
H1 H 0.8701 -0.0296 -0.0241 0.039 Uiso 0.686(7) 1 calc R . P A 1
C2 C 0.7774(6) 0.0178(11) 0.0911(3) 0.0342(14) Uani 0.686(7) 1 d . . P A 1
H2 H 0.8047 -0.1243 0.1101 0.041 Uiso 0.686(7) 1 calc R . P A 1
C3 C 0.6995(5) 0.1561(8) 0.1485(2) 0.0363(10) Uani 1 1 d . U . . .
H3 H 0.7584 0.0549 0.1158 0.044 Uiso 0.314(7) 1 calc R . P A 2
C4 C 0.6578(4) 0.1081(8) 0.2332(2) 0.0332(9) Uani 1 1 d . . . . .
H4 H 0.6905 -0.0279 0.2563 0.040 Uiso 1 1 calc R . . . .
C5 C 0.5708(5) 0.2492(7) 0.2856(3) 0.0339(9) Uani 1 1 d . . . . .
C6 C 0.5265(4) 0.2015(8) 0.3719(2) 0.0353(10) Uani 1 1 d . . . . .
H6 H 0.5596 0.0677 0.3968 0.042 Uiso 1 1 calc R . . . .
C7 C 0.4371(5) 0.3447(7) 0.4199(2) 0.0365(10) Uani 1 1 d . . . . .
H7 H 0.4082 0.3063 0.4762 0.044 Uiso 1 1 calc R . . . .
C8 C 0.3877(5) 0.5514(9) 0.3851(2) 0.0403(11) Uani 1 1 d . . . . .
H8 H 0.3269 0.6478 0.4190 0.048 Uiso 1 1 calc R . . . .
C9 C 0.4275(4) 0.6126(8) 0.3022(2) 0.0363(9) Uani 1 1 d . . . . .
H9 H 0.3950 0.7497 0.2800 0.044 Uiso 1 1 calc R . . . .
C10 C 0.5213(4) 0.4601(6) 0.2495(2) 0.0266(8) Uani 1 1 d . . . . .
C11 C 0.5624(5) 0.5130(8) 0.1627(2) 0.0369(10) Uani 1 1 d . . . . .
H11 H 0.5303 0.6488 0.1392 0.044 Uiso 1 1 calc R . . . .
C12 C 0.6502(5) 0.3643(8) 0.1122(2) 0.0362(9) Uani 1 1 d . U . . .
C13 C 0.6971(5) 0.4206(8) 0.0237(3) 0.0408(10) Uani 1 1 d . . . . .
H13 H 0.6681 0.5589 0.0012 0.049 Uiso 0.686(7) 1 calc R . P A 1
C14 C 0.7824(5) 0.2767(8) -0.0275(2) 0.0355(9) Uani 1 1 d . . . . .
H14 H 0.8110 0.1388 -0.0046 0.043 Uiso 0.314(7) 1 calc R . P A 2
C15 C 0.8306(5) 0.3294(7) -0.1165(2) 0.0325(9) Uani 1 1 d . U . . .
C16 C 0.7876(5) 0.5398(7) -0.1547(2) 0.0375(10) Uani 1 1 d . U . . .
H16 H 0.7264 0.6392 -0.1223 0.045 Uiso 0.686(7) 1 calc R . P A 1
C17 C 0.8332(4) 0.5999(7) -0.2371(2) 0.0334(9) Uani 1 1 d . . . . .
H17 H 0.8026 0.7370 -0.2601 0.040 Uiso 1 1 calc R . . . .
C18 C 0.9280(4) 0.4494(7) -0.2871(2) 0.0266(8) Uani 1 1 d . U . . .
C19 C 0.9782(4) 0.5066(7) -0.3728(2) 0.0351(10) Uani 1 1 d . . . . .
H19 H 0.9485 0.6428 -0.3970 0.042 Uiso 1 1 calc R . . . .
C20 C 1.0707(5) 0.3594(8) -0.4196(2) 0.0393(10) Uani 1 1 d . . . . .
H20 H 1.1027 0.3960 -0.4757 0.047 Uiso 1 1 calc R . . . .
C21 C 1.1171(4) 0.1538(8) -0.3832(2) 0.0340(9) Uani 1 1 d . . . . .
H21 H 1.1806 0.0557 -0.4150 0.041 Uiso 1 1 calc R . . . .
C22 C 1.0691(4) 0.0988(7) -0.3016(2) 0.0324(9) Uani 1 1 d . . . . .
H22 H 1.1012 -0.0372 -0.2783 0.039 Uiso 1 1 calc R . . . .
C23 C 0.9726(5) 0.2409(8) -0.2515(2) 0.0379(10) Uani 1 1 d . U . . .
C24 C 0.9222(4) 0.1877(7) -0.1667(2) 0.0361(10) Uani 1 1 d . . . . .
H24 H 0.9520 0.0506 -0.1435 0.043 Uiso 1 1 calc R . . . .
C2A C 0.7132(14) 0.672(2) -0.0958(7) 0.031(3) Uani 0.314(7) 1 d . U P A 2
H2A H 0.6874 0.8154 -0.1141 0.037 Uiso 0.314(7) 1 calc R . P A 2
C1A C 0.6709(16) 0.617(2) -0.0105(8) 0.038(3) Uani 0.314(7) 1 d . U P A 2
H1A H 0.6219 0.7253 0.0235 0.045 Uiso 0.314(7) 1 calc R . P A 2
loop_
_atom_site_aniso_label
_atom_site_aniso_U_11
_atom_site_aniso_U_22
_atom_site_aniso_U_33
_atom_site_aniso_U_23
_atom_site_aniso_U_13
_atom_site_aniso_U_12
C1 0.032(3) 0.035(3) 0.031(3) -0.001(2) 0.008(2) 0.020(2)
C2 0.034(3) 0.038(3) 0.031(3) 0.000(2) 0.010(2) 0.015(2)
C3 0.039(2) 0.038(2) 0.0321(18) 0.0074(18) 0.0032(15) -0.0011(19)
C4 0.0358(19) 0.039(2) 0.0246(16) 0.0029(17) 0.0062(14) 0.0004(17)
C5 0.0298(18) 0.034(2) 0.0377(19) -0.0021(18) -0.0022(15) -0.0071(17)
C6 0.035(2) 0.043(3) 0.0280(17) 0.0006(19) 0.0034(15) -0.0009(18)
C7 0.041(2) 0.047(3) 0.0216(16) -0.0049(18) 0.0056(15) -0.005(2)
C8 0.035(2) 0.052(3) 0.0342(19) -0.004(2) 0.0097(16) -0.002(2)
C9 0.0346(19) 0.042(2) 0.0325(18) -0.0009(19) -0.0044(15) 0.0023(19)
C10 0.0268(15) 0.0298(19) 0.0233(15) 0.0000(15) 0.0035(13) -0.0080(16)
C11 0.041(2) 0.043(3) 0.0268(17) 0.0023(19) 0.0054(15) 0.0022(19)
C12 0.0369(19) 0.041(2) 0.0310(17) -0.0092(18) 0.0117(15) -0.0071(18)
C13 0.053(2) 0.038(2) 0.032(2) 0.0064(18) -0.0001(17) -0.008(2)
C14 0.046(2) 0.036(2) 0.0246(17) 0.0018(16) 0.0099(15) -0.0017(18)
C15 0.0379(19) 0.033(2) 0.0264(16) 0.0045(16) 0.0021(14) -0.0068(17)
C16 0.040(2) 0.038(2) 0.0349(19) -0.0160(18) 0.0172(16) -0.0045(19)
C17 0.0344(19) 0.028(2) 0.0376(19) 0.0011(17) 0.0001(15) -0.0047(16)
C18 0.0260(16) 0.035(2) 0.0189(14) 0.0010(15) 0.0039(12) -0.0004(16)
C19 0.037(2) 0.038(2) 0.0308(18) 0.0055(19) 0.0017(15) -0.0042(18)
C20 0.038(2) 0.049(3) 0.0314(19) 0.005(2) 0.0072(15) -0.003(2)
C21 0.035(2) 0.038(2) 0.0293(18) -0.0079(18) 0.0050(14) 0.0010(19)
C22 0.0294(18) 0.033(2) 0.0353(19) 0.0005(18) 0.0065(14) -0.0029(17)
C23 0.0325(19) 0.051(3) 0.0298(18) -0.0042(19) 0.0013(15) -0.004(2)
C24 0.041(2) 0.036(2) 0.0318(18) 0.0019(19) 0.0016(15) -0.0096(19)
C2A 0.040(6) 0.025(5) 0.028(5) 0.007(4) 0.003(4) 0.002(5)
C1A 0.053(7) 0.029(6) 0.031(5) 0.014(5) -0.001(5) -0.001(5)
loop_
_atom_type_symbol
_atom_type_description
_atom_type_scat_dispersion_real
_atom_type_scat_dispersion_imag
_atom_type_scat_source
C C 0.0033 0.0016 'International Tables Vol C Tables 4.2.6.8 and 6.1.1.4'
H H 0.0000 0.0000 'International Tables Vol C Tables 4.2.6.8 and 6.1.1.4'
loop_
_geom_angle_atom_site_label_1
_geom_angle_atom_site_label_2
_geom_angle_atom_site_label_3
_geom_angle
_geom_angle_site_symmetry_1
_geom_angle_site_symmetry_3
C2 C1 H1 117.8 . .
C2 C1 C14 124.4(5) . .
C14 C1 H1 117.8 . .
C1 C2 H2 117.9 . .
C1 C2 C3 124.2(6) . .
C3 C2 H2 117.9 . .
C2 C3 C4 126.9(5) . .
C2 C3 C12 114.4(4) . .
C4 C3 H3 120.7 . .
C4 C3 C12 118.6(4) . .
C12 C3 H3 120.7 . .
C3 C4 H4 118.0 . .
C5 C4 C3 124.1(4) . .
C5 C4 H4 118.0 . .
C4 C5 C6 124.6(4) . .
C4 C5 C10 117.7(3) . .
C6 C5 C10 117.7(4) . .
C5 C6 H6 119.0 . .
C7 C6 C5 122.1(4) . .
C7 C6 H6 119.0 . .
C6 C7 H7 119.7 . .
C6 C7 C8 120.6(3) . .
C8 C7 H7 119.7 . .
C7 C8 H8 119.4 . .
C9 C8 C7 121.2(4) . .
C9 C8 H8 119.4 . .
C8 C9 H9 120.5 . .
C8 C9 C10 119.0(4) . .
C10 C9 H9 120.5 . .
C5 C10 C9 119.4(3) . .
C11 C10 C5 119.3(4) . .
C11 C10 C9 121.2(4) . .
C10 C11 H11 119.6 . .
C12 C11 C10 120.9(4) . .
C12 C11 H11 119.6 . .
C3 C12 C13 119.4(4) . .
C11 C12 C3 119.5(3) . .
C11 C12 C13 121.1(4) . .
C12 C13 H13 118.9 . .
C14 C13 C12 122.2(3) . .
C14 C13 H13 118.9 . .
C1A C13 C12 122.7(7) . .
C1A C13 C14 115.0(7) . .
C1 C14 C13 115.2(3) . .
C1 C14 C15 121.6(4) . .
C13 C14 H14 118.4 . .
C13 C14 C15 123.2(3) . .
C15 C14 H14 118.4 . .
C16 C15 C14 120.2(4) . .
C24 C15 C14 123.0(4) . .
C24 C15 C16 116.7(3) . .
C15 C16 H16 118.7 . .
C17 C16 C15 122.6(4) . .
C17 C16 H16 118.7 . .
C2A C16 C15 110.9(6) . .
C2A C16 C17 126.2(7) . .
C16 C17 H17 120.4 . .
C16 C17 C18 119.1(4) . .
C18 C17 H17 120.4 . .
C17 C18 C19 120.7(4) . .
C23 C18 C17 119.8(3) . .
C23 C18 C19 119.6(3) . .
C18 C19 H19 120.2 . .
C20 C19 C18 119.7(4) . .
C20 C19 H19 120.2 . .
C19 C20 H20 119.8 . .
C19 C20 C21 120.5(4) . .
C21 C20 H20 119.8 . .
C20 C21 H21 120.1 . .
C22 C21 C20 119.9(4) . .
C22 C21 H21 120.1 . .
C21 C22 H22 119.0 . .
C21 C22 C23 122.1(4) . .
C23 C22 H22 119.0 . .
C22 C23 C18 118.3(3) . .
C22 C23 C24 123.0(4) . .
C24 C23 C18 118.7(4) . .
C15 C24 C23 123.1(4) . .
C15 C24 H24 118.5 . .
C23 C24 H24 118.5 . .
C16 C2A H2A 116.4 . .
C16 C2A C1A 127.2(11) . .
C1A C2A H2A 116.4 . .
C13 C1A C2A 123.2(12) . .
C13 C1A H1A 118.4 . .
C2A C1A H1A 118.4 . .
loop_
_geom_bond_atom_site_label_1
_geom_bond_atom_site_label_2
_geom_bond_distance
_geom_bond_site_symmetry_2
C1 H1 0.9300 .
C1 C2 1.343(7) .
C1 C14 1.367(7) .
C2 H2 0.9300 .
C2 C3 1.376(7) .
C3 H3 0.9300 .
C3 C4 1.380(5) .
C3 C12 1.427(6) .
C4 H4 0.9300 .
C4 C5 1.377(5) .
C5 C6 1.409(5) .
C5 C10 1.441(5) .
C6 H6 0.9300 .
C6 C7 1.357(5) .
C7 H7 0.9300 .
C7 C8 1.411(6) .
C8 H8 0.9300 .
C8 C9 1.368(5) .
C9 H9 0.9300 .
C9 C10 1.452(5) .
C10 C11 1.415(5) .
C11 H11 0.9300 .
C11 C12 1.393(5) .
C12 C13 1.458(5) .
C13 H13 0.9300 .
C13 C14 1.370(4) .
C13 C1A 1.310(14) .
C14 H14 0.9300 .
C14 C15 1.464(5) .
C15 C16 1.437(6) .
C15 C24 1.380(5) .
C16 H16 0.9300 .
C16 C17 1.374(5) .
C16 C2A 1.358(12) .
C17 H17 0.9300 .
C17 C18 1.426(5) .
C18 C19 1.428(5) .
C18 C23 1.414(6) .
C19 H19 0.9300 .
C19 C20 1.377(6) .
C20 H20 0.9300 .
C20 C21 1.407(6) .
C21 H21 0.9300 .
C21 C22 1.360(5) .
C22 H22 0.9300 .
C22 C23 1.403(6) .
C23 C24 1.408(5) .
C24 H24 0.9300 .
C2A H2A 0.9300 .
C2A C1A 1.399(15) .
C1A H1A 0.9300 .
loop_
_geom_torsion_atom_site_label_1
_geom_torsion_atom_site_label_2
_geom_torsion_atom_site_label_3
_geom_torsion_atom_site_label_4
_geom_torsion
_geom_torsion_site_symmetry_1
_geom_torsion_site_symmetry_2
_geom_torsion_site_symmetry_3
_geom_torsion_site_symmetry_4
C1 C2 C3 C4 -179.2(5) . . . .
C1 C2 C3 C12 4.8(8) . . . .
C1 C14 C15 C16 177.6(4) . . . .
C1 C14 C15 C24 -4.5(6) . . . .
C2 C1 C14 C13 -2.6(7) . . . .
C2 C1 C14 C15 179.1(5) . . . .
C2 C3 C4 C5 -175.8(4) . . . .
C2 C3 C12 C11 176.5(4) . . . .
C2 C3 C12 C13 -5.4(6) . . . .
C3 C4 C5 C6 179.5(4) . . . .
C3 C4 C5 C10 -0.3(6) . . . .
C3 C12 C13 C14 2.4(6) . . . .
C3 C12 C13 C1A -172.7(8) . . . .
C4 C3 C12 C11 0.2(6) . . . .
C4 C3 C12 C13 178.3(4) . . . .
C4 C5 C6 C7 -178.3(4) . . . .
C4 C5 C10 C9 179.2(4) . . . .
C4 C5 C10 C11 0.4(5) . . . .
C5 C6 C7 C8 -1.4(6) . . . .
C5 C10 C11 C12 -0.2(5) . . . .
C6 C5 C10 C9 -0.7(5) . . . .
C6 C5 C10 C11 -179.4(4) . . . .
C6 C7 C8 C9 0.3(6) . . . .
C7 C8 C9 C10 0.5(6) . . . .
C8 C9 C10 C5 -0.3(5) . . . .
C8 C9 C10 C11 178.4(4) . . . .
C9 C10 C11 C12 -179.0(3) . . . .
C10 C5 C6 C7 1.5(6) . . . .
C10 C11 C12 C3 -0.1(6) . . . .
C10 C11 C12 C13 -178.1(4) . . . .
C11 C12 C13 C14 -179.5(4) . . . .
C11 C12 C13 C1A 5.3(9) . . . .
C12 C3 C4 C5 0.0(6) . . . .
C12 C13 C14 C1 1.7(5) . . . .
C12 C13 C14 C15 179.9(4) . . . .
C12 C13 C1A C2A -179.0(9) . . . .
C13 C14 C15 C16 -0.6(5) . . . .
C13 C14 C15 C24 177.3(4) . . . .
C14 C1 C2 C3 -0.7(9) . . . .
C14 C13 C1A C2A 5.5(15) . . . .
C14 C15 C16 C17 178.4(4) . . . .
C14 C15 C16 C2A 4.5(7) . . . .
C14 C15 C24 C23 -178.2(4) . . . .
C15 C16 C17 C18 -0.5(6) . . . .
C15 C16 C2A C1A -4.0(14) . . . .
C16 C15 C24 C23 -0.2(6) . . . .
C16 C17 C18 C19 -179.8(3) . . . .
C16 C17 C18 C23 0.5(5) . . . .
C16 C2A C1A C13 -1(2) . . . .
C17 C16 C2A C1A -177.5(9) . . . .
C17 C18 C19 C20 179.5(3) . . . .
C17 C18 C23 C22 -178.6(4) . . . .
C17 C18 C23 C24 -0.3(5) . . . .
C18 C19 C20 C21 -0.5(6) . . . .
C18 C23 C24 C15 0.2(6) . . . .
C19 C18 C23 C22 1.6(5) . . . .
C19 C18 C23 C24 179.9(4) . . . .
C19 C20 C21 C22 0.7(6) . . . .
C20 C21 C22 C23 0.4(6) . . . .
C21 C22 C23 C18 -1.5(5) . . . .
C21 C22 C23 C24 -179.7(4) . . . .
C22 C23 C24 C15 178.4(3) . . . .
C23 C18 C19 C20 -0.7(5) . . . .
C24 C15 C16 C17 0.3(6) . . . .
C24 C15 C16 C2A -173.5(6) . . . .
C2A C16 C17 C18 172.4(7) . . . .
C1A C13 C14 C15 -4.6(8) . . . .
