#------------------------------------------------------------------------------
#$Date: 2019-11-04 11:58:36 +0200 (Mon, 04 Nov 2019) $
#$Revision: 222668 $
#$URL: file:///home/coder/svn-repositories/cod/cif/7/23/49/7234914.cif $
#------------------------------------------------------------------------------
#
# This file is available in the Crystallography Open Database (COD),
# http://www.crystallography.net/
#
# All data on this site have been placed in the public domain by the
# contributors.
#
data_7234914
loop_
_publ_author_name
'Maciej Wojtas'
'Anna Gagor'
'Andrei L. Kholkin'
_publ_section_title
;
 Strong piezoelectricity in [H-beta-(2-pyridyl)-Ala-OH][BF4] and
 [H-beta-(2-pyridyl)-Ala-OH][ClO4] - new amino acid based hybrid crystals
;
_journal_name_full               'Journal of Materials Chemistry C'
_journal_page_first              7622
_journal_page_last               7631
_journal_paper_doi               10.1039/C6TC02206E
_journal_volume                  4
_journal_year                    2016
_chemical_absolute_configuration unk
_chemical_formula_sum            'C8 H11 B F4 N2 O2'
_chemical_formula_weight         254.00
_space_group_crystal_system      triclinic
_space_group_IT_number           1
_space_group_name_Hall           'P 1'
_space_group_name_H-M_alt        'P 1'
_atom_sites_solution_hydrogens   mixed
_cell_angle_alpha                87.637(4)
_cell_angle_beta                 80.166(3)
_cell_angle_gamma                89.255(3)
_cell_formula_units_Z            2
_cell_length_a                   5.0586(2)
_cell_length_b                   9.4971(4)
_cell_length_c                   11.2012(5)
_cell_measurement_reflns_used    2435
_cell_measurement_temperature    298(2)
_cell_measurement_theta_max      26.0240
_cell_measurement_theta_min      2.7650
_cell_volume                     529.76(4)
_computing_cell_refinement
;
CrysAlisPro, Agilent Technologies,
Version 1.171.37.35h (release 09-02-2015 CrysAlis171 .NET)
(compiled Feb  9 2015,16:26:32)
;
_computing_data_collection
;
CrysAlisPro, Agilent Technologies,
Version 1.171.37.35h (release 09-02-2015 CrysAlis171 .NET)
(compiled Feb  9 2015,16:26:32)
;
_computing_data_reduction
;
CrysAlisPro, Agilent Technologies,
Version 1.171.37.35h (release 09-02-2015 CrysAlis171 .NET)
(compiled Feb  9 2015,16:26:32)
;
_computing_structure_refinement  'SHELXL-2014/7 (Sheldrick, 2014)'
_diffrn_ambient_temperature      298(2)
_diffrn_detector                 'CCD plate'
_diffrn_detector_type            'Sapphire1, long nozzle'
_diffrn_measured_fraction_theta_full 1.000
_diffrn_measured_fraction_theta_max 1.000
_diffrn_measurement_device       'four-circle diffractometer'
_diffrn_measurement_device_type  'Xcalibur, Sapphire1, long nozzle'
_diffrn_radiation_monochromator  graphite
_diffrn_radiation_probe          x-ray
_diffrn_radiation_type           'Mo K\a'
_diffrn_radiation_wavelength     0.71073
_diffrn_reflns_av_R_equivalents  0.0184
_diffrn_reflns_av_unetI/netI     0.0362
_diffrn_reflns_Laue_measured_fraction_full 1.000
_diffrn_reflns_Laue_measured_fraction_max 1.000
_diffrn_reflns_limit_h_max       6
_diffrn_reflns_limit_h_min       -6
_diffrn_reflns_limit_k_max       11
_diffrn_reflns_limit_k_min       -11
_diffrn_reflns_limit_l_max       13
_diffrn_reflns_limit_l_min       -13
_diffrn_reflns_number            5256
_diffrn_reflns_point_group_measured_fraction_max 0.867
_diffrn_reflns_theta_full        25.681
_diffrn_reflns_theta_max         25.681
_diffrn_reflns_theta_min         2.146
_diffrn_source                   'Enhance (Mo) X-ray Source'
_exptl_absorpt_coefficient_mu    0.157
_exptl_absorpt_correction_T_max  1.00000
_exptl_absorpt_correction_T_min  0.98870
_exptl_absorpt_correction_type   multi-scan
_exptl_absorpt_process_details
;
CrysAlisPro, Agilent Technologies,
Version 1.171.37.35h (release 09-02-2015 CrysAlis171 .NET)
(compiled Feb  9 2015,16:26:32)
Empirical absorption correction using spherical harmonics,
 implemented in SCALE3 ABSPACK scaling algorithm.
;
_exptl_crystal_colour            colorless
_exptl_crystal_density_diffrn    1.592
_exptl_crystal_description       prism
_exptl_crystal_F_000             260
_exptl_crystal_size_max          0.25
_exptl_crystal_size_mid          0.21
_exptl_crystal_size_min          0.15
_refine_diff_density_max         0.308
_refine_diff_density_min         -0.270
_refine_diff_density_rms         0.044
_refine_ls_abs_structure_details
;
 Flack x determined using 1079 quotients [(I+)-(I-)]/[(I+)+(I-)]
 (Parsons, Flack and Wagner, Acta Cryst. B69 (2013) 249-259).
;
_refine_ls_abs_structure_Flack   0.1(4)
_refine_ls_extinction_expression Fc^*^=kFc[1+0.001xFc^2^\l^3^/sin(2\q)]^-1/4^
_refine_ls_extinction_method     'SHELXL-2014/7 (Sheldrick 2014'
_refine_ls_goodness_of_fit_ref   1.137
_refine_ls_hydrogen_treatment    mixed
_refine_ls_matrix_type           full
_refine_ls_number_parameters     354
_refine_ls_number_reflns         3472
_refine_ls_number_restraints     9
_refine_ls_restrained_S_all      1.151
_refine_ls_R_factor_all          0.0599
_refine_ls_R_factor_gt           0.0492
_refine_ls_shift/su_max          0.017
_refine_ls_shift/su_mean         0.004
_refine_ls_structure_factor_coef Fsqd
_refine_ls_weighting_details
'w=1/[\s^2^(Fo^2^)+(0.0470P)^2^+0.1700P] where P=(Fo^2^+2Fc^2^)/3'
_refine_ls_weighting_scheme      calc
_refine_ls_wR_factor_gt          0.1102
_refine_ls_wR_factor_ref         0.1192
_reflns_Friedel_coverage         0.734
_reflns_Friedel_fraction_full    0.734
_reflns_Friedel_fraction_max     0.734
_reflns_number_gt                3004
_reflns_number_total             3472
_reflns_threshold_expression     'I > 2\s(I)'
_cod_data_source_file            J-Mater-Chem-C-2016-4-7622.cif
_cod_data_source_block           rt
_cod_database_code               7234914
_shelx_space_group_comment
;
The symmetry employed for this shelxl refinement is uniquely defined
by the following loop, which should always be used as a source of
symmetry information in preference to the above space-group names.
They are only intended as comments.
;
_shelx_res_file
;

    nc.res created by SHELXL-2014/7


TITL nc in P1
CELL 0.71073   5.0586   9.4971  11.2012  87.637  80.166  89.255
ZERR    2.00   0.0002   0.0004   0.0005   0.004   0.003   0.003
LATT -1
SFAC C H B N O F
UNIT 16 22 2 4 4 8
damp 2000
L.S. 150
BOND
FMAP 2
PLAN 20
shel 10 0.82
acta 56
WGHT    0.047000    0.170000
EXTI    0.000000
FVAR       0.46607   0.50000
MOLE   1
MOLE   2
htab
bond $h

HTAB N28 O12
EQIV $1 x+1, y, z
HTAB N27 F2_$1
HTAB N27 F2A_$1

EQIV $2 x-1, y, z
HTAB N15 F22_$2
HTAB N15 F22A_$2
HTAB N15 F23
HTAB N15 O12
HTAB N15 O17_$2
EQIV $3 x, y-1, z
HTAB N14 F4_$3
EQIV $4 x+1, y-1, z
HTAB N14 F1A_$4
EQIV $5 x-1, y-1, z
HTAB N14 O17_$5
HTAB N14 O16_$3

N28   4   -0.120270    0.127791    0.726822    11.00000    0.04289    0.03158 =
         0.04697   -0.00581    0.00342   -0.00442
AFIX  43
H28   2   -0.021548    0.186208    0.678568    11.00000   -1.20000
AFIX   0
N27   4    1.110522    0.550757    0.182436    11.00000    0.05827    0.03684 =
         0.03613    0.00087   -0.00781   -0.00187
AFIX  43
H27   2    1.046682    0.635159    0.184743    11.00000   -1.20000
AFIX   0
C26   1    1.087040    0.316575    0.253400    11.00000    0.05412    0.02720 =
         0.03926   -0.00081   -0.00171    0.00202
AFIX  43
H26   2    1.002475    0.244590    0.304044    11.00000   -1.20000
AFIX   0
C25   1    1.317273    0.288472    0.171860    11.00000    0.05380    0.05136 =
         0.05391   -0.02172   -0.01020    0.00908
AFIX  43
H25   2    1.387662    0.197497    0.168164    11.00000   -1.20000
AFIX   0
C21   1    0.983940    0.450184    0.259484    11.00000    0.03595    0.03102 =
         0.02818   -0.00473   -0.00625   -0.00812
C20   1    0.734966    0.489205    0.346217    11.00000    0.02945    0.03498 =
         0.03641   -0.00704   -0.00811   -0.00021
AFIX  23
H20A  2    0.603923    0.414841    0.349657    11.00000   -1.20000
H20B  2    0.658767    0.574662    0.315367    11.00000   -1.20000
AFIX   0
C19   1    0.786619    0.512671    0.475197    11.00000    0.02152    0.02043 =
         0.03116   -0.00200   -0.00423   -0.00131
H19   2    0.910465    0.439769    0.500026    11.00000   -1.20000
C18   1    0.919509    0.656479    0.479993    11.00000    0.02894    0.02011 =
         0.02836    0.00003   -0.00766   -0.00269
O17   5    1.165078    0.661019    0.436591    11.00000    0.02123    0.03139 =
         0.04666   -0.00372    0.00089   -0.00520
O16   5    0.776572    0.756206    0.522205    11.00000    0.03388    0.02359 =
         0.04920   -0.00744   -0.00826    0.00063
N15   4    0.526320    0.508154    0.558933    11.00000    0.02756    0.02417 =
         0.03779   -0.00118   -0.00308   -0.00690
AFIX 137
H15A  2    0.551660    0.527683    0.633173    11.00000   -1.50000
H15B  2    0.456068    0.422554    0.560266    11.00000   -1.50000
H15C  2    0.414746    0.571508    0.533699    11.00000   -1.50000
AFIX   0
N14   4    0.392535   -0.077506    0.424399    11.00000    0.03083    0.02286 =
         0.04185   -0.00339   -0.00306   -0.00298
AFIX 137
H14A  2    0.420795   -0.035902    0.350711    11.00000   -1.50000
H14B  2    0.302564   -0.157135    0.422842    11.00000   -1.50000
H14C  2    0.549320   -0.096803    0.447514    11.00000   -1.50000
AFIX   0
O13   5    0.616783    0.165331    0.454024    11.00000    0.04299    0.03492 =
         0.10392   -0.01399    0.01694   -0.01540
O12   5    0.260631    0.254465    0.569964    11.00000    0.05101    0.02619 =
         0.07078   -0.01400    0.00715   -0.01178
C11   1   -0.208853   -0.100671    0.804257    11.00000    0.05765    0.03491 =
         0.04577    0.00966   -0.00230   -0.00261
AFIX  43
H11   2   -0.166437   -0.196241    0.805302    11.00000   -1.20000
AFIX   0
C10   1   -0.427166   -0.051654    0.882849    11.00000    0.05177    0.07773 =
         0.03582    0.01078    0.00846   -0.00173
AFIX  43
H10   2   -0.529944   -0.113662    0.937816    11.00000   -1.20000
AFIX   0
C9    1   -0.492570    0.089686    0.879649    11.00000    0.05390    0.06386 =
         0.03275   -0.01092    0.00450    0.00181
AFIX  43
H9    2   -0.642497    0.123824    0.930390    11.00000   -1.20000
AFIX   0
C8    1   -0.333941    0.177732    0.801086    11.00000    0.05129    0.04567 =
         0.04655   -0.01410    0.00011    0.00381
AFIX  43
H8    2   -0.373511    0.273603    0.798620    11.00000   -1.20000
AFIX   0
C6    1   -0.053914   -0.009298    0.724559    11.00000    0.03657    0.03708 =
         0.03057   -0.00278   -0.01073   -0.00158
C5    1    0.187029   -0.056092    0.637421    11.00000    0.03584    0.02504 =
         0.03742   -0.00158   -0.00625   -0.00207
AFIX  23
H5A   2    0.171106   -0.156305    0.626836    11.00000   -1.20000
H5B   2    0.344989   -0.042894    0.674011    11.00000   -1.20000
AFIX   0
C23   1    1.334304    0.523013    0.101822    11.00000    0.06232    0.07052 =
         0.03178    0.00115    0.00674   -0.02195
AFIX  43
H23   2    1.414141    0.594732    0.049408    11.00000   -1.20000
AFIX   0
C24   1    1.442263    0.393413    0.096613    11.00000    0.04162    0.08500 =
         0.04020   -0.01852   -0.00027    0.00072
AFIX  43
H24   2    1.599227    0.375179    0.042840    11.00000   -1.20000
AFIX   0
C4    1    0.233074    0.018636    0.511834    11.00000    0.02180    0.02256 =
         0.03234   -0.00403   -0.00186   -0.00215
H1    2    0.061954    0.046173    0.483057    11.00000    0.02876
C2    1    0.385913    0.157442    0.510181    11.00000    0.03391    0.02430 =
         0.04270   -0.00266   -0.00103   -0.00535
MOLE   2

dfix 1.39 b1 f4 b1 f1 b1 f2  b1 f1a b1 f2a b1 f3a
F4    6    0.034340    0.968883    0.258600    11.00000    0.16292    0.11870 =
         0.12296   -0.01946   -0.09205    0.01583

B1    3   -0.084577    0.927841    0.168436    11.00000    0.05997    0.04469 =
         0.05125   -0.00227   -0.00191   -0.00632
part 1
F1    6   -0.164490    1.032547    0.111799    10.50000    0.41406    0.06567 =
         0.19543    0.00623   -0.22589    0.04136
F2    6    0.084608    0.844415    0.099966    10.50000    0.20111    0.08825 =
         0.13780   -0.03066    0.09794    0.02999
part 2
F1A   6   -0.315194    1.006249    0.179848    10.50000    0.07821    0.14037 =
         0.07984    0.02312    0.00493    0.05929

F2A   6   -0.227035    0.809685    0.204717    11.00000    0.17314    0.10186 =
         0.20733    0.00360    0.01738   -0.04215
F3A   6    0.031512    0.950653    0.058336    10.50000    0.10319    0.32395 =
         0.04825    0.03126    0.01823   -0.07822
part 0

mole 3
F21   6    0.898870    0.565451    0.920850    11.00000    0.08109    0.10844 =
         0.05233   -0.01463    0.01653    0.00420
B2    3    1.060598    0.512103    0.824378    11.00000    0.04594    0.05031 =
         0.03955   -0.00796   -0.00778    0.00534
F22   6    1.249393    0.619255    0.784923    10.50000    0.08255    0.06975 =
         0.10267   -0.01388    0.03951   -0.02752
F22A  6    1.297884    0.570741    0.803023    10.50000    0.06045    0.24509 =
         0.06380   -0.04541    0.00933   -0.05541
F23   6    0.933180    0.506683    0.725751    11.00000    0.09087    0.12745 =
         0.05899   -0.00923   -0.03802    0.01552
F24   6    1.194631    0.392482    0.836972    10.50000    0.08778    0.05149 =
         0.11255   -0.01024   -0.04810    0.02779
F24A  6    1.067966    0.370735    0.874358    10.50000    0.13711    0.05979 =
         0.13300   -0.00844   -0.06601    0.01373

MOLE   4
HKLF 4

REM  nc in P1
REM R1 =  0.0492 for    3004 Fo > 4sig(Fo)  and  0.0599 for all    3472 data
REM    354 parameters refined using      9 restraints

END

WGHT      0.0574      0.2387

REM Instructions for potential hydrogen bonds
HTAB N28 O12
HTAB N27 F2_$1
HTAB N27 F2A_$1
HTAB C26 O13
HTAB C20 O13
HTAB C20 F2A_$1
HTAB N15 F22_$2
HTAB N15 F22A_$2
HTAB N15 F23
HTAB N15 O12
HTAB N15 O17_$2
HTAB N14 F4_$3
HTAB N14 F1A_$4
HTAB N14 O17_$5
HTAB N14 O16_$3
HTAB C11 F21_$5
EQIV $6 x-1, y-1, z+1
HTAB C9 F3A_$6
EQIV $7 x-2, y, z
HTAB C8 F24_$7
HTAB C5 O16_$5
EQIV $8 x+1, y, z-1
HTAB C24 F21_$8
HTAB C4 O13_$2

REM Highest difference peak  0.308,  deepest hole -0.270,  1-sigma level  0.044
Q1    1  -0.3332  0.8988  0.1897  11.00000  0.05    0.31
Q2    1  -0.0433  0.8593  0.2689  11.00000  0.05    0.27
Q3    1  -0.1143  0.7907  0.1291  11.00000  0.05    0.25
Q4    1  -0.2155  1.0183  0.2596  11.00000  0.05    0.23
Q5    1   0.1753  0.9657  0.1713  11.00000  0.05    0.22
Q6    1   0.1364  0.8730  0.1980  11.00000  0.05    0.22
Q7    1  -0.2552  1.0250  0.1586  11.00000  0.05    0.19
Q8    1   0.4927  0.1794  0.4068  11.00000  0.05    0.18
Q9    1   0.1959  0.8187  0.1217  11.00000  0.05    0.18
Q10   1   0.8041  0.5669  0.7987  11.00000  0.05    0.17
Q11   1   1.0665  0.6424  0.8769  11.00000  0.05    0.16
Q12   1   0.7529  0.6194  0.8566  11.00000  0.05    0.16
Q13   1  -0.1086  0.9661  0.0707  11.00000  0.05    0.16
Q14   1   0.8932  0.3032  0.1663  11.00000  0.05    0.15
Q15   1   0.0382  1.0415  0.1188  11.00000  0.05    0.15
Q16   1   0.4303  0.2520  0.5980  11.00000  0.05    0.15
Q17   1   0.7737  0.4908  0.7957  11.00000  0.05    0.15
Q18   1   1.0079  0.5997  0.7220  11.00000  0.05    0.14
Q19   1   0.0118  0.8816  0.0633  11.00000  0.05    0.14
Q20   1   0.9616  0.4805  0.9362  11.00000  0.05    0.14
;
_shelx_res_checksum              29206
_shelx_hkl_file
;
   0   0   2   24.97    0.56
   0   0   3  867.56    3.98
   0   0   4   36.64    0.96
   0   0  -4   37.01    0.67
   0   0  -5   33.93    0.72
   0   0   5   33.05    1.02
   0   0  -6   11.29    0.46
   0   0  -6   11.56    0.70
   0   0  -7    1.28    0.32
   0   0  -8    2.80    0.47
   0   0  -9    2.37    0.46
   0   0 -10    0.71    0.40
   0   0 -11   22.71    1.38
   0   0 -12    2.28    0.56
   0   0 -13   14.83    1.26
   0   0  14    1.50    0.49
   0   1 -13    0.83    0.38
   0   1 -12    4.85    0.73
   0   1 -11   11.59    1.01
   0   1 -10    1.16    0.40
   0  -1   9    6.83    0.70
   0  -1   8    4.12    0.55
   0  -1   7    2.86    0.42
   0   1  -6   14.37    0.78
   0   1  -6   13.98    0.37
   0  -1   6   15.28    0.80
   0   1  -5   38.95    0.62
   0   1  -5   36.04    1.11
   0  -1   5   36.38    1.10
   0   1  -4   44.55    1.11
   0  -1   4   44.52    1.10
   0   1  -4   44.54    0.63
   0  -1   3    8.93    0.45
   0   1  -3    9.49    0.30
   0   1  -3    9.42    0.47
   0  -1   2   82.90    1.10
   0   1  -2   84.62    1.11
   0  -1   1   19.98    0.45
   0  -1   0    0.05    0.04
   0  -1  -1   13.10    0.28
   0   1   2    4.44    0.20
   0   1   2    4.82    0.26
   0  -1  -2    4.59    0.28
   0   1   3   31.52    0.75
   0  -1  -3   32.06    0.61
   0  -1  -3   30.37    0.79
   0  -1  -4   56.89    0.90
   0  -1  -4   58.02    1.23
   0  -1  -5   10.11    0.59
   0  -1  -5   10.92    0.44
   0  -1  -6    2.44    0.35
   0  -1  -6    2.65    0.25
   0   1   6    2.10    0.13
   0  -1  -7   21.75    1.03
   0  -1  -8   45.26    1.58
   0  -1  -9   21.00    1.17
   0  -1 -10    4.54    0.64
   0   1  11   12.37    0.98
   0  -1 -11   10.66    0.97
   0  -1 -12    1.46    0.48
   0   1  12    1.52    0.42
   0  -1 -13    4.11    0.75
   0   1  13    4.68    0.69
   0   1  14    2.11    0.49
   0   2 -13    5.28    0.82
   0   2 -12    0.16    0.34
   0  -2  11   12.61    1.05
   0  -2  10    0.94    0.38
   0  -2   9    0.91    0.38
   0   2  -8    0.58    0.30
   0  -2   8    0.37    0.26
   0   2  -7   15.87    0.95
   0  -2   7   17.72    0.97
   0   2  -6    7.39    0.35
   0  -2   6    7.33    0.58
   0   2  -6    7.40    0.61
   0  -2   5   93.99    1.84
   0   2  -5   97.85    1.26
   0   2  -5   93.09    1.86
   0   2  -4  119.76    1.39
   0   2  -4  110.55    1.85
   0  -2   4  113.24    1.83
   0   2  -3   99.78    1.58
   0  -2   3  103.59    1.58
   0  -2   3   99.39    1.54
   0   2  -2  284.01    2.35
   0  -2   2  273.49    2.34
   0  -2   2  272.72    2.32
   0  -2   1   45.61    0.86
   0  -2   1   45.14    0.87
   0   2  -1   47.31    0.87
   0   2  -1   48.77    0.90
   0   2   0  609.01    2.84
   0  -2   0  599.32    2.95
   0   2   0  607.62    2.83
   0  -2   0  603.08    2.95
   0   2   1  465.34    2.50
   0  -2  -1  465.08    2.62
   0  -2  -1  460.79    2.67
   0  -2  -2   49.50    0.89
   0   2   2   47.78    0.89
   0  -2  -2   45.93    0.74
   0  -2  -2   46.84    0.95
   0   2   3   17.74    0.50
   0  -2  -3   18.25    0.57
   0  -2  -3   16.80    0.65
   0   2   3   16.86    0.59
   0  -2  -4   37.82    1.06
   0   2   4   42.58    0.81
   0  -2  -4   39.85    0.88
   0   2   4   38.93    0.99
   0  -2  -5   11.96    0.52
   0  -2  -5   11.99    0.67
   0   2   5   12.68    0.49
   0   2   5   11.70    0.61
   0   2   6    8.44    0.58
   0  -2  -6    8.32    0.46
   0  -2  -6    7.80    0.61
   0   2   7   18.50    0.91
   0  -2  -7   17.95    0.97
   0   2   8   10.99    0.77
   0  -2  -8   10.15    0.80
   0   2   9    8.25    0.72
   0  -2  -9    7.42    0.77
   0   2  10    4.21    0.58
   0  -2 -10    4.09    0.63
   0  -2 -11    3.22    0.60
   0   2  11    3.27    0.56
   0  -2 -12    2.53    0.56
   0   2  12    2.43    0.51
   0   2  13    2.61    0.52
   0  -2 -13    2.75    0.58
   0   2  14   -0.59    0.43
   0   3 -13    0.34    0.34
   0  -3  12    0.89    0.43
   0  -3  11    1.24    0.43
   0  -3  10    0.77    0.38
   0   3  -9    4.93    0.67
   0  -3   9    5.04    0.64
   0  -3   8    6.72    0.71
   0   3  -8    5.32    0.63
   0  -3   7    2.60    0.45
   0   3  -7    2.07    0.41
   0  -3   6   11.88    0.77
   0   3  -6   11.01    0.76
   0   3  -6   11.45    0.53
   0   3  -5  134.12    1.79
   0   3  -5  137.47    2.38
   0  -3   5  143.73    2.37
   0  -3   5  133.49    2.31
   0  -3   4   33.70    1.09
   0   3  -4   31.34    1.07
   0  -3   4   30.62    1.03
   0   3  -3   11.12    0.60
   0  -3   3   10.60    0.58
   0  -3   3   10.50    0.58
   0   3  -2   10.54    0.54
   0  -3   2    9.80    0.54
   0  -3   2    9.82    0.52
   0   3  -1   37.07    0.94
   0  -3   1   34.65    0.90
   0  -3   1   33.01    0.88
   0   3  -1   35.89    0.90
   0  -3   1   34.81    0.91
   0   3   0  198.50    2.01
   0  -3   0  187.67    2.08
   0   3   0  198.78    2.00
   0  -3   0  190.93    2.07
   0   3   1   22.65    0.69
   0  -3  -1   20.52    0.70
   0  -3  -1   21.29    0.71
   0   3   2    8.72    0.45
   0  -3  -2    7.34    0.45
   0  -3  -2    8.33    0.46
   0  -3  -3    5.59    0.39
   0  -3  -3    5.27    0.31
   0  -3  -3    5.42    0.42
   0   3   3    5.28    0.38
   0  -3  -4   23.10    0.78
   0  -3  -4   21.92    0.87
   0   3   4   22.45    0.81
   0   3   5    5.57    0.45
   0   3   5    5.67    0.36
   0  -3  -5    5.53    0.42
   0  -3  -5    4.83    0.47
   0  -3  -6   25.47    0.89
   0   3   6   26.20    0.78
   0  -3  -6   25.23    1.09
   0   3   6   25.71    1.01
   0   3   7   19.01    0.95
   0  -3  -7   18.90    0.79
   0  -3  -7   18.32    1.00
   0   3   8   85.68    2.10
   0  -3  -8   83.32    2.24
   0   3   9    3.14    0.50
   0  -3  -9    3.41    0.56
   0   3  10    3.16    0.52
   0  -3 -10    2.64    0.52
   0   3  11    6.03    0.72
   0  -3 -11    4.62    0.69
   0  -3 -12    0.23    0.33
   0   3  12    0.41    0.28
   0   3  13    1.92    0.47
   0  -3 -13    1.37    0.51
   0   3  14    0.15    0.28
   0  -4  12    0.49    0.46
   0  -4  11    5.57    0.75
   0   4 -11    4.30    0.71
   0  -4  10    2.37    0.52
   0   4 -10    1.71    0.48
   0   4  -9    0.27    0.28
   0  -4   9    1.08    0.42
   0   4  -8    0.20    0.27
   0  -4   8    0.69    0.38
   0  -4   7    0.70    0.34
   0   4  -7    0.73    0.35
   0  -4   6   30.23    1.26
   0   4  -6   28.37    1.24
   0  -4   5   78.42    1.89
   0   4  -5   80.26    1.94
   0  -4   4   21.11    0.94
   0   4  -4   21.15    0.95
   0  -4   4   21.90    0.96
   0   4  -3   42.50    1.26
   0  -4   3   42.80    1.25
   0  -4   3   41.24    1.23
   0   4  -2  176.86    2.40
   0  -4   2  169.51    2.36
   0  -4   2  173.29    2.38
   0  -4   1   47.16    1.21
   0  -4   1   47.46    1.21
   0  -4   1   46.19    1.18
   0   4  -1   48.59    1.20
   0   4  -1   51.36    1.25
   0   4   0   39.21    1.05
   0   4   0   38.35    1.03
   0  -4   0   35.88    1.05
   0  -4   0   37.15    1.07
   0   4   1  268.07    2.60
   0  -4  -1  267.58    2.85
   0   4   1  264.17    2.70
   0  -4  -1  260.34    2.80
   0   4   2   88.58    1.58
   0  -4  -2   81.87    1.62
   0  -4  -2   85.93    1.64
   0   4   3  140.49    2.06
   0  -4  -3  134.71    1.78
   0  -4  -3  141.01    2.12
   0  -4  -3  135.78    2.18
   0  -4  -4   13.04    0.56
   0   4   4   14.19    0.71
   0  -4  -4   12.50    0.72
   0  -4  -4   14.07    0.70
   0   4   5   86.78    1.81
   0  -4  -5   89.37    1.75
   0  -4  -5   83.64    1.93
   0  -4  -6   25.35    1.14
   0   4   6   26.50    1.08
   0  -4  -6   25.16    0.97
   0   4   7    8.54    0.67
   0  -4  -7    8.42    0.74
   0  -4  -7    8.89    0.61
   0  -4  -8    0.56    0.30
   0   4   8    0.78    0.29
   0   4   9    1.60    0.37
   0  -4  -9    1.98    0.47
   0   4  10    1.58    0.39
   0  -4 -10    2.31    0.51
   0  -4 -11    0.58    0.37
   0   4  11    0.05    0.27
   0  -4 -12    0.00    0.32
   0   4  12    0.08    0.28
   0   4  13    0.88    0.36
   0  -4 -13    1.12    0.41
   0  -5  12    0.56    0.38
   0   5 -11    1.72    0.52
   0  -5  11    1.11    0.41
   0  -5  10    1.59    0.43
   0   5 -10    0.59    0.33
   0   5  -9    2.80    0.55
   0  -5   9    4.29    0.66
   0   5  -8    1.28    0.45
   0  -5   8    1.14    0.38
   0  -5   7    7.69    0.76
   0   5  -7    8.40    0.80
   0   5  -6    2.31    0.45
   0  -5   6    1.93    0.43
   0   5  -5    4.23    0.54
   0  -5   5    3.60    0.49
   0   5  -4    8.29    0.68
   0  -5   4    9.49    0.69
   0  -5   3    8.80    0.64
   0   5  -3    8.41    0.64
   0  -5   2    0.39    0.22
   0   5  -2    0.28    0.19
   0  -5   2    0.26    0.18
   0   5  -1   61.43    1.52
   0  -5   1   56.87    1.49
   0  -5   1   60.19    1.52
   0   5  -1   59.92    1.50
   0   5   0   57.53    1.44
   0   5   0   58.72    1.43
   0  -5   0   56.75    1.49
   0  -5   0   55.57    1.46
   0   5   1    0.31    0.17
   0  -5  -1    0.50    0.10
   0   5   1    0.32    0.17
   0  -5  -1    0.52    0.22
   0  -5  -1    0.42    0.26
   0   5   2    9.54    0.60
   0   5   2    8.51    0.53
   0  -5  -2    8.22    0.60
   0  -5  -2    9.28    0.63
   0   5   3    6.11    0.50
   0  -5  -3    6.00    0.52
   0  -5  -3    6.70    0.56
   0  -5  -4    2.77    0.41
   0  -5  -4    2.52    0.41
   0  -5  -4    2.49    0.29
   0   5   4    2.75    0.36
   0  -5  -5    7.62    0.49
   0  -5  -5    7.70    0.67
   0  -5  -5    8.24    0.62
   0   5   5    8.86    0.64
   0   5   6    6.87    0.61
   0  -5  -6    7.15    0.69
   0  -5  -6    7.78    0.63
   0  -5  -7    8.50    0.66
   0  -5  -7    8.99    0.79
   0   5   7    8.49    0.70
   0   5   8    5.48    0.61
   0  -5  -8    6.20    0.72
   0   5   9    4.35    0.58
   0  -5  -9    3.72    0.60
   0  -5 -10   12.55    1.06
   0   5  10   14.11    1.04
   0   5  11    3.09    0.55
   0  -5 -11    2.80    0.58
   0   5  12    1.36    0.45
   0  -5 -12    1.22    0.49
   0   6 -11    2.70    0.61
   0  -6  11    2.07    0.57
   0   6 -10    1.58    0.48
   0  -6  10    2.69    0.59
   0   6  -9    1.83    0.55
   0  -6   9    1.45    0.42
   0   6  -8    1.35    0.48
   0  -6   8    0.66    0.36
   0   6  -7    2.93    0.55
   0  -6   7    2.82    0.51
   0   6  -6    5.95    0.71
   0  -6   6    6.10    0.67
   0  -6   5    9.89    0.81
   0   6  -5   10.39    0.85
   0   6  -4   39.02    1.49
   0  -6   4   38.86    1.49
   0  -6   3   46.65    1.56
   0   6  -3   48.30    1.59
   0  -6   2   12.73    0.82
   0   6  -2   13.87    0.83
   0  -6   1   29.82    1.20
   0   6  -1   28.80    1.15
   0  -6   0   26.42    1.12
   0   6   0   28.66    1.14
   0  -6   0   28.61    1.18
   0  -6  -1   38.36    1.36
   0  -6  -1   42.04    1.44
   0   6   1   39.09    1.26
   0   6   1   40.23    1.32
   0  -6  -2   14.56    0.87
   0  -6  -2   14.14    0.85
   0   6   2   13.82    0.80
   0   6   2   12.78    0.71
   0  -6  -3   12.85    0.83
   0   6   3   13.10    0.79
   0  -6  -3   13.10    0.83
   0   6   3   12.14    0.68
   0  -6  -4   34.36    1.33
   0  -6  -4   30.48    1.06
   0  -6  -4   32.53    1.33
   0   6   4   33.13    1.25
   0  -6  -5    5.53    0.60
   0   6   5    4.22    0.50
   0  -6  -5    4.61    0.59
   0  -6  -6    2.67    0.49
   0   6   6    2.14    0.38
   0  -6  -6    2.47    0.45
   0  -6  -7    1.97    0.41
   0  -6  -7    2.18    0.49
   0   6   7    1.88    0.39
   0  -6  -8   35.63    1.66
   0   6   8   35.33    1.51
   0   6   9    6.64    0.71
   0  -6  -9    6.10    0.76
   0   6  10    4.83    0.66
   0  -6 -10    5.62    0.77
   0   6  11    0.35    0.27
   0  -6 -11    0.47    0.34
   0  -6 -12    1.21    0.53
   0   7 -10    2.02    0.59
   0  -7  10    2.03    0.57
   0  -7   9    2.70    0.58
   0   7  -9    1.26    0.46
   0   7  -8    6.48    0.83
   0  -7   8    6.02    0.79
   0  -7   7    7.49    0.81
   0   7  -7    7.39    0.83
   0  -7   6    1.65    0.44
   0   7  -6    1.27    0.42
   0  -7   5    8.54    0.81
   0   7  -5    8.29    0.81
   0  -7   4   30.02    1.41
   0   7  -4   28.60    1.38
   0  -7   3    1.99    0.45
   0   7  -3    1.98    0.43
   0   7  -2   14.95    0.94
   0  -7   2   15.23    0.97
   0  -7   1   14.88    0.94
   0   7  -1   14.83    0.92
   0  -7   0    9.29    0.75
   0   7   0    9.95    0.75
   0  -7   0    9.44    0.77
   0   7   1    1.17    0.33
   0  -7  -1    1.39    0.37
   0  -7  -1    1.06    0.34
   0  -7  -2    6.65    0.66
   0  -7  -2    8.08    0.75
   0   7   2    7.31    0.65
   0  -7  -3    4.66    0.58
   0  -7  -3    4.51    0.59
   0   7   3    4.73    0.54
   0  -7  -4   12.23    0.90
   0   7   4   12.88    0.86
   0  -7  -4   12.25    0.90
   0   7   5    4.51    0.54
   0  -7  -5    4.15    0.59
   0  -7  -5    4.45    0.58
   0   7   6    7.28    0.71
   0  -7  -6    9.12    0.80
   0  -7  -6    6.86    0.74
   0  -7  -7   11.09    0.96
   0  -7  -7   11.37    0.89
   0   7   7   10.00    0.83
   0   7   8    5.84    0.68
   0  -7  -8    6.32    0.78
   0  -7  -9    9.53    0.97
   0   7   9   10.17    0.90
   0  -7 -10    0.38    0.38
   0   7  10    0.27    0.29
   0  -7 -11    6.60    0.88
   0   8  -9    0.21    0.40
   0  -8   9    0.63    0.42
   0   8  -8   -0.29    0.32
   0  -8   8    0.17    0.31
   0  -8   7    0.66    0.40
   0   8  -7    0.23    0.31
   0   8  -6    1.06    0.46
   0  -8   6    0.58    0.36
   0   8  -5   16.06    1.14
   0  -8   5   14.52    1.09
   0  -8   4    3.22    0.56
   0   8  -4    3.77    0.59
   0   8  -3   47.35    1.81
   0  -8   3   46.65    1.81
   0  -8   2   12.99    0.98
   0   8  -2   14.17    1.00
   0  -8   1    2.92    0.52
   0   8  -1    2.71    0.50
   0  -8   0   37.51    1.58
   0   8   0   38.76    1.54
   0  -8  -1   68.31    2.11
   0   8   1   68.99    2.05
   0  -8  -1   72.28    2.21
   0  -8  -2   21.53    1.23
   0   8   2   21.46    1.15
   0  -8  -2   20.22    1.19
   0  -8  -3   38.65    1.65
   0   8   3   38.70    1.54
   0  -8  -3   38.78    1.64
   0  -8  -4   38.02    1.65
   0  -8  -4   39.61    1.67
   0   8   4   40.52    1.60
   0  -8  -5   13.03    1.02
   0   8   5   13.65    0.96
   0  -8  -5   13.59    1.01
   0  -8  -6   22.05    1.33
   0  -8  -6   23.66    1.32
   0   8   6   24.89    1.31
   0   8   7    0.59    0.33
   0  -8  -7    0.92    0.39
   0  -8  -7    1.23    0.44
   0   8   8   18.24    1.21
   0  -8  -8   18.52    1.33
   0  -8  -9    0.98    0.46
   0  -8 -10    2.64    0.62
   0   9  -8    0.19    0.35
   0  -9   8    1.05    0.42
   0   9  -7    0.33    0.42
   0  -9   7   -0.07    0.35
   0   9  -6    0.70    0.44
   0  -9   6    0.10    0.30
   0  -9   5    2.54    0.55
   0   9  -5    2.15    0.51
   0  -9   4    2.69    0.57
   0   9  -4    3.06    0.56
   0  -9   3    0.57    0.40
   0   9  -3    0.92    0.39
   0   9  -2    1.83    0.45
   0  -9   2    0.91    0.39
   0  -9   1    2.59    0.51
   0   9  -1    2.08    0.47
   0   9   0    2.28    0.47
   0  -9   0    2.03    0.48
   0  -9  -1    1.04    0.41
   0  -9  -1    0.44    0.37
   0   9   1    0.94    0.36
   0   9   2    2.23    0.46
   0  -9  -2    2.31    0.51
   0  -9  -2    1.35    0.42
   0   9   3    0.37    0.32
   0  -9  -3    0.64    0.38
   0  -9  -3    0.73    0.41
   0  -9  -4   14.25    1.09
   0  -9  -4   13.33    1.09
   0   9   4   14.45    1.04
   0  -9  -5    1.36    0.43
   0  -9  -5    1.66    0.48
   0   9   5    1.16    0.40
   0  -9  -6    4.34    0.70
   0  -9  -6    3.79    0.64
   0   9   6    3.23    0.52
   0  -9  -7    0.05    0.28
   0   9   7    0.02    0.27
   0  -9  -7    0.49    0.41
   0  -9  -8    0.69    0.40
   0  -9  -9    0.40    0.35
   0  10  -7    0.73    0.35
   0  10  -6    1.03    0.48
   0 -10   6    0.25    0.35
   0  10  -5    1.82    0.51
   0 -10   5    1.84    0.55
   0  10  -4    1.38    0.47
   0 -10   4    1.20    0.49
   0 -10   3    1.08    0.44
   0  10  -3    1.97    0.53
   0  10  -2    0.78    0.41
   0 -10   2    0.07    0.32
   0  10  -1    4.76    0.67
   0 -10   1    5.83    0.77
   0  10   0    1.38    0.43
   0 -10   0    1.03    0.44
   0 -10  -1    2.58    0.54
   0  10   1    2.96    0.54
   0 -10  -2   13.46    1.14
   0  10   2   13.37    1.05
   0 -10  -2   13.87    1.13
   0 -10  -3    0.58    0.43
   0 -10  -3    1.36    0.47
   0  10   3    0.97    0.35
   0  10   4    1.17    0.41
   0 -10  -4    0.66    0.41
   0 -10  -4    1.34    0.47
   0 -10  -5    0.71    0.39
   0  10   5    0.51    0.30
   0 -10  -5    0.52    0.37
   0 -10  -6   -0.23    0.40
   0 -10  -6    0.53    0.37
   0 -10  -7    0.16    0.33
   0 -10  -7    0.38    0.37
   0  11  -5    0.48    0.33
   0  11  -4    1.10    0.48
   0 -11   4    2.20    0.57
   0  11  -3    0.76    0.45
   0 -11   3    0.47    0.44
   0  11  -2    1.34    0.49
   0 -11   2    1.95    0.54
   0  11  -1    3.17    0.61
   0 -11   1    2.67    0.63
   0  11   0    0.97    0.40
   0 -11   0    0.77    0.44
   0 -11  -1   -0.16    0.35
   0  11   1    0.81    0.38
   0 -11  -2   -0.06    0.36
   0  11   2   -0.14    0.32
   0 -11  -3    2.30    0.59
   0  11   3    2.67    0.58
   0 -11  -4    4.94    0.82
   0  11   4    2.88    0.54
   0 -11  -4    2.93    0.67
   0 -11  -5    0.66    0.37
   0 -11  -5    0.37    0.42
   0 -11  -6    0.59    0.38
   0 -11  -7   -0.87    0.46
   0  12  -1    9.91    1.06
   0  12   0    5.27    0.77
   0  12   1    4.94    0.74
   0  12   2    4.27    0.72
   1 -11  -5    2.33    0.67
   1 -11  -5    1.52    0.51
   1 -11  -4    0.55    0.50
   1 -11  -4    1.06    0.46
   1 -11  -3    0.39    0.36
   1 -11  -3    0.81    0.49
   1 -11  -2    0.10    0.33
   1 -11  -2   -0.39    0.52
   1 -11  -1   -0.79    0.52
   1 -11  -1    0.17    0.31
   1 -11   0    0.74    0.42
   1 -11   0    0.48    0.39
   1 -11   1    0.63    0.37
   1 -11   2   -0.15    0.32
  -1  11  -3    0.51    0.30
   1 -11   3    1.77    0.52
  -1  11  -4    1.58    0.48
   1 -11   4    1.46    0.52
   1 -11   5    1.99    0.54
  -1  11  -5    2.34    0.57
   1 -10  -8    1.65    0.51
   1 -10  -7    4.46    0.74
   1 -10  -7    5.67    0.82
   1 -10  -6    1.06    0.49
   1 -10  -6    0.47    0.43
   1 -10  -5    1.37    0.50
   1 -10  -5    0.46    0.36
   1 -10  -4    0.62    0.41
   1 -10  -4    0.64    0.42
   1 -10  -3    1.46    0.51
   1 -10  -3    0.87    0.43
   1 -10  -2    5.95    0.84
   1 -10  -2    6.01    0.78
   1 -10  -1    2.07    0.57
   1 -10  -1    1.79    0.47
   1 -10   0    2.61    0.53
   1 -10   0    1.57    0.43
   1 -10   1    1.48    0.45
  -1  10  -1    0.29    0.27
   1 -10   1    0.54    0.42
  -1  10  -2    0.81    0.43
   1 -10   2    0.25    0.31
  -1  10  -3    1.04    0.37
   1 -10   3    1.08    0.48
  -1  10  -4    1.69    0.45
   1 -10   4    0.97    0.44
  -1  10  -5    3.05    0.63
   1 -10   5    1.94    0.55
  -1  10  -6    1.05    0.44
   1 -10   6    0.39    0.41
  -1  10  -7    0.93    0.46
   1 -10   7    0.26    0.32
   1  -9  -8    1.58    0.54
   1  -9  -8    1.00    0.46
   1  -9  -7    0.45    0.36
   1  -9  -7    0.22    0.35
   1  -9  -6    1.70    0.46
   1  -9  -6    1.88    0.52
   1  -9  -5   -0.04    0.32
   1  -9  -5    0.42    0.41
   1  -9  -4    4.59    0.73
   1  -9  -4    3.53    0.60
   1  -9  -3    1.62    0.50
   1  -9  -3    1.72    0.47
   1  -9  -2    4.88    0.71
   1  -9  -2    6.18    0.81
   1  -9  -1    9.65    0.94
   1  -9  -1    9.47    0.90
  -1   9   0   13.62    0.94
   1  -9   0   13.91    1.10
   1  -9   0   12.00    0.97
  -1   9  -1   56.07    1.92
   1  -9   1   56.77    2.10
   1  -9   1   58.45    2.15
  -1   9  -2   27.86    1.40
   1  -9   2   28.48    1.50
   1  -9   2   27.31    1.51
  -1   9  -3    9.49    0.86
   1  -9   3   10.06    0.92
  -1   9  -4   17.47    1.19
   1  -9   4   18.39    1.27
  -1   9  -5    6.85    0.80
   1  -9   5    5.48    0.74
  -1   9  -6    0.46    0.34
   1  -9   6    0.33    0.34
  -1   9  -7    0.80    0.44
   1  -9   7    0.98    0.45
   1  -9   8    0.55    0.44
  -1   9  -8    1.01    0.43
   1  -8 -10    0.30    0.43
   1  -8  -9    4.04    0.70
   1  -8  -8    0.43    0.34
   1  -8  -8    0.32    0.30
   1  -8  -7    0.66    0.38
   1  -8  -7    0.50    0.44
   1  -8  -6   15.90    1.17
   1  -8  -6   15.99    1.16
   1  -8  -5    1.30    0.40
   1  -8  -5    1.66    0.50
   1  -8  -4    3.54    0.61
   1  -8  -4    3.45    0.56
   1  -8  -3   10.70    0.89
   1  -8  -3   12.18    0.99
   1  -8  -2    7.10    0.74
   1  -8  -2    8.18    0.82
  -1   8   2    7.79    0.67
   1  -8  -1   11.15    0.89
  -1   8   1   10.61    0.77
   1  -8  -1   10.69    0.92
  -1   8   0    0.69    0.29
   1  -8   0    0.60    0.36
   1  -8   0    0.81    0.32
  -1   8  -1    0.58    0.27
   1  -8   1    1.58    0.49
   1  -8   1    0.81    0.36
   1  -8   2    7.24    0.72
   1  -8   2    7.84    0.79
  -1   8  -2    7.26    0.70
   1  -8   3    8.69    0.81
   1  -8   3    9.46    0.85
  -1   8  -3    8.01    0.76
  -1   8  -4    5.76    0.67
   1  -8   4    5.46    0.69
  -1   8  -5    1.13    0.43
   1  -8   5    0.92    0.35
  -1   8  -6    0.19    0.30
   1  -8   6    0.21    0.34
  -1   8  -7    7.49    0.86
   1  -8   7    7.37    0.84
   1  -8   8    0.67    0.42
  -1   8  -8    1.25    0.41
   1  -8   9    1.87    0.55
  -1   8  -9    1.05    0.45
  -1   8 -10    3.13    0.66
   1  -8  10    3.48    0.67
   1  -7 -10    0.21    0.32
   1  -7  -9    2.39    0.57
   1  -7  -8    1.94    0.48
   1  -7  -8    2.09    0.52
   1  -7  -7    9.35    0.86
   1  -7  -7    8.76    0.88
   1  -7  -6   12.01    0.96
   1  -7  -6   12.00    0.97
   1  -7  -5   16.70    1.08
   1  -7  -5   16.09    1.06
   1  -7  -4   14.29    1.00
   1  -7  -4   14.44    1.01
  -1   7   3   19.77    0.96
   1  -7  -3   21.17    1.18
   1  -7  -3   20.02    1.12
   1  -7  -2    2.84    0.53
  -1   7   2    2.62    0.39
   1  -7  -2    2.92    0.50
  -1   7   1   14.53    0.83
   1  -7  -1   15.91    1.01
   1  -7  -1   15.73    0.95
   1  -7   0   19.56    1.06
  -1   7   0   20.92    1.00
   1  -7   0   20.49    1.14
  -1   7  -1    3.44    0.45
   1  -7   1    3.27    0.57
   1  -7   1    3.19    0.47
  -1   7  -2    2.66    0.43
   1  -7   2    3.20    0.50
   1  -7   2    2.71    0.45
   1  -7   3   28.24    1.32
  -1   7  -3   28.54    1.28
   1  -7   3   28.30    1.32
   1  -7   4    8.82    0.77
  -1   7  -4    8.18    0.75
   1  -7   5    0.20    0.27
  -1   7  -5    0.22    0.31
  -1   7  -6   48.73    1.87
   1  -7   6   44.95    1.80
  -1   7  -7    1.67    0.46
   1  -7   7    2.26    0.49
  -1   7  -8    4.80    0.72
   1  -7   8    4.24    0.65
  -1   7  -9    1.86    0.52
   1  -7   9    1.12    0.40
  -1   7 -10    0.30    0.36
   1  -7  10    0.03    0.37
   1  -7  11    2.74    0.61
  -1   7 -11    0.36    0.35
   1  -6 -11    1.54    0.51
   1  -6 -10    4.10    0.69
   1  -6  -9    1.01    0.43
   1  -6  -8   39.85    1.79
   1  -6  -8   41.52    1.65
   1  -6  -7    2.65    0.50
   1  -6  -7    2.12    0.41
   1  -6  -6   18.31    1.09
   1  -6  -6   17.23    1.08
   1  -6  -5   29.01    1.34
   1  -6  -5   31.52    1.38
   1  -6  -4   21.76    1.13
   1  -6  -4   22.02    1.13
  -1   6   4   21.17    0.94
  -1   6   3    5.16    0.48
   1  -6  -3    5.14    0.56
   1  -6  -3    5.42    0.60
  -1   6   3    5.83    0.47
   1  -6  -2    2.59    0.46
   1  -6  -2    2.18    0.41
  -1   6   2    1.82    0.31
  -1   6   1   10.68    0.65
   1  -6  -1   10.89    0.79
   1  -6  -1   10.56    0.73
  -1   6   0    6.98    0.54
   1  -6   0    7.46    0.66
   1  -6   0    6.97    0.60
  -1   6  -1    3.01    0.38
   1  -6   1    2.50    0.43
   1  -6   1    2.37    0.38
  -1   6  -2   17.51    0.90
   1  -6   2   16.90    0.92
   1  -6   2   16.69    0.94
  -1   6  -3   13.14    0.81
   1  -6   3   13.69    0.84
   1  -6   3   12.91    0.82
  -1   6  -4    6.56    0.62
   1  -6   4    6.82    0.64
   1  -6   5   11.00    0.84
  -1   6  -5   11.22    0.84
  -1   6  -6    0.96    0.38
   1  -6   6    1.39    0.39
   1  -6   7   29.08    1.45
  -1   6  -7   28.42    1.45
  -1   6  -8    1.11    0.41
   1  -6   8    1.05    0.41
   1  -6   9    1.74    0.46
  -1   6  -9    1.92    0.54
   1  -6  10    1.13    0.43
  -1   6 -10    1.19    0.46
   1  -6  11    0.79    0.42
  -1   6 -11    0.66    0.41
   1  -6  12    0.64    0.39
   1  -5 -12    0.68    0.42
   1  -5 -11    0.15    0.30
   1  -5 -10    0.14    0.31
   1  -5  -9    5.46    0.73
   1  -5  -8    4.53    0.64
   1  -5  -8    5.02    0.60
   1  -5  -7   21.23    1.11
   1  -5  -7   21.22    1.20
   1  -5  -6   -0.20    0.27
  -1   5   6    0.20    0.19
   1  -5  -6   -0.07    0.27
   1  -5  -5   30.15    1.27
  -1   5   5   32.09    1.11
   1  -5  -5   31.58    1.28
   1  -5  -4    5.10    0.56
   1  -5  -4    4.87    0.53
  -1   5   4    4.84    0.42
  -1   5   3   46.75    1.16
   1  -5  -3   46.62    1.48
   1  -5  -3   43.69    1.40
  -1   5   3   46.14    1.21
  -1   5   2   38.03    1.07
  -1   5   2   37.18    1.08
   1  -5  -2   35.48    1.25
   1  -5  -2   36.38    1.22
   1  -5  -1  144.88    2.36
  -1   5   1  148.78    2.08
   1  -5  -1  144.47    2.45
   1  -5   0   23.05    0.98
   1  -5   0   21.67    0.93
   1  -5   0   21.26    0.83
  -1   5   0   23.53    0.85
   1  -5   1    8.42    0.61
  -1   5  -1    7.97    0.37
   1  -5   1    7.98    0.58
   1  -5   1    8.00    0.55
  -1   5  -1    8.95    0.44
  -1   5  -1    9.39    0.56
   1  -5   2   94.77    1.95
  -1   5  -2   99.10    1.49
  -1   5  -2   96.38    1.87
   1  -5   2   95.56    1.96
   1  -5   2   98.35    1.97
   1  -5   3    2.03    0.38
  -1   5  -3    1.95    0.32
   1  -5   3    1.92    0.36
  -1   5  -3    2.09    0.26
  -1   5  -4    5.49    0.44
   1  -5   4    5.54    0.53
  -1   5  -4    5.92    0.56
   1  -5   4    4.77    0.47
  -1   5  -5   10.78    0.66
   1  -5   5    9.88    0.73
  -1   5  -5   10.49    0.76
   1  -5   6   47.40    1.62
  -1   5  -6   47.79    1.66
   1  -5   7    1.30    0.34
  -1   5  -7    2.21    0.46
  -1   5  -8    2.37    0.49
   1  -5   8    1.94    0.44
  -1   5  -9    4.38    0.67
   1  -5   9    5.25    0.68
   1  -5  10   -0.10    0.29
  -1   5 -10    0.46    0.37
   1  -5  11    0.53    0.34
   1  -5  12   -0.44    0.41
   1  -4 -12    1.08    0.49
   1  -4 -11    3.46    0.66
   1  -4 -10   -0.22    0.30
   1  -4  -9    4.93    0.66
   1  -4  -8    0.82    0.30
   1  -4  -8    0.95    0.34
   1  -4  -7    7.34    0.65
  -1   4   7    8.25    0.63
   1  -4  -7    7.54    0.71
   1  -4  -6    3.51    0.46
   1  -4  -6    3.75    0.50
  -1   4   6    4.16    0.42
  -1   4   5    4.81    0.41
   1  -4  -5    5.00    0.50
   1  -4  -5    4.35    0.49
   1  -4  -4   44.00    1.34
   1  -4  -4   39.76    1.30
  -1   4   4   43.29    1.11
  -1   4   3   34.69    0.72
   1  -4  -3   32.97    1.11
  -1   4   3   33.50    0.91
   1  -4  -3   33.06    1.13
  -1   4   3   34.15    0.89
   1  -4  -2    7.10    0.52
   1  -4  -2    7.11    0.54
  -1   4   2    7.45    0.43
  -1   4   2    8.00    0.46
   1  -4  -1    1.48    0.20
   1  -4  -1    1.14    0.23
  -1   4   1    1.61    0.21
   1  -4  -1    1.56    0.31
   1  -4   0   49.26    1.11
   1  -4   0   53.46    1.33
   1  -4   0   53.28    1.28
  -1   4   0   54.42    1.11
   1  -4   1    8.81    0.56
   1  -4   1    8.67    0.51
   1  -4   1    8.80    0.52
  -1   4  -1    9.12    0.50
  -1   4  -1    8.01    0.35
  -1   4  -1    8.65    0.42
  -1   4  -1    8.86    0.57
   1  -4   2  115.42    1.96
   1  -4   2  115.76    1.89
  -1   4  -2  121.30    1.61
   1  -4   2  115.34    1.90
  -1   4  -2  115.75    2.00
  -1   4  -2  117.63    1.85
  -1   4  -3   44.00    1.22
   1  -4   3   43.19    1.22
  -1   4  -3   44.32    1.26
   1  -4   3   43.99    1.17
  -1   4  -3   44.90    1.07
  -1   4  -4   14.16    0.76
   1  -4   4   12.12    0.62
   1  -4   4   12.99    0.72
  -1   4  -4   13.83    0.67
  -1   4  -4   13.58    0.71
  -1   4  -5    6.09    0.49
  -1   4  -5    5.74    0.55
   1  -4   5    5.94    0.53
  -1   4  -6    5.17    0.59
   1  -4   6    4.44    0.50
  -1   4  -6    4.76    0.44
  -1   4  -7    0.01    0.30
   1  -4   7    0.46    0.29
   1  -4   8    0.86    0.34
  -1   4  -8    0.13    0.28
   1  -4   9    9.72    0.87
  -1   4  -9    8.61    0.85
   1  -4  10    6.45    0.75
   1  -4  11    0.08    0.34
   1  -4  12    1.43    0.52
   1  -4  13    1.76    0.54
   1  -3 -12    1.02    0.45
   1  -3 -11    2.42    0.58
   1  -3 -10    0.40    0.38
   1  -3  -9    8.75    0.83
  -1   3   9    8.03    0.68
  -1   3   8    1.19    0.32
   1  -3  -8    1.02    0.36
   1  -3  -8    1.18    0.35
   1  -3  -7    8.69    0.73
   1  -3  -7    9.44    0.67
  -1   3   7    9.53    0.65
   1  -3  -6    8.57    0.69
  -1   3   6    8.97    0.57
   1  -3  -6    8.16    0.60
   1  -3  -5   23.59    1.01
  -1   3   5   26.67    0.88
  -1   3   5   25.27    0.73
   1  -3  -5   24.82    0.98
  -1   3   4    2.93    0.29
   1  -3  -4    2.67    0.36
  -1   3   4    2.81    0.27
  -1   3   4    2.50    0.21
   1  -3  -4    2.89    0.35
  -1   3   4    2.24    0.13
   1  -3  -3    7.68    0.53
   1  -3  -3    6.74    0.24
   1  -3  -3    6.99    0.49
  -1   3   3    6.53    0.40
  -1   3   3    7.22    0.39
  -1   3   2   66.71    1.17
   1  -3  -2   61.31    1.28
   1  -3  -2   63.92    1.38
  -1   3   2   61.35    1.21
  -1   3   2   66.38    1.04
   1  -3  -1    6.22    0.31
   1  -3  -1    6.06    0.40
  -1   3   1    5.84    0.37
  -1   3   1    5.44    0.39
   1  -3  -1    5.33    0.41
  -1   3   1    6.04    0.31
  -1   3   0  230.47    2.02
   1  -3   0  222.77    2.37
   1  -3   0  224.94    2.21
  -1   3   0  234.23    1.90
  -1   3   0  214.27    2.35
   1  -3   0  217.97    2.03
  -1   3  -1   17.27    0.69
   1  -3   1   16.55    0.62
  -1   3  -1   18.84    0.60
  -1   3  -1   16.33    0.46
  -1   3  -1   17.40    0.56
   1  -3   1   16.72    0.65
  -1   3  -2  231.07    2.51
  -1   3  -2  240.16    2.32
   1  -3   2  230.02    2.34
   1  -3   2  230.44    2.30
  -1   3  -2  241.03    2.20
  -1   3  -3   10.55    0.52
  -1   3  -3   10.21    0.55
  -1   3  -3    9.79    0.54
   1  -3   3    9.76    0.49
   1  -3   3    9.55    0.53
   1  -3   4   39.34    0.94
   1  -3   4   41.78    1.16
  -1   3  -4   42.60    1.21
  -1   3  -4   41.51    1.10
  -1   3  -5   48.96    1.11
   1  -3   5   47.55    1.33
  -1   3  -5   46.71    1.18
  -1   3  -5   48.93    1.41
   1  -3   6    8.64    0.64
  -1   3  -6    7.90    0.51
  -1   3  -6    7.90    0.46
  -1   3  -6    8.48    0.66
  -1   3  -6    8.17    0.50
  -1   3  -7   18.18    0.78
   1  -3   7   16.92    0.94
  -1   3  -7   17.52    1.00
  -1   3  -8    3.26    0.52
   1  -3   8    3.49    0.51
   1  -3   9    3.81    0.55
   1  -3  10    3.82    0.58
   1  -3  11    1.87    0.48
   1  -3  12    0.54    0.32
  -1   3 -13   -0.25    0.33
   1  -2 -13    1.60    0.50
   1  -2 -12    4.05    0.70
   1  -2 -11    0.96    0.45
  -1   2  10    1.34    0.34
   1  -2 -10    1.53    0.43
   1  -2  -9   31.58    1.48
  -1   2   9   31.56    1.31
  -1   2   8    6.28    0.57
   1  -2  -8    6.00    0.54
   1  -2  -8    5.84    0.65
  -1   2   7   78.19    1.76
   1  -2  -7   72.21    1.95
   1  -2  -7   74.55    1.71
  -1   2   6   14.05    0.69
   1  -2  -6   13.41    0.80
   1  -2  -6   13.90    0.72
  -1   2   5   98.23    1.12
  -1   2   5  102.37    1.66
   1  -2  -5   95.66    1.90
  -1   2   5   91.84    1.30
   1  -2  -5   99.69    1.81
   1  -2  -4  294.35    3.05
  -1   2   4  308.79    2.55
   1  -2  -4  301.67    2.97
  -1   2   4  301.06    2.38
  -1   2   4  299.68    2.09
  -1   2   3   92.78    1.34
   1  -2  -3   91.37    1.53
   1  -2  -3   93.34    1.57
  -1   2   3   95.27    1.22
  -1   2   3   89.90    1.16
  -1   2   3   90.27    1.20
  -1   2   2   73.26    1.12
   1  -2  -2   75.93    1.25
   1  -2  -2   75.99    1.35
  -1   2   1    6.21    0.35
   1  -2  -1    5.83    0.33
   1  -2  -1    5.36    0.37
  -1   2   1    5.61    0.33
   1  -2   0   20.28    0.64
   1  -2   0   23.18    0.68
  -1   2   0   20.33    0.64
   1  -2   0   21.94    0.57
  -1   2   0   21.51    0.60
  -1   2   0   22.53    0.66
  -1   2   0   21.24    0.58
   1  -2   1   24.72    0.72
   1  -2   1   24.00    0.60
  -1   2  -1   26.28    0.57
  -1   2  -1   24.15    0.65
  -1   2  -1   24.50    0.55
  -1   2  -1   23.01    0.69
   1  -2   1   24.62    0.66
  -1   2  -2  119.27    1.51
   1  -2   2  117.07    1.36
  -1   2  -2  114.28    1.55
  -1   2  -2  121.52    1.47
   1  -2   2  122.47    1.63
   1  -2   2  115.70    1.42
   1  -2   3   13.42    0.57
   1  -2   3   12.36    0.53
  -1   2  -3   13.05    0.57
  -1   2  -3   12.22    0.53
   1  -2   3   12.15    0.44
  -1   2  -4    7.18    0.42
   1  -2   4    7.57    0.44
  -1   2  -4    7.75    0.42
   1  -2   4    7.03    0.46
  -1   2  -4    7.33    0.49
  -1   2  -4    7.53    0.39
  -1   2  -5   33.83    1.12
   1  -2   5   33.29    1.05
  -1   2  -5   31.92    0.78
  -1   2  -5   34.78    0.96
  -1   2  -5   33.34    0.92
   1  -2   5   33.05    0.93
  -1   2  -6   17.90    0.91
  -1   2  -6   18.59    0.70
   1  -2   6   18.25    0.87
  -1   2  -6   16.66    0.56
  -1   2  -6   19.94    0.79
   1  -2   7   27.68    1.15
  -1   2  -7   28.87    1.03
   1  -2   8   32.97    1.34
  -1   2  -8   35.26    1.23
   1  -2   9    5.30    0.62
   1  -2  10    1.52    0.40
   1  -2  11   10.62    0.96
  -1   2 -12   -0.43    0.33
  -1   2 -13    0.66    0.41
   1  -1 -13    0.81    0.49
   1  -1 -12    1.36    0.50
   1  -1 -11    3.81    0.62
  -1   1  11    6.34    0.69
   1  -1 -10    0.06    0.30
   1  -1  -9    0.69    0.33
   1  -1  -8    4.34    0.56
   1  -1  -7    1.75    0.32
   1  -1  -7    1.22    0.31
   1  -1  -6    6.30    0.48
   1  -1  -6    5.93    0.53
  -1   1   5    6.75    0.29
   1  -1  -5    6.21    0.45
   1  -1  -5    5.84    0.48
  -1   1   4  146.37    1.46
   1  -1  -4  151.42    1.98
  -1   1   4  146.05    1.06
  -1   1   4  147.42    1.12
   1  -1  -4  145.65    2.04
   1  -1  -3  118.70    1.65
  -1   1   3  120.04    1.12
   1  -1  -3  116.40    1.63
  -1   1   3  118.12    1.32
  -1   1   2   22.85    0.53
  -1   1   2   23.15    0.59
   1  -1  -2   22.56    0.62
   1  -1  -2   23.45    0.53
   1  -1  -2   23.01    0.70
  -1   1   2   22.92    0.59
  -1   1   1  417.29    2.37
  -1   1   1  421.53    2.69
  -1   1   1  430.48    2.48
  -1   1   1  430.44    2.27
   1  -1  -1  427.37    2.69
   1  -1  -1  426.42    2.36
   1  -1   0   29.24    0.65
  -1   1   0   28.34    0.66
  -1   1   0   28.25    0.63
   1  -1   0   27.80    0.63
  -1   1   0   28.66    0.66
  -1   1   0   29.30    0.67
  -1   1   0   27.72    0.65
  -1   1  -1   76.92    0.97
  -1   1  -1   77.60    1.07
  -1   1  -1   77.75    1.08
  -1   1  -1   76.22    1.11
   1  -1   1   77.28    1.09
   1  -1   1   76.54    0.94
  -1   1  -1   74.47    1.10
  -1   1  -2 1673.79    5.25
  -1   1  -2 1652.67    5.37
   1  -1   2 1682.07    5.28
  -1   1  -2 1652.54    4.59
  -1   1  -2 1681.50    4.92
  -1   1  -2 1660.78    4.89
   1  -1   2 1658.11    4.37
  -1   1  -2 1682.65    5.42
  -1   1  -3   26.78    0.63
   1  -1   3   26.82    0.70
  -1   1  -3   26.22    0.70
   1  -1   3   27.01    0.69
  -1   1  -3   26.46    0.72
   1  -1   4  311.54    2.46
  -1   1  -4  303.74    2.43
  -1   1  -4  305.88    2.10
   1  -1   4  301.63    2.66
  -1   1  -4  309.61    2.70
   1  -1   5  181.74    1.94
  -1   1  -5  175.06    1.59
   1  -1   5  177.52    2.29
  -1   1  -5  178.49    1.91
   1  -1   6   40.36    0.95
   1  -1   6   40.60    1.22
  -1   1  -6   41.27    0.96
   1  -1   7  120.30    2.29
   1  -1   8    2.01    0.39
   1  -1   9    2.88    0.47
  -1   1  -9    2.98    0.49
  -1   1 -10    1.72    0.43
  -1   1 -11    0.18    0.34
  -1   1 -12    0.42    0.37
  -1   1 -13    1.21    0.44
  -1   1 -14    3.34    0.70
   1   0 -13    0.01    0.31
   1   0 -12    8.34    0.95
   1   0 -11    3.50    0.62
   1   0 -10    3.47    0.56
   1   0  -9   74.73    2.24
   1   0  -8    4.71    0.57
   1   0  -7   15.81    0.91
   1   0  -7   15.44    0.74
  -1   0   6   25.43    0.75
   1   0  -6   22.75    1.00
   1   0  -6   24.14    0.89
  -1   0   5    5.72    0.33
   1   0  -5    6.11    0.44
   1   0  -5    5.09    0.45
  -1   0   4  178.95    2.23
   1   0  -4  167.12    1.98
   1   0  -4  179.43    2.11
  -1   0   4  178.26    1.57
   1   0  -3   10.99    0.30
  -1   0   3   10.99    0.50
   1   0  -3   10.56    0.44
  -1   0   2   72.02    1.04
   1   0  -2   70.84    0.77
  -1   0   2   72.63    1.18
   1   0  -2   72.15    0.83
  -1   0   2   73.11    0.93
  -1   0   1   42.16    0.73
  -1   0   1   38.90    0.67
  -1   0   1   41.46    0.81
   1   0  -1   41.24    0.68
  -1   0   1   39.60    0.58
  -1   0   1   40.18    0.77
  -1   0   0  195.72    1.60
   1   0   0  206.87    1.60
  -1   0   0  201.15    1.64
   1   0   0  201.19    1.44
  -1   0   0  203.24    1.64
  -1   0   0  206.03    1.62
  -1   0  -1   10.41    0.38
  -1   0  -1   10.23    0.39
  -1   0  -1   10.90    0.39
   1   0   1   10.83    0.40
  -1   0  -1   10.82    0.41
  -1   0  -2  594.65    3.16
  -1   0  -2  585.29    2.88
   1   0   2  597.11    3.00
  -1   0  -2  592.71    3.06
  -1   0  -2  600.03    2.77
  -1   0  -2  605.87    3.13
   1   0   3   29.39    0.67
   1   0   3   29.78    0.70
  -1   0  -3   29.28    0.71
  -1   0  -3   30.12    0.66
  -1   0  -3   29.82    0.67
  -1   0  -3   30.29    0.80
  -1   0  -4  195.93    1.73
  -1   0  -4  199.46    1.79
   1   0   4  207.52    1.92
  -1   0  -4  205.12    2.12
   1   0   4  199.26    2.08
  -1   0  -5  163.12    1.60
  -1   0  -5  167.22    2.18
   1   0   5  174.28    1.84
   1   0   6    5.10    0.34
  -1   0  -6    4.43    0.43
  -1   0  -7   24.10    1.04
  -1   0  -8    7.03    0.64
  -1   0  -9   18.51    1.08
  -1   0 -10    4.93    0.62
  -1   0 -11    6.39    0.75
  -1   0 -12    0.63    0.39
  -1   0 -13   -0.40    0.43
   1   0  13    0.31    0.34
  -1   0 -14   -0.31    0.46
   1   0  14    0.17    0.31
   1   1 -13   -0.77    0.41
   1   1 -12    3.28    0.65
   1   1 -11    5.46    0.75
   1   1 -10    7.21    0.79
   1   1  -9    2.08    0.46
  -1  -1   8   30.78    1.36
  -1  -1   7    1.10    0.30
   1   1  -7    0.75    0.23
  -1  -1   6   10.55    0.56
   1   1  -6    9.53    0.65
  -1  -1   6   11.32    0.72
  -1  -1   5   38.19    0.97
   1   1  -5   34.97    1.10
  -1  -1   5   38.68    1.19
  -1  -1   4   27.11    0.57
  -1  -1   4   29.35    0.78
   1   1  -4   26.45    0.86
  -1  -1   4   28.91    0.93
  -1  -1   3   20.64    0.70
  -1  -1   3   20.15    0.51
   1   1  -3   19.63    0.66
   1   1  -3   20.97    0.62
  -1  -1   3   20.57    0.67
  -1  -1   2   82.71    1.06
  -1  -1   2   86.39    1.21
   1   1  -2   82.99    1.17
   1   1  -2   85.65    1.14
  -1  -1   2   83.84    1.21
   1   1  -1  177.13    1.51
  -1  -1   1  184.06    1.45
  -1  -1   1  179.97    1.63
  -1  -1   1  177.87    1.58
  -1  -1   1  179.11    1.78
  -1  -1   0  355.06    2.26
  -1  -1   0  354.77    2.30
  -1  -1   0  356.56    2.23
  -1  -1   0  345.37    2.23
  -1  -1   0  347.34    2.03
   1   1   0  351.30    2.03
  -1  -1  -1  133.01    1.27
  -1  -1  -1  136.46    1.42
  -1  -1  -1  133.23    1.44
   1   1   1  133.65    1.32
  -1  -1  -1  137.67    1.45
   1   1   1  137.62    1.46
  -1  -1  -1  134.51    1.36
   1   1   2  295.15    2.30
  -1  -1  -2  286.41    2.10
   1   1   2  287.14    2.18
  -1  -1  -2  295.24    1.85
  -1  -1  -2  285.31    2.11
  -1  -1  -3 1729.04    5.24
   1   1   3 1720.97    6.06
  -1  -1  -3 1736.48    5.40
  -1  -1  -4  108.49    1.58
   1   1   4  105.92    1.69
   1   1   4  111.92    1.48
  -1  -1  -4  106.65    1.33
  -1  -1  -5   27.03    0.90
   1   1   5   28.63    0.78
  -1  -1  -5   27.00    0.68
  -1  -1  -5   25.04    0.55
   1   1   5   26.39    0.93
  -1  -1  -6   90.91    1.13
   1   1   6   93.46    1.42
   1   1   6  100.63    1.97
  -1  -1  -6   94.17    1.27
  -1  -1  -6   98.75    1.89
  -1  -1  -7    9.45    0.66
   1   1   7    8.83    0.66
  -1  -1  -8   10.40    0.77
   1   1   8   10.63    0.77
  -1  -1  -9    3.82    0.53
   1   1   9    4.23    0.55
  -1  -1 -10    8.42    0.79
   1   1  10    8.74    0.79
  -1  -1 -11    2.25    0.50
   1   1  11    1.78    0.45
  -1  -1 -12    1.26    0.43
   1   1  12    1.44    0.44
  -1  -1 -13    0.88    0.44
   1   1  13    0.97    0.44
   1   1  14    6.22    0.83
  -1  -1 -14    6.77    0.93
   1   2 -13    0.04    0.35
   1   2 -12    2.74    0.59
   1   2 -11    6.73    0.82
  -1  -2  10    3.19    0.57
  -1  -2   9   60.43    2.04
   1   2  -9   54.34    1.90
   1   2  -8    0.60    0.33
  -1  -2   8    0.80    0.34
   1   2  -7   17.15    0.99
  -1  -2   7   20.61    1.08
  -1  -2   7   19.84    0.90
   1   2  -6    7.97    0.63
  -1  -2   6    7.49    0.61
  -1  -2   6    8.28    0.56
  -1  -2   5   15.30    0.50
  -1  -2   5   17.58    0.70
  -1  -2   5   16.33    0.72
  -1  -2   5   16.62    0.82
   1   2  -5   15.84    0.80
  -1  -2   4   39.08    0.82
  -1  -2   4   41.72    1.07
  -1  -2   4   40.81    1.16
  -1  -2   4   41.64    0.98
   1   2  -4   38.21    1.13
   1   2  -3  126.48    1.78
  -1  -2   3  129.87    1.57
  -1  -2   3  121.95    1.47
  -1  -2   3  124.73    1.82
   1   2  -3  119.23    1.79
   1   2  -2   25.22    0.76
  -1  -2   2   27.83    0.68
   1   2  -2   24.71    0.76
  -1  -2   2   27.20    0.77
  -1  -2   1    1.91    0.19
   1   2  -1    2.01    0.24
  -1  -2   1    2.24    0.23
  -1  -2   0   93.30    1.22
   1   2   0   94.22    1.32
  -1  -2   0   96.87    1.20
  -1  -2   0   94.23    1.28
  -1  -2  -1   61.27    0.96
  -1  -2  -1   65.68    0.99
  -1  -2  -1   61.09    1.12
  -1  -2  -1   64.54    1.02
   1   2   1   62.90    1.09
  -1  -2  -2  127.81    1.48
  -1  -2  -2  125.12    1.35
  -1  -2  -2  119.40    1.61
   1   2   2  133.17    1.70
   1   2   2  125.41    1.64
  -1  -2  -3    9.62    0.47
   1   2   3    9.24    0.50
   1   2   3   10.01    0.51
  -1  -2  -3    9.52    0.45
  -1  -2  -4   83.03    1.31
   1   2   4   85.31    1.50
   1   2   4   83.04    1.56
  -1  -2  -4   80.64    1.46
  -1  -2  -5   29.93    0.79
  -1  -2  -5   29.97    1.00
   1   2   5   30.34    1.04
   1   2   5   29.99    0.95
  -1  -2  -5   30.57    0.67
  -1  -2  -6    0.92    0.16
  -1  -2  -6    0.78    0.23
   1   2   6    1.22    0.30
  -1  -2  -7   15.20    0.86
   1   2   7   16.99    0.91
   1   2   8   12.66    0.84
  -1  -2  -8   11.68    0.83
   1   2   9    6.08    0.66
  -1  -2  -9    6.33    0.67
  -1  -2 -10   31.24    1.48
   1   2  10   30.75    1.47
  -1  -2 -11    2.50    0.56
   1   2  11    2.05    0.49
  -1  -2 -12    0.93    0.36
   1   2  12    1.02    0.37
  -1  -2 -13    1.44    0.48
   1   2  13    1.51    0.44
  -1  -2 -14    0.61    0.40
   1   2  14    0.47    0.38
  -1  -3  12    0.56    0.38
  -1  -3  11    2.23    0.54
   1   3 -10    1.34    0.40
  -1  -3  10    2.48    0.54
   1   3  -9    9.35    0.86
  -1  -3   9   12.03    0.96
   1   3  -8    0.50    0.26
  -1  -3   8    0.68    0.37
   1   3  -7    4.69    0.58
  -1  -3   7    5.35    0.61
  -1  -3   6    5.63    0.56
   1   3  -6    5.56    0.57
  -1  -3   5   19.93    0.88
  -1  -3   5   20.40    0.71
  -1  -3   5   20.11    0.95
   1   3  -5   17.92    0.92
  -1  -3   4   19.40    0.86
  -1  -3   4   19.44    0.64
   1   3  -4   17.76    0.86
   1   3  -3    1.00    0.25
  -1  -3   3    0.91    0.15
   1   3  -3    1.03    0.24
  -1  -3   3    1.07    0.24
   1   3  -2   54.02    1.26
  -1  -3   2   52.75    1.21
  -1  -3   2   50.79    0.91
   1   3  -2   47.39    1.20
  -1  -3   1  607.49    3.17
   1   3  -1  591.99    4.04
  -1  -3   1  616.07    3.85
  -1  -3   0  369.25    2.85
   1   3   0  357.69    3.05
  -1  -3   0  356.46    2.08
  -1  -3   0  371.62    2.74
  -1  -3  -1  192.16    2.07
  -1  -3  -1  189.29    1.84
   1   3   1  184.39    2.18
   1   3   2  242.07    2.56
  -1  -3  -2  240.84    2.51
  -1  -3  -2  250.44    2.43
  -1  -3  -2  236.90    1.76
  -1  -3  -3   90.16    1.56
  -1  -3  -3   83.69    1.52
   1   3   3   89.27    1.64
   1   3   4   81.52    1.57
   1   3   4   79.03    1.64
  -1  -3  -4   83.52    1.36
  -1  -3  -4   77.85    1.57
   1   3   5   16.22    0.73
  -1  -3  -5   15.22    0.76
  -1  -3  -5   15.29    0.59
   1   3   5   16.22    0.80
  -1  -3  -6    1.21    0.28
  -1  -3  -6    1.51    0.27
   1   3   6    1.58    0.28
   1   3   6    1.78    0.33
  -1  -3  -6    2.07    0.25
   1   3   7    0.81    0.28
   1   3   7    0.74    0.24
  -1  -3  -7    0.87    0.33
  -1  -3  -8    1.22    0.36
   1   3   8    1.22    0.35
  -1  -3  -9    1.43    0.40
   1   3   9    1.58    0.41
   1   3  10   11.54    0.94
  -1  -3 -10   11.81    0.96
   1   3  11    4.53    0.66
  -1  -3 -11    4.34    0.66
  -1  -3 -12    0.23    0.33
   1   3  12    0.13    0.33
   1   3  13    0.93    0.42
  -1  -3 -13    0.47    0.34
  -1  -4  12    0.13    0.33
   1   4 -11    0.50    0.31
  -1  -4  11    0.86    0.43
  -1  -4  10    0.42    0.33
   1   4 -10    0.46    0.36
  -1  -4   9    2.57    0.52
   1   4  -9    2.40    0.50
   1   4  -8    1.82    0.46
  -1  -4   8    2.05    0.45
   1   4  -7    0.80    0.36
  -1  -4   7    0.60    0.33
  -1  -4   6    6.13    0.63
   1   4  -6    5.61    0.60
   1   4  -5   10.97    0.79
  -1  -4   5   12.00    0.80
   1   4  -4    3.56    0.46
  -1  -4   4    5.01    0.49
   1   4  -3    8.61    0.62
   1   4  -3    8.77    0.61
  -1  -4   3    8.72    0.40
  -1  -4   3    9.50    0.62
  -1  -4   2   10.34    0.43
  -1  -4   2   10.23    0.62
   1   4  -2    9.78    0.62
   1   4  -2    9.78    0.62
  -1  -4   1    8.85    0.55
   1   4  -1    7.94    0.54
   1   4  -1    8.49    0.56
  -1  -4   0    6.01    0.44
  -1  -4   0    5.98    0.39
   1   4   0    5.62    0.46
   1   4   1   10.64    0.61
  -1  -4  -1   11.34    0.49
  -1  -4  -1   11.33    0.60
  -1  -4  -2    1.64    0.28
   1   4   2    1.46    0.27
  -1  -4  -2    1.78    0.28
  -1  -4  -3   28.92    0.98
   1   4   3   30.64    1.06
  -1  -4  -3   30.60    1.03
  -1  -4  -4   44.70    1.24
   1   4   4   45.50    1.34
  -1  -4  -4   46.87    1.33
  -1  -4  -4   48.83    1.21
   1   4   5   28.87    1.13
  -1  -4  -5   29.13    1.13
  -1  -4  -5   29.52    0.95
  -1  -4  -6   11.38    0.76
   1   4   6   10.35    0.66
   1   4   6   12.81    0.80
  -1  -4  -6   12.07    0.62
  -1  -4  -7    2.06    0.42
   1   4   7    2.29    0.43
  -1  -4  -8    9.53    0.80
   1   4   8   10.41    0.82
   1   4   9    6.46    0.69
  -1  -4  -9    6.35    0.69
  -1  -4 -10   25.04    1.39
   1   4  10   26.25    1.40
   1   4  11    0.76    0.37
  -1  -4 -11    0.82    0.33
  -1  -4 -12    1.46    0.52
   1   4  12    0.99    0.40
  -1  -4 -13    0.88    0.40
   1   4  13    0.59    0.36
   1   5 -12   -0.01    0.35
  -1  -5  11    1.85    0.51
   1   5 -11    1.73    0.53
  -1  -5  10    1.23    0.42
   1   5 -10    0.96    0.38
   1   5  -9    6.94    0.82
  -1  -5   9    7.42    0.84
   1   5  -8    1.72    0.45
  -1  -5   8    2.27    0.51
   1   5  -7    1.90    0.48
  -1  -5   7    1.35    0.39
  -1  -5   6    2.52    0.47
   1   5  -6    2.37    0.47
   1   5  -5   12.53    0.89
  -1  -5   5   13.33    0.89
  -1  -5   4    7.24    0.63
   1   5  -4    6.72    0.64
  -1  -5   3   39.82    1.36
   1   5  -3   38.03    1.38
   1   5  -2   53.28    1.55
  -1  -5   2   55.61    1.54
  -1  -5   1   82.51    1.82
   1   5  -1   81.27    1.85
  -1  -5   0   15.55    0.78
   1   5   0   15.26    0.80
  -1  -5   0   16.19    0.68
   1   5   0   15.28    0.79
  -1  -5  -1   61.05    1.54
   1   5   1   58.22    1.55
  -1  -5  -1   60.22    1.19
   1   5   2   39.21    1.29
  -1  -5  -2   38.97    1.25
  -1  -5  -3   44.15    1.35
  -1  -5  -3   44.25    1.32
   1   5   3   43.80    1.38
  -1  -5  -4   84.09    1.81
   1   5   4   86.44    1.98
  -1  -5  -4   86.10    1.96
  -1  -5  -4   89.86    1.86
  -1  -5  -5    3.45    0.41
  -1  -5  -5    3.55    0.47
   1   5   5    3.60    0.46
  -1  -5  -6   15.17    0.93
   1   5   6   14.15    0.88
  -1  -5  -6   14.56    0.76
  -1  -5  -7    4.00    0.56
   1   5   7    4.95    0.59
   1   5   8   15.22    1.01
  -1  -5  -8   13.67    0.99
  -1  -5  -9   -0.01    0.32
   1   5   9    0.02    0.27
  -1  -5 -10    0.18    0.33
   1   5  10    0.89    0.40
  -1  -5 -11    0.34    0.34
   1   5  11    0.36    0.31
  -1  -5 -12    0.08    0.32
   1   5  12    0.78    0.43
  -1  -5 -13    0.64    0.42
   1   5  13    0.50    0.38
  -1  -6  11    2.44    0.61
   1   6 -11    0.04    0.34
  -1  -6  10    1.93    0.53
   1   6 -10    7.85    0.91
   1   6  -9    2.22    0.51
  -1  -6   9    3.15    0.60
  -1  -6   8    7.19    0.81
   1   6  -8    6.25    0.79
   1   6  -7    2.20    0.52
  -1  -6   7    2.36    0.48
   1   6  -6   16.66    1.13
  -1  -6   6   16.50    1.08
   1   6  -5   18.40    1.13
  -1  -6   5   21.13    1.17
   1   6  -4    0.29    0.32
  -1  -6   4    0.75    0.31
  -1  -6   3   28.32    1.25
   1   6  -3   26.95    1.25
  -1  -6   2   46.34    1.53
   1   6  -2   44.69    1.53
  -1  -6   1   21.09    1.02
   1   6  -1   20.62    1.05
   1   6   0   14.37    0.86
  -1  -6   0   14.33    0.68
  -1  -6   0   14.35    0.84
  -1  -6  -1    3.80    0.46
   1   6   1    3.69    0.48
   1   6   2    5.06    0.54
  -1  -6  -2    5.28    0.55
  -1  -6  -3    9.66    0.71
   1   6   3    9.36    0.71
   1   6   4   14.80    0.89
  -1  -6  -4   14.68    0.90
  -1  -6  -5    4.24    0.54
   1   6   5    3.86    0.52
  -1  -6  -5    4.06    0.49
   1   6   6   19.66    1.10
  -1  -6  -6   17.96    1.08
  -1  -6  -6   19.78    0.99
  -1  -6  -7    4.89    0.64
   1   6   7    4.82    0.59
   1   6   8    6.36    0.71
  -1  -6  -8    6.35    0.72
   1   6   9    5.03    0.66
  -1  -6  -9    6.42    0.76
  -1  -6 -10    3.61    0.63
   1   6  10    4.46    0.67
   1   6  11    5.13    0.74
  -1  -6 -11    4.53    0.72
  -1  -6 -12    2.82    0.65
   1   6  12    3.07    0.63
  -1  -7  10    4.32    0.73
   1   7 -10    2.95    0.66
   1   7  -9    5.69    0.82
  -1  -7   9    6.80    0.88
   1   7  -8    3.03    0.65
  -1  -7   8    3.36    0.60
   1   7  -7    0.74    0.42
  -1  -7   7    0.20    0.35
   1   7  -6    0.30    0.36
  -1  -7   6    0.70    0.33
  -1  -7   5    0.35    0.31
   1   7  -5   -0.06    0.29
  -1  -7   4    3.01    0.50
   1   7  -4    2.78    0.54
  -1  -7   3   11.55    0.88
   1   7  -3    9.84    0.85
  -1  -7   2    3.31    0.51
   1   7  -2    3.63    0.56
   1   7  -1    7.52    0.71
  -1  -7   1    7.94    0.72
  -1  -7   1    6.91    0.56
   1   7   0   20.44    1.12
  -1  -7   0   20.34    1.08
   1   7   1    7.88    0.70
  -1  -7  -1    9.00    0.74
   1   7   2    7.70    0.71
  -1  -7  -2    7.42    0.71
   1   7   3   27.44    1.28
  -1  -7  -3   27.79    1.29
   1   7   4   45.96    1.68
  -1  -7  -4   43.58    1.63
  -1  -7  -5   21.75    1.20
   1   7   5   22.05    1.19
  -1  -7  -6   35.16    1.57
   1   7   6   36.79    1.57
  -1  -7  -6   33.53    1.40
  -1  -7  -7   21.02    1.27
   1   7   7   20.29    1.22
   1   7   8    9.40    0.89
  -1  -7  -8    9.45    0.92
  -1  -7  -9    0.67    0.36
   1   7   9    0.40    0.27
  -1  -7 -10    3.81    0.63
   1   7  10    4.14    0.65
  -1  -7 -11    4.30    0.72
   1   7  11    3.97    0.68
   1   7  12    2.13    0.55
   1   8  -9   -0.29    0.34
  -1  -8   9    0.06    0.31
   1   8  -8    0.08    0.33
  -1  -8   8    0.46    0.36
  -1  -8   7    2.28    0.59
   1   8  -7    2.15    0.57
   1   8  -6    1.59    0.52
  -1  -8   6    2.18    0.51
   1   8  -5    0.57    0.40
  -1  -8   5    0.63    0.36
   1   8  -4    3.45    0.60
  -1  -8   4    3.79    0.59
  -1  -8   3   20.20    1.23
   1   8  -3   18.17    1.20
   1   8  -2    8.79    0.84
  -1  -8   2    8.15    0.78
   1   8  -1   43.62    1.73
  -1  -8   1   41.41    1.68
   1   8   0    3.86    0.57
  -1  -8   0    3.58    0.57
   1   8   1    3.33    0.55
  -1  -8  -1    3.80    0.56
  -1  -8  -2    3.54    0.55
   1   8   2    3.19    0.52
   1   8   3    1.77    0.44
  -1  -8  -3    1.64    0.44
   1   8   4    3.75    0.58
  -1  -8  -4    4.49    0.63
  -1  -8  -5    5.96    0.70
   1   8   5    4.88    0.62
  -1  -8  -6    0.11    0.28
   1   8   6    0.29    0.31
  -1  -8  -7    1.97    0.47
   1   8   7    2.01    0.48
   1   8   8    6.21    0.76
  -1  -8  -8    5.79    0.77
  -1  -8  -9    3.50    0.68
   1   8   9    2.56    0.54
  -1  -8 -10    5.56    0.83
   1   8  10    6.72    0.84
   1   8  11    2.68    0.56
  -1  -9   8    0.32    0.31
   1   9  -7    2.09    0.60
  -1  -9   7    1.34    0.48
   1   9  -6    0.27    0.33
  -1  -9   6    0.70    0.44
  -1  -9   5    0.79    0.42
   1   9  -5    0.50    0.41
  -1  -9   4    0.25    0.38
   1   9  -4    0.80    0.39
   1   9  -3    1.21    0.42
  -1  -9   3    0.61    0.34
   1   9  -2   10.14    0.94
  -1  -9   2   10.79    0.96
  -1  -9   1    7.30    0.82
   1   9  -1    7.67    0.84
   1   9   0    9.34    0.90
  -1  -9   0   10.78    0.94
  -1  -9  -1    9.07    0.86
   1   9   1    9.02    0.88
   1   9   2    3.48    0.56
  -1  -9  -2    3.63    0.58
  -1  -9  -3    0.74    0.36
   1   9   3    1.01    0.42
   1   9   4    8.36    0.85
  -1  -9  -4    9.05    0.90
  -1  -9  -5    0.59    0.36
   1   9   5    0.70    0.42
   1   9   6    3.73    0.62
  -1  -9  -6    4.63    0.72
  -1  -9  -7    1.50    0.48
   1   9   7    1.18    0.42
  -1  -9  -8    1.49    0.48
   1   9   8    2.88    0.61
  -1  -9  -9    3.49    0.68
   1   9   9    4.99    0.76
   1   9  10    0.18    0.31
  -1 -10   6    0.16    0.34
   1  10  -6    0.31    0.41
  -1 -10   5    0.67    0.44
   1  10  -5    1.22    0.53
   1  10  -4    3.66    0.69
  -1 -10   4    3.52    0.66
  -1 -10   3    0.59    0.36
   1  10  -3    1.06    0.47
   1  10  -2    1.08    0.42
  -1 -10   2    0.51    0.37
  -1 -10   1    4.24    0.68
   1  10  -1    5.23    0.73
   1  10   0    4.82    0.71
  -1 -10   0    4.33    0.67
   1  10   1    0.80    0.35
  -1 -10  -1    0.52    0.38
  -1 -10  -2    0.77    0.41
   1  10   2    0.70    0.38
   1  10   3   -0.03    0.30
  -1 -10  -3    0.42    0.40
   1  10   4    0.38    0.34
  -1 -10  -4    0.53    0.42
  -1 -10  -5    3.03    0.60
   1  10   5    2.81    0.58
  -1 -10  -6    3.88    0.70
   1  10   6    3.04    0.64
  -1 -10  -7    1.98    0.57
   1  10   7    2.36    0.57
  -1 -10  -8   -0.62    0.42
   1  10   8    0.66    0.32
   1  11  -3    0.43    0.38
  -1 -11   3    0.36    0.36
   1  11  -2    0.59    0.42
  -1 -11   2    1.52    0.50
   1  11  -1    3.89    0.73
  -1 -11   1    2.33    0.56
   1  11   0    4.63    0.76
  -1 -11   0    3.59    0.67
   1  11   1    3.24    0.63
  -1 -11  -1    3.79    0.70
   1  11   2   12.46    1.16
  -1 -11  -2   13.36    1.18
   1  11   3   11.38    1.12
  -1 -11  -3   10.37    1.06
  -1 -11  -4    7.49    0.93
   1  11   4    7.17    0.88
   1  11   5   13.25    1.18
  -1 -11  -5   14.41    1.29
   1  11   6    6.85    0.90
   2 -11  -4    1.10    0.51
   2 -11  -3    1.59    0.53
   2 -11  -2    0.14    0.29
   2 -11  -2   -0.32    0.47
   2 -11  -1    0.60    0.50
   2 -11  -1    1.20    0.52
   2 -11   0    1.16    0.45
   2 -11   0    1.39    0.56
   2 -11   1    0.49    0.28
   2 -11   1    0.16    0.35
   2 -11   2    0.83    0.32
   2 -11   2   -0.44    0.36
   2 -11   3    0.43    0.41
   2 -11   3    0.54    0.36
   2 -11   4    0.24    0.32
   2 -10  -6    1.17    0.43
   2 -10  -5    0.64    0.39
   2 -10  -5    0.86    0.54
   2 -10  -4   -0.29    0.32
   2 -10  -4    1.54    0.58
   2 -10  -3    3.69    0.68
   2 -10  -3    3.80    0.74
   2 -10  -2    1.47    0.43
   2 -10  -2    1.73    0.56
   2 -10  -1    0.91    0.42
   2 -10  -1    1.03    0.52
  -2  10   0    0.46    0.34
   2 -10   0    0.15    0.30
   2 -10   0    0.05    0.44
   2 -10   1    2.09    0.47
   2 -10   1    2.66    0.61
   2 -10   2    8.57    0.90
   2 -10   2    9.63    1.01
   2 -10   3    7.18    0.84
   2 -10   3    6.77    0.87
   2 -10   4    5.08    0.75
   2 -10   4    4.96    0.71
   2 -10   5    7.47    0.87
   2 -10   6    2.65    0.57
   2 -10   7    2.55    0.60
   2  -9  -8    1.65    0.50
   2  -9  -8    2.97    0.64
   2  -9  -7    1.21    0.44
   2  -9  -7    1.34    0.52
   2  -9  -6    5.66    0.77
   2  -9  -6    6.50    0.88
   2  -9  -5    3.62    0.71
   2  -9  -5    2.27    0.52
   2  -9  -4    0.39    0.33
   2  -9  -4    0.26    0.37
   2  -9  -3    0.40    0.46
   2  -9  -3    0.46    0.33
   2  -9  -2    0.67    0.36
   2  -9  -2    1.06    0.51
  -2   9   1    4.41    0.61
   2  -9  -1    4.52    0.71
   2  -9  -1    4.01    0.61
  -2   9   0    0.73    0.36
   2  -9   0    0.70    0.34
   2  -9   0    1.03    0.44
   2  -9   1    4.52    0.64
   2  -9   1    5.13    0.72
   2  -9   2    1.66    0.45
   2  -9   2    1.92    0.54
   2  -9   3    3.04    0.54
   2  -9   3    2.09    0.54
   2  -9   4   -0.36    0.34
   2  -9   4    0.34    0.29
   2  -9   5    2.03    0.49
   2  -9   6    0.91    0.35
  -2   9  -7    3.34    0.63
   2  -9   7    3.04    0.62
  -2   9  -8    3.33    0.63
   2  -9   8    3.13    0.65
   2  -9   9    0.28    0.34
   2  -8  -9    0.12    0.30
   2  -8  -9   -0.05    0.31
   2  -8  -8    0.54    0.35
   2  -8  -8   -0.32    0.36
   2  -8  -7    0.41    0.27
   2  -8  -7    0.65    0.40
   2  -8  -6    0.80    0.37
   2  -8  -6    1.47    0.49
   2  -8  -5    4.51    0.63
   2  -8  -5    4.72    0.71
   2  -8  -4    1.85    0.42
   2  -8  -4    1.80    0.53
   2  -8  -3    8.25    0.80
   2  -8  -3    7.68    0.85
   2  -8  -2   11.10    0.90
   2  -8  -2   10.54    0.96
   2  -8  -1   13.44    0.99
   2  -8  -1   14.08    1.08
  -2   8   1   15.07    0.99
  -2   8   0    7.52    0.75
   2  -8   0    7.12    0.71
   2  -8   0    7.80    0.82
   2  -8   1    1.30    0.38
   2  -8   1    1.26    0.39
   2  -8   2    0.26    0.27
   2  -8   2    0.20    0.35
   2  -8   3   11.82    0.91
   2  -8   3   10.68    0.94
   2  -8   4    2.61    0.49
   2  -8   4    3.88    0.60
  -2   8  -5    2.09    0.45
   2  -8   5    3.36    0.57
  -2   8  -6    1.96    0.47
   2  -8   6    1.28    0.41
  -2   8  -7    6.18    0.76
   2  -8   7    5.23    0.70
  -2   8  -8    5.93    0.77
   2  -8   8    6.74    0.81
   2  -8   9    0.07    0.29
  -2   8  -9    0.68    0.36
   2  -8  10    1.17    0.42
  -2   8 -10    0.69    0.36
   2  -7 -10    1.96    0.52
   2  -7  -9    0.92    0.36
   2  -7  -9    1.74    0.49
   2  -7  -8    5.28    0.72
   2  -7  -8    6.95    0.83
   2  -7  -7    2.79    0.52
   2  -7  -7    3.74    0.63
   2  -7  -6   15.58    1.11
   2  -7  -6   15.59    1.16
   2  -7  -5    6.26    0.76
   2  -7  -5    6.35    0.70
   2  -7  -4    8.92    0.79
   2  -7  -4    7.99    0.82
   2  -7  -3   39.12    1.55
   2  -7  -3   41.32    1.71
  -2   7   2    3.58    0.48
   2  -7  -2    3.73    0.53
   2  -7  -2    2.90    0.53
  -2   7   1    1.32    0.35
   2  -7  -1    1.83    0.39
   2  -7  -1    1.38    0.44
  -2   7   0    1.84    0.41
   2  -7   0    0.71    0.28
   2  -7   0    1.78    0.47
   2  -7   1    5.86    0.61
   2  -7   1    6.92    0.72
   2  -7   2    1.27    0.34
   2  -7   2    1.63    0.43
   2  -7   3    1.37    0.35
   2  -7   3    2.31    0.47
  -2   7  -4    4.27    0.53
   2  -7   4    4.09    0.56
   2  -7   4    4.31    0.58
   2  -7   5    0.18    0.26
  -2   7  -5    0.46    0.26
  -2   7  -6    1.75    0.42
   2  -7   6    1.58    0.40
  -2   7  -7    2.86    0.53
   2  -7   7    2.78    0.51
   2  -7   8    4.19    0.64
  -2   7  -8    4.05    0.63
  -2   7  -9    0.88    0.38
   2  -7   9    1.61    0.47
  -2   7 -10    1.30    0.47
   2  -7  10    1.19    0.44
   2  -7  11    0.44    0.32
   2  -6 -11    1.22    0.53
   2  -6 -10    0.54    0.36
   2  -6  -9    1.55    0.47
   2  -6  -9    1.48    0.46
   2  -6  -8    1.66    0.47
   2  -6  -8    1.45    0.41
   2  -6  -7    3.92    0.62
   2  -6  -7    4.27    0.62
   2  -6  -6   15.18    1.03
   2  -6  -6   15.67    1.09
  -2   6   5   23.35    1.15
   2  -6  -5   26.09    1.28
   2  -6  -5   28.29    1.40
   2  -6  -4    7.03    0.67
   2  -6  -4    7.74    0.76
   2  -6  -3    6.59    0.71
   2  -6  -3    7.27    0.65
  -2   6   3    6.90    0.58
   2  -6  -2   26.85    1.17
  -2   6   2   27.91    1.16
   2  -6  -2   27.48    1.31
  -2   6   1    8.17    0.67
  -2   6   1    7.50    0.57
   2  -6  -1    8.78    0.68
   2  -6  -1    8.14    0.74
  -2   6   0   24.74    1.15
   2  -6   0   23.38    1.06
   2  -6   0   24.10    1.18
   2  -6   1   41.11    1.37
  -2   6  -1   42.24    1.53
   2  -6   1   39.83    1.47
  -2   6  -2   10.09    0.64
   2  -6   2   10.38    0.72
   2  -6   2   10.37    0.78
   2  -6   3   15.71    0.90
  -2   6  -3   15.78    0.85
   2  -6   3   16.49    0.95
   2  -6   4   14.95    0.90
  -2   6  -4   15.43    0.88
   2  -6   4   14.40    0.88
   2  -6   5    1.83    0.38
  -2   6  -5    1.89    0.40
  -2   6  -6    8.62    0.72
  -2   6  -6    9.26    0.79
   2  -6   6    9.11    0.78
  -2   6  -7   11.57    0.93
   2  -6   7   11.26    0.91
  -2   6  -8   10.32    0.92
   2  -6   8    9.81    0.87
  -2   6  -9   12.26    1.05
   2  -6   9    9.51    0.90
  -2   6 -10    0.02    0.31
   2  -6  10    0.58    0.34
   2  -6  11    4.99    0.78
   2  -6  12   -0.03    0.32
   2  -5 -11    0.64    0.36
   2  -5 -10    1.76    0.48
   2  -5  -9   -0.36    0.32
   2  -5  -9    0.10    0.29
   2  -5  -8    0.25    0.28
   2  -5  -8    1.10    0.35
   2  -5  -7    8.47    0.78
   2  -5  -7    8.97    0.83
   2  -5  -6    1.95    0.44
   2  -5  -6    1.80    0.39
  -2   5   5   40.51    1.40
   2  -5  -5   44.86    1.58
   2  -5  -5   43.60    1.63
  -2   5   4    9.52    0.70
   2  -5  -4   10.46    0.76
   2  -5  -4    9.67    0.79
   2  -5  -3   70.01    1.79
   2  -5  -3   72.57    2.00
   2  -5  -2    3.72    0.52
  -2   5   2    4.29    0.45
   2  -5  -2    4.24    0.45
   2  -5  -1    3.68    0.49
  -2   5   1    3.74    0.41
  -2   5   1    5.06    0.50
   2  -5  -1    4.11    0.43
  -2   5   0   20.60    0.84
  -2   5   0   21.63    1.01
   2  -5   0   21.39    0.92
   2  -5   0   21.39    1.04
   2  -5   0   19.21    0.80
  -2   5  -1    1.80    0.25
  -2   5  -1    2.22    0.38
  -2   5  -1    2.58    0.34
   2  -5   1    1.80    0.30
  -2   5  -1    2.35    0.28
   2  -5   1    2.37    0.33
   2  -5   1    2.21    0.39
  -2   5  -2   16.14    0.73
  -2   5  -2   15.94    0.77
   2  -5   2   15.20    0.78
   2  -5   2   15.32    0.85
  -2   5  -3    7.68    0.55
   2  -5   3    8.10    0.60
  -2   5  -3    8.01    0.57
   2  -5   3    7.99    0.62
   2  -5   4   12.58    0.76
  -2   5  -4   12.28    0.75
  -2   5  -4   12.72    0.74
   2  -5   4   12.08    0.73
  -2   5  -5    0.45    0.24
  -2   5  -5    0.24    0.25
  -2   5  -5    0.47    0.25
   2  -5   5    0.03    0.22
  -2   5  -6    6.27    0.57
  -2   5  -6    5.68    0.62
   2  -5   6    6.75    0.64
  -2   5  -6    6.06    0.58
   2  -5   7   10.79    0.82
  -2   5  -7   10.68    0.85
  -2   5  -7   12.69    0.88
  -2   5  -8    7.89    0.78
   2  -5   8    5.67    0.65
  -2   5  -8    6.39    0.67
  -2   5  -9   -0.26    0.29
  -2   5  -9   -0.05    0.30
   2  -5   9    0.11    0.28
  -2   5 -10    4.71    0.67
   2  -5  10    4.88    0.68
   2  -5  11    0.84    0.38
   2  -5  12    0.10    0.34
   2  -4 -12    1.49    0.47
   2  -4 -11    0.32    0.31
   2  -4 -10    0.23    0.33
   2  -4  -9    3.78    0.56
   2  -4  -9    4.70    0.66
   2  -4  -8    0.06    0.29
   2  -4  -8    0.27    0.28
   2  -4  -7    5.24    0.60
   2  -4  -7    5.72    0.66
   2  -4  -6    0.88    0.29
   2  -4  -6    0.91    0.35
   2  -4  -5    3.23    0.49
   2  -4  -5    3.44    0.45
  -2   4   5    3.85    0.42
  -2   4   4    8.91    0.57
  -2   4   4   10.95    0.68
   2  -4  -4   10.18    0.69
   2  -4  -4   10.55    0.77
  -2   4   3   11.77    0.66
  -2   4   3   12.25    0.73
   2  -4  -3   12.76    0.71
   2  -4  -3   12.98    0.82
  -2   4   2   31.10    1.07
  -2   4   2   30.18    1.11
  -2   4   2   28.51    1.10
   2  -4  -2   29.50    1.01
  -2   4   2   26.71    1.00
   2  -4  -2   26.71    1.11
  -2   4   1   32.94    1.12
  -2   4   1   31.94    1.11
  -2   4   1   32.12    1.15
  -2   4   1   32.69    1.08
   2  -4  -1   33.23    1.03
   2  -4  -1   30.94    0.83
   2  -4  -1   33.21    1.20
  -2   4   0   18.30    0.88
  -2   4   0   19.65    0.89
   2  -4   0   17.96    0.75
  -2   4   0   17.51    0.75
   2  -4   0   17.24    0.85
  -2   4  -1   14.42    0.78
  -2   4  -1   14.88    0.64
  -2   4  -1   16.21    0.83
  -2   4  -1   16.20    0.75
  -2   4  -1   15.40    0.57
   2  -4   1   14.80    0.66
   2  -4   1   15.42    0.78
  -2   4  -2  113.39    1.70
  -2   4  -2  112.08    2.21
  -2   4  -2  103.16    1.59
  -2   4  -2  109.02    2.12
  -2   4  -2  110.93    1.95
   2  -4   2  106.63    1.80
   2  -4   2  105.71    1.95
  -2   4  -3   17.23    0.63
  -2   4  -3   18.16    0.87
  -2   4  -3   18.72    0.84
  -2   4  -3   19.39    0.80
   2  -4   3   18.74    0.79
   2  -4   3   18.25    0.81
   2  -4   4   31.94    1.04
  -2   4  -4   32.58    1.11
  -2   4  -4   33.15    1.17
  -2   4  -4   32.75    1.15
   2  -4   4   31.14    1.07
  -2   4  -5   20.01    0.92
  -2   4  -5   18.58    0.93
   2  -4   5   19.41    0.90
  -2   4  -5   20.36    0.97
  -2   4  -6    5.30    0.57
  -2   4  -6    4.59    0.46
   2  -4   6    4.68    0.51
  -2   4  -6    5.06    0.56
   2  -4   7   16.80    0.96
  -2   4  -7   17.00    1.03
  -2   4  -7   19.75    1.07
   2  -4   8    6.56    0.68
  -2   4  -8    6.89    0.69
   2  -4   9    7.65    0.75
   2  -4  10    1.48    0.42
   2  -4  11    0.47    0.34
   2  -4  12    0.84    0.38
   2  -4  13   -0.08    0.38
   2  -3 -12    2.78    0.63
   2  -3 -11    2.22    0.59
   2  -3 -10    8.48    0.89
   2  -3  -9   16.68    1.16
   2  -3  -9   15.73    1.03
   2  -3  -8    7.58    0.75
   2  -3  -8    7.21    0.71
   2  -3  -7    4.17    0.55
   2  -3  -7    4.34    0.55
   2  -3  -6   10.17    0.75
   2  -3  -6   11.47    0.83
  -2   3   5   20.97    0.86
   2  -3  -5   20.66    0.97
   2  -3  -5   22.09    1.07
  -2   3   4   50.71    1.23
  -2   3   4   52.11    1.34
  -2   3   4   50.39    1.15
   2  -3  -4   52.90    1.57
   2  -3  -4   51.74    1.42
   2  -3  -3    2.63    0.41
   2  -3  -3    2.77    0.34
  -2   3   3    2.65    0.34
  -2   3   3    2.41    0.29
  -2   3   2   45.20    1.20
  -2   3   2   50.48    1.33
  -2   3   2   49.33    1.37
   2  -3  -2   45.84    0.73
   2  -3  -2   49.58    1.18
   2  -3  -2   50.15    1.42
  -2   3   1   30.27    1.01
   2  -3  -1   30.45    1.02
  -2   3   1   27.76    0.96
  -2   3   1   31.07    1.05
  -2   3   1   29.44    1.00
   2  -3  -1   29.62    0.85
   2  -3  -1   28.38    1.03
  -2   3   0   11.12    0.64
   2  -3   0   11.51    0.65
  -2   3   0   11.60    0.64
  -2   3   0   11.24    0.62
  -2   3   0   10.72    0.63
  -2   3   0   10.49    0.56
   2  -3   0   10.90    0.50
   2  -3   0   10.48    0.62
   2  -3   1    2.56    0.34
  -2   3  -1    2.32    0.31
  -2   3  -1    2.22    0.34
  -2   3  -1    2.27    0.27
  -2   3  -1    2.41    0.34
  -2   3  -1    2.22    0.20
   2  -3   1    2.33    0.25
   2  -3   1    1.97    0.30
  -2   3  -1    2.04    0.31
  -2   3  -2   57.65    1.45
  -2   3  -2   55.04    1.46
  -2   3  -2   52.89    1.14
  -2   3  -2   56.78    1.41
  -2   3  -2   55.91    1.35
  -2   3  -2   55.50    1.08
   2  -3   2   51.99    1.09
   2  -3   2   53.48    1.25
   2  -3   2   56.15    1.44
   2  -3   3   11.07    0.66
  -2   3  -3   10.24    0.64
  -2   3  -3   10.01    0.49
  -2   3  -3   11.04    0.64
  -2   3  -3   10.65    0.55
   2  -3   3   11.11    0.54
  -2   3  -3   10.52    0.62
   2  -3   3   10.48    0.55
  -2   3  -3   10.26    0.67
   2  -3   4   16.34    0.82
  -2   3  -4   15.07    0.80
  -2   3  -4   14.84    0.76
  -2   3  -4   16.09    0.76
  -2   3  -4   15.96    0.74
   2  -3   4   15.38    0.68
   2  -3   4   14.95    0.64
  -2   3  -5    6.19    0.49
   2  -3   5    6.37    0.49
  -2   3  -5    5.71    0.51
  -2   3  -5    6.60    0.56
  -2   3  -6   18.79    0.81
   2  -3   6   18.99    0.89
  -2   3  -6   18.80    0.98
  -2   3  -7    3.80    0.53
   2  -3   7    4.20    0.48
  -2   3  -7    4.25    0.46
   2  -3   8    2.12    0.44
  -2   3  -8    1.89    0.35
   2  -3   9    3.91    0.54
   2  -3  10    5.29    0.66
   2  -3  11    0.23    0.24
   2  -3  12    0.39    0.30
  -2   3 -13    1.34    0.49
   2  -2 -12   -0.10    0.41
   2  -2 -11    1.37    0.50
   2  -2 -10    4.76    0.67
   2  -2  -9    0.47    0.30
   2  -2  -8   13.28    0.95
   2  -2  -8   14.04    0.92
   2  -2  -7   29.96    1.31
   2  -2  -7   29.41    1.28
   2  -2  -6    5.52    0.57
   2  -2  -6    5.80    0.58
  -2   2   6    5.68    0.51
   2  -2  -5   31.80    1.15
  -2   2   5   30.21    0.97
  -2   2   5   30.28    1.01
   2  -2  -5   31.44    1.21
  -2   2   4   18.58    0.77
  -2   2   4   17.89    0.66
  -2   2   4   18.53    0.75
   2  -2  -4   19.81    0.85
   2  -2  -4   18.80    0.91
   2  -2  -3   56.46    1.22
  -2   2   3   55.21    1.19
   2  -2  -3   54.78    1.25
  -2   2   3   55.89    1.31
  -2   2   3   54.92    1.50
  -2   2   3   54.18    1.21
   2  -2  -3   55.72    1.49
   2  -2  -2   13.01    0.60
  -2   2   2   12.40    0.59
   2  -2  -2   11.91    0.34
   2  -2  -2   12.99    0.70
  -2   2   2   12.47    0.62
  -2   2   2   12.25    0.68
   2  -2  -2   11.83    0.53
   2  -2  -1    6.24    0.43
  -2   2   1    5.75    0.42
   2  -2  -1    5.39    0.44
  -2   2   1    5.63    0.42
  -2   2   1    5.71    0.44
   2  -2  -1    5.81    0.33
   2  -2   0   53.45    0.89
   2  -2   0   56.86    1.30
  -2   2   0   53.48    1.29
  -2   2   0   55.81    1.31
  -2   2   0   52.21    1.22
  -2   2   0   55.36    1.29
   2  -2   0   52.06    1.25
  -2   2  -1  116.64    1.91
   2  -2   1  117.33    1.89
  -2   2  -1  115.82    1.91
  -2   2  -1  109.55    1.70
  -2   2  -1  117.19    1.87
  -2   2  -1  113.76    1.85
   2  -2   1  108.15    1.21
   2  -2   1  108.05    1.69
  -2   2  -2   18.62    0.80
  -2   2  -2   20.25    0.80
   2  -2   2   18.90    0.78
  -2   2  -2   19.45    0.81
  -2   2  -2   17.83    0.67
  -2   2  -2   18.82    0.77
   2  -2   2   18.49    0.54
   2  -2   2   18.89    0.68
   2  -2   3    3.96    0.29
   2  -2   3    4.71    0.42
  -2   2  -3    4.01    0.40
  -2   2  -3    4.10    0.39
  -2   2  -3    4.16    0.34
  -2   2  -3    4.11    0.37
  -2   2  -3    4.79    0.43
   2  -2   3    4.62    0.34
  -2   2  -4    0.86    0.24
   2  -2   4    1.22    0.24
  -2   2  -4    0.93    0.22
  -2   2  -4    0.90    0.24
  -2   2  -4    1.06    0.22
   2  -2   4    0.90    0.19
   2  -2   4    0.80    0.16
   2  -2   5   28.00    1.02
  -2   2  -5   28.35    1.01
  -2   2  -5   26.92    1.03
  -2   2  -5   28.82    0.94
   2  -2   5   26.16    0.89
  -2   2  -5   28.21    1.09
  -2   2  -5   28.27    1.03
   2  -2   6   52.76    1.43
  -2   2  -6   53.41    1.42
  -2   2  -6   54.62    1.50
  -2   2  -6   54.83    1.29
   2  -2   6   55.91    1.42
  -2   2  -6   56.83    1.66
  -2   2  -6   56.95    1.53
   2  -2   7   42.36    1.36
  -2   2  -7   46.69    1.47
  -2   2  -8   58.87    1.73
   2  -2   8   55.06    1.67
   2  -2   9    3.65    0.50
  -2   2  -9    3.06    0.44
   2  -2  10    0.83    0.33
  -2   2 -10    0.94    0.31
  -2   2 -11    8.33    0.82
  -2   2 -12    1.48    0.42
  -2   2 -13    0.25    0.36
  -2   2 -14    1.38    0.47
   2  -1 -12    2.13    0.57
   2  -1 -11    1.38    0.49
   2  -1 -10    7.38    0.81
   2  -1  -9   14.64    1.04
   2  -1  -8    1.23    0.33
   2  -1  -8    0.72    0.29
   2  -1  -7   17.17    0.98
   2  -1  -7   16.24    0.93
   2  -1  -6    2.79    0.42
   2  -1  -6    3.16    0.43
  -2   1   5   54.83    1.63
   2  -1  -5   51.38    1.42
  -2   1   5   51.96    1.42
   2  -1  -5   54.56    1.55
   2  -1  -4   13.81    0.54
  -2   1   4   14.12    0.56
   2  -1  -4   14.43    0.69
  -2   1   4   13.88    0.79
   2  -1  -4   14.45    0.77
  -2   1   4   13.42    0.68
   2  -1  -3   15.99    0.60
  -2   1   3   15.04    0.60
   2  -1  -3   14.75    0.37
  -2   1   3   15.49    0.78
   2  -1  -3   15.51    0.64
  -2   1   3   14.90    0.68
   2  -1  -3   16.32    0.78
   2  -1  -2  286.13    2.59
  -2   1   2  267.90    2.56
  -2   1   2  271.04    3.02
  -2   1   2  271.57    2.73
   2  -1  -2  272.85    2.28
   2  -1  -2  281.83    3.04
   2  -1  -1   18.21    0.68
  -2   1   1   16.32    0.65
   2  -1  -1   17.32    0.51
  -2   1   1   17.22    0.71
  -2   1   1   16.62    0.72
   2  -1  -1   15.95    0.46
   2  -1  -1   16.11    0.71
   2  -1   0    6.43    0.44
  -2   1   0    5.55    0.42
  -2   1   0    5.40    0.42
  -2   1   0    5.94    0.45
  -2   1   0    5.55    0.40
   2  -1   0    5.30    0.40
   2  -1   1   33.52    0.98
  -2   1  -1   29.83    0.91
  -2   1  -1   31.73    0.92
  -2   1  -1   31.70    0.95
  -2   1  -1   32.14    0.96
   2  -1   1   30.20    0.84
  -2   1  -2   89.02    1.61
   2  -1   2   94.93    1.69
  -2   1  -2   89.23    1.62
  -2   1  -2   88.26    1.52
  -2   1  -2   95.21    1.62
  -2   1  -2   91.32    1.64
   2  -1   2   87.33    1.18
   2  -1   2   87.31    1.33
  -2   1  -3   28.04    0.92
   2  -1   3   30.20    0.98
  -2   1  -3   28.91    0.95
  -2   1  -3   28.91    0.88
  -2   1  -3   29.27    0.91
   2  -1   3   27.89    0.63
   2  -1   3   28.06    0.69
  -2   1  -3   29.55    0.98
   2  -1   4    0.07    0.08
   2  -1   4    0.00    0.14
  -2   1  -4    0.17    0.13
  -2   1  -4   -0.09    0.18
  -2   1  -4    0.14    0.16
   2  -1   4    0.01    0.10
  -2   1  -4   -0.01    0.15
  -2   1  -5    5.67    0.45
   2  -1   5    5.13    0.43
  -2   1  -5    5.82    0.46
  -2   1  -5    5.36    0.51
   2  -1   5    5.18    0.39
  -2   1  -5    5.34    0.48
   2  -1   6   14.63    0.72
  -2   1  -6   14.96    0.74
  -2   1  -6   15.55    0.76
   2  -1   6   15.92    0.74
  -2   1  -6   15.09    0.81
   2  -1   7    8.26    0.57
  -2   1  -7    9.44    0.61
   2  -1   7    9.84    0.65
  -2   1  -7    9.92    0.63
  -2   1  -7    9.53    0.69
  -2   1  -8    3.76    0.47
   2  -1   8    3.85    0.46
  -2   1  -8    3.82    0.50
  -2   1  -9    4.58    0.56
  -2   1  -9    5.56    0.60
  -2   1 -10    3.29    0.51
  -2   1 -10    3.32    0.49
  -2   1 -11   10.69    0.92
  -2   1 -11    9.84    0.86
  -2   1 -12    1.35    0.44
  -2   1 -12    0.37    0.26
  -2   1 -13    1.37    0.43
   2  -1  13    1.77    0.54
  -2   1 -14    0.42    0.37
   2   0 -12    0.23    0.30
  -2   0  11    0.97    0.38
   2   0 -11   -0.19    0.35
   2   0 -10    4.41    0.64
   2   0  -9    8.29    0.80
   2   0  -8    3.10    0.46
   2   0  -8    3.13    0.52
  -2   0   8    3.29    0.51
   2   0  -7   20.94    1.09
  -2   0   7   22.72    1.16
   2   0  -7   21.55    1.06
   2   0  -6   37.94    1.33
  -2   0   6   40.09    1.43
   2   0  -6   40.25    1.38
   2   0  -5    5.36    0.41
  -2   0   5    5.67    0.54
   2   0  -5    6.23    0.52
   2   0  -5    5.74    0.53
   2   0  -4    3.62    0.36
   2   0  -4    4.12    0.30
  -2   0   4    4.34    0.46
   2   0  -4    3.65    0.31
  -2   0   4    3.87    0.41
   2   0  -4    4.61    0.29
   2   0  -4    4.15    0.43
   2   0  -3    7.00    0.39
   2   0  -3    6.58    0.50
  -2   0   3    7.18    0.43
  -2   0   3    6.41    0.48
  -2   0   3    6.75    0.51
   2   0  -3    6.22    0.35
   2   0  -3    6.69    0.33
   2   0  -3    6.72    0.42
  -2   0   3    7.30    0.34
   2   0  -2   23.46    0.74
   2   0  -2   21.02    0.62
  -2   0   2   24.17    0.79
  -2   0   2   23.35    0.62
  -2   0   2   21.96    0.85
   2   0  -2   21.77    0.53
  -2   0   2   21.54    0.81
   2   0  -2   22.53    0.86
   2   0  -1  142.05    1.83
  -2   0   1  144.79    1.93
  -2   0   1  140.67    2.03
  -2   0   1  133.04    1.93
   2   0   0   10.38    0.47
  -2   0   0   10.96    0.55
  -2   0   0   10.00    0.55
  -2   0   0    9.84    0.54
   2   0   0   10.81    0.53
   2   0   1   11.31    0.56
  -2   0  -1   10.85    0.56
  -2   0  -1   10.10    0.54
  -2   0  -1   10.42    0.54
   2   0   1   11.08    0.52
   2   0   1   10.40    0.38
  -2   0  -1   10.14    0.54
   2   0   2    9.31    0.41
   2   0   2    9.92    0.54
  -2   0  -2    9.53    0.53
  -2   0  -2    9.36    0.52
  -2   0  -2    9.16    0.52
   2   0   2    8.94    0.42
  -2   0  -2    9.53    0.54
   2   0   3  187.86    2.33
  -2   0  -3  191.71    2.40
  -2   0  -3  187.64    2.31
  -2   0  -3  180.75    2.29
  -2   0  -3  187.11    2.41
  -2   0  -3  179.30    2.35
   2   0   3  179.69    2.04
  -2   0  -3  185.60    1.48
   2   0   3  180.93    1.67
   2   0   4   47.08    1.21
  -2   0  -4   45.52    1.15
  -2   0  -4   45.75    1.25
   2   0   4   44.70    1.14
  -2   0  -4   46.05    0.92
  -2   0  -4   45.68    1.27
   2   0   4   42.83    0.71
  -2   0  -5  320.38    2.97
  -2   0  -5  324.28    2.88
   2   0   5  332.26    3.29
  -2   0  -5  331.98    3.15
   2   0   5  324.26    3.36
  -2   0  -5  330.97    3.62
  -2   0  -5  331.71    3.54
  -2   0  -6   84.96    1.57
   2   0   6   84.57    1.71
  -2   0  -6   89.41    1.67
   2   0   6   86.72    1.91
  -2   0  -6   88.29    1.69
  -2   0  -6   90.37    1.99
  -2   0  -7   18.68    0.77
   2   0   7   17.66    0.82
   2   0   7   18.82    0.98
  -2   0  -7   18.58    0.87
  -2   0  -7   18.65    0.97
  -2   0  -8    5.25    0.54
   2   0   8    5.97    0.62
  -2   0  -8    5.55    0.59
   2   0   9   10.41    0.84
  -2   0  -9    9.10    0.74
  -2   0  -9   10.13    0.82
   2   0  10   11.00    0.93
  -2   0 -10   11.98    0.91
  -2   0 -10   11.01    0.90
  -2   0 -11    3.85    0.61
  -2   0 -11    3.42    0.57
   2   0  11    2.59    0.64
  -2   0 -12    3.08    0.57
  -2   0 -12    2.34    0.52
   2   0  12    2.49    0.60
  -2   0 -13    1.21    0.42
  -2   0 -13    1.19    0.46
   2   0  13    0.68    0.38
  -2   0 -14   -0.59    0.45
   2   1 -12    1.26    0.45
   2   1 -11    2.02    0.55
   2   1 -10    4.46    0.67
  -2  -1   9   14.74    1.00
   2   1  -9   14.11    1.03
  -2  -1   8   17.02    1.01
   2   1  -8   18.31    1.02
   2   1  -8   16.76    1.05
  -2  -1   7   62.54    1.82
  -2  -1   7   60.83    1.83
   2   1  -7   55.93    1.63
   2   1  -7   61.32    1.77
  -2  -1   6   16.30    0.90
  -2  -1   6   17.03    0.91
   2   1  -6   15.11    0.80
  -2  -1   5   21.13    0.96
  -2  -1   5   21.42    0.93
   2   1  -5   20.60    0.85
   2   1  -4   17.01    0.61
  -2  -1   4   16.17    0.64
   2   1  -4   15.43    0.63
  -2  -1   4   15.91    0.79
  -2  -1   4   16.34    0.74
   2   1  -4   15.96    0.68
   2   1  -3   73.68    1.31
   2   1  -3   70.53    1.27
  -2  -1   3   70.74    1.34
  -2  -1   3   69.34    1.55
  -2  -1   3   69.78    1.35
   2   1  -3   66.68    1.25
  -2  -1   3   66.35    1.57
   2   1  -2    4.97    0.37
  -2  -1   2    5.20    0.39
  -2  -1   2    5.43    0.45
  -2  -1   2    4.87    0.41
  -2  -1   2    5.95    0.35
   2   1  -2    4.84    0.32
  -2  -1   2    4.82    0.34
  -2  -1   1    4.11    0.32
  -2  -1   1    4.09    0.35
  -2  -1   1    4.48    0.39
  -2  -1   1    4.35    0.26
   2   1  -1    4.23    0.28
  -2  -1   1    4.34    0.39
   2   1  -1    4.77    0.37
   2   1   0   37.38    1.02
  -2  -1   0   35.68    0.98
  -2  -1   0   34.19    0.99
  -2  -1   0   33.61    0.94
  -2  -1   0   34.07    0.91
  -2  -1   0   32.67    0.99
   2   1   0   34.86    0.77
   2   1   1   45.58    1.10
   2   1   1   47.30    1.17
  -2  -1  -1   45.51    1.12
  -2  -1  -1   44.11    1.13
  -2  -1  -1   45.06    1.07
   2   1   1   43.20    0.89
  -2  -1  -2    1.17    0.22
   2   1   2    1.42    0.26
  -2  -1  -2    1.43    0.24
  -2  -1  -2    1.18    0.24
   2   1   2    1.38    0.23
   2   1   2    1.64    0.22
  -2  -1  -2    1.11    0.22
   2   1   3   39.30    1.13
  -2  -1  -3   38.77    1.06
   2   1   3   41.21    1.15
   2   1   3   37.67    0.99
  -2  -1  -3   38.36    0.74
  -2  -1  -3   37.74    1.10
  -2  -1  -3   37.41    1.05
   2   1   4    9.97    0.58
   2   1   4    9.92    0.57
  -2  -1  -4   10.59    0.57
  -2  -1  -4    9.58    0.45
  -2  -1  -4    9.32    0.57
  -2  -1  -4   10.45    0.63
   2   1   5   57.61    1.40
  -2  -1  -5   58.26    1.32
   2   1   5   57.45    1.47
  -2  -1  -5   57.51    1.49
  -2  -1  -5   58.63    1.24
  -2  -1  -5   57.51    1.53
   2   1   6    4.14    0.39
  -2  -1  -6    4.12    0.38
   2   1   6    3.99    0.46
  -2  -1  -6    4.36    0.41
  -2  -1  -6    4.72    0.50
   2   1   7    7.43    0.54
  -2  -1  -7    7.77    0.52
   2   1   7    7.85    0.65
  -2  -1  -7    7.49    0.57
  -2  -1  -7    8.30    0.69
  -2  -1  -8    5.22    0.54
   2   1   8    4.50    0.54
  -2  -1  -9    0.24    0.24
   2   1   9    0.52    0.26
  -2  -1 -10    0.43    0.24
   2   1  10    0.45    0.30
  -2  -1 -11    0.03    0.26
   2   1  11    0.26    0.32
  -2  -1 -12    0.19    0.28
   2   1  12    0.36    0.35
  -2  -1 -13    1.13    0.47
   2   1  13    0.48    0.33
  -2  -1 -14    0.22    0.33
  -2  -1 -14    0.96    0.50
   2   2 -12    1.57    0.52
   2   2 -11    2.16    0.49
   2   2 -10    1.27    0.40
   2   2  -9    6.66    0.71
  -2  -2   9    7.72    0.78
  -2  -2   8    4.29    0.52
   2   2  -8    3.23    0.49
  -2  -2   8    3.28    0.52
  -2  -2   7   12.27    0.80
  -2  -2   7   12.21    0.87
   2   2  -7   10.83    0.78
   2   2  -6    0.32    0.22
  -2  -2   6    0.45    0.25
  -2  -2   6    0.44    0.23
  -2  -2   5   66.83    1.64
  -2  -2   5   69.45    1.72
   2   2  -5   65.52    1.62
  -2  -2   4   43.94    1.11
   2   2  -4   40.92    1.16
  -2  -2   4   45.18    1.28
  -2  -2   4   45.02    1.27
   2   2  -4   42.98    1.22
  -2  -2   3  100.76    1.69
  -2  -2   3   99.59    1.81
  -2  -2   3   99.18    1.71
   2   2  -3   92.64    1.68
   2   2  -3   95.25    1.69
  -2  -2   3   95.58    1.99
  -2  -2   2   23.35    0.83
  -2  -2   2   24.22    0.88
  -2  -2   2   22.62    0.92
  -2  -2   2   23.95    0.76
   2   2  -2   22.30    0.78
  -2  -2   1   47.81    1.19
  -2  -2   1   46.95    1.19
  -2  -2   1   46.93    0.94
   2   2  -1   45.63    1.07
  -2  -2   1   46.93    1.25
  -2  -2   1   46.26    1.16
  -2  -2   0  117.54    1.83
  -2  -2   0  120.64    1.90
  -2  -2   0  115.43    1.84
  -2  -2   0  118.23    1.91
  -2  -2   0  120.85    1.37
   2   2   0  115.75    1.67
  -2  -2  -1   94.91    1.70
  -2  -2  -1   94.05    1.69
  -2  -2  -1   95.04    1.68
  -2  -2  -1   87.62    1.45
  -2  -2  -1   93.92    1.16
   2   2   1   91.79    1.50
  -2  -2  -2   59.62    1.36
  -2  -2  -2   60.64    0.98
  -2  -2  -2   58.66    1.37
  -2  -2  -2   57.02    1.19
   2   2   2   59.10    1.26
  -2  -2  -2   56.91    1.28
   2   2   2   61.98    1.42
  -2  -2  -3  273.26    2.75
   2   2   3  289.07    3.14
  -2  -2  -3  284.37    2.98
   2   2   3  277.21    2.91
  -2  -2  -3  281.61    2.33
  -2  -2  -3  273.91    2.97
  -2  -2  -4   20.19    0.81
  -2  -2  -4   20.98    0.72
   2   2   4   22.23    0.92
   2   2   4   19.49    0.84
  -2  -2  -4   19.30    0.80
  -2  -2  -4   20.69    0.89
  -2  -2  -5   11.65    0.63
   2   2   5   11.72    0.70
  -2  -2  -5   11.84    0.60
  -2  -2  -5   11.77    0.68
  -2  -2  -5   12.21    0.74
   2   2   6  330.03    3.59
  -2  -2  -6  344.63    3.37
   2   2   6  346.17    3.94
  -2  -2  -6  345.20    3.52
   2   2   7   13.88    0.75
  -2  -2  -7   13.83    0.70
  -2  -2  -7   14.89    0.82
   2   2   7   14.59    0.89
  -2  -2  -8    1.58    0.37
   2   2   8    1.80    0.41
  -2  -2  -9    1.03    0.30
   2   2   9    1.02    0.37
  -2  -2 -10   -0.03    0.24
   2   2  10    0.55    0.31
  -2  -2 -11    0.36    0.28
   2   2  11    0.44    0.37
  -2  -2 -12    2.89    0.55
   2   2  12    3.59    0.66
  -2  -2 -13    0.07    0.31
   2   2  13    0.90    0.48
  -2  -2 -14   -0.32    0.41
   2   3 -12    0.04    0.35
  -2  -3  11   -0.01    0.31
  -2  -3  10    1.58    0.45
   2   3 -10    1.57    0.48
  -2  -3   9    2.49    0.54
   2   3  -9    1.22    0.37
  -2  -3   8   24.48    1.33
   2   3  -8   21.33    1.21
  -2  -3   7   10.21    0.82
   2   3  -7    8.56    0.74
  -2  -3   6   19.06    0.90
  -2  -3   6   17.38    0.99
   2   3  -6   17.69    0.99
  -2  -3   5    5.01    0.47
  -2  -3   5    4.78    0.51
   2   3  -5    4.85    0.53
  -2  -3   4    8.52    0.54
   2   3  -4    7.56    0.58
  -2  -3   4    9.66    0.60
  -2  -3   4    8.62    0.61
   2   3  -4    9.25    0.64
  -2  -3   3    0.75    0.22
  -2  -3   3    0.60    0.19
  -2  -3   3    0.69    0.26
   2   3  -3    0.53    0.23
   2   3  -3    0.84    0.22
  -2  -3   3    0.84    0.23
  -2  -3   2   43.02    1.21
  -2  -3   2   43.87    1.17
   2   3  -2   42.29    1.21
  -2  -3   2   42.59    1.12
  -2  -3   2   42.85    1.32
  -2  -3   1   13.17    0.65
  -2  -3   1   14.72    0.72
  -2  -3   1   13.66    0.60
   2   3  -1   13.82    0.69
  -2  -3   1   13.03    0.71
  -2  -3   0   25.34    0.94
  -2  -3   0   24.86    0.89
  -2  -3   0   24.70    0.92
  -2  -3   0   26.12    0.78
   2   3   0   23.34    0.86
  -2  -3   0   26.03    0.97
  -2  -3  -1   69.03    1.56
  -2  -3  -1   66.37    1.52
  -2  -3  -1   64.78    1.46
  -2  -3  -1   63.64    1.46
  -2  -3  -1   62.69    1.18
   2   3   1   60.90    1.41
  -2  -3  -1   66.16    1.20
  -2  -3  -1   61.52    1.26
  -2  -3  -2   16.29    0.77
  -2  -3  -2   16.65    0.79
  -2  -3  -2   15.66    0.61
  -2  -3  -2   16.70    0.63
   2   3   2   14.62    0.71
  -2  -3  -2   15.43    0.68
  -2  -3  -3   12.95    0.59
  -2  -3  -3   13.85    0.72
  -2  -3  -3   13.49    0.73
   2   3   3   13.24    0.71
  -2  -3  -3   13.48    0.59
   2   3   3   15.15    0.78
  -2  -3  -3   12.83    0.67
  -2  -3  -4    3.06    0.38
   2   3   4    2.46    0.36
  -2  -3  -4    1.83    0.26
  -2  -3  -4    2.55    0.30
  -2  -3  -4    2.75    0.35
  -2  -3  -5   25.86    0.98
   2   3   5   26.22    1.09
  -2  -3  -5   26.08    0.96
  -2  -3  -5   25.60    0.97
  -2  -3  -6   21.67    0.95
  -2  -3  -6   21.06    0.90
   2   3   6   22.48    1.08
  -2  -3  -7    7.67    0.56
  -2  -3  -7    8.08    0.65
   2   3   7    8.96    0.73
   2   3   8   10.49    0.84
  -2  -3  -8   10.62    0.78
  -2  -3  -9    3.19    0.50
   2   3   9    3.14    0.53
  -2  -3 -10    1.77    0.41
   2   3  10    1.22    0.38
  -2  -3 -11    1.76    0.50
   2   3  11    1.56    0.49
  -2  -3 -12    1.16    0.41
   2   3  12    0.50    0.30
  -2  -3 -13    1.91    0.54
   2   3  13    0.98    0.44
  -2  -3 -14    1.32    0.46
   2   4 -11    0.72    0.37
  -2  -4  11    1.01    0.44
   2   4 -10    0.91    0.33
  -2  -4  10    1.46    0.50
   2   4  -9    2.34    0.50
  -2  -4   9    2.72    0.53
   2   4  -8    2.43    0.49
  -2  -4   8    2.97    0.55
   2   4  -7    2.18    0.46
  -2  -4   7    1.97    0.42
  -2  -4   6   18.91    1.07
   2   4  -6   18.15    1.07
   2   4  -5    2.11    0.41
  -2  -4   5    2.00    0.39
  -2  -4   4    2.85    0.37
  -2  -4   4    2.98    0.36
   2   4  -4    2.30    0.40
  -2  -4   4    2.98    0.43
  -2  -4   3    2.27    0.34
  -2  -4   3    2.11    0.28
   2   4  -3    2.30    0.39
  -2  -4   3    2.42    0.41
  -2  -4   3    2.35    0.36
  -2  -4   2   55.17    1.47
  -2  -4   2   54.99    1.33
  -2  -4   2   55.96    1.42
   2   4  -2   51.36    1.49
  -2  -4   2   55.79    1.57
   2   4  -1   51.35    1.46
  -2  -4   1   54.23    1.47
  -2  -4   1   54.45    1.34
  -2  -4   1   53.28    1.31
  -2  -4   1   54.70    1.48
  -2  -4   0   15.89    0.81
  -2  -4   0   15.86    0.74
  -2  -4   0   16.58    0.73
   2   4   0   14.55    0.77
  -2  -4   0   15.50    0.77
  -2  -4  -1  131.39    2.31
  -2  -4  -1  126.43    1.60
  -2  -4  -1  132.13    2.14
   2   4   1  126.60    2.24
  -2  -4  -1  132.89    1.99
  -2  -4  -1  119.87    1.80
  -2  -4  -2   42.65    1.32
  -2  -4  -2   39.97    0.93
  -2  -4  -2   44.28    1.18
  -2  -4  -2   39.70    1.12
   2   4   2   40.70    1.29
  -2  -4  -3   41.51    1.31
  -2  -4  -3   40.28    1.01
  -2  -4  -3   43.86    1.20
   2   4   3   40.36    1.32
  -2  -4  -3   41.72    1.23
  -2  -4  -4    8.26    0.61
   2   4   4    8.27    0.65
  -2  -4  -4    8.32    0.51
  -2  -4  -4    8.49    0.57
   2   4   5   38.21    1.41
  -2  -4  -5   39.95    1.31
  -2  -4  -5   39.92    1.27
  -2  -4  -5   39.79    1.18
  -2  -4  -6   19.74    0.93
   2   4   6   20.09    1.06
  -2  -4  -6   20.58    0.99
  -2  -4  -7   11.17    0.71
   2   4   7   11.19    0.85
  -2  -4  -7   10.99    0.78
   2   4   8    8.33    0.77
  -2  -4  -8    8.53    0.75
  -2  -4  -9    3.98    0.58
   2   4   9    4.17    0.60
   2   4  10    7.61    0.81
  -2  -4 -10    6.00    0.71
  -2  -4 -11    2.05    0.48
   2   4  11    1.69    0.49
  -2  -4 -12    3.01    0.59
   2   4  12    3.04    0.62
  -2  -4 -13    0.75    0.40
   2   4  13   -0.11    0.31
   2   5 -11    1.87    0.53
  -2  -5  11    1.57    0.58
   2   5 -10    3.84    0.64
  -2  -5  10    6.46    0.84
   2   5  -9    3.67    0.65
  -2  -5   9    3.17    0.58
   2   5  -8    5.34    0.73
  -2  -5   8    5.32    0.71
  -2  -5   7    8.61    0.83
   2   5  -7    7.79    0.77
  -2  -5   6   13.19    0.94
   2   5  -6   13.59    0.97
  -2  -5   5   12.90    0.90
   2   5  -5   12.15    0.90
  -2  -5   4    6.94    0.58
  -2  -5   4    7.41    0.66
   2   5  -4    7.81    0.72
  -2  -5   3   25.90    1.12
   2   5  -3   26.03    1.21
  -2  -5   3   26.25    1.22
   2   5  -2    2.47    0.42
  -2  -5   2    2.42    0.39
  -2  -5   2    2.10    0.30
  -2  -5   2    2.74    0.39
  -2  -5   1    8.55    0.61
   2   5  -1    7.79    0.66
  -2  -5   1    8.53    0.64
  -2  -5   0    4.24    0.44
   2   5   0    3.90    0.48
  -2  -5   0    5.21    0.48
  -2  -5  -1    6.70    0.45
  -2  -5  -1    7.58    0.55
   2   5   1    7.40    0.63
  -2  -5  -1    7.54    0.56
   2   5   2    0.95    0.31
  -2  -5  -2    1.10    0.23
  -2  -5  -2    1.06    0.26
   2   5   3    5.41    0.58
  -2  -5  -3    5.65    0.52
  -2  -5  -3    5.73    0.49
  -2  -5  -4    2.95    0.40
  -2  -5  -4    2.78    0.42
   2   5   4    2.64    0.41
  -2  -5  -5    2.75    0.40
  -2  -5  -5    3.10    0.42
   2   5   5    3.52    0.48
  -2  -5  -6   11.30    0.76
   2   5   6   10.14    0.80
  -2  -5  -6   10.63    0.77
  -2  -5  -7    4.63    0.56
  -2  -5  -7    4.57    0.50
   2   5   7    4.35    0.58
  -2  -5  -8    0.53    0.27
   2   5   8    0.78    0.38
  -2  -5  -9    1.24    0.39
   2   5   9    0.61    0.34
  -2  -5 -10    3.83    0.63
   2   5  10    3.67    0.63
  -2  -5 -11    2.27    0.52
   2   5  11    3.51    0.67
  -2  -5 -12    1.26    0.45
   2   5  12    0.80    0.41
  -2  -5 -13    1.76    0.55
   2   6 -10    3.04    0.63
  -2  -6  10    2.50    0.60
   2   6  -9    0.90    0.42
  -2  -6   9    0.77    0.39
  -2  -6   8   12.64    1.08
   2   6  -8   10.68    1.00
  -2  -6   7    7.64    0.82
   2   6  -7    7.14    0.82
  -2  -6   6    7.68    0.77
   2   6  -6    7.99    0.81
  -2  -6   5   13.12    0.95
   2   6  -5   11.19    0.91
  -2  -6   4   34.21    1.44
   2   6  -4   28.86    1.42
  -2  -6   3    5.15    0.60
   2   6  -3    4.60    0.62
  -2  -6   3    5.56    0.63
  -2  -6   2    0.08    0.23
   2   6  -2    0.00    0.28
  -2  -6   2    0.11    0.25
  -2  -6   1    7.39    0.64
   2   6  -1    7.37    0.69
  -2  -6   1    7.83    0.64
   2   6   0   10.23    0.78
  -2  -6   0   11.53    0.77
  -2  -6   0   10.91    0.71
  -2  -6  -1   30.94    1.14
   2   6   1   30.70    1.32
  -2  -6  -1   31.78    1.23
   2   6   2   19.91    1.07
  -2  -6  -2   20.03    1.00
   2   6   3   14.46    0.94
  -2  -6  -3   14.31    0.86
  -2  -6  -4    3.28    0.46
   2   6   4    2.96    0.50
   2   6   5   18.01    1.08
  -2  -6  -5   19.31    1.05
  -2  -6  -6    5.86    0.61
   2   6   6    7.08    0.73
  -2  -6  -6    5.51    0.61
  -2  -6  -7    6.94    0.65
   2   6   7    6.97    0.73
  -2  -6  -7    6.90    0.71
   2   6   8   17.25    1.18
  -2  -6  -8   16.20    1.10
  -2  -6  -9   10.07    0.91
   2   6   9   11.64    1.01
  -2  -6 -10    2.34    0.53
   2   6  10    2.74    0.57
  -2  -6 -11    4.08    0.66
   2   6  11    4.66    0.71
  -2  -6 -12    2.15    0.59
   2   6  12    2.07    0.53
   2   7  -9    0.84    0.41
  -2  -7   9    1.30    0.49
   2   7  -8    2.03    0.54
  -2  -7   8    1.23    0.45
   2   7  -7    0.87    0.42
  -2  -7   7    0.53    0.31
   2   7  -6    0.41    0.32
  -2  -7   6    1.25    0.43
  -2  -7   5    8.45    0.82
   2   7  -5    8.45    0.88
  -2  -7   4    7.64    0.77
   2   7  -4    6.57    0.74
  -2  -7   3    1.62    0.38
   2   7  -3    1.96    0.48
  -2  -7   3    2.76    0.49
  -2  -7   2    2.46    0.44
   2   7  -2    1.88    0.45
  -2  -7   2    2.22    0.44
  -2  -7   1   19.28    1.07
   2   7  -1   19.77    1.16
  -2  -7   1   18.24    0.99
  -2  -7   0    2.02    0.35
   2   7   0    2.14    0.46
  -2  -7   0    1.81    0.36
   2   7   1   24.45    1.27
  -2  -7  -1   21.98    1.12
   2   7   2    5.72    0.65
  -2  -7  -2    5.07    0.58
   2   7   3    0.80    0.38
  -2  -7  -3    1.11    0.37
  -2  -7  -4    4.40    0.57
   2   7   4    4.02    0.60
  -2  -7  -5   13.03    0.94
   2   7   5   12.89    0.97
   2   7   6   12.02    0.97
  -2  -7  -6   10.73    0.89
  -2  -7  -7    3.78    0.58
  -2  -7  -7    4.96    0.60
   2   7   7    3.94    0.60
  -2  -7  -8    3.03    0.62
   2   7   8    1.38    0.42
  -2  -7  -9    1.12    0.41
   2   7   9    1.31    0.46
  -2  -7 -10    0.46    0.35
   2   7  10    1.08    0.47
  -2  -7 -11    3.04    0.62
   2   7  11    2.97    0.62
   2   8  -8    0.93    0.40
  -2  -8   8    0.76    0.38
   2   8  -7    0.29    0.32
  -2  -8   7    0.44    0.33
   2   8  -6    0.16    0.36
  -2  -8   6    0.23    0.31
   2   8  -5    1.67    0.49
  -2  -8   5    2.62    0.52
  -2  -8   4    1.92    0.44
   2   8  -4    1.71    0.50
  -2  -8   4    1.54    0.45
  -2  -8   3   -0.12    0.24
   2   8  -3    0.38    0.34
  -2  -8   2    1.24    0.39
  -2  -8   2    1.79    0.39
   2   8  -2    0.80    0.34
  -2  -8   1    7.87    0.77
   2   8  -1    7.40    0.80
   2   8   0   12.74    1.02
  -2  -8   0   14.65    1.01
   2   8   1    1.55    0.43
  -2  -8  -1    1.46    0.39
   2   8   2   13.36    1.02
  -2  -8  -2   12.06    0.90
   2   8   3    4.23    0.61
  -2  -8  -3    4.89    0.62
  -2  -8  -4   10.49    0.88
   2   8   4   10.47    0.94
  -2  -8  -5    2.16    0.45
   2   8   5    2.13    0.50
  -2  -8  -6    0.92    0.38
   2   8   6    0.18    0.32
  -2  -8  -7    0.08    0.30
   2   8   7    0.81    0.43
  -2  -8  -8    3.76    0.62
   2   8   8    2.54    0.55
  -2  -8  -9   -0.19    0.31
   2   8   9   -0.43    0.32
  -2  -8 -10    0.58    0.40
   2   8  10    0.49    0.34
   2   9  -7    0.98    0.43
  -2  -9   7    0.87    0.41
   2   9  -6    1.24    0.44
  -2  -9   6    1.53    0.47
  -2  -9   5    1.24    0.41
   2   9  -5    1.28    0.49
  -2  -9   5    1.68    0.48
   2   9  -4    3.23    0.64
  -2  -9   4    3.03    0.62
   2   9  -3    4.52    0.71
  -2  -9   3    4.39    0.65
   2   9  -2    5.40    0.76
  -2  -9   2    6.27    0.75
   2   9  -1    5.68    0.77
  -2  -9   1    5.03    0.69
   2   9   0    7.17    0.83
  -2  -9   0    7.63    0.81
   2   9   1    7.99    0.86
  -2  -9  -1    9.26    0.88
  -2  -9  -2    7.77    0.82
   2   9   2    6.69    0.80
   2   9   3    1.20    0.47
  -2  -9  -3    0.64    0.32
   2   9   4    6.82    0.84
  -2  -9  -4    6.90    0.80
  -2  -9  -5    1.18    0.41
   2   9   5    2.14    0.55
  -2  -9  -6    0.11    0.32
   2   9   6   -0.05    0.40
  -2  -9  -7    0.02    0.32
   2   9   7    0.37    0.37
  -2  -9  -8    1.44    0.48
   2   9   8    0.44    0.34
  -2  -9  -9    0.03    0.34
   2   9   9    1.54    0.53
   2  10  -5    1.16    0.39
  -2 -10   5   -0.01    0.36
   2  10  -4    3.69    0.71
  -2 -10   4    1.14    0.46
  -2 -10   3    1.61    0.45
   2  10  -3    1.03    0.48
   2  10  -2    1.24    0.43
  -2 -10   2    1.25    0.49
   2  10  -1    2.09    0.54
  -2 -10   1    2.28    0.55
   2  10   0    2.18    0.55
  -2 -10   0    1.10    0.42
   2  10   1    4.58    0.73
  -2 -10  -1    3.90    0.64
   2  10   2    2.41    0.58
  -2 -10  -2    2.75    0.61
   2  10   3    3.15    0.64
  -2 -10  -3    3.29    0.60
  -2 -10  -4   10.76    1.03
   2  10   4   10.06    1.06
   2  10   5    3.80    0.71
  -2 -10  -5    4.49    0.75
   2  10   6    7.95    0.94
  -2 -10  -6    8.72    0.98
   2  10   7   13.53    1.24
  -2 -10  -7   11.61    1.13
  -2 -10  -8    3.33    0.67
  -2 -11   2    0.55    0.38
   2  11  -1   -0.04    0.36
  -2 -11   1    1.12    0.51
   2  11   0    2.70    0.64
  -2 -11   0   -0.19    0.39
   2  11   1    1.70    0.52
  -2 -11  -1    2.25    0.57
   2  11   2    0.89    0.42
  -2 -11  -2    0.98    0.47
   2  11   3   -0.19    0.34
  -2 -11  -3    0.45    0.35
   2  11   4    2.05    0.56
  -2 -11  -4    1.97    0.55
  -2 -11  -5    0.66    0.40
  -3  10   4    2.81    0.60
  -3  10   3    0.46    0.34
  -3  10   2    0.00    0.30
   3 -10  -2    0.77    0.49
  -3  10   1    1.17    0.48
   3 -10  -1    1.52    0.57
  -3  10   0    1.25    0.45
  -3  10   0    1.95    0.56
   3 -10   0    1.13    0.51
  -3  10  -1   -0.47    0.39
  -3  10  -1    0.63    0.35
   3 -10   1   -0.92    0.51
  -3  10  -2    0.51    0.38
  -3  10  -2    1.10    0.42
   3 -10   2    0.75    0.38
  -3  10  -3    2.99    0.62
  -3  10  -3    1.71    0.49
   3 -10   3    1.72    0.57
  -3  10  -4    1.61    0.53
  -3  10  -4    1.98    0.56
  -3  10  -5    0.67    0.36
  -3   9   5    0.30    0.27
   3  -9  -5    1.39    0.55
  -3   9   4    0.41    0.32
   3  -9  -4    1.55    0.53
   3  -9  -3    1.34    0.45
  -3   9   3    1.33    0.44
  -3   9   2    4.09    0.67
   3  -9  -2    3.34    0.66
  -3   9   1    2.16    0.50
   3  -9  -1    2.99    0.64
  -3   9   0    2.55    0.54
  -3   9   0    1.77    0.48
   3  -9   0    3.15    0.63
  -3   9  -1    3.69    0.64
  -3   9  -1    2.25    0.52
   3  -9   1    3.88    0.67
  -3   9  -2    5.55    0.76
  -3   9  -2    4.89    0.72
   3  -9   2    6.04    0.79
  -3   9  -3    3.19    0.63
  -3   9  -3    2.67    0.58
   3  -9   3    3.44    0.63
  -3   9  -4    3.10    0.67
  -3   9  -4    1.69    0.47
  -3   9  -5    3.22    0.64
  -3   9  -5    2.60    0.59
  -3   9  -6   -0.42    0.52
  -3   9  -6    0.41    0.33
   3  -8  -7    2.20    0.65
  -3   8   7    3.96    0.65
  -3   8   6    1.29    0.45
   3  -8  -6    2.96    0.70
  -3   8   5    1.80    0.45
  -3   8   5    1.75    0.46
  -3   8   4    1.07    0.37
   3  -8  -4    2.31    0.56
  -3   8   3    0.73    0.36
   3  -8  -3    0.72    0.43
  -3   8   2    5.01    0.67
   3  -8  -2    4.48    0.70
  -3   8   1    3.88    0.59
  -3   8   1    2.80    0.54
   3  -8  -1    5.38    0.75
  -3   8   0    0.80    0.44
  -3   8   0    0.35    0.33
   3  -8   0    0.94    0.41
  -3   8  -1    0.72    0.39
  -3   8  -1    0.18    0.28
   3  -8   1    1.21    0.44
  -3   8  -2    2.05    0.51
  -3   8  -2    1.00    0.36
   3  -8   2    1.80    0.52
  -3   8  -3    1.48    0.47
  -3   8  -3    1.97    0.50
   3  -8   3    1.35    0.43
  -3   8  -4    6.32    0.81
  -3   8  -4    5.06    0.69
  -3   8  -5   -0.18    0.40
  -3   8  -5    0.41    0.30
  -3   8  -6    1.72    0.50
  -3   8  -6    0.88    0.36
  -3   8  -7    0.90    0.46
  -3   8  -8   -0.24    0.33
   3  -7  -8    0.23    0.37
  -3   7   8    2.04    0.59
   3  -7  -7    0.43    0.37
  -3   7   7    1.21    0.44
   3  -7  -6   -0.07    0.36
  -3   7   6    0.80    0.42
   3  -7  -5    0.66    0.44
  -3   7   5    0.83    0.33
  -3   7   5    0.97    0.35
   3  -7  -4    4.01    0.69
  -3   7   4    2.88    0.52
  -3   7   4    3.18    0.53
  -3   7   3    8.80    0.83
  -3   7   3    7.93    0.76
   3  -7  -3    8.64    0.88
  -3   7   2    8.90    0.79
  -3   7   2    7.50    0.77
   3  -7  -2    8.86    0.89
  -3   7   1    7.89    0.77
  -3   7   1    7.26    0.75
   3  -7  -1    7.96    0.82
  -3   7   0   25.13    1.35
  -3   7   0   23.02    1.32
   3  -7   0   26.93    1.43
  -3   7  -1    8.76    0.83
  -3   7  -1    6.62    0.75
   3  -7   1    7.16    0.77
  -3   7  -2    3.59    0.59
  -3   7  -2    3.02    0.52
   3  -7   2    3.48    0.55
  -3   7  -3    0.83    0.34
  -3   7  -3    0.59    0.34
   3  -7   3    1.13    0.38
  -3   7  -4    0.36    0.32
  -3   7  -4    0.63    0.31
  -3   7  -5    1.01    0.41
  -3   7  -5    0.95    0.35
  -3   7  -6    0.01    0.32
  -3   7  -6    0.42    0.32
  -3   7  -7    1.64    0.47
  -3   7  -8    1.34    0.44
  -3   7  -9   -0.56    0.44
  -3   7 -10    1.18    0.46
   3  -6  -9    0.98    0.42
  -3   6   9    4.69    0.74
   3  -6  -8    0.72    0.40
  -3   6   8    1.31    0.54
   3  -6  -7    2.63    0.56
  -3   6   7    3.31    0.64
   3  -6  -6    1.52    0.43
  -3   6   6    1.67    0.53
   3  -6  -5    1.71    0.50
  -3   6   5    1.02    0.33
  -3   6   5    0.89    0.34
   3  -6  -4    1.23    0.47
  -3   6   4    0.87    0.31
  -3   6   4    1.18    0.38
  -3   6   3   22.91    1.24
  -3   6   3   24.68    1.29
   3  -6  -3   23.26    1.33
  -3   6   2   11.84    0.90
  -3   6   2   11.91    0.86
   3  -6  -2   13.33    1.00
  -3   6   1   44.96    1.66
  -3   6   1   39.11    1.60
  -3   6   1   40.76    1.48
   3  -6  -1   42.50    1.72
  -3   6   0    8.37    0.76
  -3   6   0    7.23    0.73
   3  -6   0    7.93    0.78
  -3   6  -1    1.00    0.39
  -3   6  -1    0.73    0.31
   3  -6   1    0.52    0.33
  -3   6  -2    4.80    0.63
  -3   6  -2    3.98    0.56
  -3   6  -2    4.37    0.51
   3  -6   2    4.23    0.58
  -3   6  -3    1.62    0.42
  -3   6  -3    1.95    0.39
  -3   6  -3    2.19    0.39
   3  -6   3    1.41    0.38
  -3   6  -4    6.22    0.74
  -3   6  -4    6.16    0.67
  -3   6  -4    6.28    0.64
  -3   6  -5    0.92    0.38
  -3   6  -5    0.54    0.32
  -3   6  -5    1.16    0.30
  -3   6  -6    7.02    0.80
  -3   6  -6    5.30    0.63
  -3   6  -6    6.36    0.67
  -3   6  -7    1.04    0.35
  -3   6  -7    1.94    0.49
  -3   6  -8    0.10    0.24
  -3   6  -8    0.26    0.28
  -3   6  -9    7.29    0.86
  -3   6  -9    5.99    0.74
  -3   6 -10    6.34    0.83
  -3   6 -10    7.86    0.87
   3  -5  -9    1.37    0.49
  -3   5   9    1.50    0.52
   3  -5  -8    1.94    0.52
  -3   5   8    1.36    0.49
   3  -5  -7    1.38    0.48
  -3   5   7    1.50    0.47
   3  -5  -6    1.88    0.50
  -3   5   6    1.33    0.41
  -3   5   5    0.10    0.20
  -3   5   5    0.32    0.25
  -3   5   4    4.15    0.54
  -3   5   4    4.25    0.59
   3  -5  -4    6.16    0.74
  -3   5   3   14.15    0.93
  -3   5   3   14.00    0.95
   3  -5  -3   15.33    1.06
  -3   5   2    5.02    0.58
  -3   5   2    4.45    0.55
   3  -5  -2    5.91    0.71
  -3   5   1   15.77    0.99
  -3   5   1   15.12    0.89
   3  -5  -1   16.46    1.02
   3  -5   0    2.79    0.47
  -3   5   0    4.17    0.55
  -3   5   0    3.27    0.49
  -3   5   0    2.78    0.41
   3  -5   1    5.59    0.60
  -3   5  -1    5.43    0.61
  -3   5  -1    5.38    0.57
  -3   5  -1    4.82    0.48
  -3   5  -1    5.76    0.62
  -3   5  -2   12.47    0.93
  -3   5  -2   11.41    0.85
  -3   5  -2   12.85    0.86
   3  -5   2   12.91    0.85
  -3   5  -3    2.48    0.50
  -3   5  -3    1.46    0.36
  -3   5  -3    1.92    0.38
   3  -5   3    2.11    0.41
  -3   5  -4    3.74    0.57
  -3   5  -4    3.79    0.53
  -3   5  -4    3.24    0.45
   3  -5   4    4.09    0.49
  -3   5  -5    2.17    0.44
  -3   5  -5    2.63    0.45
  -3   5  -5    3.19    0.48
  -3   5  -6    6.54    0.73
  -3   5  -6    5.53    0.60
  -3   5  -6    5.73    0.65
  -3   5  -7   14.46    1.07
  -3   5  -7   15.50    1.04
  -3   5  -8    1.24    0.42
  -3   5  -8    0.91    0.38
  -3   5  -9    5.64    0.71
  -3   5  -9    6.97    0.79
  -3   5 -10    0.00    0.29
  -3   5 -10    0.34    0.35
  -3   5 -11    0.45    0.32
  -3   5 -12    4.29    0.72
  -3   4  10    1.92    0.53
   3  -4  -9    2.60    0.55
  -3   4   9    2.96    0.63
   3  -4  -8    6.08    0.78
  -3   4   8    4.87    0.73
  -3   4   7   10.55    0.99
   3  -4  -7   11.79    1.00
   3  -4  -6    5.13    0.68
  -3   4   6    4.02    0.62
  -3   4   5    6.50    0.61
  -3   4   5    6.56    0.71
   3  -4  -5    8.46    0.82
  -3   4   4   17.81    0.99
  -3   4   4   16.28    1.04
   3  -4  -4   17.87    1.11
  -3   4   3    6.56    0.61
  -3   4   3    7.74    0.72
   3  -4  -3    7.15    0.73
  -3   4   2   71.28    1.94
  -3   4   2   72.14    1.97
   3  -4  -2   72.52    2.05
  -3   4   1   21.87    1.09
  -3   4   1   22.69    1.07
   3  -4  -1   24.97    1.19
  -3   4   0   13.33    0.87
  -3   4   0   12.71    0.78
   3  -4   0   13.13    0.85
   3  -4   1    0.53    0.33
  -3   4  -1    0.55    0.29
  -3   4  -1    0.48    0.28
  -3   4  -1    0.27    0.25
  -3   4  -1    0.33    0.21
   3  -4   2    4.77    0.50
  -3   4  -2    4.51    0.55
  -3   4  -2    4.78    0.47
  -3   4  -2    4.51    0.54
  -3   4  -2    4.95    0.54
   3  -4   3    0.69    0.26
  -3   4  -3    0.92    0.33
  -3   4  -3    0.77    0.31
  -3   4  -3    0.16    0.17
  -3   4  -3    0.45    0.25
  -3   4  -4    0.24    0.26
  -3   4  -4    0.36    0.25
  -3   4  -4    0.32    0.25
   3  -4   4    0.41    0.26
  -3   4  -5    2.20    0.42
  -3   4  -5    2.34    0.45
  -3   4  -5    1.85    0.36
  -3   4  -6    5.30    0.62
  -3   4  -6    4.76    0.53
  -3   4  -6    5.42    0.63
  -3   4  -7    2.67    0.51
  -3   4  -7    2.63    0.48
  -3   4  -7    2.41    0.39
  -3   4  -8    0.85    0.33
  -3   4  -8    0.40    0.27
  -3   4  -9    9.33    0.86
  -3   4  -9   11.72    0.99
  -3   4 -10    2.11    0.49
  -3   4 -11    2.20    0.53
  -3   4 -12    0.12    0.36
  -3   3  10    0.56    0.37
   3  -3  -9    0.63    0.37
  -3   3   9    0.30    0.33
   3  -3  -8    1.72    0.51
  -3   3   8    2.43    0.52
   3  -3  -7    2.97    0.54
  -3   3   7    2.95    0.56
  -3   3   6   33.65    1.57
   3  -3  -6   33.17    1.52
  -3   3   5   20.30    1.01
  -3   3   5   21.12    1.20
   3  -3  -5   21.33    1.19
   3  -3  -4    1.12    0.39
  -3   3   4    1.16    0.30
  -3   3   4    1.45    0.40
  -3   3   3   34.62    1.30
  -3   3   3   36.56    1.46
   3  -3  -3   36.64    1.45
  -3   3   2   29.18    1.20
  -3   3   2   28.06    1.21
   3  -3  -2   28.99    1.25
  -3   3   1    9.43    0.70
  -3   3   1    9.75    0.70
   3  -3  -1    8.15    0.67
   3  -3   0    1.93    0.38
  -3   3   0    2.34    0.39
  -3   3   0    2.83    0.39
   3  -3   1    2.26    0.37
  -3   3  -1    2.51    0.41
  -3   3  -1    1.99    0.32
  -3   3  -1    1.96    0.36
   3  -3   2    3.80    0.42
  -3   3  -2    3.42    0.46
  -3   3  -2    4.03    0.42
  -3   3  -2    3.77    0.46
  -3   3  -2    3.80    0.47
  -3   3  -3   16.11    0.93
  -3   3  -3   18.40    0.85
  -3   3  -3   16.93    0.93
  -3   3  -3   17.65    0.95
   3  -3   3   17.33    0.82
   3  -3   4    0.10    0.18
  -3   3  -4    0.13    0.23
  -3   3  -4    0.32    0.23
  -3   3  -4    0.10    0.15
  -3   3  -4    0.08    0.23
  -3   3  -5   33.54    1.37
  -3   3  -5   34.81    1.31
  -3   3  -5   34.82    1.40
  -3   3  -6    3.66    0.53
  -3   3  -6    3.65    0.52
  -3   3  -6    3.18    0.44
  -3   3  -7   42.56    1.61
  -3   3  -7   40.46    1.40
  -3   3  -7   44.23    1.69
  -3   3  -8    0.69    0.35
  -3   3  -8    0.33    0.26
  -3   3  -9    1.11    0.33
  -3   3  -9    0.67    0.36
  -3   3 -10    5.87    0.78
  -3   3 -11    2.10    0.54
  -3   3 -12    3.19    0.66
  -3   2  11    0.83    0.39
  -3   2  10    5.66    0.81
   3  -2  -9    3.18    0.57
  -3   2   9    2.94    0.58
   3  -2  -8    5.02    0.66
  -3   2   8    6.25    0.78
  -3   2   7   26.84    1.44
   3  -2  -7   25.33    1.35
  -3   2   6    8.14    0.78
   3  -2  -6    8.33    0.78
  -3   2   5   11.19    0.89
  -3   2   5   10.18    0.72
   3  -2  -5   11.15    0.87
  -3   2   4    9.14    0.77
  -3   2   4    9.64    0.67
   3  -2  -4    8.77    0.75
   3  -2  -3   13.83    0.74
  -3   2   3   13.83    0.75
  -3   2   3   15.13    0.92
   3  -2  -3   15.65    0.94
  -3   2   2   18.59    0.98
  -3   2   2   19.46    0.95
   3  -2  -2   19.27    1.01
  -3   2   1   64.78    1.74
  -3   2   1   66.49    1.73
   3  -2  -1   64.78    1.74
  -3   2   0   20.29    0.96
  -3   2   0   20.42    0.97
   3  -2   0   21.19    0.96
  -3   2  -1   24.87    1.03
  -3   2  -1   25.58    1.09
  -3   2  -1   24.51    1.08
   3  -2   1   25.14    1.00
  -3   2  -2    6.15    0.52
  -3   2  -2    6.13    0.56
  -3   2  -2    5.49    0.55
   3  -2   2    5.71    0.48
   3  -2   3    0.71    0.20
  -3   2  -3    0.63    0.27
  -3   2  -3    0.51    0.23
  -3   2  -3    0.51    0.20
  -3   2  -3    0.75    0.28
  -3   2  -4   16.34    0.91
  -3   2  -4   16.27    0.82
  -3   2  -4   15.21    0.85
  -3   2  -4   16.01    0.92
   3  -2   4   15.91    0.69
  -3   2  -5   11.10    0.76
  -3   2  -5   11.07    0.80
  -3   2  -6    3.77    0.49
  -3   2  -6    4.96    0.60
  -3   2  -7    2.26    0.41
  -3   2  -7    2.06    0.44
  -3   2  -8    3.69    0.49
  -3   2  -8    4.01    0.56
  -3   2  -8    4.84    0.58
  -3   2  -9    9.03    0.87
  -3   2  -9    8.89    0.82
  -3   2 -10    1.78    0.52
  -3   2 -10    1.69    0.41
  -3   2 -11    2.04    0.52
  -3   2 -11    1.18    0.38
  -3   2 -12    3.51    0.71
   3  -2  12    3.74    0.68
   3  -2  13    2.34    0.50
  -3   1  11    3.27    0.63
  -3   1  10    1.18    0.45
   3  -1  -9    0.36    0.30
  -3   1   9   -0.29    0.30
   3  -1  -8    1.07    0.41
  -3   1   8    0.92    0.38
  -3   1   7    5.46    0.62
  -3   1   7    4.79    0.64
   3  -1  -7    5.55    0.68
   3  -1  -6    3.01    0.50
  -3   1   6    3.33    0.48
  -3   1   6    4.04    0.58
   3  -1  -5    0.90    0.33
  -3   1   5    0.90    0.31
  -3   1   5    0.86    0.37
  -3   1   4   10.23    0.78
  -3   1   4    9.20    0.67
   3  -1  -4    9.47    0.77
   3  -1  -3   10.46    0.62
  -3   1   3   10.53    0.76
  -3   1   3   11.52    0.73
   3  -1  -3   12.46    0.82
   3  -1  -2    1.77    0.34
   3  -1  -2    2.13    0.31
  -3   1   2    1.90    0.32
  -3   1   2    1.91    0.37
   3  -1  -1    5.58    0.49
  -3   1   1    5.50    0.49
  -3   1   1    5.26    0.53
   3  -1  -1    5.90    0.40
   3  -1  -1    4.89    0.50
   3  -1   0   27.65    0.90
  -3   1   0   28.16    1.12
   3  -1   0   27.33    1.06
  -3   1  -1   33.60    1.19
  -3   1  -1   34.94    1.24
   3  -1   1   34.75    1.07
   3  -1   1   34.83    1.13
  -3   1  -2   16.56    0.83
  -3   1  -2   16.02    0.86
   3  -1   2   17.16    0.76
  -3   1  -3   14.18    0.78
  -3   1  -3   14.06    0.81
   3  -1   3   14.89    0.62
   3  -1   3   14.84    0.67
  -3   1  -4    1.57    0.34
   3  -1   4    1.47    0.24
  -3   1  -4    1.86    0.33
   3  -1   4    1.35    0.22
  -3   1  -5    2.01    0.37
   3  -1   5    2.47    0.34
  -3   1  -6   24.39    1.07
  -3   1  -6   26.05    1.22
   3  -1   6   26.23    1.09
  -3   1  -7   10.21    0.72
  -3   1  -7   10.15    0.81
   3  -1   7   11.29    0.79
  -3   1  -7    9.88    0.79
  -3   1  -8    1.04    0.35
   3  -1   8    0.73    0.32
  -3   1  -8    0.94    0.35
  -3   1  -9    2.30    0.54
   3  -1   9    2.67    0.49
  -3   1  -9    2.02    0.40
  -3   1 -10    3.12    0.57
   3  -1  10    4.24    0.61
  -3   1 -10    3.44    0.54
  -3   1 -11    3.11    0.60
   3  -1  11    2.48    0.55
  -3   1 -11    2.79    0.55
  -3   1 -12    0.78    0.42
   3  -1  12    1.00    0.40
  -3   1 -12    1.07    0.42
  -3   1 -13    1.42    0.49
   3  -1  13    1.10    0.43
  -3   1 -13    1.09    0.41
  -3   0  11    0.47    0.41
  -3   0  10    1.30    0.53
   3   0  -9    5.46    0.70
  -3   0   9    5.18    0.67
  -3   0   9    5.76    0.73
   3   0  -8    0.57    0.34
  -3   0   8    0.99    0.36
  -3   0   8    1.34    0.41
  -3   0   7    9.32    0.85
  -3   0   7    9.31    0.80
   3   0  -7    9.27    0.82
   3   0  -6    5.05    0.61
  -3   0   6    5.21    0.61
  -3   0   6    5.95    0.64
  -3   0   5   10.69    0.82
  -3   0   5    9.78    0.76
   3   0  -5   10.45    0.81
  -3   0   4   15.11    0.93
  -3   0   4   13.97    0.87
   3   0  -4   15.06    0.94
   3   0  -3    8.29    0.56
  -3   0   3    9.79    0.64
  -3   0   3    8.55    0.68
  -3   0   3    8.28    0.65
   3   0  -3    8.86    0.69
   3   0  -2   11.55    0.66
  -3   0   2   12.92    0.73
  -3   0   2   11.69    0.76
  -3   0   2   11.12    0.73
   3   0  -2   12.16    0.78
   3   0  -1  110.11    2.03
  -3   0   1  117.44    2.18
  -3   0   1  115.96    2.30
   3   0  -1  108.93    2.17
  -3   0   0    3.32    0.41
  -3   0   0    3.30    0.43
   3   0   0    3.40    0.34
   3   0   0    3.66    0.42
   3   0   1   56.21    1.39
  -3   0  -1   58.92    1.58
  -3   0  -1   54.93    1.53
  -3   0  -1   55.28    1.53
   3   0   1   53.98    0.97
   3   0   1   55.19    1.42
  -3   0  -2   16.69    0.86
  -3   0  -2   15.99    0.83
  -3   0  -2   16.34    0.85
   3   0   2   17.15    0.81
   3   0   2   16.17    0.60
   3   0   2   16.32    0.74
  -3   0  -3    2.68    0.38
  -3   0  -3    2.97    0.39
   3   0   3    3.48    0.32
   3   0   3    2.73    0.31
  -3   0  -3    3.34    0.42
  -3   0  -4    0.34    0.21
   3   0   4    0.00    0.12
  -3   0  -4    0.27    0.20
   3   0   4   -0.02    0.14
  -3   0  -5   10.40    0.72
  -3   0  -5   11.10    0.77
   3   0   5   11.04    0.67
  -3   0  -5   10.37    0.76
  -3   0  -6    1.74    0.37
  -3   0  -6    1.87    0.36
   3   0   6    1.85    0.36
  -3   0  -6    1.53    0.36
  -3   0  -7   19.91    0.99
  -3   0  -7   19.67    1.09
   3   0   7   21.58    1.09
  -3   0  -7   21.47    1.16
  -3   0  -8    0.79    0.33
   3   0   8    0.59    0.29
  -3   0  -8    0.73    0.34
   3   0   9   10.04    0.85
  -3   0  -9   10.15    0.90
  -3   0  -9    9.67    0.86
  -3   0 -10    0.20    0.27
   3   0  10    0.02    0.28
  -3   0 -10    0.06    0.27
  -3   0 -11    3.58    0.62
   3   0  11    3.99    0.63
  -3   0 -11    3.42    0.60
  -3   0 -12    2.30    0.56
   3   0  12    2.18    0.56
  -3   0 -12    2.60    0.53
   3   0  13    0.16    0.36
  -3   0 -13   -0.19    0.31
  -3  -1  11    0.64    0.35
  -3  -1  10   -0.21    0.27
   3   1  -9    2.92    0.54
  -3  -1   9    4.11    0.64
  -3  -1   9    4.36    0.63
  -3  -1   8    6.04    0.70
  -3  -1   8    6.02    0.74
   3   1  -8    6.37    0.72
   3   1  -7    4.36    0.60
  -3  -1   7    3.91    0.57
  -3  -1   7    4.16    0.58
  -3  -1   6   24.20    1.23
  -3  -1   6   23.56    1.24
   3   1  -6   23.85    1.25
  -3  -1   5   16.21    0.98
  -3  -1   5   16.35    1.00
   3   1  -5   15.96    1.00
  -3  -1   4   13.51    0.74
  -3  -1   4   12.39    0.83
  -3  -1   4   13.40    0.87
   3   1  -3   14.94    0.74
  -3  -1   3   17.24    0.84
  -3  -1   3   16.68    0.93
  -3  -1   3   15.87    0.91
   3   1  -2   13.21    0.71
  -3  -1   2   14.67    0.80
  -3  -1   2   14.78    0.86
  -3  -1   2   13.78    0.66
  -3  -1   2   13.93    0.84
   3   1  -1   57.06    1.49
  -3  -1   1   58.50    1.55
  -3  -1   1   57.90    1.62
  -3  -1   1   54.92    1.60
  -3  -1   1   53.91    1.33
  -3  -1   0   30.65    1.14
  -3  -1   0   28.67    1.13
   3   1   0   29.05    0.80
  -3  -1  -1   29.40    1.13
  -3  -1  -1   29.77    1.15
   3   1   1   29.90    0.84
  -3  -1  -1   28.90    1.09
   3   1   1   30.81    1.08
   3   1   2   46.38    1.36
  -3  -1  -2   45.52    1.41
  -3  -1  -2   44.81    1.41
  -3  -1  -2   46.63    1.38
   3   1   2   44.05    1.09
  -3  -1  -3    6.10    0.55
  -3  -1  -3    7.09    0.59
  -3  -1  -3    7.29    0.58
   3   1   3    6.39    0.46
  -3  -1  -4   15.18    0.84
  -3  -1  -4   15.05    0.83
   3   1   4   16.29    0.78
  -3  -1  -4   16.23    0.89
  -3  -1  -5    9.21    0.68
  -3  -1  -5    8.98    0.69
   3   1   5    9.62    0.65
  -3  -1  -5    8.99    0.71
  -3  -1  -6    3.24    0.47
  -3  -1  -6    2.95    0.42
   3   1   6    3.22    0.43
  -3  -1  -6    3.13    0.48
  -3  -1  -7   13.88    0.84
  -3  -1  -7   14.68    0.95
   3   1   7   14.57    0.90
  -3  -1  -7   14.02    0.96
   3   1   8   50.46    1.76
  -3  -1  -8   48.21    1.79
  -3  -1  -8   52.45    1.86
  -3  -1  -9    1.55    0.39
   3   1   9    1.48    0.42
  -3  -1  -9    1.22    0.39
  -3  -1 -10    2.34    0.48
   3   1  10    1.94    0.46
  -3  -1 -10    2.75    0.54
  -3  -1 -11    0.48    0.36
   3   1  11   -0.15    0.28
  -3  -1 -11   -0.12    0.33
   3   1  12    0.43    0.42
  -3  -1 -12    0.36    0.31
   3   1  13    0.51    0.39
  -3  -1 -13    0.18    0.32
  -3  -2  11    3.54    0.67
  -3  -2  10    1.77    0.48
   3   2  -9    2.28    0.51
  -3  -2   9    2.48    0.51
   3   2  -8    5.75    0.69
  -3  -2   8    5.37    0.73
  -3  -2   8    4.56    0.60
  -3  -2   7    0.71    0.35
  -3  -2   7    0.75    0.31
  -3  -2   6   71.01    2.06
  -3  -2   6   69.69    2.20
  -3  -2   5    1.88    0.44
  -3  -2   5    2.00    0.40
  -3  -2   4   36.74    1.24
  -3  -2   4   36.10    1.38
  -3  -2   4   35.43    1.45
  -3  -2   3   47.86    1.42
  -3  -2   3   47.79    1.55
  -3  -2   3   46.67    1.60
  -3  -2   2   12.14    0.68
  -3  -2   2   13.26    0.77
  -3  -2   2   13.08    0.80
   3   2  -2   12.30    0.63
  -3  -2   2   12.55    0.82
  -3  -2   1    5.37    0.50
  -3  -2   1    5.34    0.47
  -3  -2   1    5.51    0.53
  -3  -2   1    6.11    0.59
   3   2  -1    5.74    0.43
  -3  -2   0   34.09    1.23
  -3  -2   0   32.02    1.21
  -3  -2   0   33.43    1.15
   3   2   0   32.26    0.98
  -3  -2  -1    1.82    0.34
  -3  -2  -1    1.31    0.29
  -3  -2  -1    1.47    0.28
   3   2   1    1.41    0.24
  -3  -2  -2   11.71    0.75
  -3  -2  -2   11.06    0.73
  -3  -2  -2   10.67    0.66
   3   2   2   11.60    0.63
  -3  -2  -3   12.76    0.78
  -3  -2  -3   13.39    0.75
   3   2   3   13.60    0.72
  -3  -2  -4   12.17    0.77
  -3  -2  -4   12.36    0.75
   3   2   4   12.13    0.71
  -3  -2  -4   11.67    0.77
  -3  -2  -5   65.93    1.77
  -3  -2  -5   67.04    1.79
   3   2   5   68.49    1.77
  -3  -2  -5   65.69    1.86
  -3  -2  -6    4.80    0.53
  -3  -2  -6    5.18    0.55
   3   2   6    5.32    0.55
  -3  -2  -6    5.59    0.61
  -3  -2  -7   29.43    1.21
   3   2   7   29.45    1.32
  -3  -2  -7   29.04    1.30
  -3  -2  -7   29.79    1.38
   3   2   8   21.05    1.19
  -3  -2  -8   21.15    1.18
  -3  -2  -8   21.14    1.22
   3   2   9   10.14    0.87
  -3  -2  -9   10.14    0.88
  -3  -2  -9   11.07    0.94
   3   2  10    7.18    0.80
  -3  -2 -10    7.11    0.79
  -3  -2 -10    6.57    0.78
   3   2  11    3.14    0.59
  -3  -2 -11    2.57    0.55
   3   2  12    1.48    0.49
  -3  -2 -12    1.52    0.48
   3   2  13    1.87    0.53
  -3  -2 -13    0.86    0.38
  -3  -3  10    1.50    0.52
   3   3  -9    0.57    0.32
  -3  -3   9    0.44    0.37
  -3  -3   8    0.48    0.34
  -3  -3   7    0.76    0.38
  -3  -3   6   25.29    1.22
  -3  -3   6   22.75    1.31
  -3  -3   5    7.74    0.68
  -3  -3   5    7.60    0.76
  -3  -3   4    0.85    0.26
  -3  -3   4    0.76    0.35
  -3  -3   4    0.71    0.29
   3   3  -4    0.80    0.26
  -3  -3   3   11.66    0.75
  -3  -3   3   11.94    0.79
   3   3  -3   11.78    0.71
  -3  -3   3   11.54    0.85
  -3  -3   2   10.81    0.73
  -3  -3   2   10.36    0.72
   3   3  -2   11.93    0.69
  -3  -3   2   10.65    0.80
  -3  -3   1    3.97    0.51
  -3  -3   1    3.81    0.45
  -3  -3   1    2.93    0.41
   3   3  -1    3.78    0.41
  -3  -3   0   35.32    1.31
  -3  -3   0   34.80    1.29
  -3  -3   0   35.52    1.34
   3   3   0   35.16    1.14
  -3  -3  -1    5.96    0.58
  -3  -3  -1    5.97    0.57
  -3  -3  -1    7.06    0.53
   3   3   1    6.50    0.53
  -3  -3  -2   16.10    0.90
  -3  -3  -2   15.61    0.89
  -3  -3  -2   15.09    0.76
   3   3   2   16.49    0.82
  -3  -3  -3   41.72    1.45
  -3  -3  -3   43.65    1.30
   3   3   3   43.88    1.36
  -3  -3  -3   43.61    1.41
  -3  -3  -4   20.36    1.02
  -3  -3  -4   21.54    0.95
   3   3   4   22.64    1.03
  -3  -3  -4   22.45    1.06
  -3  -3  -5    1.44    0.34
  -3  -3  -5    1.37    0.33
   3   3   5    1.63    0.37
  -3  -3  -5    1.71    0.38
  -3  -3  -6    9.31    0.72
  -3  -3  -6    9.52    0.72
   3   3   6   10.14    0.77
  -3  -3  -6    9.93    0.80
  -3  -3  -7   15.70    0.92
   3   3   7   17.18    1.07
  -3  -3  -7   15.60    0.95
  -3  -3  -7   16.83    1.07
  -3  -3  -8    1.66    0.38
  -3  -3  -8    1.23    0.31
   3   3   8    2.02    0.45
  -3  -3  -8    1.39    0.40
  -3  -3  -9    5.63    0.72
   3   3   9    7.65    0.78
  -3  -3  -9    6.30    0.69
   3   3  10    8.96    0.91
  -3  -3 -10    7.72    0.81
  -3  -3 -10    8.96    0.93
  -3  -3 -11    1.23    0.45
  -3  -3 -11    1.85    0.45
   3   3  11    1.81    0.48
  -3  -3 -12    1.62    0.56
   3   3  12    1.67    0.52
  -3  -4  10    6.46    0.93
  -3  -4   9    0.81    0.44
  -3  -4   8    3.06    0.62
  -3  -4   7    2.78    0.58
  -3  -4   7    2.45    0.50
  -3  -4   6   21.60    1.33
  -3  -4   5    4.58    0.62
   3   4  -5    3.92    0.53
  -3  -4   4   14.50    0.86
  -3  -4   4   15.61    0.91
   3   4  -4   13.91    0.88
  -3  -4   4   15.13    1.04
  -3  -4   3   37.59    1.38
  -3  -4   3   39.18    1.39
   3   4  -3   37.49    1.38
  -3  -4   3   38.75    1.56
  -3  -4   2    9.32    0.71
  -3  -4   2   10.67    0.73
   3   4  -2    9.61    0.70
  -3  -4   2    8.72    0.74
  -3  -4   1   15.31    0.90
  -3  -4   1   13.72    0.83
  -3  -4   1   14.37    0.92
   3   4  -1   14.50    0.84
  -3  -4   0    1.63    0.36
  -3  -4   0    1.24    0.32
   3   4   0    1.60    0.34
  -3  -4   0    1.45    0.34
  -3  -4  -1   10.57    0.77
  -3  -4  -1   11.00    0.77
   3   4   1   11.46    0.74
  -3  -4  -2    3.39    0.48
  -3  -4  -2    3.75    0.39
   3   4   2    4.21    0.47
  -3  -4  -3    8.62    0.71
  -3  -4  -3    8.17    0.57
   3   4   3    7.93    0.65
  -3  -4  -3    8.49    0.64
  -3  -4  -4    0.81    0.30
   3   4   4    0.74    0.27
  -3  -4  -4    0.73    0.27
  -3  -4  -4    0.67    0.22
  -3  -4  -5    2.47    0.38
  -3  -4  -5    1.73    0.38
   3   4   5    1.97    0.39
  -3  -4  -5    1.96    0.38
  -3  -4  -6   11.18    0.81
  -3  -4  -6    9.77    0.71
   3   4   6   11.06    0.87
  -3  -4  -6   11.42    0.85
  -3  -4  -7   11.51    0.83
  -3  -4  -7   11.64    0.81
   3   4   7   11.16    0.88
  -3  -4  -7   12.93    0.96
  -3  -4  -8    1.00    0.36
  -3  -4  -8    1.12    0.32
  -3  -4  -8    1.31    0.36
   3   4   8    0.66    0.33
  -3  -4  -9    0.73    0.33
  -3  -4  -9    0.35    0.28
   3   4   9    0.21    0.27
  -3  -4 -10    1.31    0.45
  -3  -4 -10    0.80    0.33
   3   4  10    1.09    0.41
  -3  -4 -11    1.10    0.48
  -3  -4 -11    0.47    0.29
   3   4  11    1.25    0.50
  -3  -4 -12    1.19    0.51
  -3  -4 -12    0.56    0.35
   3   4  12    0.75    0.38
  -3  -5   9    2.47    0.61
  -3  -5   8    0.45    0.37
  -3  -5   7    1.00    0.44
  -3  -5   7    0.83    0.35
  -3  -5   6    9.45    0.82
   3   5  -6    9.35    0.85
  -3  -5   6    7.61    0.84
  -3  -5   5    3.43    0.58
   3   5  -5    3.60    0.53
  -3  -5   4   15.50    0.94
   3   5  -4   15.67    1.01
  -3  -5   4   14.67    1.06
  -3  -5   3   52.61    1.72
   3   5  -3   53.63    1.77
  -3  -5   3   52.46    1.87
  -3  -5   2   57.45    1.80
  -3  -5   2   58.54    1.70
   3   5  -2   58.67    1.81
  -3  -5   2   61.76    1.96
  -3  -5   1   26.96    1.25
  -3  -5   1   27.35    1.18
  -3  -5   1   27.15    1.29
   3   5  -1   27.09    1.23
  -3  -5   0   20.62    1.10
  -3  -5   0   21.13    1.10
   3   5   0   20.64    1.06
  -3  -5  -1   26.22    1.24
   3   5   1   29.27    1.27
  -3  -5  -2   14.16    0.93
   3   5   2   16.30    0.97
  -3  -5  -2   13.36    0.77
  -3  -5  -3    1.35    0.36
   3   5   3    1.24    0.36
  -3  -5  -3    0.73    0.27
  -3  -5  -4   18.21    1.05
   3   5   4   18.30    1.06
  -3  -5  -4   18.06    0.98
  -3  -5  -5    4.81    0.59
   3   5   5    5.15    0.61
  -3  -5  -5    5.43    0.61
  -3  -5  -6    5.60    0.62
   3   5   6    6.36    0.69
  -3  -5  -6    5.76    0.64
  -3  -5  -7    1.23    0.33
  -3  -5  -7    1.20    0.34
   3   5   7    1.10    0.35
  -3  -5  -8    4.89    0.63
  -3  -5  -8    3.20    0.48
   3   5   8    4.10    0.65
  -3  -5  -9    1.52    0.46
   3   5   9    0.97    0.37
  -3  -5 -10    5.53    0.79
   3   5  10    6.32    0.83
  -3  -5 -11    2.44    0.60
   3   5  11    1.58    0.48
  -3  -5 -12    1.42    0.51
   3   5  12    1.39    0.51
  -3  -6   8    0.71    0.42
  -3  -6   7    3.97    0.68
   3   6  -7    2.55    0.54
  -3  -6   6    0.44    0.30
   3   6  -6    1.17    0.39
  -3  -6   6    1.23    0.39
  -3  -6   5    2.28    0.53
   3   6  -5    2.44    0.48
   3   6  -4   11.30    0.92
  -3  -6   4   12.21    1.02
  -3  -6   3    5.00    0.60
  -3  -6   3    5.74    0.68
   3   6  -3    5.69    0.65
  -3  -6   2    1.48    0.38
  -3  -6   2    2.11    0.43
   3   6  -2    2.07    0.44
  -3  -6   1    5.10    0.61
  -3  -6   1    4.81    0.60
   3   6  -1    6.21    0.66
  -3  -6   0    1.68    0.39
   3   6   0    1.39    0.42
  -3  -6   0    1.30    0.33
  -3  -6  -1    5.56    0.64
   3   6   1    5.87    0.64
  -3  -6  -2    5.20    0.63
   3   6   2    5.58    0.66
  -3  -6  -3    5.04    0.62
   3   6   3    5.28    0.63
  -3  -6  -4    3.34    0.53
   3   6   4    3.99    0.56
  -3  -6  -4    3.21    0.45
  -3  -6  -5    2.56    0.46
   3   6   5    2.58    0.47
  -3  -6  -5    2.24    0.42
  -3  -6  -6    3.79    0.56
   3   6   6    3.45    0.55
  -3  -6  -6    3.35    0.51
  -3  -6  -7   11.76    0.92
   3   6   7   11.97    1.00
  -3  -6  -7   11.77    0.96
  -3  -6  -8    3.81    0.61
  -3  -6  -8    3.82    0.56
   3   6   8    4.19    0.66
  -3  -6  -9    1.03    0.42
   3   6   9    2.35    0.55
  -3  -6 -10    0.77    0.37
   3   6  10    1.23    0.48
  -3  -6 -11    1.81    0.55
   3   6  11    2.77    0.63
   3   7  -8   -0.47    0.43
  -3  -7   7    1.38    0.49
   3   7  -7    1.12    0.40
  -3  -7   6    2.16    0.59
   3   7  -6    1.73    0.47
  -3  -7   5    2.31    0.58
   3   7  -5    1.66    0.48
  -3  -7   4    1.91    0.50
   3   7  -4    1.22    0.40
  -3  -7   3    7.06    0.74
   3   7  -3    6.90    0.77
  -3  -7   3    7.35    0.79
  -3  -7   2    1.86    0.42
  -3  -7   2    1.29    0.39
   3   7  -2    1.35    0.39
  -3  -7   1    0.82    0.31
  -3  -7   1    0.89    0.33
   3   7  -1    1.28    0.41
  -3  -7   0    1.09    0.37
   3   7   0    0.69    0.36
  -3  -7   0    1.20    0.33
  -3  -7  -1    1.94    0.47
   3   7   1    2.27    0.48
  -3  -7  -2    2.01    0.48
   3   7   2    0.94    0.35
  -3  -7  -3    0.24    0.28
   3   7   3    0.71    0.35
  -3  -7  -4    3.45    0.55
   3   7   4    3.68    0.58
  -3  -7  -5    8.54    0.83
   3   7   5    8.10    0.83
  -3  -7  -6    2.81    0.52
   3   7   6    3.16    0.59
  -3  -7  -6    1.92    0.42
  -3  -7  -7    1.73    0.43
  -3  -7  -7    0.84    0.36
   3   7   7    1.23    0.45
  -3  -7  -8    1.29    0.43
  -3  -7  -8    0.81    0.37
   3   7   8    0.56    0.29
  -3  -7  -9    0.51    0.46
   3   7   9   -0.24    0.33
  -3  -7 -10    3.02    0.62
   3   7  10    2.65    0.60
   3   8  -7    5.47    0.82
  -3  -8   6    2.71    0.59
   3   8  -6    2.09    0.53
  -3  -8   5    2.03    0.56
   3   8  -5    1.61    0.48
  -3  -8   4    2.39    0.52
   3   8  -4    2.35    0.54
  -3  -8   3    1.86    0.45
  -3  -8   3    1.47    0.45
   3   8  -3    1.62    0.48
  -3  -8   2    0.90    0.38
  -3  -8   2    0.74    0.37
   3   8  -2    1.11    0.42
  -3  -8   1    1.46    0.43
  -3  -8   1    0.82    0.39
   3   8  -1    1.45    0.45
  -3  -8   0    1.98    0.47
   3   8   0    3.52    0.63
  -3  -8  -1    4.27    0.64
   3   8   1    3.79    0.62
  -3  -8  -2    3.79    0.62
   3   8   2    3.80    0.63
  -3  -8  -3    2.57    0.54
   3   8   3    3.30    0.59
  -3  -8  -4    9.67    0.93
   3   8   4   11.26    1.03
  -3  -8  -5    1.38    0.44
   3   8   5    1.05    0.44
  -3  -8  -6    8.31    0.89
   3   8   6    8.02    0.93
  -3  -8  -7    1.66    0.42
   3   8   7    1.18    0.44
  -3  -8  -8    0.41    0.33
  -3  -8  -8    0.07    0.26
   3   8   8    0.33    0.37
  -3  -8  -9    0.54    0.38
   3   8   9   -0.11    0.38
  -3  -8 -10    0.37    0.38
  -3  -9   5    4.62    0.77
   3   9  -5    2.62    0.60
  -3  -9   4    4.75    0.73
   3   9  -4    4.53    0.76
  -3  -9   3    3.62    0.64
   3   9  -3    4.22    0.72
  -3  -9   2    3.10    0.59
   3   9  -2    2.25    0.53
  -3  -9   1   -0.16    0.31
   3   9  -1    0.60    0.45
  -3  -9   0    0.14    0.29
   3   9   0   -0.22    0.33
  -3  -9  -1    0.88    0.39
   3   9   1    1.70    0.49
  -3  -9  -2    7.77    0.88
   3   9   2    6.79    0.84
  -3  -9  -3   12.97    1.11
   3   9   3   13.75    1.17
  -3  -9  -4    1.77    0.51
   3   9   4    1.21    0.46
  -3  -9  -5    3.29    0.61
   3   9   5    4.06    0.68
  -3  -9  -6    0.44    0.34
   3   9   6    0.47    0.36
  -3  -9  -7   -0.22    0.30
   3   9   7   -0.50    0.42
  -3  -9  -8    1.25    0.42
  -3 -10   3    0.88    0.46
  -3 -10   2    3.21    0.62
   3  10  -2    3.36    0.67
  -3 -10   1    2.36    0.55
   3  10  -1    2.30    0.60
  -3 -10   0   -0.26    0.36
   3  10   0    0.87    0.45
  -3 -10  -1    0.59    0.40
   3  10   1    1.44    0.50
  -3 -10  -2    0.66    0.39
   3  10   2    1.16    0.49
  -3 -10  -3    0.02    0.26
   3  10   3    0.32    0.37
  -3 -10  -4    2.57    0.56
   3  10   4    2.42    0.58
  -3 -10  -5    3.32    0.64
   3  10   5    2.90    0.63
  -3 -10  -6    6.61    0.87
  -4   9   1    1.71    0.52
   4  -9  -1    1.90    0.57
  -4   9   0    0.53    0.37
  -4   9   0    0.60    0.37
   4  -9   0    0.43    0.38
  -4   9  -1    1.53    0.50
  -4   9  -1    0.93    0.43
   4  -9   1    1.55    0.55
  -4   9  -2   -0.04    0.36
  -4   9  -2    0.26    0.34
  -4   9  -3   -0.08    0.35
  -4   9  -3   -0.06    0.27
  -4   8   4    0.34    0.29
  -4   8   3    0.13    0.32
   4  -8  -3    0.63    0.47
  -4   8   2    0.44    0.33
   4  -8  -2    0.52    0.49
  -4   8   1    2.20    0.54
   4  -8  -1    2.59    0.60
  -4   8   0    6.07    0.78
   4  -8   0    6.18    0.80
  -4   8  -1    1.74    0.48
  -4   8  -1    1.96    0.50
   4  -8   1    2.07    0.53
  -4   8  -2    3.11    0.62
  -4   8  -2    2.84    0.58
   4  -8   2    2.76    0.58
  -4   8  -3    2.07    0.54
  -4   8  -3    2.34    0.56
  -4   8  -4    1.30    0.52
  -4   8  -4    1.14    0.45
  -4   8  -5    1.54    0.52
  -4   8  -5    1.24    0.43
  -4   8  -6    2.58    0.64
  -4   8  -6    2.92    0.60
  -4   7   6    2.51    0.58
   4  -7  -5    0.30    0.38
  -4   7   5    0.71    0.38
   4  -7  -4    0.82    0.49
  -4   7   4    0.22    0.29
  -4   7   4    0.81    0.41
   4  -7  -3    0.51    0.40
  -4   7   3   -0.07    0.29
  -4   7   3    0.14    0.21
   4  -7  -2    0.59    0.37
  -4   7   2    0.04    0.27
   4  -7  -1   -0.21    0.35
  -4   7   1    0.25    0.29
   4  -7   0    0.78    0.41
  -4   7   0    0.21    0.35
  -4   7  -1    1.52    0.48
  -4   7  -1    1.15    0.42
   4  -7   1    1.29    0.52
  -4   7  -2    0.03    0.29
  -4   7  -2    0.35    0.32
   4  -7   2    0.25    0.38
  -4   7  -3    2.64    0.56
  -4   7  -3    2.98    0.57
  -4   7  -4    3.94    0.65
  -4   7  -4    2.77    0.55
  -4   7  -5    5.09    0.77
  -4   7  -5    4.44    0.66
  -4   7  -6    1.96    0.55
  -4   7  -6    2.22    0.50
  -4   7  -7    0.28    0.35
  -4   7  -8   -0.11    0.30
  -4   6   7    1.56    0.44
   4  -6  -6    1.62    0.57
  -4   6   6    0.94    0.43
   4  -6  -5    3.85    0.70
  -4   6   5    2.71    0.55
   4  -6  -4    0.75    0.48
  -4   6   4    0.57    0.33
  -4   6   4    0.70    0.32
   4  -6  -3    0.37    0.39
  -4   6   3   -0.17    0.29
  -4   6   3   -0.23    0.24
   4  -6  -2    0.43    0.34
  -4   6   2    0.53    0.33
  -4   6   2    0.59    0.30
   4  -6  -1    2.26    0.50
  -4   6   1    2.05    0.49
  -4   6   1    2.79    0.49
   4  -6   0    1.16    0.45
  -4   6   0    0.92    0.38
  -4   6  -1    7.10    0.80
   4  -6   1    7.77    0.83
   4  -6   2    1.07    0.38
  -4   6  -2    0.63    0.30
  -4   6  -2    0.29    0.28
  -4   6  -3   15.97    1.19
  -4   6  -3   13.90    1.08
  -4   6  -3   15.57    1.09
  -4   6  -4    9.13    0.93
  -4   6  -4    8.17    0.85
  -4   6  -4    9.63    0.88
  -4   6  -5    1.23    0.47
  -4   6  -5    1.35    0.42
  -4   6  -5    1.02    0.35
  -4   6  -6    1.77    0.54
  -4   6  -6    1.20    0.41
  -4   6  -6    1.75    0.47
  -4   6  -7    1.06    0.44
  -4   6  -7    0.99    0.37
  -4   6  -7    1.65    0.44
  -4   6  -8    1.05    0.43
  -4   6  -8    0.40    0.33
  -4   6  -9   -0.04    0.40
  -4   6  -9    1.25    0.54
  -4   6 -10    0.50    0.36
  -4   6 -10    0.49    0.43
   4  -5  -7    0.63    0.44
  -4   5   7    1.27    0.47
   4  -5  -6    1.18    0.47
  -4   5   6    0.50    0.32
   4  -5  -5    2.00    0.54
  -4   5   5    2.46    0.53
   4  -5  -4    0.54    0.36
  -4   5   4    0.78    0.37
  -4   5   4    0.97    0.36
   4  -5  -3    4.42    0.68
  -4   5   3    6.18    0.72
  -4   5   3    4.74    0.64
   4  -5  -2    4.95    0.71
  -4   5   2    4.14    0.60
  -4   5   2    3.44    0.53
   4  -5  -1    2.14    0.49
  -4   5   1    1.52    0.40
  -4   5   1    2.34    0.45
  -4   5   0   22.58    1.21
  -4   5   0   21.66    1.27
   4  -5   0   23.44    1.32
   4  -5   1    2.37    0.47
  -4   5  -1    2.14    0.46
  -4   5  -1    2.47    0.43
  -4   5  -2   11.21    0.92
  -4   5  -2    9.69    0.87
   4  -5   2   10.18    0.84
  -4   5  -3   10.96    0.95
  -4   5  -3   12.20    0.97
  -4   5  -3   12.65    0.97
   4  -5   3   11.09    0.86
  -4   5  -4    1.34    0.44
  -4   5  -4    1.70    0.42
  -4   5  -4    1.96    0.48
  -4   5  -5    0.78    0.35
  -4   5  -5    0.91    0.34
  -4   5  -5    0.56    0.29
  -4   5  -6    0.54    0.37
  -4   5  -6   -0.08    0.28
  -4   5  -6    0.19    0.30
  -4   5  -7    0.55    0.33
  -4   5  -7    0.64    0.34
  -4   5  -7    0.70    0.36
  -4   5  -8    1.76    0.48
  -4   5  -8    1.90    0.48
  -4   5  -9    0.68    0.33
  -4   5  -9    0.31    0.32
  -4   5 -10    0.66    0.41
  -4   5 -10    1.43    0.49
   4  -4  -8    0.15    0.33
  -4   4   8    1.01    0.46
   4  -4  -7    0.30    0.31
  -4   4   7    0.09    0.32
   4  -4  -6    0.68    0.45
  -4   4   6    0.61    0.41
   4  -4  -5    0.07    0.31
  -4   4   5   -0.08    0.31
  -4   4   4    7.68    0.83
   4  -4  -4    9.98    0.95
  -4   4   3   13.32    0.99
  -4   4   3   14.28    1.06
   4  -4  -3   14.48    1.09
  -4   4   2    9.81    0.86
  -4   4   2    9.17    0.82
   4  -4  -2    8.99    0.84
  -4   4   1   15.16    1.02
  -4   4   1   13.77    0.99
   4  -4  -1   15.24    1.05
  -4   4   0   53.65    1.84
  -4   4   0   52.71    1.89
   4  -4   0   55.69    1.91
  -4   4  -1   53.88    1.79
  -4   4  -1   50.08    1.85
   4  -4   1   55.42    1.85
   4  -4   2    2.46    0.45
  -4   4  -2    2.36    0.46
  -4   4  -2    2.48    0.42
  -4   4  -2    2.04    0.44
   4  -4   3    0.64    0.33
  -4   4  -3   -0.11    0.28
  -4   4  -3    0.10    0.20
  -4   4  -3    0.58    0.35
  -4   4  -4    0.53    0.32
  -4   4  -4    0.67    0.32
  -4   4  -4    0.37    0.27
  -4   4  -5    2.23    0.48
  -4   4  -5    2.91    0.49
  -4   4  -5    2.43    0.49
  -4   4  -6    4.34    0.61
  -4   4  -6    3.72    0.55
  -4   4  -6    4.60    0.64
  -4   4  -7    2.24    0.47
  -4   4  -7    2.10    0.47
  -4   4  -8    0.27    0.25
  -4   4  -8    0.68    0.36
  -4   4  -9    2.52    0.56
  -4   4  -9    1.75    0.43
  -4   4 -10   -0.88    0.47
  -4   4 -11   -0.28    0.33
   4  -3  -9    1.16    0.53
   4  -3  -8    1.32    0.49
  -4   3   8    0.88    0.43
   4  -3  -7    1.02    0.46
  -4   3   7   -0.12    0.33
   4  -3  -6    1.15    0.44
  -4   3   6    0.76    0.35
  -4   3   5    7.48    0.83
   4  -3  -5    8.00    0.87
  -4   3   4   12.24    0.99
   4  -3  -4   11.80    1.00
   4  -3  -3    5.65    0.69
  -4   3   3    6.94    0.75
  -4   3   2   12.97    0.96
   4  -3  -2   12.02    0.94
  -4   3   1   15.77    1.03
   4  -3  -1   17.06    1.08
  -4   3   0   19.04    1.10
   4  -3   0   18.36    1.09
   4  -3   1    0.48    0.27
  -4   3  -1    0.38    0.28
  -4   3  -1    0.83    0.33
  -4   3  -2    4.79    0.60
  -4   3  -2    4.62    0.53
  -4   3  -2    4.70    0.59
   4  -3   2    4.80    0.56
  -4   3  -3   16.50    0.97
  -4   3  -3   18.37    1.12
   4  -3   3   16.53    0.93
  -4   3  -4    1.63    0.35
  -4   3  -4    1.69    0.44
  -4   3  -5    1.24    0.32
  -4   3  -5    1.70    0.43
  -4   3  -6    1.16    0.39
  -4   3  -6    0.92    0.34
  -4   3  -7    0.85    0.38
  -4   3  -7    0.63    0.32
  -4   3  -8    5.34    0.71
  -4   3  -8    4.42    0.61
  -4   3  -9    6.88    0.78
  -4   3  -9    7.25    0.83
  -4   3 -10    3.13    0.62
  -4   3 -11    1.06    0.45
   4  -2  -9    2.40    0.61
  -4   2   9    2.31    0.54
   4  -2  -8   -0.19    0.37
  -4   2   8    0.84    0.49
   4  -2  -7   -0.67    0.41
  -4   2   7   -0.26    0.33
   4  -2  -6    1.57    0.44
  -4   2   6    1.11    0.40
   4  -2  -5    2.12    0.49
  -4   2   5    1.65    0.43
   4  -2  -4    0.53    0.41
  -4   2   4   -0.09    0.28
  -4   2   3    8.56    0.81
   4  -2  -3    9.50    0.85
  -4   2   2    8.25    0.79
   4  -2  -2    7.96    0.76
   4  -2  -1    3.73    0.56
  -4   2   1    4.10    0.57
   4  -2   0    0.69    0.33
  -4   2   0    1.09    0.33
   4  -2   1   -0.16    0.28
  -4   2  -1    0.07    0.30
  -4   2  -1    0.32    0.28
  -4   2  -2    5.82    0.60
  -4   2  -2    6.86    0.71
   4  -2   2    5.84    0.56
   4  -2   3    3.25    0.44
  -4   2  -3    3.20    0.48
  -4   2  -3    3.69    0.55
  -4   2  -4    9.94    0.76
  -4   2  -4    9.95    0.84
  -4   2  -5    6.77    0.65
  -4   2  -5    7.77    0.77
  -4   2  -6    9.92    0.88
  -4   2  -7    3.15    0.56
  -4   2  -8    7.57    0.82
  -4   2  -9    6.61    0.83
  -4   2 -10    0.76    0.43
  -4   2 -11    0.57    0.40
   4  -2  11    0.43    0.28
   4  -2  12    0.05    0.31
   4  -1  -9   -0.61    0.41
  -4   1   9    0.32    0.32
   4  -1  -8    1.07    0.47
  -4   1   8    0.09    0.31
   4  -1  -7    5.46    0.75
  -4   1   7    6.83    0.82
  -4   1   6    0.30    0.29
   4  -1  -6    0.46    0.34
  -4   1   6   -0.05    0.30
  -4   1   5    6.33    0.74
  -4   1   5    6.44    0.69
   4  -1  -5    6.13    0.75
  -4   1   4   22.31    1.29
  -4   1   4   22.77    1.21
   4  -1  -4   22.49    1.29
   4  -1  -3    3.57    0.54
  -4   1   3    5.69    0.66
   4  -1  -2    1.17    0.36
  -4   1   2    0.83    0.33
   4  -1  -1    1.26    0.34
  -4   1   1    0.89    0.35
   4  -1   0    0.23    0.25
  -4   1   0    0.93    0.37
  -4   1  -1    5.45    0.61
  -4   1  -1    5.91    0.66
   4  -1   1    6.05    0.59
  -4   1  -2    8.43    0.74
  -4   1  -2    9.13    0.77
   4  -1   2    8.65    0.67
   4  -1   3    2.09    0.36
  -4   1  -3    1.50    0.35
  -4   1  -3    1.15    0.35
  -4   1  -4    2.87    0.47
  -4   1  -4    2.51    0.46
  -4   1  -5    2.31    0.47
  -4   1  -6    1.35    0.39
  -4   1  -7    3.38    0.54
  -4   1  -8    3.94    0.60
  -4   1  -9    2.22    0.51
   4  -1   9    2.52    0.46
  -4   1 -10   -0.15    0.30
   4  -1  10   -0.12    0.26
  -4   1 -11   -0.04    0.28
  -4   1 -11   -0.11    0.30
   4  -1  11    0.03    0.26
  -4   1 -12    0.26    0.35
  -4   1 -12    0.24    0.27
   4  -1  12    0.26    0.31
   4   0  -9    1.67    0.51
  -4   0   9    1.56    0.49
   4   0  -8    0.42    0.34
  -4   0   8    0.91    0.37
   4   0  -7    3.72    0.65
  -4   0   7    2.87    0.55
  -4   0   7    1.90    0.48
   4   0  -6    2.94    0.59
  -4   0   6    2.00    0.45
  -4   0   6    2.64    0.54
  -4   0   5    3.17    0.54
   4   0  -5    3.13    0.53
  -4   0   5    2.75    0.51
  -4   0   4   29.92    1.48
  -4   0   4   28.76    1.40
   4   0  -4   31.74    1.52
   4   0  -3    3.79    0.56
  -4   0   3    3.72    0.53
  -4   0   3    3.82    0.56
   4   0  -2    0.27    0.31
  -4   0   2    0.70    0.33
   4   0  -1    5.48    0.61
  -4   0   1    5.48    0.61
  -4   0   1    5.12    0.60
   4   0   0    0.90    0.34
  -4   0   0    0.93    0.32
  -4   0   0    0.58    0.28
   4   0   1    1.92    0.36
  -4   0  -1    1.74    0.39
  -4   0  -1    1.65    0.40
  -4   0  -1    1.99    0.41
   4   0   2    1.38    0.31
  -4   0  -2    1.42    0.35
  -4   0  -2    1.16    0.35
  -4   0  -2    1.39    0.38
  -4   0  -3   40.72    1.58
  -4   0  -3   43.79    1.62
  -4   0  -3   42.54    1.61
   4   0   3   40.86    1.34
  -4   0  -4   28.23    1.34
  -4   0  -4   29.04    1.33
  -4   0  -4   29.41    1.36
  -4   0  -5    1.10    0.35
  -4   0  -5    1.33    0.38
  -4   0  -6    3.99    0.57
  -4   0  -6    3.31    0.52
  -4   0  -7    4.17    0.60
   4   0   7    3.89    0.50
  -4   0  -8   -0.11    0.30
   4   0   8    0.25    0.24
  -4   0  -9    5.25    0.74
   4   0   9    3.87    0.60
  -4   0  -9    4.43    0.68
  -4   0 -10    0.70    0.38
   4   0  10    0.83    0.36
  -4   0 -10    1.07    0.44
  -4   0 -11    1.32    0.52
   4   0  11    1.49    0.47
  -4   0 -11    0.55    0.35
  -4   0 -12    0.52    0.42
   4   0  12    0.96    0.42
  -4   0 -12   -0.28    0.33
   4   1  -9    3.53    0.68
  -4  -1   9    3.57    0.67
  -4  -1   9    2.80    0.57
   4   1  -8    1.12    0.41
  -4  -1   8    0.20    0.26
  -4  -1   8    1.34    0.37
   4   1  -7    5.14    0.70
  -4  -1   7    4.87    0.69
  -4  -1   7    6.00    0.78
  -4  -1   6   10.55    0.95
  -4  -1   6   10.55    0.93
   4   1  -6   10.56    0.97
  -4  -1   5    0.83    0.36
   4   1  -5    0.89    0.40
  -4  -1   5    0.31    0.33
  -4  -1   4   19.75    1.20
  -4  -1   4   18.80    1.18
   4   1  -4   18.98    1.19
  -4  -1   3   10.47    0.79
  -4  -1   3    9.95    0.86
  -4  -1   3    9.36    0.83
   4   1  -3    9.80    0.84
   4   1  -2    5.39    0.63
  -4  -1   2    4.85    0.57
  -4  -1   2    6.78    0.70
  -4  -1   2    5.75    0.65
  -4  -1   1   32.62    1.38
  -4  -1   1   34.23    1.48
   4   1  -1   32.52    1.41
  -4  -1   0    7.23    0.69
  -4  -1   0    7.70    0.71
   4   1   0    7.07    0.67
  -4  -1  -1    5.48    0.61
  -4  -1  -1    6.05    0.65
   4   1   1    5.56    0.59
  -4  -1  -2    6.56    0.67
  -4  -1  -2    6.14    0.65
  -4  -1  -2    6.74    0.65
   4   1   2    7.40    0.62
   4   1   3    2.33    0.35
  -4  -1  -3    2.60    0.46
  -4  -1  -3    2.59    0.49
  -4  -1  -3    2.47    0.47
  -4  -1  -4    0.50    0.28
  -4  -1  -4    1.13    0.35
  -4  -1  -5    6.20    0.66
  -4  -1  -5    7.86    0.72
  -4  -1  -6    4.19    0.56
  -4  -1  -6    4.84    0.60
   4   1   6    4.38    0.52
  -4  -1  -7    4.37    0.59
  -4  -1  -7    5.05    0.61
   4   1   7    5.74    0.61
  -4  -1  -7    5.21    0.66
  -4  -1  -8    1.44    0.39
  -4  -1  -8    1.47    0.39
   4   1   8    2.76    0.50
  -4  -1  -8    2.67    0.53
  -4  -1  -9    1.89    0.46
   4   1   9    2.01    0.45
  -4  -1  -9    2.39    0.52
  -4  -1 -10    5.16    0.72
   4   1  10    5.72    0.75
  -4  -1 -10    4.97    0.72
  -4  -1 -11    0.27    0.45
   4   1  11    0.25    0.27
  -4  -1 -11    0.21    0.33
  -4  -1 -12    1.63    0.46
   4   1  12    0.91    0.44
  -4  -1 -12    1.45    0.51
   4   2  -9    0.08    0.35
  -4  -2   9   -0.23    0.31
   4   2  -8    1.13    0.44
  -4  -2   8    0.06    0.31
  -4  -2   8    1.09    0.41
   4   2  -7    0.48    0.39
  -4  -2   7    1.15    0.48
  -4  -2   7    0.45    0.31
   4   2  -6    0.11    0.33
  -4  -2   6    0.39    0.32
  -4  -2   6    0.51    0.31
   4   2  -5   -0.21    0.33
  -4  -2   5    0.10    0.26
  -4  -2   5    0.24    0.29
  -4  -2   4   30.75    1.49
  -4  -2   4   30.18    1.51
  -4  -2   3    3.91    0.60
  -4  -2   3    3.70    0.52
  -4  -2   3    3.68    0.54
  -4  -2   2   14.98    0.95
  -4  -2   2   16.35    1.05
  -4  -2   2   16.21    1.08
  -4  -2   1   11.29    0.84
  -4  -2   1   12.16    0.90
  -4  -2   0   14.94    0.97
  -4  -2   0   15.23    1.00
  -4  -2  -1    6.26    0.66
  -4  -2  -1    6.17    0.67
  -4  -2  -2   12.85    0.91
  -4  -2  -2   12.36    0.91
  -4  -2  -2   12.27    0.85
  -4  -2  -3    1.05    0.36
  -4  -2  -3    1.55    0.41
  -4  -2  -3    1.01    0.32
  -4  -2  -4    5.85    0.64
  -4  -2  -4    6.70    0.66
  -4  -2  -5   24.92    1.27
  -4  -2  -5   26.25    1.28
   4   2   5   26.46    1.18
  -4  -2  -6    2.35    0.44
  -4  -2  -6    2.21    0.43
  -4  -2  -6    2.15    0.44
   4   2   6    3.04    0.46
  -4  -2  -7    0.30    0.26
  -4  -2  -7    0.70    0.32
   4   2   7    0.59    0.28
  -4  -2  -7    0.67    0.34
  -4  -2  -8    2.06    0.45
  -4  -2  -8    1.57    0.39
   4   2   8    1.84    0.42
  -4  -2  -8    1.54    0.41
  -4  -2  -9   21.74    1.36
   4   2   9   22.05    1.32
  -4  -2  -9   22.69    1.44
  -4  -2 -10    0.32    0.26
   4   2  10    0.43    0.35
  -4  -2 -10    0.73    0.43
  -4  -2 -11    4.66    0.70
   4   2  11    5.54    0.77
  -4  -2 -11    6.49    0.87
  -4  -2 -12    0.50    0.33
   4   2  12    0.66    0.41
  -4  -2 -12    1.48    0.50
   4   3  -9    0.74    0.44
   4   3  -8    4.93    0.76
  -4  -3   8    5.36    0.79
  -4  -3   7    0.28    0.30
  -4  -3   6    1.41    0.41
  -4  -3   6    2.06    0.46
  -4  -3   5    1.14    0.39
  -4  -3   5    1.66    0.42
  -4  -3   4    4.22    0.64
  -4  -3   4    5.24    0.64
  -4  -3   3   21.54    1.16
  -4  -3   3   21.29    1.21
  -4  -3   3   19.88    1.24
  -4  -3   2    8.39    0.74
  -4  -3   2    8.70    0.79
  -4  -3   2    8.12    0.80
  -4  -3   1   32.41    1.43
  -4  -3   1   33.01    1.47
  -4  -3   1   34.02    1.54
  -4  -3   0    2.41    0.44
  -4  -3   0    2.08    0.42
  -4  -3  -1    1.47    0.38
  -4  -3  -1    2.13    0.45
  -4  -3  -2    0.84    0.32
  -4  -3  -2    1.54    0.39
  -4  -3  -2    1.70    0.35
  -4  -3  -3    4.61    0.59
  -4  -3  -3    5.45    0.57
   4   3   3    4.89    0.52
  -4  -3  -4    4.99    0.60
  -4  -3  -4    4.89    0.56
   4   3   4    5.87    0.58
  -4  -3  -5    1.23    0.36
   4   3   5    1.01    0.32
  -4  -3  -5    1.38    0.33
  -4  -3  -6    2.49    0.47
  -4  -3  -6    3.09    0.50
   4   3   6    2.64    0.47
  -4  -3  -6    2.13    0.46
  -4  -3  -7    2.10    0.44
  -4  -3  -7    1.72    0.40
   4   3   7    1.79    0.40
  -4  -3  -7    1.60    0.40
  -4  -3  -8    5.03    0.64
  -4  -3  -8    5.10    0.65
   4   3   8    4.91    0.64
  -4  -3  -8    5.29    0.73
  -4  -3  -9    0.69    0.33
   4   3   9    0.23    0.31
  -4  -3  -9    0.86    0.42
  -4  -3 -10    2.77    0.54
   4   3  10    2.81    0.59
  -4  -3 -10    2.25    0.58
  -4  -3 -11    4.05    0.66
   4   3  11    4.91    0.78
  -4  -3 -11    5.41    0.82
  -4  -3 -12    1.40    0.38
   4   3  12    2.64    0.64
  -4  -4   8    0.14    0.42
  -4  -4   7    0.38    0.29
  -4  -4   6    2.61    0.54
  -4  -4   5    1.28    0.45
  -4  -4   4    0.51    0.32
  -4  -4   4    1.05    0.34
  -4  -4   3   10.70    0.78
  -4  -4   3   11.84    0.92
  -4  -4   3   11.80    1.00
  -4  -4   2   29.57    1.40
  -4  -4   2   32.61    1.50
  -4  -4   2   30.75    1.56
  -4  -4   1   17.43    1.09
  -4  -4   1   18.69    1.12
  -4  -4   1   18.96    1.20
  -4  -4   0   17.04    1.09
  -4  -4   0   17.53    1.09
  -4  -4  -1   31.58    1.46
  -4  -4  -1   32.70    1.48
  -4  -4  -2   34.78    1.54
   4   4   2   39.01    1.45
  -4  -4  -3   35.08    1.56
   4   4   3   37.93    1.46
  -4  -4  -4    6.83    0.72
   4   4   4    7.85    0.72
  -4  -4  -5   18.66    1.16
   4   4   5   19.46    1.13
  -4  -4  -5   19.18    1.16
  -4  -4  -6   12.67    0.97
  -4  -4  -6   13.70    0.94
   4   4   6   13.80    0.99
  -4  -4  -6   13.46    1.02
  -4  -4  -7    0.15    0.27
  -4  -4  -7    0.64    0.33
   4   4   7    0.66    0.33
  -4  -4  -7    0.05    0.29
  -4  -4  -8    2.02    0.47
   4   4   8    1.97    0.47
  -4  -4  -8    2.51    0.52
   4   4   9    1.82    0.50
  -4  -4  -9    2.93    0.59
   4   4  10    1.48    0.46
  -4  -4 -10    1.67    0.48
   4   4  11    1.12    0.44
  -4  -4 -11    1.90    0.55
  -4  -5   7    1.11    0.47
  -4  -5   6   -0.22    0.35
  -4  -5   5    1.20    0.47
  -4  -5   4    0.54    0.34
  -4  -5   3    5.41    0.73
  -4  -5   3    4.85    0.62
  -4  -5   2    0.05    0.29
  -4  -5   2    0.48    0.31
  -4  -5   2   -0.03    0.21
  -4  -5   1    4.70    0.62
  -4  -5   1    4.44    0.61
  -4  -5   1    4.88    0.66
  -4  -5   0    4.24    0.60
  -4  -5   0    4.38    0.60
  -4  -5  -1    3.69    0.57
   4   5   1    3.60    0.51
  -4  -5  -2    1.80    0.42
   4   5   2    2.46    0.42
  -4  -5  -3    5.91    0.70
   4   5   3    6.63    0.69
  -4  -5  -4   15.65    1.09
   4   5   4   18.99    1.14
  -4  -5  -5    4.19    0.61
   4   5   5    5.87    0.68
  -4  -5  -5    5.19    0.63
  -4  -5  -6    1.89    0.44
   4   5   6    1.88    0.44
  -4  -5  -6    2.57    0.48
  -4  -5  -7    0.53    0.35
   4   5   7    0.51    0.33
  -4  -5  -7    0.68    0.33
  -4  -5  -8    0.12    0.25
   4   5   8    1.18    0.38
  -4  -5  -8    0.99    0.43
   4   5   9    0.76    0.42
  -4  -5  -9    0.67    0.40
   4   5  10    0.27    0.37
  -4  -5 -10    0.29    0.30
   4   5  11    0.98    0.40
  -4  -6   6    3.13    0.64
  -4  -6   5    0.63    0.39
  -4  -6   4    1.12    0.37
  -4  -6   3    1.97    0.52
  -4  -6   3    1.12    0.38
  -4  -6   2    1.69    0.50
  -4  -6   2    1.18    0.44
  -4  -6   1    4.29    0.62
   4   6  -1    3.79    0.57
  -4  -6   1    4.77    0.67
  -4  -6   0    4.36    0.63
   4   6   0    4.20    0.59
  -4  -6  -1    3.18    0.56
   4   6   1    3.36    0.55
  -4  -6  -2    3.36    0.58
   4   6   2    3.40    0.53
  -4  -6  -3    1.64    0.43
   4   6   3    2.57    0.50
  -4  -6  -4    2.04    0.50
   4   6   4    1.61    0.42
  -4  -6  -5    2.54    0.54
   4   6   5    3.18    0.54
  -4  -6  -5    2.33    0.46
  -4  -6  -6    1.00    0.38
   4   6   6    1.23    0.48
  -4  -6  -6    1.30    0.39
  -4  -6  -7    0.41    0.34
   4   6   7    0.23    0.35
  -4  -6  -7    0.72    0.34
  -4  -6  -8    0.15    0.23
   4   6   8   -0.31    0.40
  -4  -6  -8    0.12    0.29
   4   6   9   -0.05    0.33
  -4  -6  -9   -0.13    0.27
   4   6  10    0.44    0.28
  -4  -6 -10   -0.36    0.33
  -4  -7   5    0.00    0.31
  -4  -7   4    1.62    0.51
  -4  -7   3    1.58    0.43
  -4  -7   3    2.02    0.49
  -4  -7   2    1.25    0.44
  -4  -7   2    1.06    0.41
   4   7  -2    0.71    0.37
  -4  -7   1    3.48    0.61
   4   7  -1    4.08    0.65
  -4  -7   1    4.09    0.63
  -4  -7   0    2.26    0.52
   4   7   0    2.00    0.44
  -4  -7  -1    0.92    0.39
   4   7   1    0.51    0.36
  -4  -7  -2    1.64    0.49
   4   7   2    0.83    0.32
  -4  -7  -3    1.48    0.46
   4   7   3    0.86    0.33
  -4  -7  -4    1.21    0.43
   4   7   4    2.11    0.55
  -4  -7  -5    2.37    0.56
   4   7   5    2.20    0.50
  -4  -7  -6    0.48    0.35
   4   7   6    0.39    0.32
  -4  -7  -7    2.28    0.51
   4   7   7    2.40    0.59
  -4  -7  -8    1.25    0.40
   4   7   8    1.74    0.51
  -4  -7  -8    1.58    0.48
   4   7   9    0.89    0.47
  -4  -7  -9   -0.21    0.34
  -4  -8   4    3.30    0.66
  -4  -8   3    8.30    0.96
  -4  -8   2   15.29    1.23
  -4  -8   2   14.81    1.22
   4   8  -2   14.02    1.15
  -4  -8   1   12.60    1.11
  -4  -8   1   12.32    1.08
   4   8  -1   12.80    1.13
  -4  -8   0    7.29    0.86
   4   8   0    7.80    0.87
  -4  -8  -1    1.68    0.46
   4   8   1    2.25    0.55
  -4  -8  -2    1.70    0.48
   4   8   2    2.43    0.53
  -4  -8  -3    0.58    0.34
   4   8   3    0.44    0.33
  -4  -8  -4    1.25    0.43
   4   8   4    1.38    0.50
  -4  -8  -5    0.82    0.41
   4   8   5    0.16    0.33
  -4  -8  -6    0.69    0.39
   4   8   6    0.13    0.34
  -4  -8  -7    0.60    0.41
   4   8   7    0.76    0.42
  -4  -8  -8    2.10    0.61
   4   9  -3    3.20    0.66
  -4  -9   2    3.80    0.69
   4   9  -2    3.90    0.70
  -4  -9   1    0.30    0.25
   4   9  -1    0.27    0.33
  -4  -9   0    1.29    0.43
   4   9   0    1.25    0.45
  -4  -9  -1    3.45    0.64
   4   9   1    3.60    0.68
  -4  -9  -2    1.24    0.45
   4   9   2    1.94    0.54
  -4  -9  -3    0.48    0.36
   4   9   3   -0.08    0.39
  -4  -9  -4    1.36    0.47
   4   9   4    0.90    0.41
  -4  -9  -5    2.93    0.61
   4   9   5    2.56    0.59
   5  -7  -1   -0.08    0.35
   5  -7   0   -0.23    0.31
  -5   7   0    0.78    0.40
   5  -7   1    0.71    0.37
  -5   7  -1    1.55    0.49
  -5   7  -2    0.88    0.39
  -5   7  -3   -2.04    0.53
  -5   7  -4    0.47    0.40
  -5   6   4    0.98    0.45
   5  -6  -3    4.46    0.81
  -5   6   3    2.93    0.61
  -5   6   3    4.07    0.68
   5  -6  -2    1.62    0.57
  -5   6   2    0.35    0.38
  -5   6   2    1.12    0.35
   5  -6  -1   -0.13    0.41
  -5   6   1    0.07    0.34
   5  -6   0   -0.19    0.40
  -5   6   0    0.56    0.38
   5  -6   1    0.89    0.41
  -5   6  -1    1.11    0.42
  -5   6  -2    1.07    0.42
  -5   6  -3    1.02    0.46
  -5   6  -4    1.87    0.50
  -5   6  -4    1.57    0.48
  -5   6  -5    3.78    0.68
  -5   6  -5    2.55    0.57
  -5   6  -6    0.76    0.41
  -5   6  -6    1.54    0.47
  -5   6  -7    0.12    0.37
   5  -5  -4    1.85    0.56
  -5   5   4    3.25    0.64
   5  -5  -3   -0.14    0.36
  -5   5   3    1.24    0.43
  -5   5   2    0.22    0.24
   5  -5  -1    4.39    0.69
  -5   5   1    2.60    0.55
   5  -5   0    5.96    0.79
  -5   5   0    5.55    0.75
  -5   5   0    4.82    0.67
  -5   5  -1    6.76    0.83
   5  -5   1    8.46    0.88
  -5   5  -2   15.51    1.21
  -5   5  -3    8.24    0.91
  -5   5  -3    9.03    0.95
  -5   5  -4    0.37    0.33
  -5   5  -5    5.78    0.80
  -5   5  -6    9.84    1.03
  -5   5  -7    2.64    0.57
  -5   5  -8    0.93    0.37
   5  -4  -5    0.30    0.36
  -5   4   5    0.11    0.27
   5  -4  -4    1.08    0.53
  -5   4   4    0.95    0.45
   5  -4  -3    2.12    0.55
  -5   4   3    1.35    0.45
   5  -4  -2    1.86    0.55
  -5   4   2    1.45    0.41
   5  -4  -1    1.28    0.49
  -5   4   1    0.44    0.26
   5  -4   0    1.43    0.44
  -5   4   0    2.79    0.53
   5  -4   1    3.00    0.53
  -5   4  -1    3.22    0.56
   5  -4   2    4.04    0.61
  -5   4  -2    3.66    0.56
  -5   4  -3    3.08    0.58
  -5   4  -4    5.78    0.77
  -5   4  -5   24.00    1.51
  -5   4  -6    1.66    0.45
  -5   4  -7    1.13    0.46
  -5   4  -8    0.04    0.32
   5  -3  -5   -0.47    0.42
  -5   3   5    0.65    0.46
   5  -3  -4    1.07    0.40
  -5   3   4    1.84    0.54
   5  -3  -3    0.40    0.33
  -5   3   3    0.46    0.32
   5  -3  -2   -0.13    0.39
  -5   3   2    0.73    0.36
   5  -3  -1    0.70    0.35
  -5   3   1    2.06    0.46
   5  -3   0   -0.24    0.34
  -5   3   0    0.86    0.33
   5  -3   1    4.05    0.59
  -5   3  -1    3.61    0.59
   5  -3   2    1.05    0.36
  -5   3  -2    0.76    0.31
  -5   3  -3    6.98    0.75
  -5   3  -3    8.17    0.89
  -5   3  -4    8.99    0.84
  -5   3  -4    9.53    0.95
  -5   3  -5    2.16    0.49
  -5   3  -6    1.15    0.42
  -5   3  -7    0.79    0.38
  -5   3  -8    1.53    0.54
  -5   3  -9    0.50    0.37
   5  -2  -6    1.49    0.48
  -5   2   6    2.78    0.61
   5  -2  -5    1.56    0.52
  -5   2   5    2.68    0.61
   5  -2  -4    0.07    0.34
  -5   2   4    0.07    0.28
   5  -2  -3    0.14    0.36
  -5   2   3    0.67    0.36
   5  -2  -2    4.76    0.72
  -5   2   2    5.59    0.75
   5  -2  -1    2.67    0.52
  -5   2   1    2.95    0.56
   5  -2   0    0.83    0.38
  -5   2   0    0.49    0.31
   5  -2   1    0.09    0.26
  -5   2  -1    0.53    0.30
   5  -2   2   -0.35    0.33
  -5   2  -2    0.66    0.39
  -5   2  -2    0.81    0.37
  -5   2  -3    2.21    0.48
  -5   2  -3    2.36    0.51
  -5   2  -4    0.48    0.33
  -5   2  -4    0.36    0.38
  -5   2  -5    3.43    0.57
  -5   2  -5    3.28    0.59
  -5   2  -6    1.11    0.39
  -5   2  -7    0.85    0.36
  -5   2  -8    0.56    0.31
  -5   2  -9    0.95    0.39
   5  -1  -6    0.77    0.44
  -5   1   6   -0.47    0.39
   5  -1  -5    0.31    0.35
  -5   1   5    0.48    0.31
   5  -1  -4    0.21    0.28
  -5   1   4   -0.02    0.29
   5  -1  -3    1.23    0.46
  -5   1   3    1.07    0.36
   5  -1  -2    3.04    0.56
  -5   1   2    3.46    0.58
   5  -1  -1    3.95    0.62
  -5   1   1    4.70    0.66
  -5   1   0   21.56    1.32
   5  -1   0   20.57    1.25
  -5   1  -1   15.62    1.13
   5  -1   1   15.52    1.06
   5  -1   2    4.45    0.58
  -5   1  -2    3.33    0.58
  -5   1  -2    3.18    0.56
  -5   1  -3    1.22    0.42
  -5   1  -3    0.98    0.31
  -5   1  -4    1.61    0.47
  -5   1  -4    1.59    0.46
  -5   1  -5    0.46    0.29
  -5   1  -5    0.60    0.32
  -5   1  -6    1.46    0.46
  -5   1  -7    0.08    0.28
  -5   1  -8    0.25    0.29
  -5   1  -9   -0.38    0.32
  -5   1 -10   -0.20    0.32
   5   0  -6    0.82    0.37
  -5   0   6    0.33    0.31
   5   0  -5    1.72    0.46
  -5   0   5    2.33    0.56
   5   0  -4    5.93    0.77
  -5   0   4    5.30    0.74
   5   0  -3    0.57    0.38
  -5   0   3    1.27    0.44
   5   0  -2    6.12    0.75
  -5   0   2    6.55    0.80
  -5   0   1   12.67    1.05
   5   0  -1   10.83    0.95
   5   0   0    3.10    0.52
  -5   0   0    2.89    0.55
  -5   0  -1    6.43    0.75
   5   0   1    6.42    0.70
  -5   0  -2    6.32    0.76
  -5   0  -2    5.60    0.71
   5   0   2    5.77    0.64
  -5   0  -3    0.17    0.28
  -5   0  -3    0.39    0.29
  -5   0  -4    0.73    0.40
  -5   0  -4    0.76    0.34
  -5   0  -5    9.37    0.92
  -5   0  -6    2.92    0.57
  -5   0  -7    3.74    0.65
  -5   0  -8    1.36    0.44
  -5   0  -9    0.85    0.43
  -5   0 -10    2.50    0.56
  -5  -1   7    1.56    0.43
  -5  -1   7    1.27    0.45
   5   1  -6    0.39    0.35
  -5  -1   6    0.09    0.24
  -5  -1   6    0.37    0.32
   5   1  -5    0.11    0.34
  -5  -1   5    0.14    0.35
  -5  -1   5   -0.18    0.27
   5   1  -4    1.18    0.43
  -5  -1   4    1.32    0.41
   5   1  -3   -0.05    0.30
  -5  -1   3    1.11    0.42
   5   1  -2    3.49    0.61
  -5  -1   2    3.10    0.55
  -5  -1   2    3.54    0.62
   5   1  -1    5.89    0.72
  -5  -1   1    6.04    0.73
  -5  -1   1    6.44    0.77
   5   1   0    0.70    0.37
  -5  -1   0    0.48    0.27
  -5  -1   0    0.87    0.40
   5   1   1    3.96    0.58
  -5  -1  -1    4.55    0.64
  -5  -1  -1    3.84    0.62
   5   1   2    3.56    0.52
  -5  -1  -2    3.34    0.60
  -5  -1  -2    2.65    0.52
  -5  -1  -3    1.60    0.42
  -5  -1  -3    1.87    0.49
  -5  -1  -3    2.55    0.51
  -5  -1  -4    5.16    0.70
  -5  -1  -4    4.96    0.69
  -5  -1  -4    5.10    0.67
  -5  -1  -5    3.47    0.59
  -5  -1  -5    5.34    0.69
  -5  -1  -6    2.84    0.55
  -5  -1  -6    2.67    0.53
  -5  -1  -7    2.87    0.53
  -5  -1  -7    3.34    0.64
  -5  -1  -8    1.90    0.51
  -5  -1  -8    1.74    0.44
  -5  -1  -9    1.35    0.48
  -5  -1 -10    1.01    0.41
  -5  -2   7    0.57    0.37
   5   2  -6    4.95    0.80
  -5  -2   6    5.37    0.79
  -5  -2   6    5.28    0.80
   5   2  -5    4.93    0.77
  -5  -2   5    5.71    0.80
  -5  -2   5    3.74    0.65
   5   2  -4    2.26    0.59
  -5  -2   4    2.37    0.56
  -5  -2   4    2.62    0.57
   5   2  -3    2.70    0.56
  -5  -2   3    1.55    0.47
   5   2  -2    4.36    0.65
  -5  -2   2    4.32    0.63
  -5  -2   2    4.39    0.65
   5   2  -1    5.50    0.71
  -5  -2   1    4.38    0.62
  -5  -2   1    4.72    0.69
  -5  -2   0    7.55    0.81
  -5  -2   0    6.38    0.76
   5   2   0    6.78    0.76
   5   2   1    5.86    0.67
  -5  -2  -1    5.69    0.74
  -5  -2  -1    6.09    0.76
  -5  -2  -2    6.22    0.76
  -5  -2  -2    5.37    0.70
   5   2   2    5.77    0.65
  -5  -2  -3    1.86    0.50
  -5  -2  -3    1.06    0.40
  -5  -2  -3    1.23    0.35
  -5  -2  -4    0.19    0.28
  -5  -2  -4    0.91    0.39
  -5  -2  -5    4.78    0.68
  -5  -2  -5    5.08    0.69
  -5  -2  -6    0.08    0.31
  -5  -2  -6    0.28    0.29
  -5  -2  -7    0.13    0.28
  -5  -2  -7    1.65    0.41
  -5  -2  -8    0.38    0.33
  -5  -2  -8    0.32    0.29
  -5  -2  -9    0.62    0.34
  -5  -2 -10    0.09    0.29
  -5  -3   6    0.84    0.36
   5   3  -5    0.68    0.43
  -5  -3   5    0.80    0.34
  -5  -3   5    1.49    0.51
  -5  -3   4    1.55    0.39
  -5  -3   4    1.73    0.50
  -5  -3   3    1.09    0.41
  -5  -3   3    1.70    0.45
  -5  -3   2    2.33    0.49
  -5  -3   2    2.62    0.53
  -5  -3   1    6.59    0.78
  -5  -3   1    7.04    0.82
  -5  -3   0    0.68    0.34
  -5  -3   0    1.21    0.45
  -5  -3  -1    4.26    0.64
  -5  -3  -1    3.76    0.62
  -5  -3  -2    7.51    0.83
  -5  -3  -2    5.41    0.72
  -5  -3  -3   14.60    1.14
  -5  -3  -3   17.68    1.15
  -5  -3  -4   17.77    1.24
  -5  -3  -4   18.15    1.16
  -5  -3  -5   17.28    1.23
  -5  -3  -5   19.05    1.22
  -5  -3  -6    8.05    0.87
  -5  -3  -6    7.72    0.83
  -5  -3  -7    9.69    0.97
  -5  -3  -7    8.98    0.90
  -5  -3  -8    2.80    0.57
  -5  -3  -8    3.24    0.60
  -5  -3  -9    1.10    0.39
  -5  -3 -10    0.68    0.37
  -5  -4   5    3.09    0.67
  -5  -4   4    1.13    0.36
  -5  -4   4    1.21    0.47
  -5  -4   3    0.48    0.31
  -5  -4   3   -0.30    0.34
  -5  -4   2    0.34    0.30
  -5  -4   2   -0.31    0.35
  -5  -4   1    0.75    0.41
  -5  -4   1    0.72    0.37
  -5  -4   0   13.89    1.10
  -5  -4   0   14.26    1.14
  -5  -4  -1    0.95    0.37
  -5  -4  -1    1.72    0.48
  -5  -4  -2    4.02    0.66
  -5  -4  -3    0.26    0.33
  -5  -4  -4   -0.43    0.37
  -5  -4  -5    1.54    0.44
  -5  -4  -6    1.59    0.46
  -5  -4  -7    0.62    0.34
  -5  -4  -8    1.41    0.38
  -5  -4  -9    1.19    0.42
   5   4  10    1.19    0.45
  -5  -5   4    0.74    0.38
  -5  -5   3    0.44    0.37
  -5  -5   2    0.87    0.34
  -5  -5   2    0.60    0.31
  -5  -5   1    1.65    0.44
  -5  -5   1    1.17    0.44
  -5  -5   0    0.54    0.34
  -5  -5   0    1.63    0.48
  -5  -5  -1    4.87    0.72
  -5  -5  -2    3.90    0.65
  -5  -5  -3   -0.32    0.34
  -5  -5  -4    0.96    0.39
  -5  -5  -5    0.80    0.37
  -5  -5  -6    0.78    0.42
  -5  -5  -7    1.25    0.46
  -5  -5  -8    1.82    0.44
   5   5   8    1.71    0.45
  -5  -5  -8    1.82    0.52
   5   5   9    0.87    0.40
  -5  -6   2    0.39    0.29
  -5  -6   1    0.78    0.36
  -5  -6   0    2.25    0.50
  -5  -6  -1    1.05    0.42
  -5  -6  -2    0.62    0.39
  -5  -6  -3    0.25    0.33
  -5  -6  -4   -0.35    0.38
  -5  -6  -5   -0.04    0.31
  -5  -6  -6    0.53    0.37
  -5  -6  -7   -0.14    0.26
   5   6   7    0.43    0.37
   5   6   8    0.79    0.43
  -5  -6  -8    0.49    0.31
  -5  -7   2    1.75    0.47
  -5  -7   1    5.56    0.80
  -5  -7   0    8.95    1.01
  -5  -7  -1    4.05    0.70
  -5  -7  -2    6.49    0.87
  -5  -7  -3   10.03    1.06
  -5  -7  -4    7.62    0.93
  -5  -7  -5    4.53    0.73
   5   7   6    1.73    0.54
   5   7   7    0.99    0.37
   6  -4   0    0.59    0.37
  -6   4   0    0.38    0.33
  -6   4  -1    0.34    0.30
  -6   4  -2   -0.08    0.35
   6  -3  -1    0.83    0.46
  -6   3   1    1.10    0.35
   6  -3   0   -0.22    0.40
  -6   3   0    0.08    0.24
  -6   3  -1   -0.37    0.44
  -6   3  -2    1.14    0.44
  -6   3  -3    0.46    0.36
  -6   3  -4    0.53    0.35
  -6   3  -4    0.16    0.37
   6  -2  -2    0.22    0.32
   6  -2  -1    0.47    0.38
  -6   2   1    0.23    0.28
   6  -2   0   -0.12    0.32
  -6   2   0    0.15    0.32
   6  -2   1    1.91    0.50
  -6   2  -1    1.84    0.54
  -6   2  -2    3.76    0.69
  -6   2  -3    2.34    0.54
  -6   2  -4    1.28    0.48
  -6   2  -4    1.78    0.50
  -6   2  -5    0.31    0.26
  -6   2  -5   -0.34    0.37
   6  -1  -2    1.53    0.47
   6  -1  -1    1.07    0.44
  -6   1   1    1.58    0.52
   6  -1   0    0.73    0.37
  -6   1   0   -0.11    0.41
   6  -1   1    2.20    0.47
  -6   1  -1    3.21    0.64
  -6   1  -2    1.24    0.42
  -6   1  -3   -0.17    0.31
  -6   1  -4    1.97    0.53
  -6   1  -4    1.83    0.56
  -6   1  -5    3.05    0.63
  -6   1  -6    3.48    0.67
   6   0  -2    3.09    0.67
  -6   0   2   -0.10    0.25
   6   0  -1   -0.42    0.34
  -6   0   1   -0.02    0.40
   6   0   0    1.35    0.44
  -6   0   0    1.26    0.48
   6   0   1    1.50    0.43
  -6   0  -1    1.30    0.43
  -6   0  -2    1.51    0.47
  -6   0  -3    2.10    0.55
  -6   0  -4    2.57    0.61
  -6   0  -4    3.84    0.66
  -6   0  -5    2.89    0.61
  -6   0  -6    2.88    0.61
   6   1  -2    0.35    0.34
  -6  -1   2    0.74    0.37
   6   1  -1    1.02    0.43
  -6  -1   1    1.73    0.47
   6   1   0    1.11    0.44
  -6  -1   0    0.75    0.36
   6   1   1    0.08    0.27
  -6  -1  -1   -0.20    0.34
  -6  -1  -2    0.80    0.37
  -6  -1  -2   -0.19    0.30
  -6  -1  -3    2.24    0.56
  -6  -1  -3    2.53    0.59
  -6  -1  -4    0.01    0.32
  -6  -1  -4    0.35    0.32
  -6  -1  -4    0.47    0.35
  -6  -1  -5    0.01    0.30
  -6  -1  -6    0.81    0.44
  -6  -1  -7    0.98    0.40
   6   2  -2    0.76    0.47
  -6  -2   2    0.01    0.30
  -6  -2   1    0.04    0.33
  -6  -2   1    0.47    0.36
   6   2   0    1.57    0.47
  -6  -2   0    1.75    0.49
  -6  -2   0    1.32    0.43
   6   2   1    0.15    0.29
  -6  -2  -1    0.49    0.39
  -6  -2  -1    0.48    0.42
  -6  -2  -2    3.52    0.65
  -6  -2  -2    4.54    0.77
  -6  -2  -3    1.70    0.51
  -6  -2  -3    1.83    0.52
  -6  -2  -4    1.78    0.50
  -6  -2  -4    2.47    0.55
  -6  -2  -5    3.67    0.69
  -6  -2  -5    2.49    0.56
  -6  -2  -6    2.40    0.56
  -6  -2  -6    2.71    0.55
  -6  -2  -7    1.08    0.42
  -6  -3   2    0.69    0.37
   6   3  -1    0.73    0.37
  -6  -3   1    0.49    0.41
  -6  -3   1    1.16    0.44
   6   3   0   -0.52    0.35
  -6  -3   0    0.30    0.31
  -6  -3   0   -0.21    0.30
   6   3   1    0.88    0.37
  -6  -3  -1    0.83    0.41
  -6  -3  -1    1.78    0.54
  -6  -3  -2    2.09    0.54
  -6  -3  -2    2.31    0.60
  -6  -3  -3    1.74    0.53
  -6  -3  -4   -0.15    0.34
  -6  -3  -5    1.01    0.42
  -6  -4   0    0.35    0.30
  -6  -4  -1    0.81    0.38
  -6  -4  -1    1.52    0.47
  -6  -4  -2    2.39    0.60
   0   0   0    0.00    0.00
;
_shelx_hkl_checksum              35574
loop_
_space_group_symop_operation_xyz
'x, y, z'
loop_
_atom_site_label
_atom_site_type_symbol
_atom_site_fract_x
_atom_site_fract_y
_atom_site_fract_z
_atom_site_U_iso_or_equiv
_atom_site_adp_type
_atom_site_occupancy
_atom_site_site_symmetry_order
_atom_site_calc_flag
_atom_site_refinement_flags_posn
_atom_site_refinement_flags_adp
_atom_site_refinement_flags_occupancy
_atom_site_disorder_assembly
_atom_site_disorder_group
N28 N -0.1203(4) 0.1278(2) 0.7268(2) 0.0416(6) Uani 1 1 d . . . . .
H28 H -0.0215 0.1862 0.6786 0.050 Uiso 1 1 calc R U . . .
N27 N 1.1105(4) 0.5508(2) 0.1824(2) 0.0438(7) Uani 1 1 d . . . . .
H27 H 1.0467 0.6352 0.1847 0.053 Uiso 1 1 calc R U . . .
C26 C 1.0870(5) 0.3166(3) 0.2534(2) 0.0410(7) Uani 1 1 d . . . . .
H26 H 1.0025 0.2446 0.3040 0.049 Uiso 1 1 calc R U . . .
C25 C 1.3173(6) 0.2885(3) 0.1719(3) 0.0524(9) Uani 1 1 d . . . . .
H25 H 1.3877 0.1975 0.1682 0.063 Uiso 1 1 calc R U . . .
C21 C 0.9839(4) 0.4502(2) 0.2595(2) 0.0315(6) Uani 1 1 d . . . . .
C20 C 0.7350(4) 0.4892(3) 0.3462(2) 0.0332(6) Uani 1 1 d . . . . .
H20A H 0.6039 0.4148 0.3497 0.040 Uiso 1 1 calc R U . . .
H20B H 0.6588 0.5747 0.3154 0.040 Uiso 1 1 calc R U . . .
C19 C 0.7866(4) 0.5127(2) 0.4752(2) 0.0244(6) Uani 1 1 d . . . . .
H19 H 0.910(4) 0.440(2) 0.500(2) 0.029 Uiso 1 1 d . U . . .
C18 C 0.9195(4) 0.6565(2) 0.4800(2) 0.0255(6) Uani 1 1 d . . . . .
O17 O 1.1651(3) 0.66102(16) 0.43659(15) 0.0338(5) Uani 1 1 d . . . . .
O16 O 0.7766(3) 0.75621(16) 0.52221(16) 0.0353(5) Uani 1 1 d . . . . .
N15 N 0.5263(3) 0.5082(2) 0.55893(18) 0.0301(5) Uani 1 1 d . . . . .
H15A H 0.5517 0.5277 0.6332 0.045 Uiso 1 1 calc R U . . .
H15B H 0.4561 0.4226 0.5603 0.045 Uiso 1 1 calc R U . . .
H15C H 0.4147 0.5715 0.5337 0.045 Uiso 1 1 calc R U . . .
N14 N 0.3925(4) -0.07751(19) 0.42440(19) 0.0321(5) Uani 1 1 d . . . . .
H14A H 0.4208 -0.0359 0.3507 0.048 Uiso 1 1 calc R U . . .
H14B H 0.3026 -0.1571 0.4228 0.048 Uiso 1 1 calc R U . . .
H14C H 0.5493 -0.0968 0.4475 0.048 Uiso 1 1 calc R U . . .
O13 O 0.6168(4) 0.16533(19) 0.4540(2) 0.0636(7) Uani 1 1 d . . . . .
O12 O 0.2606(3) 0.25447(17) 0.56996(18) 0.0509(6) Uani 1 1 d . . . . .
C11 C -0.2089(6) -0.1007(3) 0.8043(3) 0.0472(8) Uani 1 1 d . . . . .
H11 H -0.1664 -0.1962 0.8053 0.057 Uiso 1 1 calc R U . . .
C10 C -0.4272(6) -0.0517(4) 0.8828(3) 0.0573(10) Uani 1 1 d . . . . .
H10 H -0.5299 -0.1137 0.9378 0.069 Uiso 1 1 calc R U . . .
C9 C -0.4926(6) 0.0897(3) 0.8796(3) 0.0513(9) Uani 1 1 d . . . . .
H9 H -0.6425 0.1238 0.9304 0.062 Uiso 1 1 calc R U . . .
C8 C -0.3339(6) 0.1777(3) 0.8011(3) 0.0485(8) Uani 1 1 d . . . . .
H8 H -0.3735 0.2736 0.7986 0.058 Uiso 1 1 calc R U . . .
C6 C -0.0539(5) -0.0093(3) 0.7246(2) 0.0341(6) Uani 1 1 d . . . . .
C5 C 0.1870(5) -0.0561(2) 0.6374(2) 0.0327(6) Uani 1 1 d . . . . .
H5A H 0.1711 -0.1563 0.6268 0.039 Uiso 1 1 calc R U . . .
H5B H 0.3450 -0.0429 0.6740 0.039 Uiso 1 1 calc R U . . .
C23 C 1.3343(6) 0.5230(3) 0.1018(3) 0.0565(9) Uani 1 1 d . . . . .
H23 H 1.4141 0.5947 0.0494 0.068 Uiso 1 1 calc R U . . .
C24 C 1.4423(6) 0.3934(4) 0.0966(3) 0.0560(9) Uani 1 1 d . . . . .
H24 H 1.5992 0.3752 0.0428 0.067 Uiso 1 1 calc R U . . .
C4 C 0.2331(4) 0.0186(2) 0.5118(2) 0.0258(6) Uani 1 1 d . . . . .
H1 H 0.062(4) 0.046(2) 0.483(2) 0.029(6) Uiso 1 1 d . . . . .
C2 C 0.3859(5) 0.1574(2) 0.5102(2) 0.0342(7) Uani 1 1 d . . . . .
F4 F 0.0343(5) 0.9689(3) 0.2586(2) 0.1267(9) Uani 1 1 d D . . . .
B1 B -0.0846(7) 0.9278(4) 0.1684(3) 0.0528(10) Uani 1 1 d D . . . .
F1 F -0.1645(15) 1.0325(5) 0.1118(5) 0.205(2) Uani 0.5 1 d D . P A 1
F2 F 0.0846(13) 0.8444(5) 0.1000(5) 0.157(2) Uani 0.5 1 d D . P A 1
F1A F -0.3152(8) 1.0062(5) 0.1798(4) 0.1029(16) Uani 0.5 1 d D . P A 2
F2A F -0.2270(7) 0.8097(3) 0.2047(4) 0.1665(16) Uani 1 1 d D . . B 2
F3A F 0.0315(11) 0.9507(9) 0.0583(4) 0.163(3) Uani 0.5 1 d D . P A 2
F21 F 0.8989(4) 0.5655(2) 0.92085(17) 0.0836(7) Uani 1 1 d . . . . .
B2 B 1.0606(7) 0.5121(4) 0.8244(3) 0.0451(9) Uani 1 1 d . . . . .
F22 F 1.2494(8) 0.6193(4) 0.7849(4) 0.0909(16) Uani 0.5 1 d . . P . .
F22A F 1.2979(8) 0.5707(7) 0.8030(4) 0.124(2) Uani 0.5 1 d . . P . .
F23 F 0.9332(4) 0.5067(3) 0.72575(18) 0.0895(7) Uani 1 1 d . . . . .
F24 F 1.1946(8) 0.3925(4) 0.8370(4) 0.0803(13) Uani 0.5 1 d . . P . .
F24A F 1.0680(10) 0.3707(5) 0.8744(5) 0.1049(17) Uani 0.5 1 d . . P . .
loop_
_atom_site_aniso_label
_atom_site_aniso_U_11
_atom_site_aniso_U_22
_atom_site_aniso_U_33
_atom_site_aniso_U_23
_atom_site_aniso_U_13
_atom_site_aniso_U_12
N28 0.0429(12) 0.0316(11) 0.0470(13) -0.0058(10) 0.0034(10) -0.0044(9)
N27 0.0583(13) 0.0368(12) 0.0361(12) 0.0009(10) -0.0078(10) -0.0019(10)
C26 0.0541(15) 0.0272(12) 0.0393(14) -0.0008(11) -0.0017(12) 0.0020(12)
C25 0.0538(17) 0.0514(16) 0.0539(17) -0.0217(13) -0.0102(14) 0.0091(14)
C21 0.0360(12) 0.0310(12) 0.0282(12) -0.0047(10) -0.0063(10) -0.0081(10)
C20 0.0295(11) 0.0350(12) 0.0364(13) -0.0070(11) -0.0081(10) -0.0002(10)
C19 0.0215(10) 0.0204(10) 0.0312(12) -0.0020(9) -0.0042(9) -0.0013(9)
C18 0.0289(11) 0.0201(10) 0.0284(11) 0.0000(9) -0.0077(9) -0.0027(9)
O17 0.0212(7) 0.0314(8) 0.0467(10) -0.0037(8) 0.0009(7) -0.0052(7)
O16 0.0339(8) 0.0236(8) 0.0492(10) -0.0074(7) -0.0083(7) 0.0006(7)
N15 0.0276(9) 0.0242(9) 0.0378(11) -0.0012(8) -0.0031(8) -0.0069(8)
N14 0.0308(10) 0.0229(9) 0.0418(11) -0.0034(8) -0.0031(9) -0.0030(8)
O13 0.0430(11) 0.0349(10) 0.1039(17) -0.0140(11) 0.0169(12) -0.0154(9)
O12 0.0510(11) 0.0262(8) 0.0708(13) -0.0140(9) 0.0072(10) -0.0118(8)
C11 0.0576(16) 0.0349(14) 0.0458(16) 0.0097(12) -0.0023(14) -0.0026(13)
C10 0.0518(17) 0.078(2) 0.0358(16) 0.0108(15) 0.0085(14) -0.0017(16)
C9 0.0539(17) 0.0639(18) 0.0328(14) -0.0109(13) 0.0045(13) 0.0018(15)
C8 0.0513(16) 0.0457(15) 0.0466(16) -0.0141(13) 0.0001(13) 0.0038(13)
C6 0.0366(12) 0.0371(13) 0.0306(12) -0.0028(10) -0.0107(10) -0.0016(11)
C5 0.0358(12) 0.0250(11) 0.0374(13) -0.0016(10) -0.0062(10) -0.0021(10)
C23 0.0623(18) 0.0705(19) 0.0318(15) 0.0012(14) 0.0067(14) -0.0220(15)
C24 0.0416(15) 0.085(2) 0.0402(16) -0.0185(15) -0.0003(13) 0.0007(15)
C4 0.0218(10) 0.0226(10) 0.0323(12) -0.0040(9) -0.0019(9) -0.0022(9)
C2 0.0339(12) 0.0243(11) 0.0427(14) -0.0027(11) -0.0010(11) -0.0054(10)
F4 0.1629(19) 0.119(2) 0.1230(16) -0.0195(15) -0.0920(12) 0.0158(16)
B1 0.060(2) 0.0447(17) 0.051(2) -0.0023(16) -0.0019(17) -0.0063(16)
F1 0.414(6) 0.066(3) 0.195(3) 0.006(3) -0.226(3) 0.041(4)
F2 0.201(5) 0.088(3) 0.138(4) -0.031(3) 0.098(3) 0.030(3)
F1A 0.078(2) 0.140(3) 0.080(3) 0.023(3) 0.005(2) 0.059(2)
F2A 0.173(3) 0.102(2) 0.207(4) 0.004(2) 0.017(3) -0.0422(19)
F3A 0.103(3) 0.324(8) 0.048(3) 0.031(4) 0.018(2) -0.078(4)
F21 0.0811(13) 0.1084(15) 0.0523(11) -0.0146(11) 0.0165(10) 0.0042(12)
B2 0.0459(16) 0.0503(17) 0.0395(17) -0.0080(14) -0.0078(14) 0.0053(14)
F22 0.083(3) 0.070(2) 0.103(3) -0.014(2) 0.040(2) -0.028(2)
F22A 0.060(2) 0.245(6) 0.064(3) -0.045(3) 0.009(2) -0.055(3)
F23 0.0909(12) 0.1275(17) 0.0590(10) -0.0092(11) -0.0380(9) 0.0155(12)
F24 0.088(2) 0.051(2) 0.113(3) -0.010(2) -0.048(2) 0.0278(18)
F24A 0.137(3) 0.060(2) 0.133(4) -0.008(3) -0.066(3) 0.014(2)
loop_
_atom_type_symbol
_atom_type_description
_atom_type_scat_dispersion_real
_atom_type_scat_dispersion_imag
_atom_type_scat_source
C C 0.0033 0.0016 'International Tables Vol C Tables 4.2.6.8 and 6.1.1.4'
H H 0.0000 0.0000 'International Tables Vol C Tables 4.2.6.8 and 6.1.1.4'
B B 0.0013 0.0007 'International Tables Vol C Tables 4.2.6.8 and 6.1.1.4'
N N 0.0061 0.0033 'International Tables Vol C Tables 4.2.6.8 and 6.1.1.4'
O O 0.0106 0.0060 'International Tables Vol C Tables 4.2.6.8 and 6.1.1.4'
F F 0.0171 0.0103 'International Tables Vol C Tables 4.2.6.8 and 6.1.1.4'
loop_
_geom_angle_atom_site_label_1
_geom_angle_atom_site_label_2
_geom_angle_atom_site_label_3
_geom_angle
_geom_angle_site_symmetry_1
_geom_angle_site_symmetry_3
C8 N28 C6 122.8(2) . .
C8 N28 H28 118.6 . .
C6 N28 H28 118.6 . .
C21 N27 C23 122.2(2) . .
C21 N27 H27 118.9 . .
C23 N27 H27 118.9 . .
C21 C26 C25 119.9(2) . .
C21 C26 H26 120.0 . .
C25 C26 H26 120.0 . .
C24 C25 C26 120.5(3) . .
C24 C25 H25 119.8 . .
C26 C25 H25 119.8 . .
N27 C21 C26 118.0(2) . .
N27 C21 C20 119.0(2) . .
C26 C21 C20 123.0(2) . .
C21 C20 C19 113.38(19) . .
C21 C20 H20A 108.9 . .
C19 C20 H20A 108.9 . .
C21 C20 H20B 108.9 . .
C19 C20 H20B 108.9 . .
H20A C20 H20B 107.7 . .
N15 C19 C20 108.46(17) . .
N15 C19 C18 109.75(17) . .
C20 C19 C18 110.17(18) . .
N15 C19 H19 110.4(12) . .
C20 C19 H19 110.7(13) . .
C18 C19 H19 107.3(13) . .
O17 C18 O16 126.6(2) . .
O17 C18 C19 115.11(18) . .
O16 C18 C19 118.26(18) . .
C19 N15 H15A 109.5 . .
C19 N15 H15B 109.5 . .
H15A N15 H15B 109.5 . .
C19 N15 H15C 109.5 . .
H15A N15 H15C 109.5 . .
H15B N15 H15C 109.5 . .
C4 N14 H14A 109.5 . .
C4 N14 H14B 109.5 . .
H14A N14 H14B 109.5 . .
C4 N14 H14C 109.5 . .
H14A N14 H14C 109.5 . .
H14B N14 H14C 109.5 . .
C6 C11 C10 120.3(3) . .
C6 C11 H11 119.8 . .
C10 C11 H11 119.8 . .
C11 C10 C9 119.7(3) . .
C11 C10 H10 120.1 . .
C9 C10 H10 120.1 . .
C8 C9 C10 118.6(3) . .
C8 C9 H9 120.7 . .
C10 C9 H9 120.7 . .
N28 C8 C9 120.5(3) . .
N28 C8 H8 119.7 . .
C9 C8 H8 119.7 . .
C11 C6 N28 117.9(2) . .
C11 C6 C5 122.8(2) . .
N28 C6 C5 119.2(2) . .
C6 C5 C4 116.3(2) . .
C6 C5 H5A 108.2 . .
C4 C5 H5A 108.2 . .
C6 C5 H5B 108.2 . .
C4 C5 H5B 108.2 . .
H5A C5 H5B 107.4 . .
C24 C23 N27 120.7(3) . .
C24 C23 H23 119.6 . .
N27 C23 H23 119.6 . .
C23 C24 C25 118.7(3) . .
C23 C24 H24 120.6 . .
C25 C24 H24 120.6 . .
N14 C4 C2 108.89(17) . .
N14 C4 C5 108.19(17) . .
C2 C4 C5 112.2(2) . .
N14 C4 H1 109.8(13) . .
C2 C4 H1 104.6(13) . .
C5 C4 H1 113.0(12) . .
O13 C2 O12 125.4(2) . .
O13 C2 C4 118.9(2) . .
O12 C2 C4 115.62(19) . .
F4 B1 F1 110.8(4) . .
F4 B1 F3A 119.4(4) . .
F4 B1 F2A 109.3(3) . .
F3A B1 F2A 122.2(5) . .
F4 B1 F1A 103.9(3) . .
F3A B1 F1A 105.1(4) . .
F2A B1 F1A 90.7(3) . .
F4 B1 F2 108.0(4) . .
F1 B1 F2 114.2(5) . .
F22A B2 F21 112.6(4) . .
F22A B2 F24 85.1(4) . .
F21 B2 F24 120.2(3) . .
F22A B2 F23 115.3(3) . .
F21 B2 F23 111.7(3) . .
F24 B2 F23 109.7(3) . .
F21 B2 F22 104.4(3) . .
F24 B2 F22 107.9(3) . .
F23 B2 F22 100.9(3) . .
F22A B2 F24A 112.4(4) . .
F21 B2 F24A 96.2(3) . .
F23 B2 F24A 106.8(3) . .
F22 B2 F24A 136.1(4) . .
F22A F22 B2 68.3(7) . .
F22 F22A B2 88.1(7) . .
F22 F22A F24 134.2(8) . .
F24A F24 B2 82.9(5) . .
F24A F24 F22A 125.0(6) . .
loop_
_geom_bond_atom_site_label_1
_geom_bond_atom_site_label_2
_geom_bond_distance
_geom_bond_site_symmetry_2
N28 C8 1.341(3) .
N28 C6 1.340(3) .
N28 H28 0.8600 .
N27 C21 1.351(3) .
N27 C23 1.352(3) .
N27 H27 0.8600 .
C26 C21 1.365(3) .
C26 C25 1.382(4) .
C26 H26 0.9300 .
C25 C24 1.367(4) .
C25 H25 0.9300 .
C21 C20 1.506(3) .
C20 C19 1.537(3) .
C20 H20A 0.9700 .
C20 H20B 0.9700 .
C19 N15 1.480(3) .
C19 C18 1.537(3) .
C19 H19 0.99(2) .
C18 O17 1.255(2) .
C18 O16 1.243(3) .
N15 H15A 0.8900 .
N15 H15B 0.8900 .
N15 H15C 0.8900 .
N14 C4 1.493(3) .
N14 H14A 0.8900 .
N14 H14B 0.8900 .
N14 H14C 0.8900 .
O13 C2 1.230(3) .
O12 C2 1.261(3) .
C11 C6 1.371(4) .
C11 C10 1.378(4) .
C11 H11 0.9300 .
C10 C9 1.379(5) .
C10 H10 0.9300 .
C9 C8 1.354(4) .
C9 H9 0.9300 .
C8 H8 0.9300 .
C6 C5 1.500(3) .
C5 C4 1.532(3) .
C5 H5A 0.9700 .
C5 H5B 0.9700 .
C23 C24 1.339(5) .
C23 H23 0.9300 .
C24 H24 0.9300 .
C4 C2 1.535(3) .
C4 H1 1.00(2) .
F4 B1 1.334(5) .
B1 F1 1.257(6) .
B1 F3A 1.283(6) .
B1 F2A 1.352(5) .
B1 F1A 1.366(5) .
B1 F2 1.325(6) .
F21 B2 1.351(4) .
B2 F22A 1.310(6) .
B2 F24 1.330(5) .
B2 F23 1.374(4) .
B2 F22 1.410(5) .
B2 F24A 1.436(6) .
F22 F22A 0.566(8) .
F22A F24 1.785(7) .
F24 F24A 0.730(6) .
loop_
_geom_hbond_atom_site_label_D
_geom_hbond_atom_site_label_H
_geom_hbond_atom_site_label_A
_geom_hbond_distance_DH
_geom_hbond_distance_HA
_geom_hbond_distance_DA
_geom_hbond_angle_DHA
_geom_hbond_site_symmetry_A
N28 H28 O12 0.86 1.82 2.641(3) 159.8 .
N27 H27 F2 0.86 2.16 2.910(6) 145.0 1_655
N27 H27 F2A 0.86 2.14 2.970(4) 162.1 1_655
N15 H15A F22 0.89 2.28 2.908(5) 127.7 1_455
N15 H15A F22A 0.89 2.16 2.864(5) 135.9 1_455
N15 H15A F23 0.89 2.34 3.006(3) 131.2 .
N15 H15B O12 0.89 1.88 2.762(2) 171.9 .
N15 H15C O17 0.89 1.97 2.819(3) 160.0 1_455
N14 H14A F4 0.89 2.36 2.826(3) 112.7 1_545
N14 H14A F1A 0.89 2.16 2.965(5) 149.3 1_645
N14 H14B O17 0.89 1.86 2.739(2) 168.6 1_445
N14 H14C O16 0.89 2.04 2.824(3) 146.3 1_545
