#------------------------------------------------------------------------------
#$Date: 2019-10-09 09:46:25 +0300 (Wed, 09 Oct 2019) $
#$Revision: 219190 $
#$URL: file:///home/coder/svn-repositories/cod/cif/7/23/44/7234483.cif $
#------------------------------------------------------------------------------
#
# This file is available in the Crystallography Open Database (COD),
# http://www.crystallography.net/
#
# All data on this site have been placed in the public domain by the
# contributors.
#
data_7234483
loop_
_publ_author_name
'Felix Fahrnbauer'
'Stefan Maier'
'Martin Grundei'
'Nadja Giesbrecht'
'Markus Nentwig'
'Tobias Rosenthal'
'Gerald Wagner'
'G. Jeffrey Snyder'
'Oliver Oeckler'
_publ_section_title
;
 Heterostructures of skutterudites and germanium antimony tellurides -
 structure analysis and thermoelectric properties of bulk samples
;
_journal_name_full               'Journal of Materials Chemistry C'
_journal_page_first              10525
_journal_page_last               10533
_journal_paper_doi               10.1039/C5TC01509J
_journal_volume                  3
_journal_year                    2015
_chemical_formula_sum            'Ge0.77 Sb0.15 Te'
_chemical_formula_weight         202.19
_chemical_name_common            'germanium antimony telluride'
_space_group_crystal_system      trigonal
_space_group_IT_number           160
_space_group_name_Hall           'R 3 -2"'
_space_group_name_H-M_alt        'R 3 m :H'
_atom_sites_solution_hydrogens   none
_atom_sites_solution_primary     model
_atom_sites_solution_secondary   none
_cell_angle_alpha                90
_cell_angle_beta                 90
_cell_angle_gamma                120
_cell_formula_units_Z            3
_cell_length_a                   4.2348(11)
_cell_length_b                   4.2348(11)
_cell_length_c                   10.373(3)
_cell_measurement_temperature    293(2)
_cell_volume                     161.10(8)
_computing_cell_refinement       SAINT
_computing_data_collection       'Spec software'
_computing_data_reduction        SAINT
_computing_structure_refinement  'SHELXL-2014/7 (Sheldrick, 2014)'
_computing_structure_solution    model
_diffrn_ambient_temperature      293(2)
_diffrn_measured_fraction_theta_full 0.980
_diffrn_measured_fraction_theta_max 0.940
_diffrn_measurement_device_type  'Heavy Duty (Huber)'
_diffrn_measurement_method       oscillation
_diffrn_radiation_type           synchrotron
_diffrn_radiation_wavelength     0.2946
_diffrn_reflns_av_unetI/netI     0.0797
_diffrn_reflns_Laue_measured_fraction_full 0.980
_diffrn_reflns_Laue_measured_fraction_max 0.940
_diffrn_reflns_limit_h_max       7
_diffrn_reflns_limit_h_min       -7
_diffrn_reflns_limit_k_max       7
_diffrn_reflns_limit_k_min       -7
_diffrn_reflns_limit_l_max       18
_diffrn_reflns_limit_l_min       -18
_diffrn_reflns_number            871
_diffrn_reflns_point_group_measured_fraction_full 0.980
_diffrn_reflns_point_group_measured_fraction_max 0.939
_diffrn_reflns_theta_full        10.181
_diffrn_reflns_theta_max         15.361
_diffrn_reflns_theta_min         2.442
_diffrn_source                   'ESRF beamline ID11'
_exptl_absorpt_coefficient_mu    9.051
_exptl_absorpt_correction_T_max  1
_exptl_absorpt_correction_T_min  0.45
_exptl_absorpt_correction_type   multi-scan
_exptl_absorpt_process_details   SADABS
_exptl_crystal_colour            metallic_dark_grey
_exptl_crystal_density_diffrn    6.252
_exptl_crystal_description       microcrystallite
_exptl_crystal_F_000             253.4
_exptl_crystal_size_max          0.0005
_exptl_crystal_size_mid          0.0003
_exptl_crystal_size_min          0.0001
_refine_diff_density_max         0.896
_refine_diff_density_min         -0.843
_refine_diff_density_rms         0.191
_refine_ls_abs_structure_details
;
 Flack x determined using 125 quotients [(I+)-(I-)]/[(I+)+(I-)]
 (Parsons, Flack and Wagner, Acta Cryst. B69 (2013) 249-259).
;
_refine_ls_abs_structure_Flack   0.32(4)
_refine_ls_extinction_coef       none
_refine_ls_extinction_method     none
_refine_ls_goodness_of_fit_ref   1.055
_refine_ls_hydrogen_treatment    none
_refine_ls_matrix_type           full
_refine_ls_number_parameters     9
_refine_ls_number_reflns         138
_refine_ls_number_restraints     0
_refine_ls_restrained_S_all      1.055
_refine_ls_R_factor_all          0.0314
_refine_ls_R_factor_gt           0.0314
_refine_ls_shift/su_max          0.000
_refine_ls_shift/su_mean         0.000
_refine_ls_structure_factor_coef Fsqd
_refine_ls_weighting_details
'w=1/[\s^2^(Fo^2^)+0.1858P] where P=(Fo^2^+2Fc^2^)/3'
_refine_ls_weighting_scheme      calc
_refine_ls_wR_factor_gt          0.0885
_refine_ls_wR_factor_ref         0.0885
_reflns_Friedel_coverage         0.979
_reflns_Friedel_fraction_full    0.979
_reflns_Friedel_fraction_max     0.938
_reflns_number_gt                871
_reflns_number_total             871
_reflns_threshold_expression     'I > 2\s(I)'
_cod_data_source_file            J-Mater-Chem-C-2015-3-10525.cif
_cod_data_source_block           FFSM21B_matrix
_cod_original_cell_volume        161.10(11)
_cod_database_code               7234483
_shelx_space_group_comment
;
The symmetry employed for this shelxl refinement is uniquely defined
by the following loop, which should always be used as a source of
symmetry information in preference to the above space-group names.
They are only intended as comments.
;
_exptl_absorpt_special_details
;
There is almost no absorption in such a microcrystal, the correction
by SADABS with a transmission ratio 0.49 / 1 describes scaling and beam
inhomogeneity rather than absorption.
;
_shelx_res_file
;

    csad_xprep_055_hklf5.res created by SHELXL-2014/7


TITL 160_1
CELL 0.29460    4.2348    4.2348   10.3732    90.000    90.000   120.000
ZERR    3.00    0.0011    0.0011    0.0026     0.000     0.000     0.000
LATT -3
SYMM -y,x-y,z
SYMM -x+y,-x,z
SYMM -y,-x,z
SYMM -x+y,y,z
SYMM x,x-y,z
SFAC GE SB TE
DISP Ge 0.2870 0.3609
DISP Sb 0.0537 2.0709
DISP Te -0.0510 2.2176
UNIT 2.31 0.46 3
EADP GE1 SB1
EXYZ GE1 SB1
L.S. 10
FMAP 2
PLAN 20
ACTA
WGHT    0.000000    0.185800
BASF   0.21265   0.25203   0.25442
FVAR       0.55837
GE1   1    0.000000    0.000000    0.020292    10.12821    0.01926    0.01926 =
         0.01626    0.00000    0.00000    0.00963
SB1   2    0.000000    0.000000    0.020292    10.02564    0.01926    0.01926 =
         0.01626    0.00000    0.00000    0.00963
TE2   3    0.000000    0.000000   10.500000    10.16667    0.02084    0.02084 =
         0.01819    0.00000    0.00000    0.01042
HKLF 5

REM  160_1
REM R1 =  0.0314 for     871 Fo > 4sig(Fo)  and  0.0314 for all     871 data
REM      9 parameters refined using      0 restraints

END

WGHT      0.0000      0.1850

REM Highest difference peak  0.896,  deepest hole -0.843,  1-sigma level  0.191
Q1    1  -0.1576 -0.0788 -0.0112  10.50000  0.05    0.77
Q2    1   0.0000  0.0000 -0.0495  10.16667  0.05    0.64
Q3    1  -0.1130  0.1130  0.5224  10.50000  0.05    0.60
Q4    1  -0.0864  0.0864  0.1234  10.50000  0.05    0.59
Q5    1  -0.1734 -0.0867  0.4020  10.50000  0.05    0.57
Q6    1   0.1199 -0.1199  0.4726  10.50000  0.05    0.55
Q7    1   0.0936  0.1872 -0.1293  10.50000  0.05    0.51
Q8    1   0.0000  0.0000  0.5778  10.16667  0.05    0.46
Q9    1  -0.1366 -0.2733 -0.0407  10.50000  0.05    0.42
Q10   1  -0.1134 -0.2268  0.0478  10.50000  0.05    0.41
Q11   1   0.0050  0.3356  0.0016  11.00000  0.05    0.41
Q12   1   0.1355  0.2710  0.0297  10.50000  0.05    0.40
Q13   1  -0.0932 -0.1863  0.6548  10.50000  0.05    0.38
Q14   1   0.2504 -0.2505 -0.0531  10.50000  0.05    0.36
Q15   1  -0.1227  0.1227  0.1780  10.50000  0.05    0.35
Q16   1  -0.0757  0.2701  0.5483  11.00000  0.05    0.33
Q17   1  -0.3086 -0.0262  0.5039  11.00000  0.05    0.32
Q18   1  -0.2528  0.2528  0.5770  10.50000  0.05    0.31
Q19   1  -0.0748 -0.1496  0.3607  10.50000  0.05    0.31
Q20   1  -0.2508  0.2508  0.0261  10.50000  0.05    0.30
;
_shelx_res_checksum              60489
_shelx_hkl_file
;
  -1   1   1  870.62   67.69  -1
  -1   0  -1  870.62   67.69  -2
   0  -1   1  870.62   67.69  -3
   0   0   3  870.62   67.69   4
  -1   1   1  870.24   67.86  -1
  -1   0  -1  870.24   67.86  -2
   0  -1   1  870.24   67.86  -3
   0   0   3  870.24   67.86   4
   1  -1  -1  871.36   67.67  -1
   1   0   1  871.36   67.67  -2
   0   1  -1  871.36   67.67  -3
   0   0  -3  871.36   67.67   4
   1  -1  -1  881.31   67.84  -1
   1   0   1  881.31   67.84  -2
   0   1  -1  881.31   67.84  -3
   0   0  -3  881.31   67.84   4
  -1   0  -1  821.37   67.78  -1
   0  -1   1  821.37   67.78  -2
   0   0   3  821.37   67.78  -3
  -1   1   1  821.37   67.78   4
  -1   0  -1  847.92   67.67  -1
   0  -1   1  847.92   67.67  -2
   0   0   3  847.92   67.67  -3
  -1   1   1  847.92   67.67   4
  -2   1   0 9725.19  760.36  -1
  -1  -1   0 9725.19  760.36  -2
   0  -1   4 9725.19  760.36  -3
  -1   1   4 9725.19  760.36   4
  -2   1   0 9781.78  760.77  -1
  -1  -1   0 9781.78  760.77  -2
   0  -1   4 9781.78  760.77  -3
  -1   1   4 9781.78  760.77   4
   2  -1   0 9999.00  760.80  -1
   1   1   0 9999.00  760.80  -2
   0   1  -4 9999.00  760.80  -3
   1  -1  -4 9999.00  760.80   4
   1  -1  -4 9437.98  761.39  -1
   2  -1   0 9437.98  761.39  -2
   1   1   0 9437.98  761.39  -3
   0   1  -4 9437.98  761.39   4
  -2   2   2 7381.57  587.23  -1
  -2   0  -2 7381.57  587.23  -2
   0  -2   2 7381.57  587.23  -3
   0   0   6 7381.57  587.23   4
   2   0   2 7437.91  587.20  -1
   0   2  -2 7437.91  587.20  -2
   0   0  -6 7437.91  587.20  -3
   2  -2  -2 7437.91  587.20   4
  -2   0  -2 7378.18  586.86  -1
   0  -2   2 7378.18  586.86  -2
   0   0   6 7378.18  586.86  -3
  -2   2   2 7378.18  586.86   4
  -2   0  -2 7376.15  587.21  -1
   0  -2   2 7376.15  587.21  -2
   0   0   6 7376.15  587.21  -3
  -2   2   2 7376.15  587.21   4
   2   0   2 7350.67  586.82  -1
   0   2  -2 7350.67  586.82  -2
   0   0  -6 7350.67  586.82  -3
   2  -2  -2 7350.67  586.82   4
   2  -2  -2 7815.78  587.27  -1
   2   0   2 7815.78  587.27  -2
   0   2  -2 7815.78  587.27  -3
   0   0  -6 7815.78  587.27   4
   2  -2  -2 7844.75  586.91  -1
   2   0   2 7844.75  586.91  -2
   0   2  -2 7844.75  586.91  -3
   0   0  -6 7844.75  586.91   4
  -2   2   2 7523.60  586.89  -1
  -2   0  -2 7523.60  586.89  -2
   0  -2   2 7523.60  586.89  -3
   0   0   6 7523.60  586.89   4
  -2   0   1  713.19   56.21  -1
  -1  -1   3  713.19   56.21  -2
  -1   0   5  713.19   56.21  -3
  -2   1   3  713.19   56.21   4
  -1   2   3  732.18   56.25  -1
  -2   1  -3  732.18   56.25  -2
   0  -2  -1  732.18   56.25  -3
   1  -1   5  732.18   56.25   4
   2  -2   1  728.50   56.13  -1
   1   1   3  728.50   56.13  -2
  -1   2  -3  728.50   56.13  -3
   0  -1  -5  728.50   56.13   4
   2   0  -1  712.04   56.21  -1
   1   1  -3  712.04   56.21  -2
   1   0  -5  712.04   56.21  -3
   2  -1  -3  712.04   56.21   4
   2  -1  -3  712.67   56.21  -1
   2   0  -1  712.67   56.21  -2
   1   1  -3  712.67   56.21  -3
   1   0  -5  712.67   56.21   4
  -2   2  -1  711.29   56.17  -1
  -1  -1  -3  711.29   56.17  -2
   1  -2   3  711.29   56.17  -3
   0   1   5  711.29   56.17   4
  -1   2   3  724.50   56.41  -1
  -2   1  -3  724.50   56.41  -2
   0  -2  -1  724.50   56.41  -3
   1  -1   5  724.50   56.41   4
   1  -2  -3  706.35   56.16  -1
   2  -1   3  706.35   56.16  -2
   0   2   1  706.35   56.16  -3
  -1   1  -5  706.35   56.16   4
   1  -2  -3  703.61   56.26  -1
   2  -1   3  703.61   56.26  -2
   0   2   1  703.61   56.26  -3
  -1   1  -5  703.61   56.26   4
   1   1  -3  720.72   56.20  -1
   1   0  -5  720.72   56.20  -2
   2  -1  -3  720.72   56.20  -3
   2   0  -1  720.72   56.20   4
  -2   1   3  703.72   56.21  -1
  -2   0   1  703.72   56.21  -2
  -1  -1   3  703.72   56.21  -3
  -1   0   5  703.72   56.21   4
   2  -1  -3  649.30   56.43  -1
   2   0  -1  649.30   56.43  -2
   1   1  -3  649.30   56.43  -3
   1   0  -5  649.30   56.43   4
  -1  -1  -3  706.98   56.25  -1
   1  -2   3  706.98   56.25  -2
   0   1   5  706.98   56.25  -3
  -2   2  -1  706.98   56.25   4
  -2   1  -3  719.50   56.16  -1
   0  -2  -1  719.50   56.16  -2
   1  -1   5  719.50   56.16  -3
  -1   2   3  719.50   56.16   4
   1   1   3  770.70   56.31  -1
  -1   2  -3  770.70   56.31  -2
   0  -1  -5  770.70   56.31  -3
   2  -2   1  770.70   56.31   4
   1   1   3  729.02   56.37  -1
  -1   2  -3  729.02   56.37  -2
   0  -1  -5  729.02   56.37  -3
   2  -2   1  729.02   56.37   4
   1   0  -5  749.01   56.20  -1
   2  -1  -3  749.01   56.20  -2
   2   0  -1  749.01   56.20  -3
   1   1  -3  749.01   56.20   4
  -1  -1  -3  668.42   56.33  -1
   1  -2   3  668.42   56.33  -2
   0   1   5  668.42   56.33  -3
  -2   2  -1  668.42   56.33   4
   2   1   1  610.56   50.30  -1
   0   2  -5  610.56   50.30  -2
   1  -1  -7  610.56   50.30  -3
   3  -2  -1  610.56   50.30   4
  -2   3   1  626.81   50.32  -1
  -2   0  -5  626.81   50.32  -2
   1  -3   1  626.81   50.32  -3
   1   0   7  626.81   50.32   4
  -2   0  -5  664.81   50.32  -1
   1  -3   1  664.81   50.32  -2
   1   0   7  664.81   50.32  -3
  -2   3   1  664.81   50.32   4
   1  -1  -7  640.85   50.30  -1
   3  -2  -1  640.85   50.30  -2
   2   1   1  640.85   50.30  -3
   0   2  -5  640.85   50.30   4
   2  -2  -5  608.30   50.61  -1
   3  -1   1  608.30   50.61  -2
   1   2  -1  608.30   50.61  -3
   0   1  -7  608.30   50.61   4
   3  -2  -1  643.67   50.67  -1
   2   1   1  643.67   50.67  -2
   0   2  -5  643.67   50.67  -3
   1  -1  -7  643.67   50.67   4
   2   1   1  548.38   50.57  -1
   0   2  -5  548.38   50.57  -2
   1  -1  -7  548.38   50.57  -3
   3  -2  -1  548.38   50.57   4
  -2   3   1  730.72   50.26  -1
  -2   0  -5  730.72   50.26  -2
   1  -3   1  730.72   50.26  -3
   1   0   7  730.72   50.26   4
  -3   1  -1  604.79   50.58  -1
  -1  -2   1  604.79   50.58  -2
   0  -1   7  604.79   50.58  -3
  -2   2   5  604.79   50.58   4
   3  -1   1  678.71   50.70  -1
   1   2  -1  678.71   50.70  -2
   0   1  -7  678.71   50.70  -3
   2  -2  -5  678.71   50.70   4
  -2   2   5  648.98   50.38  -1
  -3   1  -1  648.98   50.38  -2
  -1  -2   1  648.98   50.38  -3
   0  -1   7  648.98   50.38   4
   3  -2  -1  634.53   50.28  -1
   2   1   1  634.53   50.28  -2
   0   2  -5  634.53   50.28  -3
   1  -1  -7  634.53   50.28   4
   3  -1   1  659.98   50.31  -1
   1   2  -1  659.98   50.31  -2
   0   1  -7  659.98   50.31  -3
   2  -2  -5  659.98   50.31   4
   2  -2  -5  637.09   50.30  -1
   3  -1   1  637.09   50.30  -2
   1   2  -1  637.09   50.30  -3
   0   1  -7  637.09   50.30   4
  -3   2   1  665.89   50.36  -1
  -2  -1  -1  665.89   50.36  -2
   0  -2   5  665.89   50.36  -3
  -1   1   7  665.89   50.36   4
  -3   2   1  641.76   50.73  -1
  -2  -1  -1  641.76   50.73  -2
   0  -2   5  641.76   50.73  -3
  -1   1   7  641.76   50.73   4
  -3   1  -1  674.05   50.35  -1
  -1  -2   1  674.05   50.35  -2
   0  -1   7  674.05   50.35  -3
  -2   2   5  674.05   50.35   4
   1   2  -1  591.26   50.27  -1
   0   1  -7  591.26   50.27  -2
   2  -2  -5  591.26   50.27  -3
   3  -1   1  591.26   50.27   4
   3  -3  -3  537.86   42.78  -1
   3   0   3  537.86   42.78  -2
   0   3  -3  537.86   42.78  -3
   0   0  -9  537.86   42.78   4
   3   0   3  588.23   42.84  -1
   0   3  -3  588.23   42.84  -2
   0   0  -9  588.23   42.84  -3
   3  -3  -3  588.23   42.84   4
  -3   0  -3  519.42   43.14  -1
   0  -3   3  519.42   43.14  -2
   0   0   9  519.42   43.14  -3
  -3   3   3  519.42   43.14   4
   3  -3  -3  549.23   43.08  -1
   3   0   3  549.23   43.08  -2
   0   3  -3  549.23   43.08  -3
   0   0  -9  549.23   43.08   4
   3   0   3  543.99   43.07  -1
   0   3  -3  543.99   43.07  -2
   0   0  -9  543.99   43.07  -3
   3  -3  -3  543.99   43.07   4
  -3   3   3  551.34   43.35  -1
  -3   0  -3  551.34   43.35  -2
   0  -3   3  551.34   43.35  -3
   0   0   9  551.34   43.35   4
  -3   0  -3  539.60   42.82  -1
   0  -3   3  539.60   42.82  -2
   0   0   9  539.60   42.82  -3
  -3   3   3  539.60   42.82   4
  -3   3   3  522.84   42.85  -1
  -3   0  -3  522.84   42.85  -2
   0  -3   3  522.84   42.85  -3
   0   0   9  522.84   42.85   4
   2   0  -4 5184.96  439.45  -1
   2   0  -4 5184.96  439.45  -2
   2   0  -4 5184.96  439.45  -3
   2   0  -4 5184.96  439.45   4
  -2   0   4 6067.59  439.53  -1
  -2   0   4 6067.59  439.53  -2
  -2   0   4 6067.59  439.53  -3
  -2   0   4 6067.59  439.53   4
   3  -2   2 5155.09  372.25  -1
   1   2   2 5155.09  372.25  -2
  -1   2  -6 5155.09  372.25  -3
   1  -2  -6 5155.09  372.25   4
  -1  -1  -6 4809.72  372.79  -1
   2  -3   2 4809.72  372.79  -2
   1   1   6 4809.72  372.79  -3
  -2   3  -2 4809.72  372.79   4
  -3   2  -2 4865.47  371.93  -1
  -1  -2  -2 4865.47  371.93  -2
   1  -2   6 4865.47  371.93  -3
  -1   2   6 4865.47  371.93   4
  -1  -2  -2 4433.52  372.59  -1
   1  -2   6 4433.52  372.59  -2
  -1   2   6 4433.52  372.59  -3
  -3   2  -2 4433.52  372.59   4
   3  -1  -2 5036.29  372.85  -1
   2   1  -2 5036.29  372.85  -2
   1   1  -6 5036.29  372.85  -3
   2  -1  -6 5036.29  372.85   4
   2   1  -2 4830.01  372.29  -1
   1   1  -6 4830.01  372.29  -2
   2  -1  -6 4830.01  372.29  -3
   3  -1  -2 4830.01  372.29   4
  -3   2  -2 4777.66  372.32  -1
  -1  -2  -2 4777.66  372.32  -2
   1  -2   6 4777.66  372.32  -3
  -1   2   6 4777.66  372.32   4
  -3   1   2 4865.57  372.20  -1
  -2  -1   2 4865.57  372.20  -2
  -1  -1   6 4865.57  372.20  -3
  -2   1   6 4865.57  372.20   4
   2  -1  -6 4673.33  372.20  -1
   3  -1  -2 4673.33  372.20  -2
   2   1  -2 4673.33  372.20  -3
   1   1  -6 4673.33  372.20   4
  -2   1   6 4869.87  372.14  -1
  -3   1   2 4869.87  372.14  -2
  -2  -1   2 4869.87  372.14  -3
  -1  -1   6 4869.87  372.14   4
  -2  -1   2 4557.78  372.03  -1
  -1  -1   6 4557.78  372.03  -2
  -2   1   6 4557.78  372.03  -3
  -3   1   2 4557.78  372.03   4
   1   2   2 4360.78  372.62  -1
  -1   2  -6 4360.78  372.62  -2
   1  -2  -6 4360.78  372.62  -3
   3  -2   2 4360.78  372.62   4
   1  -2  -6 4622.15  372.64  -1
   3  -2   2 4622.15  372.64  -2
   1   2   2 4622.15  372.64  -3
  -1   2  -6 4622.15  372.64   4
   3  -1  -2 5087.42  372.22  -1
   2   1  -2 5087.42  372.22  -2
   1   1  -6 5087.42  372.22  -3
   2  -1  -6 5087.42  372.22   4
  -1   3   2 4698.50  372.60  -1
  -2   1  -6 4698.50  372.60  -2
   1  -3  -2 4698.50  372.60  -3
   2  -1   6 4698.50  372.60   4
  -1   2   6 4747.65  372.72  -1
  -3   2  -2 4747.65  372.72  -2
  -1  -2  -2 4747.65  372.72  -3
   1  -2   6 4747.65  372.72   4
  -3   1   2 4128.82  372.37  -1
  -2  -1   2 4128.82  372.37  -2
  -1  -1   6 4128.82  372.37  -3
  -2   1   6 4128.82  372.37   4
   1   1  -6 5218.92  372.21  -1
   2  -1  -6 5218.92  372.21  -2
   3  -1  -2 5218.92  372.21  -3
   2   1  -2 5218.92  372.21   4
  -3   1  -4 3834.84  315.85  -1
   0  -3   0 3834.84  315.85  -2
   1  -1   8 3834.84  315.85  -3
  -2   3   4 3834.84  315.85   4
  -3   0   0 3745.76  315.70  -1
  -1  -2   4 3745.76  315.70  -2
  -1   0   8 3745.76  315.70  -3
  -3   2   4 3745.76  315.70   4
   3   0   0 4121.84  315.80  -1
   1   2  -4 4121.84  315.80  -2
   1   0  -8 4121.84  315.80  -3
   3  -2  -4 4121.84  315.80   4
   3   0   0 4090.16  316.39  -1
   1   2  -4 4090.16  316.39  -2
   1   0  -8 4090.16  316.39  -3
   3  -2  -4 4090.16  316.39   4
  -2  -1  -4 3687.00  315.69  -1
   1  -3   4 3687.00  315.69  -2
   0   1   8 3687.00  315.69  -3
  -3   3   0 3687.00  315.69   4
  -2  -1  -4 3576.92  315.92  -1
   1  -3   4 3576.92  315.92  -2
   0   1   8 3576.92  315.92  -3
  -3   3   0 3576.92  315.92   4
   3  -2  -4 4386.05  315.85  -1
   3   0   0 4386.05  315.85  -2
   1   2  -4 4386.05  315.85  -3
   1   0  -8 4386.05  315.85   4
  -3   1  -4 3939.21  315.51  -1
   0  -3   0 3939.21  315.51  -2
   1  -1   8 3939.21  315.51  -3
  -2   3   4 3939.21  315.51   4
   1   2  -4 4153.98  315.81  -1
   1   0  -8 4153.98  315.81  -2
   3  -2  -4 4153.98  315.81  -3
   3   0   0 4153.98  315.81   4
   3  -1   4 4186.10  315.82  -1
   0   3   0 4186.10  315.82  -2
  -1   1  -8 4186.10  315.82  -3
   2  -3  -4 4186.10  315.82   4
   3  -2  -4 4270.98  316.41  -1
   3   0   0 4270.98  316.41  -2
   1   2  -4 4270.98  316.41  -3
   1   0  -8 4270.98  316.41   4
   2   1   4 3876.53  315.95  -1
  -1   3  -4 3876.53  315.95  -2
   0  -1  -8 3876.53  315.95  -3
   3  -3   0 3876.53  315.95   4
   2  -3  -4 4221.36  316.00  -1
   3  -1   4 4221.36  316.00  -2
   0   3   0 4221.36  316.00  -3
  -1   1  -8 4221.36  316.00   4
   2   1   4 3905.48  315.70  -1
  -1   3  -4 3905.48  315.70  -2
   0  -1  -8 3905.48  315.70  -3
   3  -3   0 3905.48  315.70   4
  -2   3   4 4201.79  315.86  -1
  -3   1  -4 4201.79  315.86  -2
   0  -3   0 4201.79  315.86  -3
   1  -1   8 4201.79  315.86   4
  -3   3   0 4259.65  315.63  -1
  -2  -1  -4 4259.65  315.63  -2
   1  -3   4 4259.65  315.63  -3
   0   1   8 4259.65  315.63   4
  -2   3   4 3998.60  316.15  -1
  -3   1  -4 3998.60  316.15  -2
   0  -3   0 3998.60  316.15  -3
   1  -1   8 3998.60  316.15   4
   2  -3  -4 4170.07  315.73  -1
   3  -1   4 4170.07  315.73  -2
   0   3   0 4170.07  315.73  -3
  -1   1  -8 4170.07  315.73   4
   1   0  -8 3951.39  315.70  -1
   3  -2  -4 3951.39  315.70  -2
   3   0   0 3951.39  315.70  -3
   1   2  -4 3951.39  315.70   4
   3  -3   0 4470.10  315.86  -1
   2   1   4 4470.10  315.86  -2
  -1   3  -4 4470.10  315.86  -3
   0  -1  -8 4470.10  315.86   4
  -3   2   4 3825.10  315.76  -1
  -3   0   0 3825.10  315.76  -2
  -1  -2   4 3825.10  315.76  -3
  -1   0   8 3825.10  315.76   4
  -3   3   0 4020.66  315.99  -1
  -2  -1  -4 4020.66  315.99  -2
   1  -3   4 4020.66  315.99  -3
   0   1   8 4020.66  315.99   4
   4  -2   0 2884.85  215.65  -1
   2   2   0 2884.85  215.65  -2
   0   2  -8 2884.85  215.65  -3
   2  -2  -8 2884.85  215.65   4
   2  -2  -8 2743.29  215.12  -1
   4  -2   0 2743.29  215.12  -2
   2   2   0 2743.29  215.12  -3
   0   2  -8 2743.29  215.12   4
  -2   2   8 2926.42  215.14  -1
  -4   2   0 2926.42  215.14  -2
  -2  -2   0 2926.42  215.14  -3
   0  -2   8 2926.42  215.14   4
  -2  -2   0 2635.85  214.96  -1
   0  -2   8 2635.85  214.96  -2
  -2   2   8 2635.85  214.96  -3
  -4   2   0 2635.85  214.96   4
   2   2   0 2548.89  215.12  -1
   0   2  -8 2548.89  215.12  -2
   2  -2  -8 2548.89  215.12  -3
   4  -2   0 2548.89  215.12   4
  -4   2   0 2645.54  215.08  -1
  -2  -2   0 2645.54  215.08  -2
   0  -2   8 2645.54  215.08  -3
  -2   2   8 2645.54  215.08   4
   4  -2   0 2879.89  215.10  -1
   2   2   0 2879.89  215.10  -2
   0   2  -8 2879.89  215.10  -3
   2  -2  -8 2879.89  215.10   4
  -4   2   0 2736.50  215.67  -1
  -2  -2   0 2736.50  215.67  -2
   0  -2   8 2736.50  215.67  -3
  -2   2   8 2736.50  215.67   4
  -4   1  -2 2316.15  181.22  -1
  -1  -3   2 2316.15  181.22  -2
   0  -1  10 2316.15  181.22  -3
  -3   3   6 2316.15  181.22   4
  -3   4   2 2324.09  181.08  -1
  -3   0  -6 2324.09  181.08  -2
   1  -4   2 2324.09  181.08  -3
   1   0  10 2324.09  181.08   4
   1   3  -2 2358.00  181.27  -1
   0   1 -10 2358.00  181.27  -2
   3  -3  -6 2358.00  181.27  -3
   4  -1   2 2358.00  181.27   4
  -3   4   2 2209.07  181.45  -1
  -3   0  -6 2209.07  181.45  -2
   1  -4   2 2209.07  181.45  -3
   1   0  10 2209.07  181.45   4
   4  -1   2 2307.56  181.65  -1
   1   3  -2 2307.56  181.65  -2
   0   1 -10 2307.56  181.65  -3
   3  -3  -6 2307.56  181.65   4
   3  -3  -6 2290.38  181.61  -1
   4  -1   2 2290.38  181.61  -2
   1   3  -2 2290.38  181.61  -3
   0   1 -10 2290.38  181.61   4
  -4   1  -2 2199.57  181.64  -1
  -1  -3   2 2199.57  181.64  -2
   0  -1  10 2199.57  181.64  -3
  -3   3   6 2199.57  181.64   4
   3  -4  -2 2419.24  181.16  -1
   3   0   6 2419.24  181.16  -2
  -1   4  -2 2419.24  181.16  -3
  -1   0 -10 2419.24  181.16   4
  -3   0  -6 2204.20  181.33  -1
   1  -4   2 2204.20  181.33  -2
   1   0  10 2204.20  181.33  -3
  -3   4   2 2204.20  181.33   4
  -3   3   6 2265.44  181.27  -1
  -4   1  -2 2265.44  181.27  -2
  -1  -3   2 2265.44  181.27  -3
   0  -1  10 2265.44  181.27   4
   3   1   2 2473.98  181.83  -1
   0   3  -6 2473.98  181.83  -2
   1  -1 -10 2473.98  181.83  -3
   4  -3  -2 2473.98  181.83   4
   3  -3  -6 2272.04  181.15  -1
   4  -1   2 2272.04  181.15  -2
   1   3  -2 2272.04  181.15  -3
   0   1 -10 2272.04  181.15   4
   1  -1 -10 2184.33  181.12  -1
   4  -3  -2 2184.33  181.12  -2
   3   1   2 2184.33  181.12  -3
   0   3  -6 2184.33  181.12   4
  -3  -1  -2 2457.54  181.29  -1
   0  -3   6 2457.54  181.29  -2
  -1   1  10 2457.54  181.29  -3
  -4   3   2 2457.54  181.29   4
   3   1   2 2379.39  181.26  -1
   0   3  -6 2379.39  181.26  -2
   1  -1 -10 2379.39  181.26  -3
   4  -3  -2 2379.39  181.26   4
  -4   3   2 2319.91  181.29  -1
  -3  -1  -2 2319.91  181.29  -2
   0  -3   6 2319.91  181.29  -3
  -1   1  10 2319.91  181.29   4
  -4   3   2 2179.66  181.73  -1
  -3  -1  -2 2179.66  181.73  -2
   0  -3   6 2179.66  181.73  -3
  -1   1  10 2179.66  181.73   4
   4  -3  -2 2383.92  181.68  -1
   3   1   2 2383.92  181.68  -2
   0   3  -6 2383.92  181.68  -3
   1  -1 -10 2383.92  181.68   4
  -3   0  -6 2246.14  180.99  -1
   1  -4   2 2246.14  180.99  -2
   1   0  10 2246.14  180.99  -3
  -3   4   2 2246.14  180.99   4
   4  -1   2 2278.65  181.16  -1
   1   3  -2 2278.65  181.16  -2
   0   1 -10 2278.65  181.16  -3
   3  -3  -6 2278.65  181.16   4
   3   0   6 2552.98  181.29  -1
  -1   4  -2 2552.98  181.29  -2
  -1   0 -10 2552.98  181.29  -3
   3  -4  -2 2552.98  181.29   4
   4  -3  -2 2327.15  181.16  -1
   3   1   2 2327.15  181.16  -2
   0   3  -6 2327.15  181.16  -3
   1  -1 -10 2327.15  181.16   4
  -4   4   4 1428.20  109.56  -1
  -4   0  -4 1428.20  109.56  -2
   0  -4   4 1428.20  109.56  -3
   0   0  12 1428.20  109.56   4
   4  -4  -4 1456.79  109.81  -1
   4   0   4 1456.79  109.81  -2
   0   4  -4 1456.79  109.81  -3
   0   0 -12 1456.79  109.81   4
  -4   0  -4 1360.43  109.88  -1
   0  -4   4 1360.43  109.88  -2
   0   0  12 1360.43  109.88  -3
  -4   4   4 1360.43  109.88   4
   4   0   4 1449.99  109.44  -1
   0   4  -4 1449.99  109.44  -2
   0   0 -12 1449.99  109.44  -3
   4  -4  -4 1449.99  109.44   4
  -4   0  -4 1392.84  109.48  -1
   0  -4   4 1392.84  109.48  -2
   0   0  12 1392.84  109.48  -3
  -4   4   4 1392.84  109.48   4
  -4   4   4 1317.61  109.96  -1
  -4   0  -4 1317.61  109.96  -2
   0  -4   4 1317.61  109.96  -3
   0   0  12 1317.61  109.96   4
   4   0   4 1350.02  109.74  -1
   0   4  -4 1350.02  109.74  -2
   0   0 -12 1350.02  109.74  -3
   4  -4  -4 1350.02  109.74   4
   4  -4  -4 1416.64  109.42  -1
   4   0   4 1416.64  109.42  -2
   0   4  -4 1416.64  109.42  -3
   0   0 -12 1416.64  109.42   4
  -2   0   7  585.44   42.13  -1
  -3   1   5  585.44   42.13  -2
  -3   0   3  585.44   42.13  -3
  -2  -1   5  585.44   42.13   4
  -3   3  -3  522.04   42.00  -1
  -1  -2  -5  522.04   42.00  -2
   2  -3   5  522.04   42.00  -3
   0   2   7  522.04   42.00   4
  -3   1   5  534.22   42.16  -1
  -3   0   3  534.22   42.16  -2
  -2  -1   5  534.22   42.16  -3
  -2   0   7  534.22   42.16   4
   0  -2  -7  585.84   42.08  -1
   3  -3   3  585.84   42.08  -2
   1   2   5  585.84   42.08  -3
  -2   3  -5  585.84   42.08   4
   2   1  -5  546.58   42.20  -1
   2   0  -7  546.58   42.20  -2
   3  -1  -5  546.58   42.20  -3
   3   0  -3  546.58   42.20   4
  -1   3   5  560.67   42.03  -1
  -3   2  -5  560.67   42.03  -2
   0  -3  -3  560.67   42.03  -3
   2  -2   7  560.67   42.03   4
  -1   3   5  484.47   42.05  -1
  -3   2  -5  484.47   42.05  -2
   0  -3  -3  484.47   42.05  -3
   2  -2   7  484.47   42.05   4
  -1  -2  -5  497.58   42.00  -1
   2  -3   5  497.58   42.00  -2
   0   2   7  497.58   42.00  -3
  -3   3  -3  497.58   42.00   4
   3   0  -3  475.67   42.46  -1
   2   1  -5  475.67   42.46  -2
   2   0  -7  475.67   42.46  -3
   3  -1  -5  475.67   42.46   4
  -3   0   3  572.65   42.23  -1
  -2  -1   5  572.65   42.23  -2
  -2   0   7  572.65   42.23  -3
  -3   1   5  572.65   42.23   4
   1  -3  -5  512.80   41.90  -1
   3  -2   5  512.80   41.90  -2
   0   3   3  512.80   41.90  -3
  -2   2  -7  512.80   41.90   4
   2   0  -7  533.09   42.19  -1
   3  -1  -5  533.09   42.19  -2
   3   0  -3  533.09   42.19  -3
   2   1  -5  533.09   42.19   4
   3   0  -3  555.13   42.20  -1
   2   1  -5  555.13   42.20  -2
   2   0  -7  555.13   42.20  -3
   3  -1  -5  555.13   42.20   4
  -3   2  -5  522.04   41.99  -1
   0  -3  -3  522.04   41.99  -2
   2  -2   7  522.04   41.99  -3
  -1   3   5  522.04   41.99   4
   3  -1  -5  496.50   42.50  -1
   3   0  -3  496.50   42.50  -2
   2   1  -5  496.50   42.50  -3
   2   0  -7  496.50   42.50   4
   3  -1  -5  542.28   42.20  -1
   3   0  -3  542.28   42.20  -2
   2   1  -5  542.28   42.20  -3
   2   0  -7  542.28   42.20   4
  -2  -1   5  526.85   42.03  -1
  -2   0   7  526.85   42.03  -2
  -3   1   5  526.85   42.03  -3
  -3   0   3  526.85   42.03   4
   4  -2  -3  470.96   38.40  -1
   3   1  -1  470.96   38.40  -2
   1   2  -7  470.96   38.40  -3
   2  -1  -9  470.96   38.40   4
  -2  -1  -7  501.03   37.69  -1
   2  -4   3  501.03   37.69  -2
   1   1   9  501.03   37.69  -3
  -3   4  -1  501.03   37.69   4
  -4   3  -1  471.33   38.05  -1
  -2  -2  -3  471.33   38.05  -2
   1  -3   7  471.33   38.05  -3
  -1   2   9  471.33   38.05   4
  -3  -1   1  513.91   38.03  -1
  -1  -2   7  513.91   38.03  -2
  -2   1   9  513.91   38.03  -3
  -4   2   3  513.91   38.03   4
  -3   4  -1  469.40   37.91  -1
  -2  -1  -7  469.40   37.91  -2
   2  -4   3  469.40   37.91  -3
   1   1   9  469.40   37.91   4
  -4   2   3  444.77   38.37  -1
  -3  -1   1  444.77   38.37  -2
  -1  -2   7  444.77   38.37  -3
  -2   1   9  444.77   38.37   4
  -4   1   1  432.72   38.37  -1
  -2  -2   3  432.72   38.37  -2
  -1  -1   9  432.72   38.37  -3
  -3   2   7  432.72   38.37   4
   1  -2  -9  502.58   37.84  -1
   4  -3   1  502.58   37.84  -2
   2   2   3  502.58   37.84  -3
  -1   3  -7  502.58   37.84   4
  -2   4   3  467.90   37.90  -1
  -3   1  -7  467.90   37.90  -2
   1  -4  -1  467.90   37.90  -3
   2  -1   9  467.90   37.90   4
   4  -2  -3  446.20   37.91  -1
   3   1  -1  446.20   37.91  -2
   1   2  -7  446.20   37.91  -3
   2  -1  -9  446.20   37.91   4
  -2   1   9  510.87   37.95  -1
  -4   2   3  510.87   37.95  -2
  -3  -1   1  510.87   37.95  -3
  -1  -2   7  510.87   37.95   4
  -4   2  -3  481.83   37.86  -1
  -1  -3  -1  481.83   37.86  -2
   1  -2   9  481.83   37.86  -3
  -2   3   7  481.83   37.86   4
   4  -2   3  521.17   38.17  -1
   1   3   1  521.17   38.17  -2
  -1   2  -9  521.17   38.17  -3
   2  -3  -7  521.17   38.17   4
   3  -2  -7  478.13   38.02  -1
   4  -1  -1  478.13   38.02  -2
   2   2  -3  478.13   38.02  -3
   1   1  -9  478.13   38.02   4
  -4   3  -1  509.35   37.90  -1
  -2  -2  -3  509.35   37.90  -2
   1  -3   7  509.35   37.90  -3
  -1   2   9  509.35   37.90   4
   2   2  -3  470.96   38.03  -1
   1   1  -9  470.96   38.03  -2
   3  -2  -7  470.96   38.03  -3
   4  -1  -1  470.96   38.03   4
  -4   1   1  479.66   38.02  -1
  -2  -2   3  479.66   38.02  -2
  -1  -1   9  479.66   38.02  -3
  -3   2   7  479.66   38.02   4
   3   1  -1  469.36   37.99  -1
   1   2  -7  469.36   37.99  -2
   2  -1  -9  469.36   37.99  -3
   4  -2  -3  469.36   37.99   4
  -2  -1  -7  494.27   37.87  -1
   2  -4   3  494.27   37.87  -2
   1   1   9  494.27   37.87  -3
  -3   4  -1  494.27   37.87   4
   2   2   3  494.71   37.83  -1
  -1   3  -7  494.71   37.83  -2
   1  -2  -9  494.71   37.83  -3
   4  -3   1  494.71   37.83   4
   4  -3   1  502.86   38.18  -1
   2   2   3  502.86   38.18  -2
  -1   3  -7  502.86   38.18  -3
   1  -2  -9  502.86   38.18   4
   2  -3  -7  491.53   37.80  -1
   4  -2   3  491.53   37.80  -2
   1   3   1  491.53   37.80  -3
  -1   2  -9  491.53   37.80   4
   2  -3  -7  509.10   38.25  -1
   4  -2   3  509.10   38.25  -2
   1   3   1  509.10   38.25  -3
  -1   2  -9  509.10   38.25   4
   2  -1  -9  506.30   38.06  -1
   4  -2  -3  506.30   38.06  -2
   3   1  -1  506.30   38.06  -3
   1   2  -7  506.30   38.06   4
   4  -1  -1  477.92   38.03  -1
   2   2  -3  477.92   38.03  -2
   1   1  -9  477.92   38.03  -3
   3  -2  -7  477.92   38.03   4
  -2   3   7  472.72   37.86  -1
  -4   2  -3  472.72   37.86  -2
  -1  -3  -1  472.72   37.86  -3
   1  -2   9  472.72   37.86   4
  -4   2   3  520.61   38.06  -1
  -3  -1   1  520.61   38.06  -2
  -1  -2   7  520.61   38.06  -3
  -2   1   9  520.61   38.06   4
  -3   2   7  499.49   38.05  -1
  -4   1   1  499.49   38.05  -2
  -2  -2   3  499.49   38.05  -3
  -1  -1   9  499.49   38.05   4
  -2   4   3  487.74   37.72  -1
  -3   1  -7  487.74   37.72  -2
   1  -4  -1  487.74   37.72  -3
   2  -1   9  487.74   37.72   4
  -2  -2  -3  456.41   37.79  -1
   1  -3   7  456.41   37.79  -2
  -1   2   9  456.41   37.79  -3
  -4   3  -1  456.41   37.79   4
   1   3   1  469.84   37.87  -1
  -1   2  -9  469.84   37.87  -2
   2  -3  -7  469.84   37.87  -3
   4  -2   3  469.84   37.87   4
  -3   1  -7  475.56   37.87  -1
   1  -4  -1  475.56   37.87  -2
   2  -1   9  475.56   37.87  -3
  -2   4   3  475.56   37.87   4
   2   2   3  428.70   38.10  -1
  -1   3  -7  428.70   38.10  -2
   1  -2  -9  428.70   38.10  -3
   4  -3   1  428.70   38.10   4
  -4   2  -3  453.70   38.01  -1
  -1  -3  -1  453.70   38.01  -2
   1  -2   9  453.70   38.01  -3
  -2   3   7  453.70   38.01   4
   3  -2  -7  420.14   38.48  -1
   4  -1  -1  420.14   38.48  -2
   2   2  -3  420.14   38.48  -3
   1   1  -9  420.14   38.48   4
   4  -1  -1  478.00   38.67  -1
   2   2  -3  478.00   38.67  -2
   1   1  -9  478.00   38.67  -3
   3  -2  -7  478.00   38.67   4
  -4   3   5  403.37   32.36  -1
  -4   0  -1  403.37   32.36  -2
  -1  -3   5  403.37   32.36  -3
  -1   0  11  403.37   32.36   4
   4   0   1  400.57   32.36  -1
   1   3  -5  400.57   32.36  -2
   1   0 -11  400.57   32.36  -3
   4  -3  -5  400.57   32.36   4
  -4   1  -5  441.39   32.24  -1
   0  -4   1  441.39   32.24  -2
   1  -1  11  441.39   32.24  -3
  -3   4   5  441.39   32.24   4
  -3  -1  -5  399.79   32.19  -1
   1  -4   5  399.79   32.19  -2
   0   1  11  399.79   32.19  -3
  -4   4   1  399.79   32.19   4
  -4   4   1  402.87   32.51  -1
  -3  -1  -5  402.87   32.51  -2
   1  -4   5  402.87   32.51  -3
   0   1  11  402.87   32.51   4
  -4   4   1  434.93   32.29  -1
  -3  -1  -5  434.93   32.29  -2
   1  -4   5  434.93   32.29  -3
   0   1  11  434.93   32.29   4
   4  -4  -1  401.99   32.43  -1
   3   1   5  401.99   32.43  -2
  -1   4  -5  401.99   32.43  -3
   0  -1 -11  401.99   32.43   4
  -3   4   5  395.37   32.85  -1
  -4   1  -5  395.37   32.85  -2
   0  -4   1  395.37   32.85  -3
   1  -1  11  395.37   32.85   4
   3   1   5  426.05   32.15  -1
  -1   4  -5  426.05   32.15  -2
   0  -1 -11  426.05   32.15  -3
   4  -4  -1  426.05   32.15   4
  -4   3   5  353.91   32.86  -1
  -4   0  -1  353.91   32.86  -2
  -1  -3   5  353.91   32.86  -3
  -1   0  11  353.91   32.86   4
   3  -4  -5  380.06   32.40  -1
   4  -1   5  380.06   32.40  -2
   0   4  -1  380.06   32.40  -3
  -1   1 -11  380.06   32.40   4
   4  -3  -5  454.26   33.01  -1
   4   0   1  454.26   33.01  -2
   1   3  -5  454.26   33.01  -3
   1   0 -11  454.26   33.01   4
  -4   1  -5  407.08   32.50  -1
   0  -4   1  407.08   32.50  -2
   1  -1  11  407.08   32.50  -3
  -3   4   5  407.08   32.50   4
   4  -1   5  437.16   32.46  -1
   0   4  -1  437.16   32.46  -2
  -1   1 -11  437.16   32.46  -3
   3  -4  -5  437.16   32.46   4
  -3   4   5  403.20   32.24  -1
  -4   1  -5  403.20   32.24  -2
   0  -4   1  403.20   32.24  -3
   1  -1  11  403.20   32.24   4
  -4   0  -1  404.79   32.38  -1
  -1  -3   5  404.79   32.38  -2
  -1   0  11  404.79   32.38  -3
  -4   3   5  404.79   32.38   4
  -3  -1  -5  378.23   32.55  -1
   1  -4   5  378.23   32.55  -2
   0   1  11  378.23   32.55  -3
  -4   4   1  378.23   32.55   4
   1   0 -11  434.82   32.28  -1
   4  -3  -5  434.82   32.28  -2
   4   0   1  434.82   32.28  -3
   1   3  -5  434.82   32.28   4
   4   0   1  397.56   33.15  -1
   1   3  -5  397.56   33.15  -2
   1   0 -11  397.56   33.15  -3
   4  -3  -5  397.56   33.15   4
  -4   0  -1  343.49   32.78  -1
  -1  -3   5  343.49   32.78  -2
  -1   0  11  343.49   32.78  -3
  -4   3   5  343.49   32.78   4
   3   1   5  423.02   32.40  -1
  -1   4  -5  423.02   32.40  -2
   0  -1 -11  423.02   32.40  -3
   4  -4  -1  423.02   32.40   4
   4  -3  -5  449.62   32.31  -1
   4   0   1  449.62   32.31  -2
   1   3  -5  449.62   32.31  -3
   1   0 -11  449.62   32.31   4
   3  -4  -5  409.93   32.15  -1
   4  -1   5  409.93   32.15  -2
   0   4  -1  409.93   32.15  -3
  -1   1 -11  409.93   32.15   4
  -5   3   1  340.08   27.52  -1
  -3  -2  -1  340.08   27.52  -2
   0  -3   9  340.08   27.52  -3
  -2   2  11  340.08   27.52   4
   5  -3  -1  388.71   28.11  -1
   3   2   1  388.71   28.11  -2
   0   3  -9  388.71   28.11  -3
   2  -2 -11  388.71   28.11   4
  -5   2  -1  384.74   28.59  -1
  -2  -3   1  384.74   28.59  -2
   0  -2  11  384.74   28.59  -3
  -3   3   9  384.74   28.59   4
  -3  -2  -1  311.48   27.37  -1
   0  -3   9  311.48   27.37  -2
  -2   2  11  311.48   27.37  -3
  -5   3   1  311.48   27.37   4
  -3   0  -9  315.08   27.38  -1
   2  -5   1  315.08   27.38  -2
   2   0  11  315.08   27.38  -3
  -3   5   1  315.08   27.38   4
   3  -3  -9  361.37   27.57  -1
   5  -2   1  361.37   27.57  -2
   2   3  -1  361.37   27.57  -3
   0   2 -11  361.37   27.57   4
   5  -2   1  356.51   28.00  -1
   2   3  -1  356.51   28.00  -2
   0   2 -11  356.51   28.00  -3
   3  -3  -9  356.51   28.00   4
   3  -3  -9  359.08   28.59  -1
   5  -2   1  359.08   28.59  -2
   2   3  -1  359.08   28.59  -3
   0   2 -11  359.08   28.59   4
   5  -2   1  335.58   27.49  -1
   2   3  -1  335.58   27.49  -2
   0   2 -11  335.58   27.49  -3
   3  -3  -9  335.58   27.49   4
   2  -2 -11  351.11   27.54  -1
   5  -3  -1  351.11   27.54  -2
   3   2   1  351.11   27.54  -3
   0   3  -9  351.11   27.54   4
   3   2   1  335.33   27.52  -1
   0   3  -9  335.33   27.52  -2
   2  -2 -11  335.33   27.52  -3
   5  -3  -1  335.33   27.52   4
  -5   3   1  308.34   28.44  -1
  -3  -2  -1  308.34   28.44  -2
   0  -3   9  308.34   28.44  -3
  -2   2  11  308.34   28.44   4
   5  -3  -1  342.73   27.49  -1
   3   2   1  342.73   27.49  -2
   0   3  -9  342.73   27.49  -3
   2  -2 -11  342.73   27.49   4
  -3   3   9  374.46   27.54  -1
  -5   2  -1  374.46   27.54  -2
  -2  -3   1  374.46   27.54  -3
   0  -2  11  374.46   27.54   4
   2   3  -1  336.84   27.65  -1
   0   2 -11  336.84   27.65  -2
   3  -3  -9  336.84   27.65  -3
   5  -2   1  336.84   27.65   4
  -5   2  -1  333.51   27.57  -1
  -2  -3   1  333.51   27.57  -2
   0  -2  11  333.51   27.57  -3
  -3   3   9  333.51   27.57   4
   4  -5  -3  271.43   23.31  -1
   4   0   7  271.43   23.31  -2
  -1   5  -3  271.43   23.31  -3
  -1   0 -13  271.43   23.31   4
  -5   1  -3  264.12   24.21  -1
  -1  -4   3  264.12   24.21  -2
   0  -1  13  264.12   24.21  -3
  -4   4   7  264.12   24.21   4
  -4   4   7  297.96   23.43  -1
  -5   1  -3  297.96   23.43  -2
  -1  -4   3  297.96   23.43  -3
   0  -1  13  297.96   23.43   4
  -4   0  -7  267.41   23.62  -1
   1  -5   3  267.41   23.62  -2
   1   0  13  267.41   23.62  -3
  -4   5   3  267.41   23.62   4
  -4   0  -7  323.54   23.17  -1
   1  -5   3  323.54   23.17  -2
   1   0  13  323.54   23.17  -3
  -4   5   3  323.54   23.17   4
   5  -4  -3  271.46   24.27  -1
   4   1   3  271.46   24.27  -2
   0   4  -7  271.46   24.27  -3
   1  -1 -13  271.46   24.27   4
   5  -1   3  297.74   23.25  -1
   1   4  -3  297.74   23.25  -2
   0   1 -13  297.74   23.25  -3
   4  -4  -7  297.74   23.25   4
  -4   5   3  297.25   23.23  -1
  -4   0  -7  297.25   23.23  -2
   1  -5   3  297.25   23.23  -3
   1   0  13  297.25   23.23   4
   1   4  -3  289.05   23.44  -1
   0   1 -13  289.05   23.44  -2
   4  -4  -7  289.05   23.44  -3
   5  -1   3  289.05   23.44   4
   1  -1 -13  303.78   23.33  -1
   5  -4  -3  303.78   23.33  -2
   4   1   3  303.78   23.33  -3
   0   4  -7  303.78   23.33   4
  -5   4   3  264.86   24.71  -1
  -4  -1  -3  264.86   24.71  -2
   0  -4   7  264.86   24.71  -3
  -1   1  13  264.86   24.71   4
   5  -4  -3  281.15   23.29  -1
   4   1   3  281.15   23.29  -2
   0   4  -7  281.15   23.29  -3
   1  -1 -13  281.15   23.29   4
  -5   4   3  303.82   23.39  -1
  -4  -1  -3  303.82   23.39  -2
   0  -4   7  303.82   23.39  -3
  -1   1  13  303.82   23.39   4
  -4  -1  -3  302.61   23.40  -1
   0  -4   7  302.61   23.40  -2
  -1   1  13  302.61   23.40  -3
  -5   4   3  302.61   23.40   4
  -4   4   7  272.82   24.01  -1
  -5   1  -3  272.82   24.01  -2
  -1  -4   3  272.82   24.01  -3
   0  -1  13  272.82   24.01   4
   4  -4  -7  299.54   23.29  -1
   5  -1   3  299.54   23.29  -2
   1   4  -3  299.54   23.29  -3
   0   1 -13  299.54   23.29   4
   5  -1   3  324.65   24.27  -1
   1   4  -3  324.65   24.27  -2
   0   1 -13  324.65   24.27  -3
   4  -4  -7  324.65   24.27   4
  -5   1  -3  297.54   23.17  -1
  -1  -4   3  297.54   23.17  -2
   0  -1  13  297.54   23.17  -3
  -4   4   7  297.54   23.17   4
   4   1   3  302.56   24.63  -1
   0   4  -7  302.56   24.63  -2
   1  -1 -13  302.56   24.63  -3
   5  -4  -3  302.56   24.63   4
   4  -4  -7  320.14   24.17  -1
   5  -1   3  320.14   24.17  -2
   1   4  -3  320.14   24.17  -3
   0   1 -13  320.14   24.17   4
  -4   5   3  288.86   23.96  -1
  -4   0  -7  288.86   23.96  -2
   1  -5   3  288.86   23.96  -3
   1   0  13  288.86   23.96   4
   4   1   3  279.28   23.20  -1
   0   4  -7  279.28   23.20  -2
   1  -1 -13  279.28   23.20  -3
   5  -4  -3  279.28   23.20   4
   5  -5  -5  210.94   17.43  -1
   5   0   5  210.94   17.43  -2
   0   5  -5  210.94   17.43  -3
   0   0 -15  210.94   17.43   4
  -5   0  -5  213.17   16.31  -1
   0  -5   5  213.17   16.31  -2
   0   0  15  213.17   16.31  -3
  -5   5   5  213.17   16.31   4
   5  -5  -5  217.36   16.17  -1
   5   0   5  217.36   16.17  -2
   0   5  -5  217.36   16.17  -3
   0   0 -15  217.36   16.17   4
  -5   5   5  194.28   16.40  -1
  -5   0  -5  194.28   16.40  -2
   0  -5   5  194.28   16.40  -3
   0   0  15  194.28   16.40   4
   5   0   5  186.57   17.23  -1
   0   5  -5  186.57   17.23  -2
   0   0 -15  186.57   17.23  -3
   5  -5  -5  186.57   17.23   4
   5   0   5  212.16   16.23  -1
   0   5  -5  212.16   16.23  -2
   0   0 -15  212.16   16.23  -3
   5  -5  -5  212.16   16.23   4
  -5   5   5  201.56   18.62  -1
  -5   0  -5  201.56   18.62  -2
   0  -5   5  201.56   18.62  -3
   0   0  15  201.56   18.62   4
  -5   0  -5  165.18   18.50  -1
   0  -5   5  165.18   18.50  -2
   0   0  15  165.18   18.50  -3
  -5   5   5  165.18   18.50   4
  -3   0   6 2148.12  171.03  -1
  -3   0   6 2148.12  171.03  -2
  -3   0   6 2148.12  171.03  -3
  -3   0   6 2148.12  171.03   4
   3   0  -6 2219.83  171.31  -1
   3   0  -6 2219.83  171.31  -2
   3   0  -6 2219.83  171.31  -3
   3   0  -6 2219.83  171.31   4
   4  -1  -4 1813.51  143.32  -1
   3   1  -4 1813.51  143.32  -2
   2   1  -8 1813.51  143.32  -3
   3  -1  -8 1813.51  143.32   4
  -1  -2  -8 2033.04  143.33  -1
   3  -4   4 2033.04  143.33  -2
   1   2   8 2033.04  143.33  -3
  -3   4  -4 2033.04  143.33   4
  -1   4   4 1877.41  143.25  -1
  -3   2  -8 1877.41  143.25  -2
   1  -4  -4 1877.41  143.25  -3
   3  -2   8 1877.41  143.25   4
   4  -1  -4 1712.03  143.82  -1
   3   1  -4 1712.03  143.82  -2
   2   1  -8 1712.03  143.82  -3
   3  -1  -8 1712.03  143.82   4
   1   3   4 1690.36  143.33  -1
  -2   3  -8 1690.36  143.33  -2
   1  -3  -8 1690.36  143.33  -3
   4  -3   4 1690.36  143.33   4
   2   1  -8 1822.56  143.28  -1
   3  -1  -8 1822.56  143.28  -2
   4  -1  -4 1822.56  143.28  -3
   3   1  -4 1822.56  143.28   4
   1   3   4 1777.12  143.23  -1
  -2   3  -8 1777.12  143.23  -2
   1  -3  -8 1777.12  143.23  -3
   4  -3   4 1777.12  143.23   4
  -1   4   4 1903.11  143.16  -1
  -3   2  -8 1903.11  143.16  -2
   1  -4  -4 1903.11  143.16  -3
   3  -2   8 1903.11  143.16   4
   3  -1  -8 1809.75  143.35  -1
   4  -1  -4 1809.75  143.35  -2
   3   1  -4 1809.75  143.35  -3
   2   1  -8 1809.75  143.35   4
  -1  -2  -8 1863.80  143.31  -1
   3  -4   4 1863.80  143.31  -2
   1   2   8 1863.80  143.31  -3
  -3   4  -4 1863.80  143.31   4
  -4   3  -4 1955.60  143.35  -1
  -1  -3  -4 1955.60  143.35  -2
   2  -3   8 1955.60  143.35  -3
  -1   3   8 1955.60  143.35   4
  -3   1   8 1967.89  143.31  -1
  -4   1   4 1967.89  143.31  -2
  -3  -1   4 1967.89  143.31  -3
  -2  -1   8 1967.89  143.31   4
  -3  -1   4 1945.63  143.23  -1
  -2  -1   8 1945.63  143.23  -2
  -3   1   8 1945.63  143.23  -3
  -4   1   4 1945.63  143.23   4
   1  -3  -8 1838.07  143.16  -1
   4  -3   4 1838.07  143.16  -2
   1   3   4 1838.07  143.16  -3
  -2   3  -8 1838.07  143.16   4
   1  -3  -8 1658.92  143.21  -1
   4  -3   4 1658.92  143.21  -2
   1   3   4 1658.92  143.21  -3
  -2   3  -8 1658.92  143.21   4
  -4   1   4 1670.27  143.27  -1
  -3  -1   4 1670.27  143.27  -2
  -2  -1   8 1670.27  143.27  -3
  -3   1   8 1670.27  143.27   4
   3   1  -4 1723.64  143.36  -1
   2   1  -8 1723.64  143.36  -2
   3  -1  -8 1723.64  143.36  -3
   4  -1  -4 1723.64  143.36   4
  -2  -2  -6 1383.36  122.69  -1
   2  -4   6 1383.36  122.69  -2
   0   2  10 1383.36  122.69  -3
  -4   4  -2 1383.36  122.69   4
  -2  -2  -6 1501.49  122.57  -1
   2  -4   6 1501.49  122.57  -2
   0   2  10 1501.49  122.57  -3
  -4   4  -2 1501.49  122.57   4
   2   2  -6 1598.15  122.96  -1
   2   0 -10 1598.15  122.96  -2
   4  -2  -6 1598.15  122.96  -3
   4   0  -2 1598.15  122.96   4
   2  -4  -6 1673.24  122.67  -1
   4  -2   6 1673.24  122.67  -2
   0   4   2 1673.24  122.67  -3
  -2   2 -10 1673.24  122.67   4
   2   0 -10 1488.72  122.83  -1
   4  -2  -6 1488.72  122.83  -2
   4   0  -2 1488.72  122.83  -3
   2   2  -6 1488.72  122.83   4
   4  -2  -6 1620.09  123.56  -1
   4   0  -2 1620.09  123.56  -2
   2   2  -6 1620.09  123.56  -3
   2   0 -10 1620.09  123.56   4
  -4   0   2 1513.78  122.94  -1
  -2  -2   6 1513.78  122.94  -2
  -2   0  10 1513.78  122.94  -3
  -4   2   6 1513.78  122.94   4
  -2   4   6 1495.36  122.87  -1
  -4   2  -6 1495.36  122.87  -2
   0  -4  -2 1495.36  122.87  -3
   2  -2  10 1495.36  122.87   4
   2   2   6 1538.32  122.65  -1
  -2   4  -6 1538.32  122.65  -2
   0  -2 -10 1538.32  122.65  -3
   4  -4   2 1538.32  122.65   4
  -2   4   6 1638.71  122.69  -1
  -4   2  -6 1638.71  122.69  -2
   0  -4  -2 1638.71  122.69  -3
   2  -2  10 1638.71  122.69   4
   4  -2  -6 1576.50  122.92  -1
   4   0  -2 1576.50  122.92  -2
   2   2  -6 1576.50  122.92  -3
   2   0 -10 1576.50  122.92   4
  -4   4  -2 1582.96  122.92  -1
  -2  -2  -6 1582.96  122.92  -2
   2  -4   6 1582.96  122.92  -3
   0   2  10 1582.96  122.92   4
   4   0  -2 1555.21  122.94  -1
   2   2  -6 1555.21  122.94  -2
   2   0 -10 1555.21  122.94  -3
   4  -2  -6 1555.21  122.94   4
   2   2   6 1678.15  122.73  -1
  -2   4  -6 1678.15  122.73  -2
   0  -2 -10 1678.15  122.73  -3
   4  -4   2 1678.15  122.73   4
  -4   2   6 1523.11  122.98  -1
  -4   0   2 1523.11  122.98  -2
  -2  -2   6 1523.11  122.98  -3
  -2   0  10 1523.11  122.98   4
  -4   2  -6 1660.93  122.61  -1
   0  -4  -2 1660.93  122.61  -2
   2  -2  10 1660.93  122.61  -3
  -2   4   6 1660.93  122.61   4
  -4   4  -2 1743.20  122.72  -1
  -2  -2  -6 1743.20  122.72  -2
   2  -4   6 1743.20  122.72  -3
   0   2  10 1743.20  122.72   4
   4   0  -2 1420.34  123.37  -1
   2   2  -6 1420.34  123.37  -2
   2   0 -10 1420.34  123.37  -3
   4  -2  -6 1420.34  123.37   4
  -3   5  -2 1252.42   89.33  -1
  -2  -1 -10 1252.42   89.33  -2
   3  -5   2 1252.42   89.33  -3
   2   1  10 1252.42   89.33   4
   2   3   2 1160.97   89.29  -1
  -1   3 -10 1160.97   89.29  -2
   2  -3 -10 1160.97   89.29  -3
   5  -3   2 1160.97   89.29   4
   2  -3 -10  982.51   89.37  -1
   5  -3   2  982.51   89.37  -2
   2   3   2  982.51   89.37  -3
  -1   3 -10  982.51   89.37   4
   3   2  -2 1142.83   89.59  -1
   1   2 -10 1142.83   89.59  -2
   3  -2 -10 1142.83   89.59  -3
   5  -2  -2 1142.83   89.59   4
   5  -2  -2 1087.38   89.98  -1
   3   2  -2 1087.38   89.98  -2
   1   2 -10 1087.38   89.98  -3
   3  -2 -10 1087.38   89.98   4
  -2  -1 -10 1071.45   89.05  -1
   3  -5   2 1071.45   89.05  -2
   2   1  10 1071.45   89.05  -3
  -3   5  -2 1071.45   89.05   4
  -3  -2   2 1236.53   89.37  -1
  -1  -2  10 1236.53   89.37  -2
  -3   2  10 1236.53   89.37  -3
  -5   2   2 1236.53   89.37   4
  -2   5   2 1085.66   89.11  -1
  -3   1 -10 1085.66   89.11  -2
   2  -5  -2 1085.66   89.11  -3
   3  -1  10 1085.66   89.11   4
  -5   2   2 1084.51   89.38  -1
  -3  -2   2 1084.51   89.38  -2
  -1  -2  10 1084.51   89.38  -3
  -3   2  10 1084.51   89.38   4
  -5   2   2  964.69   89.52  -1
  -3  -2   2  964.69   89.52  -2
  -1  -2  10  964.69   89.52  -3
  -3   2  10  964.69   89.52   4
   3  -2 -10 1234.78   89.55  -1
   5  -2  -2 1234.78   89.55  -2
   3   2  -2 1234.78   89.55  -3
   1   2 -10 1234.78   89.55   4
   5  -3   2 1170.81   89.64  -1
   2   3   2 1170.81   89.64  -2
  -1   3 -10 1170.81   89.64  -3
   2  -3 -10 1170.81   89.64   4
   5  -2  -2 1160.13   89.47  -1
   3   2  -2 1160.13   89.47  -2
   1   2 -10 1160.13   89.47  -3
   3  -2 -10 1160.13   89.47   4
  -3   2  10 1181.22   89.41  -1
  -5   2   2 1181.22   89.41  -2
  -3  -2   2 1181.22   89.41  -3
  -1  -2  10 1181.22   89.41   4
  -5   3  -2 1160.86   89.74  -1
  -2  -3  -2 1160.86   89.74  -2
   1  -3  10 1160.86   89.74  -3
  -2   3  10 1160.86   89.74   4
  -5   3  -2 1222.92   89.38  -1
  -2  -3  -2 1222.92   89.38  -2
   1  -3  10 1222.92   89.38  -3
  -2   3  10 1222.92   89.38   4
   2  -3 -10 1120.15   89.22  -1
   5  -3   2 1120.15   89.22  -2
   2   3   2 1120.15   89.22  -3
  -1   3 -10 1120.15   89.22   4
  -2   3  10 1157.86   89.21  -1
  -5   3  -2 1157.86   89.21  -2
  -2  -3  -2 1157.86   89.21  -3
   1  -3  10 1157.86   89.21   4
  -5   2  -4  959.57   76.46  -1
  -1  -4   0  959.57   76.46  -2
   1  -2  12  959.57   76.46  -3
  -3   4   8  959.57   76.46   4
  -5   2  -4  982.13   76.93  -1
  -1  -4   0  982.13   76.93  -2
   1  -2  12  982.13   76.93  -3
  -3   4   8  982.13   76.93   4
   4   1   0 1063.69   76.65  -1
   1   3  -8 1063.69   76.65  -2
   2  -1 -12 1063.69   76.65  -3
   5  -3  -4 1063.69   76.65   4
   3   2   4  959.58   76.63  -1
  -1   4  -8  959.58   76.63  -2
   1  -2 -12  959.58   76.63  -3
   5  -4   0  959.58   76.63   4
   5  -3  -4 1013.78   76.63  -1
   4   1   0 1013.78   76.63  -2
   1   3  -8 1013.78   76.63  -3
   2  -1 -12 1013.78   76.63   4
  -3   4   8  889.78   76.42  -1
  -5   2  -4  889.78   76.42  -2
  -1  -4   0  889.78   76.42  -3
   1  -2  12  889.78   76.42   4
  -4  -1   0  936.05   76.54  -1
  -1  -3   8  936.05   76.54  -2
  -2   1  12  936.05   76.54  -3
  -5   3   4  936.05   76.54   4
  -5   4   0  914.43   76.84  -1
  -3  -2  -4  914.43   76.84  -2
   1  -4   8  914.43   76.84  -3
  -1   2  12  914.43   76.84   4
  -5   1   0  874.07   76.76  -1
  -2  -3   4  874.07   76.76  -2
  -1  -1  12  874.07   76.76  -3
  -4   3   8  874.07   76.76   4
   5  -3  -4  995.21   77.26  -1
   4   1   0  995.21   77.26  -2
   1   3  -8  995.21   77.26  -3
   2  -1 -12  995.21   77.26   4
  -5   3   4 1011.04   76.65  -1
  -4  -1   0 1011.04   76.65  -2
  -1  -3   8 1011.04   76.65  -3
  -2   1  12 1011.04   76.65   4
  -3   5   4  962.11   76.31  -1
  -4   1  -8  962.11   76.31  -2
   1  -5   0  962.11   76.31  -3
   2  -1  12  962.11   76.31   4
  -3  -2  -4  933.62   76.36  -1
   1  -4   8  933.62   76.36  -2
  -1   2  12  933.62   76.36  -3
  -5   4   0  933.62   76.36   4
   3  -4  -8 1052.07   76.77  -1
   5  -2   4 1052.07   76.77  -2
   1   4   0 1052.07   76.77  -3
  -1   2 -12 1052.07   76.77   4
   4   1   0  941.23   77.16  -1
   1   3  -8  941.23   77.16  -2
   2  -1 -12  941.23   77.16  -3
   5  -3  -4  941.23   77.16   4
   5  -4   0 1080.98   76.70  -1
   3   2   4 1080.98   76.70  -2
  -1   4  -8 1080.98   76.70  -3
   1  -2 -12 1080.98   76.70   4
   4  -3  -8 1053.60   76.62  -1
   5  -1   0 1053.60   76.62  -2
   2   3  -4 1053.60   76.62  -3
   1   1 -12 1053.60   76.62   4
   1  -2 -12  886.05   76.27  -1
   5  -4   0  886.05   76.27  -2
   3   2   4  886.05   76.27  -3
  -1   4  -8  886.05   76.27   4
   1   4   0  977.19   76.43  -1
  -1   2 -12  977.19   76.43  -2
   3  -4  -8  977.19   76.43  -3
   5  -2   4  977.19   76.43   4
   4  -3  -8  970.41   77.08  -1
   5  -1   0  970.41   77.08  -2
   2   3  -4  970.41   77.08  -3
   1   1 -12  970.41   77.08   4
   5  -2   4 1027.61   76.74  -1
   1   4   0 1027.61   76.74  -2
  -1   2 -12 1027.61   76.74  -3
   3  -4  -8 1027.61   76.74   4
   2  -1 -12  971.71   76.53  -1
   5  -3  -4  971.71   76.53  -2
   4   1   0  971.71   76.53  -3
   1   3  -8  971.71   76.53   4
  -3  -1  -8  953.15   76.50  -1
   2  -5   4  953.15   76.50  -2
   1   1  12  953.15   76.50  -3
  -4   5   0  953.15   76.50   4
  -4   3   8  967.12   76.62  -1
  -5   1   0  967.12   76.62  -2
  -2  -3   4  967.12   76.62  -3
  -1  -1  12  967.12   76.62   4
   3  -4  -8  968.88   76.32  -1
   5  -2   4  968.88   76.32  -2
   1   4   0  968.88   76.32  -3
  -1   2 -12  968.88   76.32   4
   5  -1   0  936.74   76.97  -1
   2   3  -4  936.74   76.97  -2
   1   1 -12  936.74   76.97  -3
   4  -3  -8  936.74   76.97   4
   5  -1   0  941.92   76.51  -1
   2   3  -4  941.92   76.51  -2
   1   1 -12  941.92   76.51  -3
   4  -3  -8  941.92   76.51   4
  -3   5   4  919.98   76.61  -1
  -4   1  -8  919.98   76.61  -2
   1  -5   0  919.98   76.61  -3
   2  -1  12  919.98   76.61   4
  -4   5   0 1062.03   76.39  -1
  -3  -1  -8 1062.03   76.39  -2
   2  -5   4 1062.03   76.39  -3
   1   1  12 1062.03   76.39   4
   3   2   4  941.19   76.31  -1
  -1   4  -8  941.19   76.31  -2
   1  -2 -12  941.19   76.31  -3
   5  -4   0  941.19   76.31   4
  -5   1   0  996.78   76.58  -1
  -2  -3   4  996.78   76.58  -2
  -1  -1  12  996.78   76.58  -3
  -4   3   8  996.78   76.58   4
  -4   5   0 1027.84   76.72  -1
  -3  -1  -8 1027.84   76.72  -2
   2  -5   4 1027.84   76.72  -3
   1   1  12 1027.84   76.72   4
  -5   4   0  953.95   76.50  -1
  -3  -2  -4  953.95   76.50  -2
   1  -4   8  953.95   76.50  -3
  -1   2  12  953.95   76.50   4
   2   3  -4 1054.08   76.76  -1
   1   1 -12 1054.08   76.76  -2
   4  -3  -8 1054.08   76.76  -3
   5  -1   0 1054.08   76.76   4
  -3  -1  -8  968.52   76.24  -1
   2  -5   4  968.52   76.24  -2
   1   1  12  968.52   76.24  -3
  -4   5   0  968.52   76.24   4
  -4   1  -8 1054.22   76.34  -1
   1  -5   0 1054.22   76.34  -2
   2  -1  12 1054.22   76.34  -3
  -3   5   4 1054.22   76.34   4
  -5   3   4  868.29   76.89  -1
  -4  -1   0  868.29   76.89  -2
  -1  -3   8  868.29   76.89  -3
  -2   1  12  868.29   76.89   4
  -4   1  -8  906.81   76.47  -1
   1  -5   0  906.81   76.47  -2
   2  -1  12  906.81   76.47  -3
  -3   5   4  906.81   76.47   4
  -5   4   6  523.60   48.73  -1
  -5   0  -2  523.60   48.73  -2
  -1  -4   6  523.60   48.73  -3
  -1   0  14  523.60   48.73   4
  -5   1  -6  583.67   48.44  -1
   0  -5   2  583.67   48.44  -2
   1  -1  14  583.67   48.44  -3
  -4   5   6  583.67   48.44   4
   1   0 -14  614.63   48.12  -1
   5  -4  -6  614.63   48.12  -2
   5   0   2  614.63   48.12  -3
   1   4  -6  614.63   48.12   4
  -5   1  -6  583.26   47.89  -1
   0  -5   2  583.26   47.89  -2
   1  -1  14  583.26   47.89  -3
  -4   5   6  583.26   47.89   4
  -4  -1  -6  615.92   47.90  -1
   1  -5   6  615.92   47.90  -2
   0   1  14  615.92   47.90  -3
  -5   5   2  615.92   47.90   4
   5  -4  -6  634.56   48.05  -1
   5   0   2  634.56   48.05  -2
   1   4  -6  634.56   48.05  -3
   1   0 -14  634.56   48.05   4
  -4  -1  -6  590.69   48.32  -1
   1  -5   6  590.69   48.32  -2
   0   1  14  590.69   48.32  -3
  -5   5   2  590.69   48.32   4
   4  -5  -6  684.45   48.21  -1
   5  -1   6  684.45   48.21  -2
   0   5  -2  684.45   48.21  -3
  -1   1 -14  684.45   48.21   4
   5  -5  -2  685.04   48.31  -1
   4   1   6  685.04   48.31  -2
  -1   5  -6  685.04   48.31  -3
   0  -1 -14  685.04   48.31   4
   5   0   2  629.68   48.09  -1
   1   4  -6  629.68   48.09  -2
   1   0 -14  629.68   48.09  -3
   5  -4  -6  629.68   48.09   4
  -5   5   2  617.94   48.01  -1
  -4  -1  -6  617.94   48.01  -2
   1  -5   6  617.94   48.01  -3
   0   1  14  617.94   48.01   4
   5  -4  -6  586.03   48.44  -1
   5   0   2  586.03   48.44  -2
   1   4  -6  586.03   48.44  -3
   1   0 -14  586.03   48.44   4
  -5   0  -2  607.64   48.06  -1
  -1  -4   6  607.64   48.06  -2
  -1   0  14  607.64   48.06  -3
  -5   4   6  607.64   48.06   4
  -4   5   6  540.73   48.31  -1
  -5   1  -6  540.73   48.31  -2
   0  -5   2  540.73   48.31  -3
   1  -1  14  540.73   48.31   4
   5  -1   6  628.59   48.14  -1
   0   5  -2  628.59   48.14  -2
  -1   1 -14  628.59   48.14  -3
   4  -5  -6  628.59   48.14   4
  -4   5   6  611.83   47.97  -1
  -5   1  -6  611.83   47.97  -2
   0  -5   2  611.83   47.97  -3
   1  -1  14  611.83   47.97   4
  -3  -3   0  576.48   43.96  -1
   0  -3  12  576.48   43.96  -2
  -3   3  12  576.48   43.96  -3
  -6   3   0  576.48   43.96   4
  -6   3   0  529.19   44.64  -1
  -3  -3   0  529.19   44.64  -2
   0  -3  12  529.19   44.64  -3
  -3   3  12  529.19   44.64   4
  -3   0 -12  544.78   43.93  -1
   3  -6   0  544.78   43.93  -2
   3   0  12  544.78   43.93  -3
  -3   6   0  544.78   43.93   4
   6  -3   0  567.60   44.04  -1
   3   3   0  567.60   44.04  -2
   0   3 -12  567.60   44.04  -3
   3  -3 -12  567.60   44.04   4
   3  -3 -12  534.07   44.10  -1
   6  -3   0  534.07   44.10  -2
   3   3   0  534.07   44.10  -3
   0   3 -12  534.07   44.10   4
  -6   3   0  520.99   43.99  -1
  -3  -3   0  520.99   43.99  -2
   0  -3  12  520.99   43.99  -3
  -3   3  12  520.99   43.99   4
   6  -3   0  625.35   45.02  -1
   3   3   0  625.35   45.02  -2
   0   3 -12  625.35   45.02  -3
   3  -3 -12  625.35   45.02   4
  -3   6   0  515.40   43.95  -1
  -3   0 -12  515.40   43.95  -2
   3  -6   0  515.40   43.95  -3
   3   0  12  515.40   43.95   4
   3   3   0  599.99   44.29  -1
   0   3 -12  599.99   44.29  -2
   3  -3 -12  599.99   44.29  -3
   6  -3   0  599.99   44.29   4
  -3   3  12  565.15   44.02  -1
  -6   3   0  565.15   44.02  -2
  -3  -3   0  565.15   44.02  -3
   0  -3  12  565.15   44.02   4
   6  -2   2  516.78   38.97  -1
   2   4  -2  516.78   38.97  -2
   0   2 -14  516.78   38.97  -3
   4  -4 -10  516.78   38.97   4
   4  -4 -10  470.24   38.15  -1
   6  -2   2  470.24   38.15  -2
   2   4  -2  470.24   38.15  -3
   0   2 -14  470.24   38.15   4
  -4   0 -10  454.47   38.14  -1
   2  -6   2  454.47   38.14  -2
   2   0  14  454.47   38.14  -3
  -4   6   2  454.47   38.14   4
   6  -4  -2  533.33   38.95  -1
   4   2   2  533.33   38.95  -2
   0   4 -10  533.33   38.95  -3
   2  -2 -14  533.33   38.95   4
   6  -4  -2  529.26   38.28  -1
   4   2   2  529.26   38.28  -2
   0   4 -10  529.26   38.28  -3
   2  -2 -14  529.26   38.28   4
  -4   4  10  513.58   38.38  -1
  -6   2  -2  513.58   38.38  -2
  -2  -4   2  513.58   38.38  -3
   0  -2  14  513.58   38.38   4
  -4   6   2  441.59   38.32  -1
  -4   0 -10  441.59   38.32  -2
   2  -6   2  441.59   38.32  -3
   2   0  14  441.59   38.32   4
  -4   0 -10  463.16   37.92  -1
   2  -6   2  463.16   37.92  -2
   2   0  14  463.16   37.92  -3
  -4   6   2  463.16   37.92   4
  -4   6   2  478.66   38.02  -1
  -4   0 -10  478.66   38.02  -2
   2  -6   2  478.66   38.02  -3
   2   0  14  478.66   38.02   4
   4   2   2  467.60   39.29  -1
   0   4 -10  467.60   39.29  -2
   2  -2 -14  467.60   39.29  -3
   6  -4  -2  467.60   39.29   4
  -6   4   2  457.79   38.28  -1
  -4  -2  -2  457.79   38.28  -2
   0  -4  10  457.79   38.28  -3
  -2   2  14  457.79   38.28   4
  -4  -2  -2  490.44   38.18  -1
   0  -4  10  490.44   38.18  -2
  -2   2  14  490.44   38.18  -3
  -6   4   2  490.44   38.18   4
   4  -4 -10  461.88   38.99  -1
   6  -2   2  461.88   38.99  -2
   2   4  -2  461.88   38.99  -3
   0   2 -14  461.88   38.99   4
   4   2   2  529.32   38.26  -1
   0   4 -10  529.32   38.26  -2
   2  -2 -14  529.32   38.26  -3
   6  -4  -2  529.32   38.26   4
  -6   2  -2  445.33   38.29  -1
  -2  -4   2  445.33   38.29  -2
   0  -2  14  445.33   38.29  -3
  -4   4  10  445.33   38.29   4
   2   4  -2  508.37   38.43  -1
   0   2 -14  508.37   38.43  -2
   4  -4 -10  508.37   38.43  -3
   6  -2   2  508.37   38.43   4
  -6   4   2  425.21   39.36  -1
  -4  -2  -2  425.21   39.36  -2
   0  -4  10  425.21   39.36  -3
  -2   2  14  425.21   39.36   4
   6  -2   2  496.46   38.32  -1
   2   4  -2  496.46   38.32  -2
   0   2 -14  496.46   38.32  -3
   4  -4 -10  496.46   38.32   4
   2  -2 -14  488.89   38.28  -1
   6  -4  -2  488.89   38.28  -2
   4   2   2  488.89   38.28  -3
   0   4 -10  488.89   38.28   4
   5  -6  -4  351.43   25.78  -1
   5   0   8  351.43   25.78  -2
  -1   6  -4  351.43   25.78  -3
  -1   0 -16  351.43   25.78   4
   6  -1   4  323.90   26.87  -1
   1   5  -4  323.90   26.87  -2
   0   1 -16  323.90   26.87  -3
   5  -5  -8  323.90   26.87   4
   5  -5  -8  351.41   25.53  -1
   6  -1   4  351.41   25.53  -2
   1   5  -4  351.41   25.53  -3
   0   1 -16  351.41   25.53   4
  -5   6   4  257.85   27.19  -1
  -5   0  -8  257.85   27.19  -2
   1  -6   4  257.85   27.19  -3
   1   0  16  257.85   27.19   4
   5   1   4  328.21   27.00  -1
   0   5  -8  328.21   27.00  -2
   1  -1 -16  328.21   27.00  -3
   6  -5  -4  328.21   27.00   4
   5  -5  -8  325.50   26.84  -1
   6  -1   4  325.50   26.84  -2
   1   5  -4  325.50   26.84  -3
   0   1 -16  325.50   26.84   4
  -6   1  -4  281.00   25.41  -1
  -1  -5   4  281.00   25.41  -2
   0  -1  16  281.00   25.41  -3
  -5   5   8  281.00   25.41   4
  -6   1  -4  322.64   27.07  -1
  -1  -5   4  322.64   27.07  -2
   0  -1  16  322.64   27.07  -3
  -5   5   8  322.64   27.07   4
  -5  -1  -4  320.67   25.66  -1
   0  -5   8  320.67   25.66  -2
  -1   1  16  320.67   25.66  -3
  -6   5   4  320.67   25.66   4
  -6   5   4  283.85   27.65  -1
  -5  -1  -4  283.85   27.65  -2
   0  -5   8  283.85   27.65  -3
  -1   1  16  283.85   27.65   4
  -5   6   4  291.84   25.66  -1
  -5   0  -8  291.84   25.66  -2
   1  -6   4  291.84   25.66  -3
   1   0  16  291.84   25.66   4
  -5   0  -8  331.37   26.60  -1
   1  -6   4  331.37   26.60  -2
   1   0  16  331.37   26.60  -3
  -5   6   4  331.37   26.60   4
   6  -5  -4  357.24   25.64  -1
   5   1   4  357.24   25.64  -2
   0   5  -8  357.24   25.64  -3
   1  -1 -16  357.24   25.64   4
  -5   5   8  296.32   25.66  -1
  -6   1  -4  296.32   25.66  -2
  -1  -5   4  296.32   25.66  -3
   0  -1  16  296.32   25.66   4
   6  -5  -4  350.49   26.43  -1
   5   1   4  350.49   26.43  -2
   0   5  -8  350.49   26.43  -3
   1  -1 -16  350.49   26.43   4
   5   1   4  332.38   25.59  -1
   0   5  -8  332.38   25.59  -2
   1  -1 -16  332.38   25.59  -3
   6  -5  -4  332.38   25.59   4
   1   5  -4  316.23   25.80  -1
   0   1 -16  316.23   25.80  -2
   5  -5  -8  316.23   25.80  -3
   6  -1   4  316.23   25.80   4
  -6   5   4  304.85   25.64  -1
  -5  -1  -4  304.85   25.64  -2
   0  -5   8  304.85   25.64  -3
  -1   1  16  304.85   25.64   4
  -5   0  -8  298.89   25.50  -1
   1  -6   4  298.89   25.50  -2
   1   0  16  298.89   25.50  -3
  -5   6   4  298.89   25.50   4
   6  -1   4  344.56   25.69  -1
   1   5  -4  344.56   25.69  -2
   0   1 -16  344.56   25.69  -3
   5  -5  -8  344.56   25.69   4
   5   0   8  337.07   25.66  -1
  -1   6  -4  337.07   25.66  -2
  -1   0 -16  337.07   25.66  -3
   5  -6  -4  337.07   25.66   4
   1  -1 -16  323.24   25.85  -1
   6  -5  -4  323.24   25.85  -2
   5   1   4  323.24   25.85  -3
   0   5  -8  323.24   25.85   4
   6  -6  -6  198.58   14.94  -1
   6   0   6  198.58   14.94  -2
   0   6  -6  198.58   14.94  -3
   0   0 -18  198.58   14.94   4
   6  -6  -6  221.61   17.39  -1
   6   0   6  221.61   17.39  -2
   0   6  -6  221.61   17.39  -3
   0   0 -18  221.61   17.39   4
  -6   6   6  126.81   19.00  -1
  -6   0  -6  126.81   19.00  -2
   0  -6   6  126.81   19.00  -3
   0   0  18  126.81   19.00   4
  -6   0  -6  166.13   17.89  -1
   0  -6   6  166.13   17.89  -2
   0   0  18  166.13   17.89  -3
  -6   6   6  166.13   17.89   4
   6   0   6  193.32   18.81  -1
   0   6  -6  193.32   18.81  -2
   0   0 -18  193.32   18.81  -3
   6  -6  -6  193.32   18.81   4
   6   0   6  178.67   14.96  -1
   0   6  -6  178.67   14.96  -2
   0   0 -18  178.67   14.96  -3
   6  -6  -6  178.67   14.96   4
  -6   0  -6  155.81   15.02  -1
   0  -6   6  155.81   15.02  -2
   0   0  18  155.81   15.02  -3
  -6   6   6  155.81   15.02   4
  -4   1   7  344.03   27.67  -1
  -4   0   5  344.03   27.67  -2
  -3  -1   7  344.03   27.67  -3
  -3   0   9  344.03   27.67   4
   4  -1  -7  319.34   28.64  -1
   4   0  -5  319.34   28.64  -2
   3   1  -7  319.34   28.64  -3
   3   0  -9  319.34   28.64   4
   4   0  -5  393.20   28.00  -1
   3   1  -7  393.20   28.00  -2
   3   0  -9  393.20   28.00  -3
   4  -1  -7  393.20   28.00   4
   3   1  -7  357.00   27.81  -1
   3   0  -9  357.00   27.81  -2
   4  -1  -7  357.00   27.81  -3
   4   0  -5  357.00   27.81   4
  -4   3  -7  358.78   27.48  -1
   0  -4  -5  358.78   27.48  -2
   3  -3   9  358.78   27.48  -3
  -1   4   7  358.78   27.48   4
  -4   4  -5  322.56   27.45  -1
  -1  -3  -7  322.56   27.45  -2
   3  -4   7  322.56   27.45  -3
   0   3   9  322.56   27.45   4
  -3   0   9  369.85   27.69  -1
  -4   1   7  369.85   27.69  -2
  -4   0   5  369.85   27.69  -3
  -3  -1   7  369.85   27.69   4
   3   0  -9  345.51   27.94  -1
   4  -1  -7  345.51   27.94  -2
   4   0  -5  345.51   27.94  -3
   3   1  -7  345.51   27.94   4
   4  -1  -7  331.32   27.67  -1
   4   0  -5  331.32   27.67  -2
   3   1  -7  331.32   27.67  -3
   3   0  -9  331.32   27.67   4
   4   0  -5  282.20   28.71  -1
   3   1  -7  282.20   28.71  -2
   3   0  -9  282.20   28.71  -3
   4  -1  -7  282.20   28.71   4
  -3  -1   7  333.09   27.49  -1
  -3   0   9  333.09   27.49  -2
  -4   1   7  333.09   27.49  -3
  -4   0   5  333.09   27.49   4
  -4   0   5  381.95   27.80  -1
  -3  -1   7  381.95   27.80  -2
  -3   0   9  381.95   27.80  -3
  -4   1   7  381.95   27.80   4
  -1   4   7  356.14   27.50  -1
  -4   3  -7  356.14   27.50  -2
   0  -4  -5  356.14   27.50  -3
   3  -3   9  356.14   27.50   4
   2   2  -9  284.83   23.71  -1
   3  -1 -11  284.83   23.71  -2
   5  -2  -5  284.83   23.71  -3
   4   1  -3  284.83   23.71   4
  -5   1   3  325.50   23.83  -1
  -3  -2   5  325.50   23.83  -2
  -2  -1  11  325.50   23.83  -3
  -4   2   9  325.50   23.83   4
  -3  -2   5  311.52   23.31  -1
  -2  -1  11  311.52   23.31  -2
  -4   2   9  311.52   23.31  -3
  -5   1   3  311.52   23.31   4
  -4   5  -3  282.07   23.39  -1
  -2  -2  -9  282.07   23.39  -2
   3  -5   5  282.07   23.39  -3
   1   2  11  282.07   23.39   4
   4   1  -3  244.39   24.92  -1
   2   2  -9  244.39   24.92  -2
   3  -1 -11  244.39   24.92  -3
   5  -2  -5  244.39   24.92   4
  -5   2   5  311.78   23.74  -1
  -4  -1   3  311.78   23.74  -2
  -2  -2   9  311.78   23.74  -3
  -3   1  11  311.78   23.74   4
   2   3   5  279.10   23.06  -1
  -2   4  -9  279.10   23.06  -2
   1  -3 -11  279.10   23.06  -3
   5  -4   3  279.10   23.06   4
   3  -1 -11  294.34   23.52  -1
   5  -2  -5  294.34   23.52  -2
   4   1  -3  294.34   23.52  -3
   2   2  -9  294.34   23.52   4
  -3   1  11  325.97   23.35  -1
  -5   2   5  325.97   23.35  -2
  -4  -1   3  325.97   23.35  -3
  -2  -2   9  325.97   23.35   4
   4  -2  -9  325.49   23.75  -1
   5  -1  -3  325.49   23.75  -2
   3   2  -5  325.49   23.75  -3
   2   1 -11  325.49   23.75   4
   5  -2  -5  297.25   25.89  -1
   4   1  -3  297.25   25.89  -2
   2   2  -9  297.25   25.89  -3
   3  -1 -11  297.25   25.89   4
   3   2  -5  264.09   23.75  -1
   2   1 -11  264.09   23.75  -2
   4  -2  -9  264.09   23.75  -3
   5  -1  -3  264.09   23.75   4
   2   1 -11  267.41   23.63  -1
   4  -2  -9  267.41   23.63  -2
   5  -1  -3  267.41   23.63  -3
   3   2  -5  267.41   23.63   4
   1  -3 -11  302.41   23.25  -1
   5  -4   3  302.41   23.25  -2
   2   3   5  302.41   23.25  -3
  -2   4  -9  302.41   23.25   4
   5  -1  -3  270.81   25.20  -1
   3   2  -5  270.81   25.20  -2
   2   1 -11  270.81   25.20  -3
   4  -2  -9  270.81   25.20   4
  -4   2  -9  301.15   23.23  -1
   1  -5  -3  301.15   23.23  -2
   3  -2  11  301.15   23.23  -3
  -2   5   5  301.15   23.23   4
  -5   3  -5  267.08   23.70  -1
  -1  -4  -3  267.08   23.70  -2
   2  -3  11  267.08   23.70  -3
  -2   4   9  267.08   23.70   4
   4   1  -3  294.87   23.67  -1
   2   2  -9  294.87   23.67  -2
   3  -1 -11  294.87   23.67  -3
   5  -2  -5  294.87   23.67   4
   2   3   5  271.06   23.52  -1
  -2   4  -9  271.06   23.52  -2
   1  -3 -11  271.06   23.52  -3
   5  -4   3  271.06   23.52   4
  -2  -2  -9  278.66   23.39  -1
   3  -5   5  278.66   23.39  -2
   1   2  11  278.66   23.39  -3
  -4   5  -3  278.66   23.39   4
  -2   5   5  293.72   23.47  -1
  -4   2  -9  293.72   23.47  -2
   1  -5  -3  293.72   23.47  -3
   3  -2  11  293.72   23.47   4
  -4   2   9  310.68   23.59  -1
  -5   1   3  310.68   23.59  -2
  -3  -2   5  310.68   23.59  -3
  -2  -1  11  310.68   23.59   4
   2  -4  -9  308.93   23.10  -1
   5  -3   5  308.93   23.10  -2
   1   4   3  308.93   23.10  -3
  -2   3 -11  308.93   23.10   4
   2  -4  -9  286.59   23.54  -1
   5  -3   5  286.59   23.54  -2
   1   4   3  286.59   23.54  -3
  -2   3 -11  286.59   23.54   4
   5  -1  -3  291.19   23.56  -1
   3   2  -5  291.19   23.56  -2
   2   1 -11  291.19   23.56  -3
   4  -2  -9  291.19   23.56   4
   5  -2  -5  304.32   23.67  -1
   4   1  -3  304.32   23.67  -2
   2   2  -9  304.32   23.67  -3
   3  -1 -11  304.32   23.67   4
   4  -2  -9  291.51   25.22  -1
   5  -1  -3  291.51   25.22  -2
   3   2  -5  291.51   25.22  -3
   2   1 -11  291.51   25.22   4
  -5   4  -3  259.86   23.75  -1
  -2  -3  -5  259.86   23.75  -2
   2  -4   9  259.86   23.75  -3
  -1   3  11  259.86   23.75   4
   5  -3   5  323.15   23.42  -1
   1   4   3  323.15   23.42  -2
  -2   3 -11  323.15   23.42  -3
   2  -4  -9  323.15   23.42   4
  -5   4  -3  317.18   23.32  -1
  -2  -3  -5  317.18   23.32  -2
   2  -4   9  317.18   23.32  -3
  -1   3  11  317.18   23.32   4
  -2  -3  -5  290.24   23.12  -1
   2  -4   9  290.24   23.12  -2
  -1   3  11  290.24   23.12  -3
  -5   4  -3  290.24   23.12   4
  -5   3  -5  294.52   23.25  -1
  -1  -4  -3  294.52   23.25  -2
   2  -3  11  294.52   23.25  -3
  -2   4   9  294.52   23.25   4
  -2  -2  -9  300.53   23.06  -1
   3  -5   5  300.53   23.06  -2
   1   2  11  300.53   23.06  -3
  -4   5  -3  300.53   23.06   4
  -2   4   9  307.04   23.23  -1
  -5   3  -5  307.04   23.23  -2
  -1  -4  -3  307.04   23.23  -3
   2  -3  11  307.04   23.23   4
  -4  -1   3  301.25   23.50  -1
  -2  -2   9  301.25   23.50  -2
  -3   1  11  301.25   23.50  -3
  -5   2   5  301.25   23.50   4
   1   4   3  261.01   23.24  -1
  -2   3 -11  261.01   23.24  -2
   2  -4  -9  261.01   23.24  -3
   5  -3   5  261.01   23.24   4
  -2   5   5  275.19   23.10  -1
  -4   2  -9  275.19   23.10  -2
   1  -5  -3  275.19   23.10  -3
   3  -2  11  275.19   23.10   4
  -5   2  -7  262.12   20.45  -1
   0  -5  -1  262.12   20.45  -2
   2  -2  13  262.12   20.45  -3
  -3   5   7  262.12   20.45   4
   5   0  -1  250.40   20.11  -1
   2   3  -7  250.40   20.11  -2
   2   0 -13  250.40   20.11  -3
   5  -3  -7  250.40   20.11   4
  -5   2  -7  247.97   19.80  -1
   0  -5  -1  247.97   19.80  -2
   2  -2  13  247.97   19.80  -3
  -3   5   7  247.97   19.80   4
  -3   5   7  243.74   20.99  -1
  -5   2  -7  243.74   20.99  -2
   0  -5  -1  243.74   20.99  -3
   2  -2  13  243.74   20.99   4
   3   2   7  267.18   19.87  -1
  -2   5  -7  267.18   19.87  -2
   0  -2 -13  267.18   19.87  -3
   5  -5   1  267.18   19.87   4
  -5   5  -1  209.57   20.61  -1
  -3  -2  -7  209.57   20.61  -2
   2  -5   7  209.57   20.61  -3
   0   2  13  209.57   20.61   4
   2   3  -7  217.78   20.30  -1
   2   0 -13  217.78   20.30  -2
   5  -3  -7  217.78   20.30  -3
   5   0  -1  217.78   20.30   4
  -5   3   7  254.14   20.19  -1
  -5   0   1  254.14   20.19  -2
  -2  -3   7  254.14   20.19  -3
  -2   0  13  254.14   20.19   4
   5  -3  -7  270.01   20.30  -1
   5   0  -1  270.01   20.30  -2
   2   3  -7  270.01   20.30  -3
   2   0 -13  270.01   20.30   4
  -5   0   1  215.83   20.23  -1
  -2  -3   7  215.83   20.23  -2
  -2   0  13  215.83   20.23  -3
  -5   3   7  215.83   20.23   4
   3  -5  -7  267.75   19.96  -1
   5  -2   7  267.75   19.96  -2
   0   5   1  267.75   19.96  -3
  -2   2 -13  267.75   19.96   4
  -3   5   7  261.07   19.92  -1
  -5   2  -7  261.07   19.92  -2
   0  -5  -1  261.07   19.92  -3
   2  -2  13  261.07   19.92   4
   5  -3  -7  268.65   22.94  -1
   5   0  -1  268.65   22.94  -2
   2   3  -7  268.65   22.94  -3
   2   0 -13  268.65   22.94   4
  -3  -2  -7  262.78   19.79  -1
   2  -5   7  262.78   19.79  -2
   0   2  13  262.78   19.79  -3
  -5   5  -1  262.78   19.79   4
  -5   5  -1  243.34   19.90  -1
  -3  -2  -7  243.34   19.90  -2
   2  -5   7  243.34   19.90  -3
   0   2  13  243.34   19.90   4
   5   0  -1  233.83   22.28  -1
   2   3  -7  233.83   22.28  -2
   2   0 -13  233.83   22.28  -3
   5  -3  -7  233.83   22.28   4
   2   0 -13  244.16   20.29  -1
   5  -3  -7  244.16   20.29  -2
   5   0  -1  244.16   20.29  -3
   2   3  -7  244.16   20.29   4
   3  -4 -11  247.00   18.61  -1
   6  -3   3  247.00   18.61  -2
   2   4   1  247.00   18.61  -3
  -1   3 -13  247.00   18.61   4
  -6   3   3  172.85   19.94  -1
  -4  -2   1  172.85   19.94  -2
  -1  -3  11  172.85   19.94  -3
  -3   2  13  172.85   19.94   4
   3  -2 -13  245.59   17.93  -1
   6  -3  -3  245.59   17.93  -2
   4   2  -1  245.59   17.93  -3
   1   3 -11  245.59   17.93   4
   4   2  -1  195.35   17.39  -1
   1   3 -11  195.35   17.39  -2
   3  -2 -13  195.35   17.39  -3
   6  -3  -3  195.35   17.39   4
  -4   3  11  213.24   17.24  -1
  -6   2   1  213.24   17.24  -2
  -3  -3   3  213.24   17.24  -3
  -1  -2  13  213.24   17.24   4
   4   2  -1  185.85   20.14  -1
   1   3 -11  185.85   20.14  -2
   3  -2 -13  185.85   20.14  -3
   6  -3  -3  185.85   20.14   4
   3  -4 -11  235.62   16.97  -1
   6  -3   3  235.62   16.97  -2
   2   4   1  235.62   16.97  -3
  -1   3 -13  235.62   16.97   4
  -4   1 -11  215.10   16.95  -1
   2  -6  -1  215.10   16.95  -2
   3  -1  13  215.10   16.95  -3
  -3   6   3  215.10   16.95   4
   4  -3 -11  196.87   19.91  -1
   6  -2  -1  196.87   19.91  -2
   3   3  -3  196.87   19.91  -3
   1   2 -13  196.87   19.91   4
  -3   6   3  203.36   17.32  -1
  -4   1 -11  203.36   17.32  -2
   2  -6  -1  203.36   17.32  -3
   3  -1  13  203.36   17.32   4
  -3   6   3  188.32   16.58  -1
  -4   1 -11  188.32   16.58  -2
   2  -6  -1  188.32   16.58  -3
   3  -1  13  188.32   16.58   4
   6  -2  -1  216.63   17.35  -1
   3   3  -3  216.63   17.35  -2
   1   2 -13  216.63   17.35  -3
   4  -3 -11  216.63   17.35   4
   4  -3 -11  219.47   17.39  -1
   6  -2  -1  219.47   17.39  -2
   3   3  -3  219.47   17.39  -3
   1   2 -13  219.47   17.39   4
   6  -2  -1  209.68   20.64  -1
   3   3  -3  209.68   20.64  -2
   1   2 -13  209.68   20.64  -3
   4  -3 -11  209.68   20.64   4
   2  -3 -13  222.55   17.42  -1
   6  -4   1  222.55   17.42  -2
   3   3   3  222.55   17.42  -3
  -1   4 -11  222.55   17.42   4
  -4  -2   1  183.61   17.04  -1
  -1  -3  11  183.61   17.04  -2
  -3   2  13  183.61   17.04  -3
  -6   3   3  183.61   17.04   4
  -3   4  11  228.79   16.97  -1
  -6   3  -3  228.79   16.97  -2
  -2  -4  -1  228.79   16.97  -3
   1  -3  13  228.79   16.97   4
  -6   4  -1  191.63   18.71  -1
  -3  -3  -3  191.63   18.71  -2
   1  -4  11  191.63   18.71  -3
  -2   3  13  191.63   18.71   4
  -6   4  -1  191.61   17.00  -1
  -3  -3  -3  191.61   17.00  -2
   1  -4  11  191.61   17.00  -3
  -2   3  13  191.61   17.00   4
  -6   2   1  186.82   17.12  -1
  -3  -3   3  186.82   17.12  -2
  -1  -2  13  186.82   17.12  -3
  -4   3  11  186.82   17.12   4
   3   3  -3  192.39   17.70  -1
   1   2 -13  192.39   17.70  -2
   4  -3 -11  192.39   17.70  -3
   6  -2  -1  192.39   17.70   4
   6  -3  -3  206.20   17.37  -1
   4   2  -1  206.20   17.37  -2
   1   3 -11  206.20   17.37  -3
   3  -2 -13  206.20   17.37   4
  -3  -1 -11  207.57   16.97  -1
   3  -6   3  207.57   16.97  -2
   2   1  13  207.57   16.97  -3
  -4   6  -1  207.57   16.97   4
  -6   3  -3  203.29   16.95  -1
  -2  -4  -1  203.29   16.95  -2
   1  -3  13  203.29   16.95  -3
  -3   4  11  203.29   16.95   4
   3   3   3  171.74   18.84  -1
  -1   4 -11  171.74   18.84  -2
   2  -3 -13  171.74   18.84  -3
   6  -4   1  171.74   18.84   4
   3   3   3  203.31   16.91  -1
  -1   4 -11  203.31   16.91  -2
   2  -3 -13  203.31   16.91  -3
   6  -4   1  203.31   16.91   4
   2   4   1  190.72   17.28  -1
  -1   3 -13  190.72   17.28  -2
   3  -4 -11  190.72   17.28  -3
   6  -3   3  190.72   17.28   4
  -3  -1 -11  223.54   16.53  -1
   3  -6   3  223.54   16.53  -2
   2   1  13  223.54   16.53  -3
  -4   6  -1  223.54   16.53   4
   6  -4   1  241.58   17.95  -1
   3   3   3  241.58   17.95  -2
  -1   4 -11  241.58   17.95  -3
   2  -3 -13  241.58   17.95   4
   3  -4 -11  230.16   16.92  -1
   6  -3   3  230.16   16.92  -2
   2   4   1  230.16   16.92  -3
  -1   3 -13  230.16   16.92   4
  -3  -3  -3  219.09   16.85  -1
   1  -4  11  219.09   16.85  -2
  -2   3  13  219.09   16.85  -3
  -6   4  -1  219.09   16.85   4
   6  -3  -3  249.34   20.57  -1
   4   2  -1  249.34   20.57  -2
   1   3 -11  249.34   20.57  -3
   3  -2 -13  249.34   20.57   4
  -4   6  -1  200.47   17.07  -1
  -3  -1 -11  200.47   17.07  -2
   3  -6   3  200.47   17.07  -3
   2   1  13  200.47   17.07   4
   6  -3   3  206.31   17.80  -1
   2   4   1  206.31   17.80  -2
  -1   3 -13  206.31   17.80  -3
   3  -4 -11  206.31   17.80   4
  -6   2  -5  130.92   15.40  -1
  -1  -5   1  130.92   15.40  -2
   1  -2  15  130.92   15.40  -3
  -4   5   9  130.92   15.40   4
  -6   4   5  154.03   14.04  -1
  -5  -1  -1  154.03   14.04  -2
  -1  -4   9  154.03   14.04  -3
  -2   1  15  154.03   14.04   4
  -6   2  -5  153.45   13.86  -1
  -1  -5   1  153.45   13.86  -2
   1  -2  15  153.45   13.86  -3
  -4   5   9  153.45   13.86   4
  -5   6   1  149.84   13.49  -1
  -4  -1  -9  149.84   13.49  -2
   2  -6   5  149.84   13.49  -3
   1   1  15  149.84   13.49   4
  -6   1  -1  116.13   15.88  -1
  -2  -4   5  116.13   15.88  -2
  -1  -1  15  116.13   15.88  -3
  -5   4   9  116.13   15.88   4
   4  -5  -9  182.36   14.87  -1
   6  -2   5  182.36   14.87  -2
   1   5  -1  182.36   14.87  -3
  -1   2 -15  182.36   14.87   4
  -5   1  -9  165.50   14.56  -1
   1  -6   1  165.50   14.56  -2
   2  -1  15  165.50   14.56  -3
  -4   6   5  165.50   14.56   4
   6  -1   1  174.34   17.70  -1
   2   4  -5  174.34   17.70  -2
   1   1 -15  174.34   17.70  -3
   5  -4  -9  174.34   17.70   4
   6  -1   1  187.99   14.13  -1
   2   4  -5  187.99   14.13  -2
   1   1 -15  187.99   14.13  -3
   5  -4  -9  187.99   14.13   4
   6  -2   5  176.55   14.51  -1
   1   5  -1  176.55   14.51  -2
  -1   2 -15  176.55   14.51  -3
   4  -5  -9  176.55   14.51   4
   4  -5  -9  173.21   13.40  -1
   6  -2   5  173.21   13.40  -2
   1   5  -1  173.21   13.40  -3
  -1   2 -15  173.21   13.40   4
  -5  -1  -1  181.56   14.24  -1
  -1  -4   9  181.56   14.24  -2
  -2   1  15  181.56   14.24  -3
  -6   4   5  181.56   14.24   4
   1  -2 -15  174.82   13.86  -1
   6  -5  -1  174.82   13.86  -2
   4   2   5  174.82   13.86  -3
  -1   5  -9  174.82   13.86   4
   5  -4  -9  158.29   14.01  -1
   6  -1   1  158.29   14.01  -2
   2   4  -5  158.29   14.01  -3
   1   1 -15  158.29   14.01   4
  -6   5   1  154.87   17.09  -1
  -4  -2  -5  154.87   17.09  -2
   1  -5   9  154.87   17.09  -3
  -1   2  15  154.87   17.09   4
   5   1   1  178.12   14.44  -1
   1   4  -9  178.12   14.44  -2
   2  -1 -15  178.12   14.44  -3
   6  -4  -5  178.12   14.44   4
  -5   6   1  148.78   15.10  -1
  -4  -1  -9  148.78   15.10  -2
   2  -6   5  148.78   15.10  -3
   1   1  15  148.78   15.10   4
   6  -4  -5  205.69   17.51  -1
   5   1   1  205.69   17.51  -2
   1   4  -9  205.69   17.51  -3
   2  -1 -15  205.69   17.51   4
   5   1   1  137.61   17.74  -1
   1   4  -9  137.61   17.74  -2
   2  -1 -15  137.61   17.74  -3
   6  -4  -5  137.61   17.74   4
  -6   1  -1  154.72   14.27  -1
  -2  -4   5  154.72   14.27  -2
  -1  -1  15  154.72   14.27  -3
  -5   4   9  154.72   14.27   4
   6  -4  -5  189.58   14.09  -1
   5   1   1  189.58   14.09  -2
   1   4  -9  189.58   14.09  -3
   2  -1 -15  189.58   14.09   4
  -4   5   9  160.20   13.98  -1
  -6   2  -5  160.20   13.98  -2
  -1  -5   1  160.20   13.98  -3
   1  -2  15  160.20   13.98   4
   2  -1 -15  147.10   14.20  -1
   6  -4  -5  147.10   14.20  -2
   5   1   1  147.10   14.20  -3
   1   4  -9  147.10   14.20   4
  -5   1  -9  177.47   13.33  -1
   1  -6   1  177.47   13.33  -2
   2  -1  15  177.47   13.33  -3
  -4   6   5  177.47   13.33   4
  -4  -1  -9  160.47   13.40  -1
   2  -6   5  160.47   13.40  -2
   1   1  15  160.47   13.40  -3
  -5   6   1  160.47   13.40   4
  -4   6   5  182.03   13.59  -1
  -5   1  -9  182.03   13.59  -2
   1  -6   1  182.03   13.59  -3
   2  -1  15  182.03   13.59   4
  -4   6   5  148.69   15.44  -1
  -5   1  -9  148.69   15.44  -2
   1  -6   1  148.69   15.44  -3
   2  -1  15  148.69   15.44   4
   4   2   5  169.92   13.36  -1
  -1   5  -9  169.92   13.36  -2
   1  -2 -15  169.92   13.36  -3
   6  -5  -1  169.92   13.36   4
  -5   4   9  164.53   14.47  -1
  -6   1  -1  164.53   14.47  -2
  -2  -4   5  164.53   14.47  -3
  -1  -1  15  164.53   14.47   4
   1   5  -1  133.01   13.75  -1
  -1   2 -15  133.01   13.75  -2
   4  -5  -9  133.01   13.75  -3
   6  -2   5  133.01   13.75   4
   6  -5  -1  179.51   15.24  -1
   4   2   5  179.51   15.24  -2
  -1   5  -9  179.51   15.24  -3
   1  -2 -15  179.51   15.24   4
  -4  -1  -9  178.17   14.79  -1
   2  -6   5  178.17   14.79  -2
   1   1  15  178.17   14.79  -3
  -5   6   1  178.17   14.79   4
  -6   4   5  123.19   16.53  -1
  -5  -1  -1  123.19   16.53  -2
  -1  -4   9  123.19   16.53  -3
  -2   1  15  123.19   16.53   4
   2   4  -5  164.65   14.55  -1
   1   1 -15  164.65   14.55  -2
   5  -4  -9  164.65   14.55  -3
   6  -1   1  164.65   14.55   4
   4   2   5  177.81   14.89  -1
  -1   5  -9  177.81   14.89  -2
   1  -2 -15  177.81   14.89  -3
   6  -5  -1  177.81   14.89   4
  -4  -2  -5  167.10   13.70  -1
   1  -5   9  167.10   13.70  -2
  -1   2  15  167.10   13.70  -3
  -6   5   1  167.10   13.70   4
   5  -4  -9  180.84   17.27  -1
   6  -1   1  180.84   17.27  -2
   2   4  -5  180.84   17.27  -3
   1   1 -15  180.84   17.27   4
   5  -6  -7  113.33   11.14  -1
   6  -1   7  113.33   11.14  -2
   0   6  -3  113.33   11.14  -3
  -1   1 -17  113.33   11.14   4
  -6   0  -3  102.45   10.73  -1
  -1  -5   7  102.45   10.73  -2
  -1   0  17  102.45   10.73  -3
  -6   5   7  102.45   10.73   4
   6   0   3  104.49   14.71  -1
   1   5  -7  104.49   14.71  -2
   1   0 -17  104.49   14.71  -3
   6  -5  -7  104.49   14.71   4
  -6   5   7   99.79   14.32  -1
  -6   0  -3   99.79   14.32  -2
  -1  -5   7   99.79   14.32  -3
  -1   0  17   99.79   14.32   4
   5   1   7  112.60   11.15  -1
  -1   6  -7  112.60   11.15  -2
   0  -1 -17  112.60   11.15  -3
   6  -6  -3  112.60   11.15   4
  -5  -1  -7  125.02   10.19  -1
   1  -6   7  125.02   10.19  -2
   0   1  17  125.02   10.19  -3
  -6   6   3  125.02   10.19   4
   6  -1   7  121.80   11.30  -1
   0   6  -3  121.80   11.30  -2
  -1   1 -17  121.80   11.30  -3
   5  -6  -7  121.80   11.30   4
  -6   5   7  106.78   10.95  -1
  -6   0  -3  106.78   10.95  -2
  -1  -5   7  106.78   10.95  -3
  -1   0  17  106.78   10.95   4
  -5   6   7  105.36   10.42  -1
  -6   1  -7  105.36   10.42  -2
   0  -6   3  105.36   10.42  -3
   1  -1  17  105.36   10.42   4
   1   5  -7  112.95   10.79  -1
   1   0 -17  112.95   10.79  -2
   6  -5  -7  112.95   10.79  -3
   6   0   3  112.95   10.79   4
  -6   6   3  100.63   14.82  -1
  -5  -1  -7  100.63   14.82  -2
   1  -6   7  100.63   14.82  -3
   0   1  17  100.63   14.82   4
  -6   6   3  119.58   10.73  -1
  -5  -1  -7  119.58   10.73  -2
   1  -6   7  119.58   10.73  -3
   0   1  17  119.58   10.73   4
   6  -5  -7  125.58   14.24  -1
   6   0   3  125.58   14.24  -2
   1   5  -7  125.58   14.24  -3
   1   0 -17  125.58   14.24   4
   6  -6  -3  137.22   11.68  -1
   5   1   7  137.22   11.68  -2
  -1   6  -7  137.22   11.68  -3
   0  -1 -17  137.22   11.68   4
  -6   1  -7  113.81   10.14  -1
   0  -6   3  113.81   10.14  -2
   1  -1  17  113.81   10.14  -3
  -5   6   7  113.81   10.14   4
  -6   0  -3   82.05   13.22  -1
  -1  -5   7   82.05   13.22  -2
  -1   0  17   82.05   13.22  -3
  -6   5   7   82.05   13.22   4
  -6   1  -7   99.16   13.35  -1
   0  -6   3   99.16   13.35  -2
   1  -1  17   99.16   13.35  -3
  -5   6   7   99.16   13.35   4
  -5  -1  -7   78.39   12.60  -1
   1  -6   7   78.39   12.60  -2
   0   1  17   78.39   12.60  -3
  -6   6   3   78.39   12.60   4
   6  -5  -7  119.17   10.26  -1
   6   0   3  119.17   10.26  -2
   1   5  -7  119.17   10.26  -3
   1   0 -17  119.17   10.26   4
   6   0   3  110.12   10.33  -1
   1   5  -7  110.12   10.33  -2
   1   0 -17  110.12   10.33  -3
   6  -5  -7  110.12   10.33   4
  -5   6   7  106.32   14.51  -1
  -6   1  -7  106.32   14.51  -2
   0  -6   3  106.32   14.51  -3
   1  -1  17  106.32   14.51   4
  -4   7   1  120.38   12.45  -1
  -4   0 -13  120.38   12.45  -2
   3  -7   1  120.38   12.45  -3
   3   0  15  120.38   12.45   4
   3   4  -1  100.66   11.94  -1
   0   3 -15  100.66   11.94  -2
   4  -4 -13  100.66   11.94  -3
   7  -3   1  100.66   11.94   4
   4   3   1  103.66   11.15  -1
   0   4 -13  103.66   11.15  -2
   3  -3 -15  103.66   11.15  -3
   7  -4  -1  103.66   11.15   4
   4  -4 -13  123.05   11.36  -1
   7  -3   1  123.05   11.36  -2
   3   4  -1  123.05   11.36  -3
   0   3 -15  123.05   11.36   4
   4   3   1   92.54   16.36  -1
   0   4 -13   92.54   16.36  -2
   3  -3 -15   92.54   16.36  -3
   7  -4  -1   92.54   16.36   4
  -4   4  13  125.85   11.29  -1
  -7   3  -1  125.85   11.29  -2
  -3  -4   1  125.85   11.29  -3
   0  -3  15  125.85   11.29   4
  -4   7   1  117.14   10.23  -1
  -4   0 -13  117.14   10.23  -2
   3  -7   1  117.14   10.23  -3
   3   0  15  117.14   10.23   4
  -4   0 -13  138.90   11.41  -1
   3  -7   1  138.90   11.41  -2
   3   0  15  138.90   11.41  -3
  -4   7   1  138.90   11.41   4
  -4   0 -13  141.33   10.04  -1
   3  -7   1  141.33   10.04  -2
   3   0  15  141.33   10.04  -3
  -4   7   1  141.33   10.04   4
   4  -4 -13  130.71   15.10  -1
   7  -3   1  130.71   15.10  -2
   3   4  -1  130.71   15.10  -3
   0   3 -15  130.71   15.10   4
  -4  -3  -1  128.78   11.06  -1
   0  -4  13  128.78   11.06  -2
  -3   3  15  128.78   11.06  -3
  -7   4   1  128.78   11.06   4
   3  -3 -15  146.10   12.40  -1
   7  -4  -1  146.10   12.40  -2
   4   3   1  146.10   12.40  -3
   0   4 -13  146.10   12.40   4
  -5   0 -11  101.39   11.48  -1
   2  -7   3  101.39   11.48  -2
   2   0  17  101.39   11.48  -3
  -5   7   3  101.39   11.48   4
   5   2   3  122.99    9.66  -1
   0   5 -11  122.99    9.66  -2
   2  -2 -17  122.99    9.66  -3
   7  -5  -3  122.99    9.66   4
  -5   7   3   81.10   12.24  -1
  -5   0 -11   81.10   12.24  -2
   2  -7   3   81.10   12.24  -3
   2   0  17   81.10   12.24   4
  -5  -2  -3   99.83    9.39  -1
   0  -5  11   99.83    9.39  -2
  -2   2  17   99.83    9.39  -3
  -7   5   3   99.83    9.39   4
  -5   0 -11   89.82    8.62  -1
   2  -7   3   89.82    8.62  -2
   2   0  17   89.82    8.62  -3
  -5   7   3   89.82    8.62   4
  -5   5  11  103.07   10.00  -1
  -7   2  -3  103.07   10.00  -2
  -2  -5   3  103.07   10.00  -3
   0  -2  17  103.07   10.00   4
   5   2   3   67.88   15.01  -1
   0   5 -11   67.88   15.01  -2
   2  -2 -17   67.88   15.01  -3
   7  -5  -3   67.88   15.01   4
   5  -5 -11  100.40    9.52  -1
   7  -2   3  100.40    9.52  -2
   2   5  -3  100.40    9.52  -3
   0   2 -17  100.40    9.52   4
   5  -5 -11  103.16   14.62  -1
   7  -2   3  103.16   14.62  -2
   2   5  -3  103.16   14.62  -3
   0   2 -17  103.16   14.62   4
   2  -2 -17   89.80   10.18  -1
   7  -5  -3   89.80   10.18  -2
   5   2   3   89.80   10.18  -3
   0   5 -11   89.80   10.18   4
   2   5  -3   76.04   10.79  -1
   0   2 -17   76.04   10.79  -2
   5  -5 -11   76.04   10.79  -3
   7  -2   3   76.04   10.79   4
  -5   7   3   82.83    8.68  -1
  -5   0 -11   82.83    8.68  -2
   2  -7   3   82.83    8.68  -3
   2   0  17   82.83    8.68   4
  -4   0   8  712.14   54.19  -1
  -4   0   8  712.14   54.19  -2
  -4   0   8  712.14   54.19  -3
  -4   0   8  712.14   54.19   4
   4   0  -8  657.97   54.46  -1
   4   0  -8  657.97   54.46  -2
   4   0  -8  657.97   54.46  -3
   4   0  -8  657.97   54.46   4
  -1   5   6  586.40   46.64  -1
  -4   3 -10  586.40   46.64  -2
   1  -5  -6  586.40   46.64  -3
   4  -3  10  586.40   46.64   4
  -4   1  10  611.66   46.80  -1
  -5   1   6  611.66   46.80  -2
  -4  -1   6  611.66   46.80  -3
  -3  -1  10  611.66   46.80   4
  -4  -1   6  537.93   46.70  -1
  -3  -1  10  537.93   46.70  -2
  -4   1  10  537.93   46.70  -3
  -5   1   6  537.93   46.70   4
   5  -1  -6  561.89   48.44  -1
   4   1  -6  561.89   48.44  -2
   3   1 -10  561.89   48.44  -3
   4  -1 -10  561.89   48.44   4
   3   1 -10  586.36   46.94  -1
   4  -1 -10  586.36   46.94  -2
   5  -1  -6  586.36   46.94  -3
   4   1  -6  586.36   46.94   4
   1  -4 -10  594.17   46.45  -1
   5  -4   6  594.17   46.45  -2
   1   4   6  594.17   46.45  -3
  -3   4 -10  594.17   46.45   4
  -1   5   6  574.75   46.45  -1
  -4   3 -10  574.75   46.45  -2
   1  -5  -6  574.75   46.45  -3
   4  -3  10  574.75   46.45   4
   4   1  -6  614.29   47.22  -1
   3   1 -10  614.29   47.22  -2
   4  -1 -10  614.29   47.22  -3
   5  -1  -6  614.29   47.22   4
   1  -4 -10  572.78   46.51  -1
   5  -4   6  572.78   46.51  -2
   1   4   6  572.78   46.51  -3
  -3   4 -10  572.78   46.51   4
  -5   1   6  619.41   46.99  -1
  -4  -1   6  619.41   46.99  -2
  -3  -1  10  619.41   46.99  -3
  -4   1  10  619.41   46.99   4
   5  -1  -6  595.01   47.01  -1
   4   1  -6  595.01   47.01  -2
   3   1 -10  595.01   47.01  -3
   4  -1 -10  595.01   47.01   4
   4  -1 -10  631.04   47.13  -1
   5  -1  -6  631.04   47.13  -2
   4   1  -6  631.04   47.13  -3
   3   1 -10  631.04   47.13   4
  -2   5   8  480.39   39.67  -1
  -5   3  -8  480.39   39.67  -2
   0  -5  -4  480.39   39.67  -3
   3  -3  12  480.39   39.67   4
   3   2  -8  467.81   40.23  -1
   3   0 -12  467.81   40.23  -2
   5  -2  -8  467.81   40.23  -3
   5   0  -4  467.81   40.23   4
   0   5   4  518.45   39.68  -1
  -3   3 -12  518.45   39.68  -2
   2  -5  -8  518.45   39.68  -3
   5  -3   8  518.45   39.68   4
   5  -2  -8  453.93   41.06  -1
   5   0  -4  453.93   41.06  -2
   3   2  -8  453.93   41.06  -3
   3   0 -12  453.93   41.06   4
   5   0  -4  512.40   40.27  -1
   3   2  -8  512.40   40.27  -2
   3   0 -12  512.40   40.27  -3
   5  -2  -8  512.40   40.27   4
   5   0  -4  504.53   42.12  -1
   3   2  -8  504.53   42.12  -2
   3   0 -12  504.53   42.12  -3
   5  -2  -8  504.53   42.12   4
  -5   3  -8  546.09   39.82  -1
   0  -5  -4  546.09   39.82  -2
   3  -3  12  546.09   39.82  -3
  -2   5   8  546.09   39.82   4
   5  -2  -8  472.86   40.01  -1
   5   0  -4  472.86   40.01  -2
   3   2  -8  472.86   40.01  -3
   3   0 -12  472.86   40.01   4
  -2  -3  -8  477.78   39.63  -1
   3  -5   8  477.78   39.63  -2
   0   3  12  477.78   39.63  -3
  -5   5  -4  477.78   39.63   4
  -5   0   4  535.89   40.08  -1
  -3  -2   8  535.89   40.08  -2
  -3   0  12  535.89   40.08  -3
  -5   2   8  535.89   40.08   4
  -5   3  -8  488.62   39.93  -1
   0  -5  -4  488.62   39.93  -2
   3  -3  12  488.62   39.93  -3
  -2   5   8  488.62   39.93   4
   0  -3 -12  491.79   39.64  -1
   5  -5   4  491.79   39.64  -2
   2   3   8  491.79   39.64  -3
  -3   5  -8  491.79   39.64   4
  -5   2   8  578.02   40.29  -1
  -5   0   4  578.02   40.29  -2
  -3  -2   8  578.02   40.29  -3
  -3   0  12  578.02   40.29   4
  -5   5  -4  543.21   40.33  -1
  -2  -3  -8  543.21   40.33  -2
   3  -5   8  543.21   40.33  -3
   0   3  12  543.21   40.33   4
   3   0 -12  493.81   40.01  -1
   5  -2  -8  493.81   40.01  -2
   5   0  -4  493.81   40.01  -3
   3   2  -8  493.81   40.01   4
  -2   6   4  421.11   31.01  -1
  -4   2 -12  421.11   31.01  -2
   2  -6  -4  421.11   31.01  -3
   4  -2  12  421.11   31.01   4
   2   4   4  422.92   30.87  -1
  -2   4 -12  422.92   30.87  -2
   2  -4 -12  422.92   30.87  -3
   6  -4   4  422.92   30.87   4
   6  -2  -4  387.95   33.84  -1
   4   2  -4  387.95   33.84  -2
   2   2 -12  387.95   33.84  -3
   4  -2 -12  387.95   33.84   4
  -4   2  12  398.02   31.17  -1
  -6   2   4  398.02   31.17  -2
  -4  -2   4  398.02   31.17  -3
  -2  -2  12  398.02   31.17   4
  -6   2   4  356.54   31.40  -1
  -4  -2   4  356.54   31.40  -2
  -2  -2  12  356.54   31.40  -3
  -4   2  12  356.54   31.40   4
  -6   4  -4  373.93   31.01  -1
  -2  -4  -4  373.93   31.01  -2
   2  -4  12  373.93   31.01  -3
  -2   4  12  373.93   31.01   4
   2  -4 -12  334.08   31.44  -1
   6  -4   4  334.08   31.44  -2
   2   4   4  334.08   31.44  -3
  -2   4 -12  334.08   31.44   4
  -2   6   4  421.79   30.70  -1
  -4   2 -12  421.79   30.70  -2
   2  -6  -4  421.79   30.70  -3
   4  -2  12  421.79   30.70   4
   2   2 -12  361.84   31.23  -1
   4  -2 -12  361.84   31.23  -2
   6  -2  -4  361.84   31.23  -3
   4   2  -4  361.84   31.23   4
  -6   4  -4  337.91   31.35  -1
  -2  -4  -4  337.91   31.35  -2
   2  -4  12  337.91   31.35  -3
  -2   4  12  337.91   31.35   4
   6  -2  -4  365.36   31.44  -1
   4   2  -4  365.36   31.44  -2
   2   2 -12  365.36   31.44  -3
   4  -2 -12  365.36   31.44   4
  -4   2 -12  376.76   30.98  -1
   2  -6  -4  376.76   30.98  -2
   4  -2  12  376.76   30.98  -3
  -2   6   4  376.76   30.98   4
   6  -4   4  410.46   31.33  -1
   2   4   4  410.46   31.33  -2
  -2   4 -12  410.46   31.33  -3
   2  -4 -12  410.46   31.33   4
  -2  -2 -12  397.47   30.89  -1
   4  -6   4  397.47   30.89  -2
   2   2  12  397.47   30.89  -3
  -4   6  -4  397.47   30.89   4
  -4  -2   4  415.01   31.13  -1
  -2  -2  12  415.01   31.13  -2
  -4   2  12  415.01   31.13  -3
  -6   2   4  415.01   31.13   4
  -2  -2 -12  407.28   30.67  -1
   4  -6   4  407.28   30.67  -2
   2   2  12  407.28   30.67  -3
  -4   6  -4  407.28   30.67   4
   4  -2 -12  446.58   31.36  -1
   6  -2  -4  446.58   31.36  -2
   4   2  -4  446.58   31.36  -3
   2   2 -12  446.58   31.36   4
  -4   6  -4  376.50   31.01  -1
  -2  -2 -12  376.50   31.01  -2
   4  -6   4  376.50   31.01  -3
   2   2  12  376.50   31.01   4
   2  -4 -12  393.42   30.79  -1
   6  -4   4  393.42   30.79  -2
   2   4   4  393.42   30.79  -3
  -2   4 -12  393.42   30.79   4
   4   2  -4  425.32   31.64  -1
   2   2 -12  425.32   31.64  -2
   4  -2 -12  425.32   31.64  -3
   6  -2  -4  425.32   31.64   4
   2   4   4  368.00   31.67  -1
  -2   4 -12  368.00   31.67  -2
   2  -4 -12  368.00   31.67  -3
   6  -4   4  368.00   31.67   4
   3  -5 -10  350.38   27.67  -1
   6  -3   6  350.38   27.67  -2
   1   5   2  350.38   27.67  -3
  -2   3 -14  350.38   27.67   4
   6  -5   2  398.32   28.15  -1
   3   3   6  398.32   28.15  -2
  -2   5 -10  398.32   28.15  -3
   1  -3 -14  398.32   28.15   4
   6  -3  -6  387.76   30.85  -1
   5   1  -2  387.76   30.85  -2
   2   3 -10  387.76   30.85  -3
   3  -1 -14  387.76   30.85   4
  -3  -2 -10  316.30   28.23  -1
   3  -6   6  316.30   28.23  -2
   1   2  14  316.30   28.23  -3
  -5   6  -2  316.30   28.23   4
   5  -3 -10  366.01   28.27  -1
   6  -1  -2  366.01   28.27  -2
   3   3  -6  366.01   28.27  -3
   2   1 -14  366.01   28.27   4
   3  -5 -10  345.03   28.00  -1
   6  -3   6  345.03   28.00  -2
   1   5   2  345.03   28.00  -3
  -2   3 -14  345.03   28.00   4
  -3   5  10  340.23   27.83  -1
  -6   3  -6  340.23   27.83  -2
  -1  -5  -2  340.23   27.83  -3
   2  -3  14  340.23   27.83   4
  -5   2 -10  363.67   28.36  -1
   1  -6  -2  363.67   28.36  -2
   3  -2  14  363.67   28.36  -3
  -3   6   6  363.67   28.36   4
   2   1 -14  365.36   28.23  -1
   5  -3 -10  365.36   28.23  -2
   6  -1  -2  365.36   28.23  -3
   3   3  -6  365.36   28.23   4
   5   1  -2  339.33   30.94  -1
   2   3 -10  339.33   30.94  -2
   3  -1 -14  339.33   30.94  -3
   6  -3  -6  339.33   30.94   4
  -3   6   6  333.34   27.76  -1
  -5   2 -10  333.34   27.76  -2
   1  -6  -2  333.34   27.76  -3
   3  -2  14  333.34   27.76   4
  -3   6   6  324.45   28.45  -1
  -5   2 -10  324.45   28.45  -2
   1  -6  -2  324.45   28.45  -3
   3  -2  14  324.45   28.45   4
   1   5   2  363.07   27.92  -1
  -2   3 -14  363.07   27.92  -2
   3  -5 -10  363.07   27.92  -3
   6  -3   6  363.07   27.92   4
  -5   6  -2  393.49   27.94  -1
  -3  -2 -10  393.49   27.94  -2
   3  -6   6  393.49   27.94  -3
   1   2  14  393.49   27.94   4
   6  -3  -6  374.12   28.06  -1
   5   1  -2  374.12   28.06  -2
   2   3 -10  374.12   28.06  -3
   3  -1 -14  374.12   28.06   4
   6  -1  -2  365.01   28.45  -1
   3   3  -6  365.01   28.45  -2
   2   1 -14  365.01   28.45  -3
   5  -3 -10  365.01   28.45   4
   5   1  -2  402.66   28.44  -1
   2   3 -10  402.66   28.44  -2
   3  -1 -14  402.66   28.44  -3
   6  -3  -6  402.66   28.44   4
  -5   2 -10  358.07   27.72  -1
   1  -6  -2  358.07   27.72  -2
   3  -2  14  358.07   27.72  -3
  -3   6   6  358.07   27.72   4
  -6   3  -6  309.81   28.29  -1
  -1  -5  -2  309.81   28.29  -2
   2  -3  14  309.81   28.29  -3
  -3   5  10  309.81   28.29   4
  -6   5  -2  305.10   28.42  -1
  -3  -3  -6  305.10   28.42  -2
   2  -5  10  305.10   28.42  -3
  -1   3  14  305.10   28.42   4
  -6   5  -2  338.22   27.76  -1
  -3  -3  -6  338.22   27.76  -2
   2  -5  10  338.22   27.76  -3
  -1   3  14  338.22   27.76   4
  -3  -3  -6  339.12   27.75  -1
   2  -5  10  339.12   27.75  -2
  -1   3  14  339.12   27.75  -3
  -6   5  -2  339.12   27.75   4
   5  -3 -10  396.84   30.66  -1
   6  -1  -2  396.84   30.66  -2
   3   3  -6  396.84   30.66  -3
   2   1 -14  396.84   30.66   4
  -6   3  -6  331.56   27.73  -1
  -1  -5  -2  331.56   27.73  -2
   2  -3  14  331.56   27.73  -3
  -3   5  10  331.56   27.73   4
   3   3   6  368.91   27.67  -1
  -2   5 -10  368.91   27.67  -2
   1  -3 -14  368.91   27.67  -3
   6  -5   2  368.91   27.67   4
   3   3  -6  373.77   28.27  -1
   2   1 -14  373.77   28.27  -2
   5  -3 -10  373.77   28.27  -3
   6  -1  -2  373.77   28.27   4
  -6   3   6  315.40   28.42  -1
  -5  -1   2  315.40   28.42  -2
  -2  -3  10  315.40   28.42  -3
  -3   1  14  315.40   28.42   4
   1  -3 -14  326.30   27.90  -1
   6  -5   2  326.30   27.90  -2
   3   3   6  326.30   27.90  -3
  -2   5 -10  326.30   27.90   4
   3  -1 -14  319.87   28.40  -1
   6  -3  -6  319.87   28.40  -2
   5   1  -2  319.87   28.40  -3
   2   3 -10  319.87   28.40   4
  -5   3  10  340.75   28.08  -1
  -6   1   2  340.75   28.08  -2
  -3  -3   6  340.75   28.08  -3
  -2  -1  14  340.75   28.08   4
   2   3 -10  357.84   28.26  -1
   3  -1 -14  357.84   28.26  -2
   6  -3  -6  357.84   28.26  -3
   5   1  -2  357.84   28.26   4
   3   3   6  330.13   27.98  -1
  -2   5 -10  330.13   27.98  -2
   1  -3 -14  330.13   27.98  -3
   6  -5   2  330.13   27.98   4
  -3  -2 -10  334.77   27.68  -1
   3  -6   6  334.77   27.68  -2
   1   2  14  334.77   27.68  -3
  -5   6  -2  334.77   27.68   4
  -5  -1   2  334.64   28.22  -1
  -2  -3  10  334.64   28.22  -2
  -3   1  14  334.64   28.22  -3
  -6   3   6  334.64   28.22   4
   6  -1  -2  346.78   31.13  -1
   3   3  -6  346.78   31.13  -2
   2   1 -14  346.78   31.13  -3
   5  -3 -10  346.78   31.13   4
  -6   1   2  344.31   28.23  -1
  -3  -3   6  344.31   28.23  -2
  -2  -1  14  344.31   28.23  -3
  -5   3  10  344.31   28.23   4
  -5   6  -2  376.70   28.73  -1
  -3  -2 -10  376.70   28.73  -2
   3  -6   6  376.70   28.73  -3
   1   2  14  376.70   28.73   4
  -6   2  -8  211.98   17.88  -1
   0  -6   0  211.98   17.88  -2
   2  -2  16  211.98   17.88  -3
  -4   6   8  211.98   17.88   4
   4  -6  -8  249.52   18.23  -1
   6  -2   8  249.52   18.23  -2
   0   6   0  249.52   18.23  -3
  -2   2 -16  249.52   18.23   4
  -6   6   0  218.90   18.26  -1
  -4  -2  -8  218.90   18.26  -2
   2  -6   8  218.90   18.26  -3
   0   2  16  218.90   18.26   4
  -6   2  -8  203.31   19.44  -1
   0  -6   0  203.31   19.44  -2
   2  -2  16  203.31   19.44  -3
  -4   6   8  203.31   19.44   4
  -6   0   0  194.69   18.81  -1
  -2  -4   8  194.69   18.81  -2
  -2   0  16  194.69   18.81  -3
  -6   4   8  194.69   18.81   4
   6  -4  -8  234.37   18.69  -1
   6   0   0  234.37   18.69  -2
   2   4  -8  234.37   18.69  -3
   2   0 -16  234.37   18.69   4
  -4   6   8  225.32   19.95  -1
  -6   2  -8  225.32   19.95  -2
   0  -6   0  225.32   19.95  -3
   2  -2  16  225.32   19.95   4
   6   0   0  234.60   22.97  -1
   2   4  -8  234.60   22.97  -2
   2   0 -16  234.60   22.97  -3
   6  -4  -8  234.60   22.97   4
  -4  -2  -8  199.54   18.92  -1
   2  -6   8  199.54   18.92  -2
   0   2  16  199.54   18.92  -3
  -6   6   0  199.54   18.92   4
  -4   6   8  248.42   18.26  -1
  -6   2  -8  248.42   18.26  -2
   0  -6   0  248.42   18.26  -3
   2  -2  16  248.42   18.26   4
  -4  -2  -8  233.63   18.06  -1
   2  -6   8  233.63   18.06  -2
   0   2  16  233.63   18.06  -3
  -6   6   0  233.63   18.06   4
   2   4  -8  237.43   19.04  -1
   2   0 -16  237.43   19.04  -2
   6  -4  -8  237.43   19.04  -3
   6   0   0  237.43   19.04   4
   2   0 -16  219.98   18.76  -1
   6  -4  -8  219.98   18.76  -2
   6   0   0  219.98   18.76  -3
   2   4  -8  219.98   18.76   4
   4   2   8  210.72   18.10  -1
  -2   6  -8  210.72   18.10  -2
   0  -2 -16  210.72   18.10  -3
   6  -6   0  210.72   18.10   4
   6   0   0  228.56   18.81  -1
   2   4  -8  228.56   18.81  -2
   2   0 -16  228.56   18.81  -3
   6  -4  -8  228.56   18.81   4
  -6   4   8  220.38   19.15  -1
  -6   0   0  220.38   19.15  -2
  -2  -4   8  220.38   19.15  -3
  -2   0  16  220.38   19.15   4
  -6   6   0  196.95   19.50  -1
  -4  -2  -8  196.95   19.50  -2
   2  -6   8  196.95   19.50  -3
   0   2  16  196.95   19.50   4
   0  -2 -16  218.70   18.19  -1
   6  -6   0  218.70   18.19  -2
   4   2   8  218.70   18.19  -3
  -2   6  -8  218.70   18.19   4
   6  -4  -8  252.63   22.41  -1
   6   0   0  252.63   22.41  -2
   2   4  -8  252.63   22.41  -3
   2   0 -16  252.63   22.41   4
  -4   3  14  195.35   16.15  -1
  -7   3   2  195.35   16.15  -2
  -4  -3   2  195.35   16.15  -3
  -1  -3  14  195.35   16.15   4
   3  -4 -14  226.79   16.34  -1
   7  -4   2  226.79   16.34  -2
   3   4   2  226.79   16.34  -3
  -1   4 -14  226.79   16.34   4
   3   4   2  207.45   16.31  -1
  -1   4 -14  207.45   16.31  -2
   3  -4 -14  207.45   16.31  -3
   7  -4   2  207.45   16.31   4
   3   4   2  210.44   19.10  -1
  -1   4 -14  210.44   19.10  -2
   3  -4 -14  210.44   19.10  -3
   7  -4   2  210.44   19.10   4
  -4   7  -2  185.96   16.20  -1
  -3  -1 -14  185.96   16.20  -2
   4  -7   2  185.96   16.20  -3
   3   1  14  185.96   16.20   4
   4   3  -2  197.49   19.77  -1
   1   3 -14  197.49   19.77  -2
   4  -3 -14  197.49   19.77  -3
   7  -3  -2  197.49   19.77   4
   4   3  -2  219.96   17.22  -1
   1   3 -14  219.96   17.22  -2
   4  -3 -14  219.96   17.22  -3
   7  -3  -2  219.96   17.22   4
   3  -4 -14  177.81   19.14  -1
   7  -4   2  177.81   19.14  -2
   3   4   2  177.81   19.14  -3
  -1   4 -14  177.81   19.14   4
   4  -3 -14  203.56   16.86  -1
   7  -3  -2  203.56   16.86  -2
   4   3  -2  203.56   16.86  -3
   1   3 -14  203.56   16.86   4
   4  -3 -14  140.65   19.10  -1
   7  -3  -2  140.65   19.10  -2
   4   3  -2  140.65   19.10  -3
   1   3 -14  140.65   19.10   4
  -3   7   2  192.15   16.05  -1
  -4   1 -14  192.15   16.05  -2
   3  -7  -2  192.15   16.05  -3
   4  -1  14  192.15   16.05   4
  -3  -1 -14  201.99   15.88  -1
   4  -7   2  201.99   15.88  -2
   3   1  14  201.99   15.88  -3
  -4   7  -2  201.99   15.88   4
  -4  -3   2  175.44   16.05  -1
  -1  -3  14  175.44   16.05  -2
  -4   3  14  175.44   16.05  -3
  -7   3   2  175.44   16.05   4
  -4   1 -14  186.67   16.08  -1
   3  -7  -2  186.67   16.08  -2
   4  -1  14  186.67   16.08  -3
  -3   7   2  186.67   16.08   4
   4   3   4  191.82   14.90  -1
  -1   5 -12  191.82   14.90  -2
   2  -3 -16  191.82   14.90  -3
   7  -5   0  191.82   14.90   4
  -5   4  12  209.14   15.75  -1
  -7   2   0  209.14   15.75  -2
  -3  -4   4  209.14   15.75  -3
  -1  -2  16  209.14   15.75   4
   5   2   0  189.15   15.58  -1
   1   4 -12  189.15   15.58  -2
   3  -2 -16  189.15   15.58  -3
   7  -4  -4  189.15   15.58   4
   2  -3 -16  165.95   15.69  -1
   7  -5   0  165.95   15.69  -2
   4   3   4  165.95   15.69  -3
  -1   5 -12  165.95   15.69   4
   3   4  -4  160.67   16.26  -1
   1   2 -16  160.67   16.26  -2
   5  -4 -12  160.67   16.26  -3
   7  -2   0  160.67   16.26   4
   2   5   0  172.41   15.58  -1
  -1   3 -16  172.41   15.58  -2
   4  -5 -12  172.41   15.58  -3
   7  -3   4  172.41   15.58   4
  -5  -2   0  200.15   15.35  -1
  -1  -4  12  200.15   15.35  -2
  -3   2  16  200.15   15.35  -3
  -7   4   4  200.15   15.35   4
  -5   7   0  179.99   14.70  -1
  -4  -1 -12  179.99   14.70  -2
   3  -7   4  179.99   14.70  -3
   2   1  16  179.99   14.70   4
  -4   7   4  184.71   14.77  -1
  -5   1 -12  184.71   14.77  -2
   2  -7   0  184.71   14.77  -3
   3  -1  16  184.71   14.77   4
  -4   5  12  200.41   15.20  -1
  -7   3  -4  200.41   15.20  -2
  -2  -5   0  200.41   15.20  -3
   1  -3  16  200.41   15.20   4
  -5   7   0  176.17   16.09  -1
  -4  -1 -12  176.17   16.09  -2
   3  -7   4  176.17   16.09  -3
   2   1  16  176.17   16.09   4
   5  -4 -12  204.19   15.63  -1
   7  -2   0  204.19   15.63  -2
   3   4  -4  204.19   15.63  -3
   1   2 -16  204.19   15.63   4
  -5   1 -12  169.43   14.52  -1
   2  -7   0  169.43   14.52  -2
   3  -1  16  169.43   14.52  -3
  -4   7   4  169.43   14.52   4
  -4  -3  -4  196.81   15.02  -1
   1  -5  12  196.81   15.02  -2
  -2   3  16  196.81   15.02  -3
  -7   5   0  196.81   15.02   4
  -4  -1 -12  158.21   15.74  -1
   3  -7   4  158.21   15.74  -2
   2   1  16  158.21   15.74  -3
  -5   7   0  158.21   15.74   4
   4  -5 -12  156.80   14.83  -1
   7  -3   4  156.80   14.83  -2
   2   5   0  156.80   14.83  -3
  -1   3 -16  156.80   14.83   4
  -5   1 -12  157.32   15.70  -1
   2  -7   0  157.32   15.70  -2
   3  -1  16  157.32   15.70  -3
  -4   7   4  157.32   15.70   4
  -4   7   4  192.89   16.30  -1
  -5   1 -12  192.89   16.30  -2
   2  -7   0  192.89   16.30  -3
   3  -1  16  192.89   16.30   4
  -4  -1 -12  170.73   14.55  -1
   3  -7   4  170.73   14.55  -2
   2   1  16  170.73   14.55  -3
  -5   7   0  170.73   14.55   4
   4   3   4  190.88   17.73  -1
  -1   5 -12  190.88   17.73  -2
   2  -3 -16  190.88   17.73  -3
   7  -5   0  190.88   17.73   4
   5   2   0  159.81   20.23  -1
   1   4 -12  159.81   20.23  -2
   3  -2 -16  159.81   20.23  -3
   7  -4  -4  159.81   20.23   4
   3  -2 -16  179.87   16.23  -1
   7  -4  -4  179.87   16.23  -2
   5   2   0  179.87   16.23  -3
   1   4 -12  179.87   16.23   4
   5  -4 -12  187.36   19.87  -1
   7  -2   0  187.36   19.87  -2
   3   4  -4  187.36   19.87  -3
   1   2 -16  187.36   19.87   4
   4  -5 -12  172.64   17.20  -1
   7  -3   4  172.64   17.20  -2
   2   5   0  172.64   17.20  -3
  -1   3 -16  172.64   17.20   4
   6   1   2  140.02   11.55  -1
   1   5 -10  140.02   11.55  -2
   2  -1 -18  140.02   11.55  -3
   7  -5  -6  140.02   11.55   4
   5   2   6  123.22   12.29  -1
  -1   6 -10  123.22   12.29  -2
   1  -2 -18  123.22   12.29  -3
   7  -6  -2  123.22   12.29   4
   5  -6 -10  122.68   12.76  -1
   7  -2   6  122.68   12.76  -2
   1   6  -2  122.68   12.76  -3
  -1   2 -18  122.68   12.76   4
  -5   7   6  104.10   10.58  -1
  -6   1 -10  104.10   10.58  -2
   1  -7   2  104.10   10.58  -3
   2  -1  18  104.10   10.58   4
   1   6  -2  117.56   10.92  -1
  -1   2 -18  117.56   10.92  -2
   5  -6 -10  117.56   10.92  -3
   7  -2   6  117.56   10.92   4
   5   2   6  122.59    9.95  -1
  -1   6 -10  122.59    9.95  -2
   1  -2 -18  122.59    9.95  -3
   7  -6  -2  122.59    9.95   4
  -6  -1  -2   99.16   12.13  -1
  -1  -5  10   99.16   12.13  -2
  -2   1  18   99.16   12.13  -3
  -7   5   6   99.16   12.13   4
   6  -5 -10  114.14   16.49  -1
   7  -1   2  114.14   16.49  -2
   2   5  -6  114.14   16.49  -3
   1   1 -18  114.14   16.49   4
  -6   7   2   93.82   14.47  -1
  -5  -1 -10   93.82   14.47  -2
   2  -7   6   93.82   14.47  -3
   1   1  18   93.82   14.47   4
   2   5  -6  123.45   12.57  -1
   1   1 -18  123.45   12.57  -2
   6  -5 -10  123.45   12.57  -3
   7  -1   2  123.45   12.57   4
   6   1   2  126.65   16.89  -1
   1   5 -10  126.65   16.89  -2
   2  -1 -18  126.65   16.89  -3
   7  -5  -6  126.65   16.89   4
   2  -1 -18  127.81   12.02  -1
   7  -5  -6  127.81   12.02  -2
   6   1   2  127.81   12.02  -3
   1   5 -10  127.81   12.02   4
  -6   7   2  100.58   10.72  -1
  -5  -1 -10  100.58   10.72  -2
   2  -7   6  100.58   10.72  -3
   1   1  18  100.58   10.72   4
  -5  -1 -10   92.20    9.99  -1
   2  -7   6   92.20    9.99  -2
   1   1  18   92.20    9.99  -3
  -6   7   2   92.20    9.99   4
   1  -2 -18  119.05   11.33  -1
   7  -6  -2  119.05   11.33  -2
   5   2   6  119.05   11.33  -3
  -1   6 -10  119.05   11.33   4
  -5  -2  -6   92.81   10.68  -1
   1  -6  10   92.81   10.68  -2
  -1   2  18   92.81   10.68  -3
  -7   6   2   92.81   10.68   4
  -6   1 -10   88.13   10.26  -1
   1  -7   2   88.13   10.26  -2
   2  -1  18   88.13   10.26  -3
  -5   7   6   88.13   10.26   4
  -6   5  10  116.35   12.03  -1
  -7   1  -2  116.35   12.03  -2
  -2  -5   6  116.35   12.03  -3
  -1  -1  18  116.35   12.03   4
   5  -6 -10  119.20   10.08  -1
   7  -2   6  119.20   10.08  -2
   1   6  -2  119.20   10.08  -3
  -1   2 -18  119.20   10.08   4
   6  -5 -10  115.26   11.07  -1
   7  -1   2  115.26   11.07  -2
   2   5  -6  115.26   11.07  -3
   1   1 -18  115.26   11.07   4
  -5   7   6  122.26   14.40  -1
  -6   1 -10  122.26   14.40  -2
   1  -7   2  122.26   14.40  -3
   2  -1  18  122.26   14.40   4
  -6   1 -10  123.03   13.32  -1
   1  -7   2  123.03   13.32  -2
   2  -1  18  123.03   13.32  -3
  -5   7   6  123.03   13.32   4
  -5   6  10  128.84   11.18  -1
  -7   2  -6  128.84   11.18  -2
  -1  -6   2  128.84   11.18  -3
   1  -2  18  128.84   11.18   4
  -5  -1 -10   91.12   13.02  -1
   2  -7   6   91.12   13.02  -2
   1   1  18   91.12   13.02  -3
  -6   7   2   91.12   13.02   4
  -5   0   7  158.05   16.17  -1
  -4  -1   9  158.05   16.17  -2
  -4   0  11  158.05   16.17  -3
  -5   1   9  158.05   16.17   4
   5  -1  -9  206.88   16.26  -1
   5   0  -7  206.88   16.26  -2
   4   1  -9  206.88   16.26  -3
   4   0 -11  206.88   16.26   4
   4   0 -11  170.68   17.15  -1
   5  -1  -9  170.68   17.15  -2
   5   0  -7  170.68   17.15  -3
   4   1  -9  170.68   17.15   4
   5   0  -7  189.03   20.34  -1
   4   1  -9  189.03   20.34  -2
   4   0 -11  189.03   20.34  -3
   5  -1  -9  189.03   20.34   4
   5   0  -7  204.20   16.93  -1
   4   1  -9  204.20   16.93  -2
   4   0 -11  204.20   16.93  -3
   5  -1  -9  204.20   16.93   4
   4   1  -9  191.78   16.59  -1
   4   0 -11  191.78   16.59  -2
   5  -1  -9  191.78   16.59  -3
   5   0  -7  191.78   16.59   4
  -5   5  -7  182.29   15.39  -1
  -1  -4  -9  182.29   15.39  -2
   4  -5   9  182.29   15.39  -3
   0   4  11  182.29   15.39   4
   5  -1  -9  182.11   18.84  -1
   5   0  -7  182.11   18.84  -2
   4   1  -9  182.11   18.84  -3
   4   0 -11  182.11   18.84   4
  -4  -1   9  167.49   15.39  -1
  -4   0  11  167.49   15.39  -2
  -5   1   9  167.49   15.39  -3
  -5   0   7  167.49   15.39   4
  -5   1   9  204.97   15.84  -1
  -5   0   7  204.97   15.84  -2
  -4  -1   9  204.97   15.84  -3
  -4   0  11  204.97   15.84   4
  -4   0  11  191.52   15.75  -1
  -5   1   9  191.52   15.75  -2
  -5   0   7  191.52   15.75  -3
  -4  -1   9  191.52   15.75   4
  -5   4  -9  196.85   15.39  -1
   0  -5  -7  196.85   15.39  -2
   4  -4  11  196.85   15.39  -3
  -1   5   9  196.85   15.39   4
  -5  -1   5  128.65   12.94  -1
  -3  -2  11  128.65   12.94  -2
  -4   1  13  128.65   12.94  -3
  -6   2   7  128.65   12.94   4
  -2   6   7  140.30   12.51  -1
  -5   3 -11  140.30   12.51  -2
   1  -6  -5  140.30   12.51  -3
   4  -3  13  140.30   12.51   4
   4  -1 -13  140.53   14.18  -1
   6  -2  -7  140.53   14.18  -2
   5   1  -5  140.53   14.18  -3
   3   2 -11  140.53   14.18   4
   5   1  -5  141.71   14.02  -1
   3   2 -11  141.71   14.02  -2
   4  -1 -13  141.71   14.02  -3
   6  -2  -7  141.71   14.02   4
  -5   2  11  126.16   13.13  -1
  -6   1   5  126.16   13.13  -2
  -4  -2   7  126.16   13.13  -3
  -3  -1  13  126.16   13.13   4
  -6   5  -5  103.28   13.64  -1
  -2  -4  -7  103.28   13.64  -2
   3  -5  11  103.28   13.64  -3
  -1   4  13  103.28   13.64   4
   1  -4 -13  157.26   12.66  -1
   6  -5   5  157.26   12.66  -2
   2   4   7  157.26   12.66  -3
  -3   5 -11  157.26   12.66   4
   1  -4 -13  156.92   11.44  -1
   6  -5   5  156.92   11.44  -2
   2   4   7  156.92   11.44  -3
  -3   5 -11  156.92   11.44   4
   2   4   7  120.16   11.38  -1
  -3   5 -11  120.16   11.38  -2
   1  -4 -13  120.16   11.38  -3
   6  -5   5  120.16   11.38   4
  -1   6   5  135.16   11.17  -1
  -4   3 -13  135.16   11.17  -2
   2  -6  -7  135.16   11.17  -3
   5  -3  11  135.16   11.17   4
   3   1 -13  148.23   13.83  -1
   5  -2 -11  148.23   13.83  -2
   6  -1  -5  148.23   13.83  -3
   4   2  -7  148.23   13.83   4
   6  -2  -7   96.68   18.07  -1
   5   1  -5   96.68   18.07  -2
   3   2 -11   96.68   18.07  -3
   4  -1 -13   96.68   18.07   4
  -6   4  -7  140.84   11.84  -1
  -1  -5  -5  140.84   11.84  -2
   3  -4  13  140.84   11.84  -3
  -2   5  11  140.84   11.84   4
  -6   2   7  141.70   13.85  -1
  -5  -1   5  141.70   13.85  -2
  -3  -2  11  141.70   13.85  -3
  -4   1  13  141.70   13.85   4
   3   2 -11  136.95   13.32  -1
   4  -1 -13  136.95   13.32  -2
   6  -2  -7  136.95   13.32  -3
   5   1  -5  136.95   13.32   4
  -4   1  13  159.22   12.47  -1
  -6   2   7  159.22   12.47  -2
  -5  -1   5  159.22   12.47  -3
  -3  -2  11  159.22   12.47   4
   1   5   5  129.47   11.46  -1
  -3   4 -13  129.47   11.46  -2
   2  -5 -11  129.47   11.46  -3
   6  -4   7  129.47   11.46   4
  -6   5  -5  133.71   11.94  -1
  -2  -4  -7  133.71   11.94  -2
   3  -5  11  133.71   11.94  -3
  -1   4  13  133.71   11.94   4
   6  -1  -5  153.97   12.94  -1
   4   2  -7  153.97   12.94  -2
   3   1 -13  153.97   12.94  -3
   5  -2 -11  153.97   12.94   4
   6  -1  -5  150.22   18.23  -1
   4   2  -7  150.22   18.23  -2
   3   1 -13  150.22   18.23  -3
   5  -2 -11  150.22   18.23   4
   2   4   7  157.49   11.21  -1
  -3   5 -11  157.49   11.21  -2
   1  -4 -13  157.49   11.21  -3
   6  -5   5  157.49   11.21   4
  -5   6  -5  129.30   12.17  -1
  -2  -3 -11  129.30   12.17  -2
   4  -6   7  129.30   12.17  -3
   1   3  13  129.30   12.17   4
   6  -2  -7  157.80   13.01  -1
   5   1  -5  157.80   13.01  -2
   3   2 -11  157.80   13.01  -3
   4  -1 -13  157.80   13.01   4
   4   2  -7  168.24   14.51  -1
   3   1 -13  168.24   14.51  -2
   5  -2 -11  168.24   14.51  -3
   6  -1  -5  168.24   14.51   4
  -1   6   5  137.92   11.53  -1
  -4   3 -13  137.92   11.53  -2
   2  -6  -7  137.92   11.53  -3
   5  -3  11  137.92   11.53   4
  -2   6   7  149.82   11.40  -1
  -5   3 -11  149.82   11.40  -2
   1  -6  -5  149.82   11.40  -3
   4  -3  13  149.82   11.40   4
  -5   3 -11  148.84   12.48  -1
   1  -6  -5  148.84   12.48  -2
   4  -3  13  148.84   12.48  -3
  -2   6   7  148.84   12.48   4
  -6   4  -7  157.06   13.51  -1
  -1  -5  -5  157.06   13.51  -2
   3  -4  13  157.06   13.51  -3
  -2   5  11  157.06   13.51   4
   5  -2 -11  142.14   18.80  -1
   6  -1  -5  142.14   18.80  -2
   4   2  -7  142.14   18.80  -3
   3   1 -13  142.14   18.80   4
   5   1  -5  130.68   19.21  -1
   3   2 -11  130.68   19.21  -2
   4  -1 -13  130.68   19.21  -3
   6  -2  -7  130.68   19.21   4
  -6   1   5  141.39   13.75  -1
  -4  -2   7  141.39   13.75  -2
  -3  -1  13  141.39   13.75  -3
  -5   2  11  141.39   13.75   4
   2  -5 -11  143.85   11.83  -1
   6  -4   7  143.85   11.83  -2
   1   5   5  143.85   11.83  -3
  -3   4 -13  143.85   11.83   4
  -6   3   9  114.48   12.48  -1
  -6   0   3  114.48   12.48  -2
  -3  -3   9  114.48   12.48  -3
  -3   0  15  114.48   12.48   4
   6   0  -3  159.64   20.17  -1
   3   3  -9  159.64   20.17  -2
   3   0 -15  159.64   20.17  -3
   6  -3  -9  159.64   20.17   4
  -6   6  -3   95.85   11.61  -1
  -3  -3  -9   95.85   11.61  -2
   3  -6   9   95.85   11.61  -3
   0   3  15   95.85   11.61   4
  -6   3  -9  110.53   10.04  -1
   0  -6  -3  110.53   10.04  -2
   3  -3  15  110.53   10.04  -3
  -3   6   9  110.53   10.04   4
  -6   3  -9  100.24   11.34  -1
   0  -6  -3  100.24   11.34  -2
   3  -3  15  100.24   11.34  -3
  -3   6   9  100.24   11.34   4
   0   6   3  113.38    9.83  -1
  -3   3 -15  113.38    9.83  -2
   3  -6  -9  113.38    9.83  -3
   6  -3   9  113.38    9.83   4
   3   3  -9  113.10   12.95  -1
   3   0 -15  113.10   12.95  -2
   6  -3  -9  113.10   12.95  -3
   6   0  -3  113.10   12.95   4
  -6   6  -3   91.13   10.26  -1
  -3  -3  -9   91.13   10.26  -2
   3  -6   9   91.13   10.26  -3
   0   3  15   91.13   10.26   4
  -6   0   3  109.35   12.06  -1
  -3  -3   9  109.35   12.06  -2
  -3   0  15  109.35   12.06  -3
  -6   3   9  109.35   12.06   4
   3   0 -15  126.28   12.47  -1
   6  -3  -9  126.28   12.47  -2
   6   0  -3  126.28   12.47  -3
   3   3  -9  126.28   12.47   4
  -3   6   9  118.88   10.12  -1
  -6   3  -9  118.88   10.12  -2
   0  -6  -3  118.88   10.12  -3
   3  -3  15  118.88   10.12   4
   6   0  -3  137.38   12.60  -1
   3   3  -9  137.38   12.60  -2
   3   0 -15  137.38   12.60  -3
   6  -3  -9  137.38   12.60   4
   4  -2 -15  130.95   12.29  -1
   7  -3  -5  130.95   12.29  -2
   5   2  -3  130.95   12.29  -3
   2   3 -13  130.95   12.29   4
   5   2  -3   89.37   18.79  -1
   2   3 -13   89.37   18.79  -2
   4  -2 -15   89.37   18.79  -3
   7  -3  -5   89.37   18.79   4
  -5   7  -3  101.40    9.43  -1
  -3  -2 -13  101.40    9.43  -2
   4  -7   5  101.40    9.43  -3
   2   2  15  101.40    9.43   4
  -3   7   5   96.15    8.22  -1
  -5   2 -13   96.15    8.22  -2
   2  -7  -3   96.15    8.22  -3
   4  -2  15   96.15    8.22   4
  -2   7   3   98.01    8.58  -1
  -4   2 -15   98.01    8.58  -2
   3  -7  -5   98.01    8.58  -3
   5  -2  13   98.01    8.58   4
   2   5   3   66.42   10.84  -1
  -2   4 -15   66.42   10.84  -2
   3  -5 -13   66.42   10.84  -3
   7  -4   5   66.42   10.84   4
   5  -3 -13  108.78   10.45  -1
   7  -2  -3  108.78   10.45  -2
   4   3  -5  108.78   10.45  -3
   2   2 -15  108.78   10.45   4
   3   4   5   74.37   11.34  -1
  -2   5 -13   74.37   11.34  -2
   2  -4 -15   74.37   11.34  -3
   7  -5   3   74.37   11.34   4
  -5   3  13   95.89    9.89  -1
  -7   2   3   95.89    9.89  -2
  -4  -3   5   95.89    9.89  -3
  -2  -2  15   95.89    9.89   4
   5  -3 -13   93.30   16.92  -1
   7  -2  -3   93.30   16.92  -2
   4   3  -5   93.30   16.92  -3
   2   2 -15   93.30   16.92   4
  -5  -2   3   99.98    9.83  -1
  -2  -3  13   99.98    9.83  -2
  -4   2  15   99.98    9.83  -3
  -7   3   5   99.98    9.83   4
  -5   2 -13   97.88    9.89  -1
   2  -7  -3   97.88    9.89  -2
   4  -2  15   97.88    9.89  -3
  -3   7   5   97.88    9.89   4
   2   5   3  100.16    9.03  -1
  -2   4 -15  100.16    9.03  -2
   3  -5 -13  100.16    9.03  -3
   7  -4   5  100.16    9.03   4
   3   4   5   85.23    8.51  -1
  -2   5 -13   85.23    8.51  -2
   2  -4 -15   85.23    8.51  -3
   7  -5   3   85.23    8.51   4
   4   3  -5   83.05   12.83  -1
   2   2 -15   83.05   12.83  -2
   5  -3 -13   83.05   12.83  -3
   7  -2  -3   83.05   12.83   4
  -5   7  -3  100.62   10.00  -1
  -3  -2 -13  100.62   10.00  -2
   4  -7   5  100.62   10.00  -3
   2   2  15  100.62   10.00   4
  -3   7   5   88.00    9.70  -1
  -5   2 -13   88.00    9.70  -2
   2  -7  -3   88.00    9.70  -3
   4  -2  15   88.00    9.70   4
  -3   5  13  118.51    8.54  -1
  -7   4  -5  118.51    8.54  -2
  -2  -5  -3  118.51    8.54  -3
   2  -4  15  118.51    8.54   4
   5   2  -3  108.90   11.55  -1
   2   3 -13  108.90   11.55  -2
   4  -2 -15  108.90   11.55  -3
   7  -3  -5  108.90   11.55   4
  -4   6  11   92.55    8.01  -1
  -7   3  -7   92.55    8.01  -2
  -1  -6  -1   92.55    8.01  -3
   2  -3  17   92.55    8.01   4
  -6  -1   1   67.03    9.72  -1
  -2  -4  11   67.03    9.72  -2
  -3   1  17   67.03    9.72  -3
  -7   4   7   67.03    9.72   4
  -6   2 -11   63.21    7.54  -1
   1  -7  -1   63.21    7.54  -2
   3  -2  17   63.21    7.54  -3
  -4   7   7   63.21    7.54   4
  -6   7  -1   60.45   10.99  -1
  -4  -2 -11   60.45   10.99  -2
   3  -7   7   60.45   10.99  -3
   1   2  17   60.45   10.99   4
  -4   7   7   92.75    7.28  -1
  -6   2 -11   92.75    7.28  -2
   1  -7  -1   92.75    7.28  -3
   3  -2  17   92.75    7.28   4
  -4   7   7   87.15   10.69  -1
  -6   2 -11   87.15   10.69  -2
   1  -7  -1   87.15   10.69  -3
   3  -2  17   87.15   10.69   4
   4   3   7   71.69    6.86  -1
  -2   6 -11   71.69    6.86  -2
   1  -3 -17   71.69    6.86  -3
   7  -6   1   71.69    6.86   4
  -6   7  -1   54.10    7.85  -1
  -4  -2 -11   54.10    7.85  -2
   3  -7   7   54.10    7.85  -3
   1   2  17   54.10    7.85   4
   4   3   7   76.00    8.30  -1
  -2   6 -11   76.00    8.30  -2
   1  -3 -17   76.00    8.30  -3
   7  -6   1   76.00    8.30   4
   1   6   1   81.21    8.20  -1
  -2   3 -17   81.21    8.20  -2
   4  -6 -11   81.21    8.20  -3
   7  -3   7   81.21    8.20   4
  -6   4  11   87.00   10.49  -1
  -7   1   1   87.00   10.49  -2
  -3  -4   7   87.00   10.49  -3
  -2  -1  17   87.00   10.49   4
   6   1  -1   53.87   16.44  -1
   2   4 -11   53.87   16.44  -2
   3  -1 -17   53.87   16.44  -3
   7  -4  -7   53.87   16.44   4
   6   1  -1   69.39   10.37  -1
   2   4 -11   69.39   10.37  -2
   3  -1 -17   69.39   10.37  -3
   7  -4  -7   69.39   10.37   4
  -6   2 -11   82.36   10.23  -1
   1  -7  -1   82.36   10.23  -2
   3  -2  17   82.36   10.23  -3
  -4   7   7   82.36   10.23   4
;
_shelx_hkl_checksum              3915
loop_
_space_group_symop_operation_xyz
'x, y, z'
'-y, x-y, z'
'-x+y, -x, z'
'-y, -x, z'
'-x+y, y, z'
'x, x-y, z'
'x+2/3, y+1/3, z+1/3'
'-y+2/3, x-y+1/3, z+1/3'
'-x+y+2/3, -x+1/3, z+1/3'
'-y+2/3, -x+1/3, z+1/3'
'-x+y+2/3, y+1/3, z+1/3'
'x+2/3, x-y+1/3, z+1/3'
'x+1/3, y+2/3, z+2/3'
'-y+1/3, x-y+2/3, z+2/3'
'-x+y+1/3, -x+2/3, z+2/3'
'-y+1/3, -x+2/3, z+2/3'
'-x+y+1/3, y+2/3, z+2/3'
'x+1/3, x-y+2/3, z+2/3'
loop_
_atom_site_label
_atom_site_type_symbol
_atom_site_fract_x
_atom_site_fract_y
_atom_site_fract_z
_atom_site_U_iso_or_equiv
_atom_site_adp_type
_atom_site_occupancy
_atom_site_site_symmetry_order
_atom_site_calc_flag
_atom_site_refinement_flags_posn
_atom_site_refinement_flags_adp
_atom_site_refinement_flags_occupancy
_atom_site_disorder_assembly
_atom_site_disorder_group
Ge1 Ge 0.0000 0.0000 0.0203(12) 0.018(4) Uani 0.7693 6 d S T P . .
Sb1 Sb 0.0000 0.0000 0.0203(12) 0.018(4) Uani 0.1538 6 d S T P . .
Te2 Te 0.0000 0.0000 0.5000 0.0200(15) Uani 1 6 d S T P . .
loop_
_atom_site_aniso_label
_atom_site_aniso_U_11
_atom_site_aniso_U_22
_atom_site_aniso_U_33
_atom_site_aniso_U_23
_atom_site_aniso_U_13
_atom_site_aniso_U_12
Ge1 0.019(6) 0.019(6) 0.016(7) 0.000 0.000 0.010(3)
Sb1 0.019(6) 0.019(6) 0.016(7) 0.000 0.000 0.010(3)
Te2 0.021(4) 0.021(4) 0.018(7) 0.000 0.000 0.010(2)
loop_
_atom_type_symbol
_atom_type_description
_atom_type_scat_dispersion_real
_atom_type_scat_dispersion_imag
_atom_type_scat_source
Ge Ge 0.2870 0.3609 'International Tables Vol C Tables 4.2.6.8 and 6.1.1.4'
Sb Sb 0.0537 2.0709 'International Tables Vol C Tables 4.2.6.8 and 6.1.1.4'
Te Te -0.0510 2.2176 'International Tables Vol C Tables 4.2.6.8 and 6.1.1.4'
loop_
_geom_angle_atom_site_label_1
_geom_angle_atom_site_label_2
_geom_angle_atom_site_label_3
_geom_angle
_geom_angle_site_symmetry_1
_geom_angle_site_symmetry_3
Te2 Ge1 Te2 94.7(3) 13_554 13_444
Te2 Ge1 Te2 94.7(3) 13_554 13_544
Te2 Ge1 Te2 94.7(3) 13_444 13_544
Sb1 Te2 Ge1 0.0 7_445 7_445
Sb1 Te2 Sb1 94.7(3) 7_445 7
Ge1 Te2 Sb1 94.7(3) 7_445 7
Sb1 Te2 Ge1 94.7 7_445 7
Ge1 Te2 Ge1 94.7(3) 7_445 7
Sb1 Te2 Ge1 0.0 7 7
Sb1 Te2 Ge1 94.7 7_445 7_455
Ge1 Te2 Ge1 94.7(3) 7_445 7_455
Sb1 Te2 Ge1 94.7 7 7_455
Ge1 Te2 Ge1 94.7(3) 7 7_455
Sb1 Te2 Sb1 94.7(3) 7_445 7_455
Ge1 Te2 Sb1 94.7(3) 7_445 7_455
Sb1 Te2 Sb1 94.7(3) 7 7_455
Ge1 Te2 Sb1 94.7(3) 7 7_455
Ge1 Te2 Sb1 0.0(4) 7_455 7_455
Sb1 Te2 Sb1 173.4(4) 7_445 13
Ge1 Te2 Sb1 173.4(4) 7_445 13
Sb1 Te2 Sb1 89.72(4) 7 13
Ge1 Te2 Sb1 89.72(4) 7 13
Ge1 Te2 Sb1 89.72(4) 7_455 13
Sb1 Te2 Sb1 89.72(4) 7_455 13
Sb1 Te2 Sb1 89.72(4) 7_445 13_445
Ge1 Te2 Sb1 89.72(4) 7_445 13_445
Sb1 Te2 Sb1 173.4(4) 7 13_445
Ge1 Te2 Sb1 173.4(4) 7 13_445
Ge1 Te2 Sb1 89.72(4) 7_455 13_445
Sb1 Te2 Sb1 89.72(4) 7_455 13_445
Sb1 Te2 Sb1 85.5(3) 13 13_445
Sb1 Te2 Sb1 89.72(4) 7_445 13_545
Ge1 Te2 Sb1 89.72(4) 7_445 13_545
Sb1 Te2 Sb1 89.72(4) 7 13_545
Ge1 Te2 Sb1 89.72(4) 7 13_545
Ge1 Te2 Sb1 173.4(4) 7_455 13_545
Sb1 Te2 Sb1 173.4(4) 7_455 13_545
Sb1 Te2 Sb1 85.5(3) 13 13_545
Sb1 Te2 Sb1 85.5(3) 13_445 13_545
loop_
_geom_bond_atom_site_label_1
_geom_bond_atom_site_label_2
_geom_bond_distance
_geom_bond_site_symmetry_2
Ge1 Te2 2.878(7) 13_554
Ge1 Te2 2.878(7) 13_444
Ge1 Te2 2.878(7) 13_544
Te2 Sb1 2.878(7) 7_445
Te2 Ge1 2.878(7) 7_445
Te2 Sb1 2.878(7) 7
Te2 Ge1 2.878(7) 7
Te2 Ge1 2.878(7) 7_455
Te2 Sb1 2.878(7) 7_455
Te2 Sb1 3.121(8) 13
Te2 Sb1 3.121(8) 13_445
Te2 Sb1 3.121(8) 13_545
