#------------------------------------------------------------------------------
#$Date: 2019-10-11 12:23:33 +0300 (Fri, 11 Oct 2019) $
#$Revision: 219292 $
#$URL: file:///home/coder/svn-repositories/cod/cif/7/23/45/7234559.cif $
#------------------------------------------------------------------------------
#
# This file is available in the Crystallography Open Database (COD),
# http://www.crystallography.net/
#
# All data on this site have been placed in the public domain by the
# contributors.
#
data_7234559
loop_
_publ_author_name
'Miroslaw Maczka'
'Aneta Ciupa'
'Anna Gagor'
'Adam Sieradzki'
'Adam Pikul'
'Maciej Ptak'
_publ_section_title
;
 Structural, magnetic and dielectric properties of two novel mixed-valence
 iron(ii)-iron(iii) metal formate frameworks
;
_journal_name_full               'Journal of Materials Chemistry C'
_journal_page_first              1186
_journal_page_last               1193
_journal_paper_doi               10.1039/C5TC03683F
_journal_volume                  4
_journal_year                    2016
_chemical_formula_sum            'C8 H14 Fe2 N O12'
_chemical_formula_weight         427.90
_space_group_crystal_system      trigonal
_space_group_IT_number           163
_space_group_name_Hall           '-P 3 2c'
_space_group_name_H-M_alt        'P -3 1 c'
_atom_sites_solution_hydrogens   geom
_cell_angle_alpha                90
_cell_angle_beta                 90
_cell_angle_gamma                120
_cell_formula_units_Z            2
_cell_length_a                   8.2294(2)
_cell_length_b                   8.2294(2)
_cell_length_c                   14.1221(5)
_cell_measurement_reflns_used    4286
_cell_measurement_temperature    298(2)
_cell_measurement_theta_max      27.5869
_cell_measurement_theta_min      2.8524
_cell_volume                     828.26(4)
_computing_cell_refinement
;
CrysAlisPro, Oxford Diffraction Ltd.,
Version 1.171.34.44 (release 25-10-2010 CrysAlis171 .NET)
(compiled Oct 25 2010,18:11:34)
;
_computing_data_collection
;
CrysAlisPro, Oxford Diffraction Ltd.,
Version 1.171.34.44 (release 25-10-2010 CrysAlis171 .NET)
(compiled Oct 25 2010,18:11:34)
;
_computing_data_reduction
;
CrysAlisPro, Oxford Diffraction Ltd.,
Version 1.171.34.44 (release 25-10-2010 CrysAlis171 .NET)
(compiled Oct 25 2010,18:11:34)
;
_computing_structure_refinement  'SHELXL-2014/7 (Sheldrick, 2014)'
_diffrn_ambient_temperature      298(2)
_diffrn_detector_area_resol_mean 8.4350
_diffrn_measured_fraction_theta_full 0.992
_diffrn_measured_fraction_theta_max 0.992
_diffrn_measurement_device_type  'Xcalibur, Sapphire1, long nozzle'
_diffrn_radiation_monochromator  graphite
_diffrn_radiation_source         'Enhance (Mo) X-ray Source'
_diffrn_radiation_type           'Mo K\a'
_diffrn_radiation_wavelength     0.7107
_diffrn_reflns_av_R_equivalents  0.0324
_diffrn_reflns_av_unetI/netI     0.0153
_diffrn_reflns_Laue_measured_fraction_full 0.992
_diffrn_reflns_Laue_measured_fraction_max 0.992
_diffrn_reflns_limit_h_max       10
_diffrn_reflns_limit_h_min       -10
_diffrn_reflns_limit_k_max       10
_diffrn_reflns_limit_k_min       -10
_diffrn_reflns_limit_l_max       17
_diffrn_reflns_limit_l_min       -17
_diffrn_reflns_number            8996
_diffrn_reflns_point_group_measured_fraction_full 0.992
_diffrn_reflns_point_group_measured_fraction_max 0.992
_diffrn_reflns_theta_full        25.242
_diffrn_reflns_theta_max         25.671
_diffrn_reflns_theta_min         2.858
_exptl_absorpt_coefficient_mu    1.809
_exptl_absorpt_correction_T_max  1.00000
_exptl_absorpt_correction_T_min  0.87434
_exptl_absorpt_correction_type   multi-scan
_exptl_absorpt_process_details
;
CrysAlisPro, Oxford Diffraction Ltd.,
Version 1.171.34.44 (release 25-10-2010 CrysAlis171 .NET)
(compiled Oct 25 2010,18:11:34)
Empirical absorption correction using spherical harmonics,
 implemented in SCALE3 ABSPACK scaling algorithm.
;
_exptl_crystal_colour            black
_exptl_crystal_density_diffrn    1.716
_exptl_crystal_description       rhomboidal
_exptl_crystal_F_000             434
_exptl_crystal_size_max          0.10
_exptl_crystal_size_mid          0.08
_exptl_crystal_size_min          0.07
_refine_diff_density_max         1.004
_refine_diff_density_min         -0.536
_refine_diff_density_rms         0.105
_refine_ls_extinction_coef       .
_refine_ls_extinction_method     none
_refine_ls_goodness_of_fit_ref   1.093
_refine_ls_hydrogen_treatment    constr
_refine_ls_matrix_type           full
_refine_ls_number_parameters     39
_refine_ls_number_reflns         527
_refine_ls_number_restraints     2
_refine_ls_restrained_S_all      1.108
_refine_ls_R_factor_all          0.0458
_refine_ls_R_factor_gt           0.0379
_refine_ls_shift/su_max          0.000
_refine_ls_shift/su_mean         0.000
_refine_ls_structure_factor_coef Fsqd
_refine_ls_weighting_details
'w=1/[\s^2^(Fo^2^)+(0.0600P)^2^+2.3000P] where P=(Fo^2^+2Fc^2^)/3'
_refine_ls_weighting_scheme      calc
_refine_ls_wR_factor_gt          0.1059
_refine_ls_wR_factor_ref         0.1128
_reflns_Friedel_coverage         0.000
_reflns_Friedel_fraction_full    .
_reflns_Friedel_fraction_max     .
_reflns_number_gt                459
_reflns_number_total             527
_reflns_threshold_expression     'I > 2\s(I)'
_cod_data_source_file            J-Mater-Chem-C-2016-4-1186.cif
_cod_data_source_block           1
_cod_original_cell_volume        828.26(5)
_cod_database_code               7234559
_shelx_space_group_comment
;
The symmetry employed for this shelxl refinement is uniquely defined
by the following loop, which should always be used as a source of
symmetry information in preference to the above space-group names.
They are only intended as comments.
;
_shelx_res_file
;

    1.res created by SHELXL-2014/7


TITL 1 in P-31c
CELL 0.71073   8.2294   8.2294  14.1221  90.000  90.000 120.000
ZERR    2.00   0.0002   0.0002   0.0005   0.000   0.000   0.000
LATT  1
SYMM -Y, X-Y, Z
SYMM -X+Y, -X, Z
SYMM -Y, -X, 0.5-Z
SYMM -X+Y, Y, 0.5-Z
SYMM X, X-Y, 0.5-Z
SFAC C H N O FE
UNIT 16 28 2 24 4
L.S. 20
BOND
FMAP 2
PLAN 20
acta
eqiv $11  -y+1, x-y+1, z
eqiv $12  -x+y, -x+1, z
eqiv $3   -y+1, -x+1, -z+1/2
free n1 n1_$11
free n1 n1_$12
free c4 C3_$3
free c4 c4_$11
free c4 c4_$12

free C3 c4_$12
free C3 c4_$11
free C3 n1_$11
free C3 n1_$12
free C3 C3_$3
bond $H
htab
WGHT    0.060000    2.300000
FVAR       1.44767
MOLE   1
FE1   5    0.666667    0.333333    0.250000    10.16667    0.01569    0.01569 =
         0.01941    0.00000    0.00000    0.00785
FE2   5    1.000000    0.000000    0.000000    10.16667    0.01506    0.01506 =
         0.01575    0.00000    0.00000    0.00753
O1    4    0.662003    0.115394    0.167577    11.00000    0.03296    0.03154 =
         0.03932   -0.00427    0.01301    0.01700
O2    4    0.794679   -0.008339    0.080329    11.00000    0.02685    0.02418 =
         0.03345   -0.00123    0.00979    0.01376
C1    1    0.791238    0.126513    0.118772    11.00000    0.02570    0.02534 =
         0.03638   -0.00215    0.00709    0.01330

eadp  c3 c4
AFIX  43
H1    2    0.894881    0.245256    0.109814    11.00000   -1.20000
AFIX   0

part 1
dfix 1.42 n1 c3
dfix 1.45 c4 c3
C4    1    0.268005    0.731995    0.250000    10.16667    0.06557
AFIX 137
H4A   2    0.368622    0.848727    0.273334    10.16667   -1.50000
H4B   2    0.220117    0.641910    0.300512    10.16667   -1.50000
H4C   2    0.169581    0.751043    0.226092    10.16667   -1.50000
AFIX   0

C3    1    0.333333    0.666667    0.178607    10.16667    0.06557
AFIX  23
H3A   2    0.278374    0.534568    0.193834    10.16667   -1.20000
H3B   2    0.465432    0.721626    0.193834    10.16667   -1.20000
AFIX   0
N1    3    0.333333    0.666667    0.080034    10.16667    0.04173
AFIX 137
H1A   2    0.225647    0.571600    0.059027    10.16667   -1.50000
H1B   2    0.428400    0.654047    0.059027    10.16667   -1.50000
H1C   2    0.345953    0.774353    0.059027    10.16667   -1.50000

AFIX   0
HKLF 4

REM  1 in P-31c
REM R1 =  0.0379 for     459 Fo > 4sig(Fo)  and  0.0458 for all     527 data
REM     39 parameters refined using      2 restraints

END

WGHT      0.0580      2.2939

REM Instructions for potential hydrogen bonds
EQIV $13 -y+1, x-y, z
HTAB C1 O1_$13
EQIV $14 -x+y+1, y+1, -z+1/2
HTAB C4 O1_$14
HTAB C4 N1_$3
EQIV $15 -y, x-y, z
HTAB C4 O1_$15
HTAB C4 O2_$15

REM Highest difference peak  1.004,  deepest hole -0.536,  1-sigma level  0.105
Q1    1   0.2876  0.6594 -0.0120  11.00000  0.05    0.20
Q2    1   0.7006  0.2331  0.1703  11.00000  0.05    0.18
Q3    1   0.3536  0.5658  0.0163  11.00000  0.05    0.17
Q4    1   0.8963 -0.0991  0.1695  11.00000  0.05    0.13
Q5    1   0.8819 -0.0672  0.1681  11.00000  0.05    0.13
Q6    1   0.8531  0.2656  0.0651  11.00000  0.05    0.13
Q7    1   0.8617  0.0187  0.0913  11.00000  0.05    0.11
Q8    1   0.3689  0.5203  0.1241  11.00000  0.05    0.11
Q9    1   0.7382  0.1174  0.1986  11.00000  0.05    0.11
Q10   1   0.6521 -0.1286  0.0732  11.00000  0.05    0.11
Q11   1   0.2219  0.4372  0.1173  11.00000  0.05    0.11
Q12   1   0.6008  0.0599  0.1720  11.00000  0.05    0.11
Q13   1   0.7812  0.2026  0.0483  11.00000  0.05    0.10
Q14   1   1.0014  0.3231  0.1592  11.00000  0.05    0.10
Q15   1   0.9390  0.2287  0.1579  11.00000  0.05    0.10
Q16   1   0.8601  0.0318  0.0257  11.00000  0.05    0.10
Q17   1   0.0208  0.7007  0.2476  11.00000  0.05    0.10
Q18   1   0.8445  0.1623  0.2175  11.00000  0.05    0.09
Q19   1   0.6784  0.1437  0.1281  11.00000  0.05    0.09
Q20   1   0.7525  0.2475  0.2500  10.50000  0.05    0.09
;
_shelx_res_checksum              15325
_shelx_hkl_file
;
   0   0   2 12.5883 8.13047   8
   0   0  -2 0.59979 8.55519   8
   0   0   3-0.85848 10.8447  11
   0   0   3-2.31476 12.3425   8
   0   0   3-2.44440 11.5617   5
   0   0  -3 2.81053 10.1512   8
   0   0  -4 2899.97 72.2532   8
   0   0   4 2735.91 64.8753  11
   0   0  -4 2685.06 61.3670   2
   0   0   4 2554.44 68.8075   8
   0   0   4 2715.88 69.6121   5
   0   0  -5-14.8292 15.6050  10
   0   0   5 5.39544 13.3556  11
   0   0  -5 9.49211 15.8502   7
   0   0   5 5.32364 15.9722   5
   0   0   5-4.11526 17.2216   8
   0   0  -5 0.50484 15.4832   8
   0   0  -5 13.4720 12.1955   2
   0   0  -5-2.83131 8.42921   9
   0   0  -6 1931.59 73.9657  10
   0   0  -6 2010.69 52.5954   9
   0   0   6 2133.88 71.0266  11
   0   0   6 2048.07 74.4980   5
   0   0   6 1998.26 44.1599   6
   0   0  -6 1983.47 74.2532   7
   0   0  -6 2016.95 65.5386   2
   0   0  -6 2154.83 77.4499   8
   0   0   6 1944.71 73.8913   8
   0   0  -7-6.70504 9.36887   9
   0   0  -7 13.6950 16.9920   8
   0   0  -7 7.08618 13.9869   7
   0   0   7 2.01010 16.2866   5
   0   0   7-19.2037 21.6630   8
   0   0  -7 8.91352 14.7987   2
   0   0   7-5.50737 5.98822   6
   0   0   7 5.51917 15.6194  11
   0   0  -7 7.85548 14.1526  10
   0   0  -8 2152.58 77.9631   2
   0   0   8 2295.63 85.5287  11
   0   0  -8 2109.43 62.3804   9
   0   0  -8 2117.86 89.0699   7
   0   0  -8 2206.31 91.1888  10
   0   0   8 2277.14 92.0116   5
   0   0  -9 4.72743 15.4082  10
   0   0  -9 2.74460 16.2597   7
   0   0   9 17.3725 21.1089  11
   0   0  -9-3.57130 13.4221   2
   0   0   9 11.8019 20.9649   5
   0   0  10 89.3116 26.6084  11
   0   0 -10 46.6878 17.8069   2
   0   0  10 75.9829 28.4466   5
   0   0 -10 73.2713 25.5725  10
   0   0 -10 43.2228 23.7758   7
   0   0  11-3.49236 22.9856  11
   0   0 -11 3.49036 21.8200   7
   0   0 -11 20.1774 17.4258   2
   0   0 -11 18.8358 23.7150  10
   0   0  11 5.56839 25.0864   5
   0   0 -12 11570.3 264.351  10
   0   0  12 11578.7 239.558  11
   0   0 -12 11672.8 263.946   7
   0   0  12 11718.1 261.363   5
   0   0 -12 11750.6 228.209   2
   0   0  13 15.2798 26.4450   5
   0   0 -13 32.3177 23.7023  10
   0   0  13 6.84697 22.9249  11
   0   0 -13 15.6921 21.6983   7
   0   0 -14-60.6476 31.6400  10
   0   0 -14 0.00000 23.4105   7
   0   0  14-86.6619 35.7761   5
   0   0  14 18.2977 24.4544  11
   0   0 -15-8.29809 23.7599  10
   0   0  15 43.6239 33.3260   5
   0   0 -15 39.5586 29.5115   7
   0   0  16 1749.56 126.162   5
   0   0 -16 1928.18 131.269   7
   0   0 -16 1609.88 121.753  10
   0   0 -17-1.80037 24.5793  10
   0   0 -17 90.0357 44.6578   7
  -1   1   0 2145.90 42.7197   1
   1  -1   0-3.15959 6.60902   1
   1  -1   1 5612.40 59.9764   8
  -1   0   1 5747.87 67.2375   1
   0  -1  -1 5794.92 60.0161   8
  -1   1   1 5579.63 73.2902   1
   0   1   1 5418.14 57.8954   8
  -1   0   2 23533.7 158.659   6
   0  -1  -2 23799.9 156.907  10
   1  -1   2 23246.1 164.908  12
   0  -1   2 23437.0 165.154  12
  -1   1   2 23422.4 171.749  11
   0  -1   2 23640.6 168.605  11
   1   0  -2 23322.7 145.069   1
   1  -1  -2 22945.8 165.336   1
  -1   0  -2 23445.6 172.965   8
  -1   1  -2 23458.2 168.322   2
  -1   0   2 23539.6 167.693  11
   0  -1   2 23866.3 160.055   6
  -1   0  -2 23340.7 167.007   2
   0  -1  -2 23637.7 152.603   8
   1   0  -2 23565.1 165.991   9
  -1   1  -2 24147.7 151.096   8
   0  -1   3 2663.53 58.6481   6
   1   0  -3 2743.67 61.5875   7
   0   1   3 2680.67 62.5105   3
   1  -1  -3 2584.45 65.8830  10
  -1   0   3 2737.60 58.0652   5
   0  -1   3 2646.65 64.4695  11
   1  -1   3 2675.35 65.4299  12
  -1   0  -3 2634.20 66.5136   8
   0  -1  -3 2740.76 63.0185   7
   0   1   3 2739.86 54.8134   9
   1   0  -3 2680.74 61.5144  10
   0  -1   3 2722.81 65.6884  12
   0   1  -3 2695.34 60.1190   8
  -1   0   3 2770.28 66.7444  11
   0   1   3 2609.33 61.9101   8
  -1   1  -3 2801.43 63.3832   8
  -1   1  -3 2607.95 65.2262   2
   0   1  -3 2711.97 55.2722   9
   1  -1   3 2432.26 58.4350   8
   1   0   3 2707.93 61.7371   5
   1   0  -3 2719.99 56.9101   1
   1   0  -3 2789.08 63.4350   9
  -1   1   3 2779.11 67.5330  11
   0  -1  -3 2671.38 62.9295   8
   0  -1  -3 2742.43 63.7514  10
   1  -1   3 2698.24 54.2057  11
   1   0   3 2492.74 63.6704   8
  -1   0   3 2653.96 58.4445   6
   1   0   3 2774.92 66.2457   3
  -1   0  -3 2583.93 63.0765   2
  -1   1  -4 29.2524 18.4763   2
   0  -1  -4 23.1051 17.7463  10
   0  -1   4 19.8719 17.0446  11
   1   0  -4 27.1111 14.9457   9
   0   1   4 20.1056 14.3071   8
   0  -1  -4 31.9854 17.8374   8
   1  -1  -4 47.2402 17.2153   9
   1   0   4 32.0772 17.3145   5
  -1   0  -4 32.8649 16.2266   2
   1   0  -4 14.7668 16.4427  10
   1   0   4 26.7916 17.2519   8
  -1   0   4 29.3048 14.4924   5
  -1   1   4 30.8239 17.1203  11
   1  -1  -4 39.9720 20.6712  10
   1  -1   4 111.743 19.7302   8
   0   1   4 19.8278 13.6399  11
   0   1   4 26.7567 16.0910   3
   0  -1  -4 33.7817 18.0924   7
  -1   0  -4 57.2231 19.4191   8
  -1   1  -4 22.4479 17.5475   8
  -1   0   4 34.9914 14.2577   6
   0   1  -4 40.5853 12.9454   9
   0  -1   4 33.7999 14.5446  12
   1   0   4 25.0460 16.7565   3
  -1   1   4 34.5160 10.7491   6
   0   1  -4 17.5756 14.5328   8
   1  -1   4 40.1008 18.0445  12
   0  -1   4 28.3774 14.1206   6
   0  -1  -4 53.2744 13.4641   2
   1   0  -4 35.0740 17.4061   7
   1  -1  -4 23.0265 17.3661   8
   1  -1   4 39.0404 14.1514  11
  -1   0   4 26.6189 18.3744  11
  -1   1  -5 265.864 28.2906   2
  -1   0  -5 204.995 24.5732   2
  -1   1   5 239.450 18.1270   6
   1   0  -5 260.164 28.9575  10
   1  -1   5 295.573 31.3544  12
  -1   0   5 228.833 25.5605   5
   0  -1   5 239.559 26.9003  11
   1   0  -5 232.337 27.6557   7
   0  -1   5 276.302 30.6299  12
   0  -1  -5 270.733 22.7492   2
   1   0   5 232.046 28.6444   8
  -1   0   5 297.209 30.7093  11
  -1   1   5 248.437 26.6038   5
   1   0   5 251.679 20.8990  11
   0   1   5 268.667 25.6898  11
   0   1   5 252.063 28.1788   5
   0   1  -5 247.609 21.4333   9
   1  -1   5 267.121 24.4804  11
   1   0   5 235.149 27.1933   5
   1  -1  -5 244.936 25.3009   9
   0  -1  -5 243.064 27.7795  10
   1  -1  -5 214.955 26.3977  10
   0   1   5 231.383 27.8378   8
   0   1  -5 283.380 28.4532   8
   1   0  -5 258.043 24.7225   9
  -1   0  -5 263.185 28.5630   8
   0  -1  -5 235.014 28.3680   7
  -1   1   5 275.004 30.0896  11
   0  -1  -5 279.142 29.1105   8
   0   1   5 245.379 27.9872   3
  -1   0   5 258.138 23.0063   6
  -1   1  -5 254.736 28.2126   8
   1  -1  -5 226.987 26.6882   7
   1  -1  -5 263.695 29.7692   8
   1  -1  -5 248.320 18.6563   2
   0  -1   5 249.175 22.9468   6
   1  -1   5 278.855 28.1814   8
   1   0   5 258.287 28.3708   3
   0  -1   6 683.588 35.9378   6
   1   0   6 747.068 49.0279   8
   1   0  -6 671.127 45.5274  10
  -1   1  -6 680.251 44.6174   2
   1  -1   6 674.526 45.3496   8
  -1   0   6 689.555 44.2632   5
  -1   0  -6 691.691 43.2254   2
   1  -1  -6 635.834 45.7037  10
   1  -1  -6 721.064 47.5406   8
   1   0   6 726.285 46.4557   5
   0  -1  -6 653.040 45.6241   7
  -1   0  -6 737.552 47.4894   8
   0  -1  -6 658.643 45.3458  10
   1  -1   6 686.630 46.1293   5
   1   0  -6 666.683 46.3445   8
  -1   0   6 690.736 46.9862  11
  -1   1  -6 723.086 45.4814   8
  -1   1   6 674.734 44.6278   5
   1  -1  -6 646.782 31.9939   2
   1   0   6 724.879 46.7382   3
   1  -1   6 731.002 48.7006  12
   0   1  -6 700.029 35.3785   9
   0   1  -6 737.518 46.0194   8
   0   1   6 691.906 45.1908   3
   1   0  -6 609.233 43.4548   7
   1   0   6 674.881 36.3637  11
   1   0  -6 698.906 39.9662   9
   1  -1  -6 719.782 40.7380   9
  -1   1   6 702.831 30.2560   6
   0   1   6 705.596 42.5026  11
  -1   0   6 715.310 36.8751   6
  -1   1   6 752.988 47.3673  11
   0  -1  -6 640.826 44.9810   8
   0  -1   6 751.247 46.6044  11
   0   1   6 679.290 46.3488   5
   0  -1  -6 643.642 36.0960   2
   0  -1   6 688.088 47.0782  12
   1  -1  -6 679.856 45.9564   7
   0   1   6 654.268 45.3104   8
   1  -1   6 775.082 41.6365  11
   1   0  -7 590.969 46.7398  10
   1  -1  -7 545.684 44.5168  10
   1  -1  -7 545.354 38.0682   9
   1  -1   7 568.539 45.9552   8
   0  -1  -7 573.566 36.7912   2
  -1   1  -7 567.277 44.9902   8
   1   0  -7 561.269 45.3347   7
   0  -1  -7 564.831 45.7761   8
   0   1   7 586.873 46.1728   5
   1   0   7 618.951 47.0660   5
  -1   0  -7 586.402 42.8856   2
   0   1   7 570.389 45.3040   8
   0   1   7 558.326 41.6304  11
   1   0  -7 574.134 38.8158   9
   0   1  -7 544.142 32.7167   9
   1   0   7 601.210 37.8563  11
   1  -1  -7 541.519 33.0960   2
  -1   0  -7 616.866 47.7609   8
   1  -1  -7 586.070 46.2144   7
  -1   1  -7 573.779 43.7471   2
   0  -1   7 586.854 35.1962   6
   0  -1   7 594.343 45.0698  11
   0   1  -7 542.006 43.5529   8
   1  -1  -7 540.569 44.4446   8
  -1   0   7 572.274 46.1522  11
   0  -1  -7 511.046 43.8230  10
  -1   0   7 584.786 45.0804   5
   0  -1  -7 572.764 46.5063   7
   0  -1   7 614.512 46.4440   5
  -1   1   7 572.365 44.5952   5
   1   0   7 573.868 46.1335   8
   1  -1   7 558.104 45.5770   5
   1   0  -7 585.395 46.8393   8
  -1   1   7 620.352 46.7396  11
   1  -1   7 561.052 38.6518  11
  -1   1   7 588.366 29.1917   6
   0   1   7 494.143 41.7749   3
  -1   0   7 596.208 35.5035   6
   1   0   7 512.644 43.7324   3
   0  -1  -8 467.910 32.9754   9
   1  -1  -8 537.083 48.7107  10
   0  -1   8 443.342 42.1722  11
  -1   0   8 441.757 44.0079  11
   1   0  -8 425.300 44.5585   7
   1   0   8 485.117 45.3775   5
   0  -1  -8 484.547 46.0417   7
  -1   1  -8 429.785 41.1320   2
   1   0  -8 450.411 36.4526   9
   1   0   8 436.332 36.0204  11
   1   0  -8 459.329 45.4307  10
   1  -1   8 458.450 38.2600  11
  -1   0  -8 444.276 40.3101   2
   1  -1  -8 484.191 46.0985   7
   1  -1  -8 453.356 33.0437   2
  -1   0   8 434.504 31.5437   6
  -1   1   8 450.172 43.6149  11
   0  -1   8 445.021 44.1900   5
   0   1   8 455.093 40.4552  11
  -1   1   8 445.186 42.9626   5
   0  -1  -8 452.260 44.6617  10
   1  -1  -8 461.656 37.2526   9
   0  -1   8 424.883 31.0163   6
   0   1   8 437.326 42.4599   5
  -1   0   8 416.988 42.1500   5
   0  -1  -8 397.268 33.7350   2
   0   1  -8 400.816 29.5865   9
   1  -1   8 435.435 44.1500   5
  -1   0  -9 2278.49 99.7537   7
   0  -1  -9 2210.55 98.8099  10
   0  -1   9 2192.46 70.5487   6
  -1   1   9 2275.92 97.9352   5
   1   0  -9 2140.84 96.8584  10
   1  -1  -9 2264.37 101.425  10
   1  -1  -9 2326.87 83.0007   9
   0   1   9 2263.59 89.8510  11
   0  -1  -9 2267.99 82.6481   2
   1  -1   9 2211.40 85.9617  11
  -1   0  -9 2256.07 91.2392   2
   0  -1   9 2251.48 99.4069   5
   1   0  -9 2239.84 98.5942   7
   1   0   9 2174.67 97.5367   5
  -1   0   9 2407.31 100.306   5
  -1   0   9 2329.66 99.0552  11
   0  -1  -9 2379.20 102.400   7
   1   0   9 2348.17 84.9512  11
   1  -1  -9 2178.61 99.4195   7
   1   0  -9 2237.01 80.3990   9
   0   1   9 2106.38 95.2040   5
   1  -1  -9 2231.96 75.8456   2
  -1   1  -9 2261.05 94.4257   2
   0  -1   9 2195.79 92.3310  11
  -1   0  -9 2246.34 99.2873  10
   1  -1   9 2143.70 97.8345   5
  -1   1   9 2273.80 96.9611  11
  -1   0 -10 4869.70 154.906  10
  -1   0 -10 4847.65 140.132   2
   1   0 -10 4928.14 154.608   7
   1  -1 -10 4943.34 124.430   9
   0   1 -10 4949.89 156.229  10
   0  -1 -10 4946.69 128.894   2
   1  -1  10 4976.89 136.194  11
   0   1 -10 4979.76 156.727   7
   1  -1 -10 4970.45 157.085   7
   0  -1 -10 4941.76 155.836   7
   0   1  10 4712.89 151.821   5
  -1   1  10 4894.25 152.261   5
   1   0 -10 4879.19 123.089   9
   0   1  10 5105.60 141.603  11
  -1   1 -10 4789.32 142.758   2
  -1   0 -10 4967.54 155.985   7
   0  -1  10 4815.44 143.799  11
   1   0  10 5046.70 155.337   5
   1  -1 -10 4834.12 156.065  10
  -1   1  10 5138.45 151.618  11
   0   1 -10 4992.62 142.493   2
   1   0  10 5166.76 133.580  11
   1  -1  10 4943.90 155.230   5
  -1   0  10 5034.62 151.634  11
   1   0 -10 4923.96 155.978  10
  -1   0  10 5060.70 153.309   5
   1   0 -10 4855.44 129.088   2
   0  -1 -10 4758.84 153.356  10
   0   1 -11 759.531 60.3854   2
   0  -1 -11 788.032 55.5488   2
   0   1 -11 748.419 67.0703   7
   1   0  11 803.908 59.0502  11
   1  -1 -11 689.104 64.7653  10
  -1   1  11 788.217 67.1033  11
   1  -1  11 883.432 63.0651  11
  -1   1  11 795.468 69.6870   5
   1  -1 -11 772.094 68.7318   7
   1   0  11 744.253 67.8720   5
   0   1  11 790.081 67.8433   5
   0  -1  11 802.761 66.2755  11
  -1   0  11 753.999 65.4285  11
  -1   0  11 806.219 68.6287   5
   1  -1  11 663.469 64.1181   5
   0   1 -11 813.785 69.0534  10
  -1   0 -11 721.845 59.0795   2
  -1   0 -11 757.703 68.2211  10
   1   0 -11 783.272 56.2460   2
   0   1  11 896.133 65.2153  11
   0  -1 -11 843.357 71.7168  10
  -1   0 -11 773.513 68.5227   7
   0  -1 -11 835.925 71.6687   7
   1   0 -11 755.439 66.3207  10
   1   0 -11 783.855 68.5166   7
  -1   1 -11 836.697 64.6779   2
  -1   0  12 349.383 50.0220   5
  -1   0 -12 365.402 51.6634  10
   0  -1  12 432.219 53.4050  11
   0   1 -12 396.783 53.6289  10
  -1   0 -12 346.436 50.5814   7
   0  -1 -12 423.192 57.4827   7
  -1   1  12 402.143 51.9210  11
  -1   1 -12 330.944 47.8624  10
   1  -1  12 355.091 45.2031  11
   0  -1 -12 361.375 51.4537  10
   0   1 -12 330.359 50.4090   7
  -1   0  12 286.937 46.2728  11
   0   1  12 316.602 43.1447  11
  -1   1  12 386.956 54.3285   5
   1   0  12 335.642 50.2778   5
   1   0 -12 364.485 53.3915   7
   0   1  12 316.040 49.9412   5
  -1   1 -12 390.707 49.5255   2
   1  -1 -12 328.469 49.5947   7
  -1   1 -12 417.715 53.5962   7
   1   0 -12 271.728 44.8489  10
   1  -1 -12 367.709 53.3792  10
   0   1 -12 403.906 48.1390   2
  -1   0 -12 378.825 46.6803   2
   0   1 -13 649.997 69.8288  10
   0  -1 -13 807.522 78.1793   7
   0  -1 -13 756.318 75.7206  10
   0  -1  13 716.631 67.6705  11
  -1   1 -13 784.234 77.8793   7
   1   0  13 800.789 77.2550   5
  -1   1  13 736.519 71.5244  11
   0   1 -13 662.817 61.3781   2
  -1   1  13 770.105 74.9569   5
  -1   0 -13 699.774 73.0230   7
  -1   0  13 717.684 72.0027   5
   0   1  13 683.728 71.5563   5
   0   1 -13 670.668 69.1325   7
  -1   1 -13 815.640 77.5647  10
  -1   1 -13 798.254 70.1660   2
   0   1  13 753.352 65.8635  11
  -1   0 -13 742.546 74.3601  10
   1   0 -13 802.877 78.2967   7
  -1   0 -13 696.445 63.8425   2
   1   0 -13 691.513 71.1496  10
   1  -1 -13 813.192 79.4732  10
  -1   0  13 655.760 67.6491  11
   1  -1 -13 829.949 79.7468   7
  -1   0 -14 2059.00 125.056   7
   1   0 -14 2067.11 125.051  10
   0   1 -14 1944.22 121.026   7
   1   0  14 2063.68 124.890   5
  -1   1 -14 2216.65 129.354  10
   1  -1 -14 2137.42 129.207  10
   1   0 -14 2065.72 125.753   7
   0  -1 -14 2196.38 130.174   7
  -1   0  14 2122.42 125.839   5
   0  -1  14 2171.09 118.544  11
  -1   0 -14 2128.34 127.102  10
   1  -1 -14 2046.23 125.799   7
   0  -1 -14 2059.78 125.730  10
   0   1  14 2173.33 128.870   5
  -1   1 -14 2177.94 117.837   2
   0   1 -14 2041.21 124.664  10
  -1   0  14 2003.22 118.248  11
  -1   1 -14 2099.02 126.326   7
  -1   1  14 2146.93 126.500   5
  -1   1  14 2097.55 118.284  11
   0  -1 -15 536.101 70.9076  10
  -1   1  15 451.608 60.8634  11
   0   1  15 404.123 62.1615   5
  -1   1  15 460.823 66.0842   5
  -1   0 -15 432.330 61.6438  10
   0   1 -15 477.878 65.4037   7
   0  -1  15 495.453 62.0030  11
  -1   1 -15 480.393 66.2269   7
   1   0 -15 518.623 69.4614  10
  -1   0  15 499.338 66.0907  11
   1  -1 -15 505.322 68.1489   7
   1  -1 -15 536.233 72.1077  10
   0   1 -15 421.966 62.7698  10
   0  -1 -15 489.157 69.0369   7
   1   0  15 470.381 68.3220   5
  -1   0  15 491.036 67.5704   5
   1   0 -15 558.892 71.8833   7
  -1   0 -15 520.220 70.4472   7
  -1   1 -15 494.707 67.1714  10
  -1   0 -16 164.571 51.7247   7
  -1   0  16 96.0576 39.5696   5
  -1   1  16 86.7278 38.4940   5
  -1   1 -16 20.0376 23.1092   7
   1   0 -16 115.114 44.7466   7
  -1   0  16 159.638 49.4414  11
   0   1 -16 97.1088 41.0453   7
   0   1  16 75.9167 34.3436   5
  -1   1 -16 110.817 35.9548  10
   1   0 -16 145.392 42.7610  10
  -1   1  16 87.2620 35.8927  11
  -1   0 -16 54.0308 29.6756  10
   0   1 -16 78.7063 34.7405  10
   1  -1 -16 152.421 41.5548   7
   1  -1 -16 175.084 50.6565  10
   0  -1 -16 218.984 56.8809  10
   1   0  16 100.534 43.1661   5
   0  -1 -16 137.663 46.3410   7
   0  -1 -17 142.895 42.1805  10
   1   0  17 127.364 47.5375   5
  -1   0 -17 38.3285 26.1190  10
   0   1  17 28.3476 29.7322   5
   0  -1 -17 54.8959 38.7006   7
  -1   1 -17 39.1385 29.9236  10
   1  -1 -17 158.473 41.2434  10
   1   0 -17 115.244 36.9309   7
   0   1 -17-62.8252 29.9568  10
  -1   1 -17 48.1045 33.6498   7
   0   1 -17 105.309 42.4833   7
   1   0 -17 158.828 48.0554  10
  -1   0 -17 136.067 45.9355   7
  -1   1  17 59.3371 33.4511   5
  -2   1  18-78.4870 39.1787  11
  -2   1  17 14.0925 33.0631  11
  -2   1  17-11.6135 35.7269   5
   1   1  17-8.12308 30.8204   5
  -1  -1 -17 34.0138 37.1786  10
  -1   2 -17 29.2071 30.2452  10
   2  -1 -17-53.2367 30.1312  10
  -1   2 -17-16.5460 26.0929   7
  -1  -1 -17 26.5382 37.0503   7
  -1   2 -16 1166.34 104.968  10
   1   1  16 1142.93 105.905   5
   2  -1 -16 1150.36 103.922  10
  -1   2 -16 1223.30 105.588   7
  -1  -1 -16 1198.40 108.632   7
  -1  -1 -16 1269.33 110.649  10
  -2   1  16 1130.22 102.412  11
  -2   1  16 1215.57 105.011   5
  -1   2 -15-26.6361 27.8227   2
  -1  -1 -15 45.8468 35.7202   7
  -2   1  15 39.5567 40.3931  11
   2  -1 -15 32.1298 30.4760  10
  -1   2 -15 0.75346 25.6409   7
  -1   2 -15 43.4995 30.5011  10
   1   1  15-4.52914 33.9369   5
  -1  -1 -15-4.55429 28.3230  10
  -2   1  14 210.565 47.9941   5
  -1  -1 -14 181.064 47.5910   7
  -2   1  14 220.378 51.5795  11
   1   1  14 204.017 47.8531   5
  -1   2 -14 135.941 38.9862   2
  -1   2 -14 152.518 42.6789  10
  -1   2 -14 141.733 41.2199   7
   2  -1 -14 191.441 41.8615  10
  -1  -1 -14 154.358 42.2052  10
  -1  -1 -13-58.1859 31.9166  10
  -2   1  13-1.18500 26.8709   5
   1  -2  13-14.9777 23.6155  11
  -1   2 -13-19.7655 29.1259   2
  -1  -1 -13 34.3525 33.1194   7
  -2   1  13 20.8569 34.1624  11
   2  -1 -13 47.3572 29.0796  10
   1   1  13 29.5700 27.3812   5
   1   1  12 4362.37 164.555   5
  -1  -1 -12 4615.10 147.524   2
  -1   2 -12 4396.04 157.506   2
   1  -2  12 4333.60 147.815  11
  -2   1  12 4448.87 161.425   5
   2  -1 -12 4542.75 170.263  10
  -1  -1 -12 4658.85 168.542  10
  -1  -1 -12 4584.65 167.361   7
  -2   1  12 4252.92 161.203  11
  -2   1  11 11.3496 25.8638  11
  -1   2 -11 5.41344 21.5802   2
   1  -2  11-0.41933 22.1677  11
   2  -1 -11-6.74550 20.3175   9
   1   1  11 20.5051 26.7749   5
  -1  -1 -11-8.83330 25.5067  10
  -1  -1 -11-6.74642 23.0404   7
  -2   1  11 31.7202 30.6922   5
  -1  -1 -11 6.23020 20.3049   2
   2  -1 -11 8.71475 23.9837  10
  -2   1  10 685.352 63.2618  11
   1   1  10 618.541 58.8712   5
   2  -1 -10 745.631 64.9258   7
   2  -1 -10 691.077 63.8115  10
   1   1  10 673.313 50.0986  11
   1   1  10 612.095 59.4220   3
  -2   1  10 664.681 59.6352   5
   1  -2  10 728.524 57.8341  11
  -1  -1 -10 634.413 56.7816  10
  -1  -1 -10 653.910 59.2882   7
   2  -1 -10 664.532 54.0992   9
  -1  -1 -10 656.194 53.0505   2
  -1   2 -10 705.901 60.1844   2
   1  -2   9-6.31994 19.1060  11
  -1  -1  -9 1.18803 18.2672  10
  -2   1   9-13.6938 22.7640   5
   2  -1  -9 0.00000 18.8954   9
  -1  -1  -9 34.8532 21.2828   2
  -1  -1  -9-9.43378 22.5074   7
   1   1   9-4.04038 14.6107  11
  -2   1   9-6.22059 23.9151  11
   1   1   9 7.73129 23.1002   3
   2  -1  -9 19.1377 21.2490  10
   1   1   9-11.5121 22.8680   5
   1  -2   9-12.3648 19.4325  12
  -1  -1  -8 5601.67 134.512   2
  -2   1   8 5384.07 139.154   5
  -2   1   8 5805.63 153.880  11
   1   1   8 5486.78 147.419   3
  -1   2  -8 5624.29 140.055   8
   2  -1  -8 5610.25 150.628  10
   1  -2   8 5744.90 138.711  11
  -2   1   8 5747.89 117.564   6
  -1  -1  -8 5442.88 143.323  10
  -1  -1  -8 5519.46 144.301   7
   2  -1  -8 5578.32 136.600   9
   1   1   8 5564.75 146.991   5
   1  -2   8 5534.05 151.585  12
   1   1   8 5736.39 122.697  11
  -1   2  -7-6.65159 15.9380   8
   1  -2   7 16.9966 17.2762  11
  -1  -1  -7-8.69042 16.1494   8
  -1  -1  -7-10.0668 21.3236   7
   2  -1  -7 2.36550 14.4918   1
   2  -1  -7 4.87086 16.9820  10
  -2   1   7-17.7181 19.7935  11
  -2   1   7 11.3513 12.1464   6
   1   1   7 12.1286 15.8519   8
   1   1   7 7.57868 18.3489   3
   1  -2   7-7.76437 16.0480   8
   1  -2   7 8.82104 18.7054  12
  -2   1   7-4.81513 18.2417   5
   1   1   7-16.1906 18.4242   5
  -1  -1  -7 5.70001 12.6839   2
  -1  -1  -7 8.05407 17.3619  10
   2  -1  -7 6.85958 16.9502   9
  -1   2  -7 4.01169 8.65326   9
  -1  -1  -6 589.488 42.7361   7
   1  -2   6 556.911 40.5136  11
  -1  -1  -6 537.892 40.6378  10
   2  -1  -6 545.054 43.7644  10
   1  -2   6 479.020 37.3106   8
  -2   1   6 532.965 35.0386   6
  -1   2  -6 565.623 40.0253   8
  -1  -1  -6 570.703 40.3936   2
   1   1   6 529.683 42.3275   5
   1  -2   6 549.160 44.1968  12
   1   1   6 536.491 43.7269   3
   2  -1  -6 535.898 41.2334   9
  -2   1   6 542.208 39.8667   5
  -2   1   6 548.141 44.3291  11
   2  -1  -6 545.000 40.5783   1
  -1  -1  -6 531.086 42.1602   8
   1   1   6 556.453 44.2352   8
  -1   2  -6 514.572 28.5799   9
   1   1   6 557.667 28.8324   9
  -1  -1  -5 0.82585 14.0712   7
   2  -1  -5-3.73378 15.5082  10
  -1  -1  -5 2.49623 12.1572  10
  -2   1   5 18.4898 12.9543   6
   1   1   5 1.59884 9.59721   9
  -2   1   5 5.76687 13.6980   5
  -2   1   5 6.66417 16.5150  11
   1   1   5-1.37124 13.6345   5
   1   1   5 0.12062 15.2381   8
  -1   2  -5-3.27155 12.0119   8
   1  -2   5-0.50759 16.0521  12
  -1   2  -5 1.85957 9.39294   9
  -1  -1  -5 3.58800 12.9816   2
   1  -2   5 7.24000 15.0043  11
  -1  -1  -5 1.95137 13.6104   8
   1  -2   5-8.28725 14.1465   8
   2  -1  -5 7.27633 15.5287   9
   2  -1  -5-11.8179 15.6118   1
   1   1   5 0.86434 16.4228   3
   2  -1  -4 18464.2 203.343  10
   1  -2   4 18642.1 177.186   8
  -2   1   4 19651.5 216.160  11
  -1  -1  -4 19088.6 184.437  10
  -1  -1  -4 19072.2 183.290   7
   1  -2   4 19472.5 214.825  12
  -1  -1  -4 19616.5 208.652   8
  -1   2  -4 19110.9 158.303   9
   2  -1  -4 18707.2 205.643   9
   1   1   4 19708.4 159.857   9
  -1   2  -4 19271.5 178.810   8
   1  -2   4 19414.2 199.443  11
   1   1   4 19079.7 206.681   8
  -2   1   4 18684.9 179.399   5
   2  -1  -4 19123.5 201.364   1
  -2   1   4 19396.1 187.590   6
  -1  -1  -4 18853.5 196.022   2
   1  -2   3 5.85915 16.5767  12
   2  -1  -3 4.80009 13.0237   1
   1  -2   3 1.55106 10.1020   8
  -1  -1  -3 1.59360 12.0183   7
  -1   2  -3 3.87617 10.9016   9
   1   1   3 15.1395 12.6039   9
  -1  -1  -3 6.33830 16.5539   8
  -1  -1  -3-2.70080 15.3568   2
  -2   1   3 7.10816 16.7489  11
  -1   2  -3-2.50634 11.3118   8
   1  -2   3 5.60719 15.1634  11
   1   1   3 7.58207 13.1846   8
  -1  -1  -3-4.45855 11.8742  10
   2  -1  -3 2.21488 18.0744   9
  -2   1   3-5.87251 13.0994   1
  -2   1   3 5.96237 14.7471   6
  -1   2  -2 12100.6 96.2522   8
   2  -1  -2 12165.6 148.343   9
  -2   1   2 11889.9 139.186   6
   1  -2   2 11824.9 149.015  12
  -2   1   2 11834.1 144.294   1
   1   1   2 12510.5 127.302   9
  -2   1   2 12097.2 140.647  11
   1  -2   2 11878.0 96.1850   8
  -1  -1  -2 11849.1 140.762   2
   1   1   2 11835.8 139.039   8
   1  -2   2 12095.7 142.139  11
   2  -1  -2 12157.7 144.173   1
  -1   2  -2 12182.1 124.761   9
  -2   1   1-6.34986 15.8172   6
   2  -1  -1 0.21047 15.2847   9
  -1  -1  -1 7.87416 12.1841   6
   1  -2   1-10.5751 18.1379  11
  -1  -1  -1 2.11427 13.6028   2
  -2   1   1 16.1517 16.6855   1
  -1   2  -1 3.35988 9.76455   1
  -2   1   1 12.1607 12.4435  11
   1   1   1 17.8492 14.9872   9
  -1   2  -1 1.05297 12.5947   9
  -2   1   0 16897.5 138.996   2
   1   1   0 17098.6 156.259   9
  -1  -1   0 16457.4 138.372  11
  -1  -1   0 17104.9 151.886   6
   1   1   0 17074.0 153.770   4
   1  -2   0 16809.8 167.605  11
  -2   1   0 16554.0 155.331   6
  -1  -1   0 16383.2 161.156   2
   2  -1   0 16952.9 149.394   9
  -1   2   0 16430.7 152.505   9
   1  -2  -1 4.29036 12.6232   1
  -1   2   1 4.02068 16.3342   9
   1  -2  -1 3.47884 5.88605   8
   1   1  -1 7.47062 12.0386   4
   2  -1   1 11.1618 11.7549   9
  -2   1  -1 9.38732 14.8233   2
  -1  -1   1 9.96289 16.0624   6
  -1  -1   1 3.71804 17.2988   2
  -1  -1   1 5.75200 14.3185  11
   1  -2  -1-4.68308 18.2200  11
   1   1  -1 4.28650 15.1635   9
  -1  -1   2 11527.6 115.230  12
  -1  -1   2 11486.1 89.0978   1
  -1  -1   2 11879.1 143.425   6
  -1  -1   2 11823.1 141.918  11
   1  -2  -2 11926.8 107.113   8
   2  -1   2 11122.8 137.709   8
  -2   1  -2 11726.5 139.885   2
   1   1  -2 11219.0 139.868   9
   1   1  -2 11631.0 115.408   4
  -1   2   2 11637.7 138.322   9
   2  -1   2 11961.5 118.253  12
   2  -1   2 12010.7 124.578   3
  -1  -1   3-11.2835 12.4108  12
   2  -1   3 7.13563 13.5617   4
  -1  -1   3-2.72508 17.3521   6
  -1   2   3 20.3700 16.8484   9
   1   1  -3 10.3081 14.8489   9
   2  -1   3-3.72225 12.2761  12
  -2   1  -3-17.6000 18.1860   2
  -1  -1   3 3.14701 16.9593  11
   2  -1   3-1.33172 15.0245   3
   2  -1   3 6.37678 12.5577   8
   1   1  -3 0.00000 7.27044   1
   1   1  -3 21.7721 10.4843   4
   1  -2  -3 1.49461 11.9149   8
   2  -1   4 21298.0 180.164   4
  -1  -1   4 20634.9 208.099   6
  -1  -1   4 20495.4 200.505  12
  -2   1  -4 21300.7 217.776   8
  -2   1  -4 20041.5 215.252   2
   1   1  -4 20413.0 207.727   9
   1   1  -4 21007.3 151.461   1
  -1   2   4 20327.7 182.764   3
   2  -1   4 21423.8 204.279  12
   2  -1   4 20027.4 210.845   8
   1  -2  -4 20593.0 195.919   8
  -1  -1   4 20841.2 221.291  11
   2  -1   4 20684.6 207.525   3
   2  -1   5 0.69659 16.0381   3
   1  -2  -5 13.9188 16.1757   8
  -1  -1   5-8.59069 13.2249  12
  -2   1  -5 13.3606 16.4109   8
  -1  -1   5 3.49964 16.8690  11
   2  -1   5 3.74254 16.7938   8
   2  -1   5 6.87306 14.1613  12
  -1   2   5-0.18859 14.2585   3
   2  -1   5 2.53921 7.97510  11
   1  -2  -5-2.38326 15.3218  10
  -1  -1   5 8.89176 13.9017   6
   1   1  -5 12.5893 8.72941   1
  -2   1  -5 8.11174 16.9341   2
   1  -2  -5 5.95368 7.31977   2
   1   1  -5-10.9998 23.0826   9
  -1  -1   6 225.361 33.0032  11
   1   1  -6 240.893 27.4586   9
  -1   2   6 248.341 18.1580   6
  -1   2   6 258.061 31.2963  11
   1  -2  -6 207.853 29.2993  10
   2  -1   6 229.543 20.4167  11
  -2   1  -6 242.601 30.5682   2
   2  -1   6 220.834 29.7496   3
  -2   1  -6 239.308 31.3504   8
   2  -1   6 277.693 32.1324   5
  -1  -1   6 224.371 29.6337  12
  -1  -1   6 239.612 27.4823   6
   2  -1   6 201.131 29.6363   8
   2  -1   6 238.910 29.8816  12
   1  -2  -6 236.345 19.0893   2
   1  -2  -6 238.926 29.3886   8
  -1   2   6 221.844 27.0267   3
  -1  -1   7 9.34230 17.6536  11
   1   1  -7 18.8881 18.9144  10
  -1  -1   7-0.86302 13.4315   6
   2  -1   7 0.69678 11.2956  11
   1  -2  -7-0.65645 16.4945  10
  -1   2   7 4.81410 14.5020   3
   1   1  -7-56.3940 19.9337   8
  -1   2   7 6.91184 18.0350  11
  -2   1  -7 39.9881 20.3932   8
   2  -1   7 3.28727 17.1029   5
  -1   2   7 4.24317 17.4292   5
  -2   1  -7-10.2576 16.7092   2
   1   1  -7 7.81798 17.0672   7
   1   1  -7 7.38227 14.8537   9
   1  -2  -7 14.5101 18.6892   8
   1  -2  -7 9.13228 8.84834   2
   2  -1   7 12.5104 16.4401   8
  -1  -1   8 5367.58 124.263   6
   2  -1   8 5306.25 109.581  11
   1   1  -8 5023.99 121.626   9
  -2   1  -8 5082.98 140.109   2
   1   1  -8 5163.08 140.084  10
   1   1  -8 5190.74 139.681   7
   1  -2  -8 5083.29 101.106   2
  -1  -1   8 5208.16 143.128  11
   2  -1   8 5303.27 144.131   5
   1  -2  -8 5286.81 145.820  10
  -1   2   8 5254.59 145.322   5
  -1   2   8 5374.56 140.567  11
  -1  -1   9 19.4662 18.2570  11
   1   1  -9-10.5427 16.6034   9
   1   1  -9-9.34309 21.1475   7
  -1   2   9-2.06725 22.3732   5
   2  -1   9 6.27843 20.1014   5
  -2   1  -9 0.78320 21.5924   2
   1  -2  -9 14.7170 21.4302  10
   2  -1   9 9.79416 17.0732  11
  -1  -1   9 7.15048 15.3068   6
   1   1  -9 1.59653 19.1139  10
  -1   2   9 0.00000 19.1571  11
   1  -2  -9 5.74697 16.9876   9
  -1   2  10 798.837 62.7973  11
   1  -2 -10 802.632 54.6531   9
  -1   2  10 779.880 66.6370   5
  -2   1 -10 836.933 65.4947   2
  -1  -1  10 851.231 67.5965  11
   1   1 -10 744.679 51.2738   9
   1  -2 -10 864.281 69.5153  10
   1   1 -10 843.571 67.1617  10
   1   1 -10 725.220 63.0445   7
   2  -1  10 729.829 63.8972   5
   1   1 -11-3.54896 24.3016  10
  -1   2  11-8.20504 25.7826   5
   1  -2 -11-8.15560 21.8434  10
  -1   2  11 9.77518 23.3134  11
  -2   1 -11 11.1551 26.1693   2
   1   1 -11 0.75695 23.8687   7
   2  -1  11 22.2691 26.8689   5
  -1  -1  11-6.61360 25.1127  11
   1   1 -12 3967.66 157.246  10
   1   1 -12 4040.41 158.027   7
  -1  -1  12 3966.62 153.254  11
  -1   2  12 4103.11 149.328  11
  -1   2  12 3896.57 156.279   5
   1  -2 -12 3979.86 159.888  10
  -2   1 -12 4138.44 153.269   2
  -2   1 -13-25.6084 29.2232  10
  -2   1 -13-23.2062 30.7472   2
   1  -2 -13 50.3796 32.5255  10
  -2   1 -13-2.20164 28.9382   7
  -1   2  13-3.74782 25.6961   5
   1   1 -13 15.2706 26.8582   7
  -1  -1  13 19.0808 29.6946  11
   1   1 -13-14.7535 27.9472  10
  -1   2  13 1.91128 25.3557  11
  -2   1 -14 74.5699 38.9940   7
   1  -2 -14 4.98250 19.4780  10
  -2   1 -14 49.2230 33.6932  10
  -1   2  14 14.8816 30.2912  11
  -2   1 -14 14.4380 22.5098   2
   1   1 -14-1.04015 27.0740  10
  -1   2  14-3.09006 26.1729   5
   1   1 -14-20.6001 32.4627   7
  -1  -1  14 22.4293 27.7190  11
  -2   1 -15 4.18792 33.2176  10
  -1  -1  15-16.3909 27.2717  11
  -1   2  15 69.1689 40.3555   5
  -2   1 -15-38.6453 30.6335   7
   1   1 -15-76.0574 35.8741  10
   1  -2 -15 10.1565 26.4176  10
  -1   2  15 30.0683 30.0447  11
   1   1 -15 63.2658 41.6245   7
  -2   1 -15-33.9114 35.9164   2
  -2   1 -16 1451.86 116.222  10
   1   1 -16 1249.15 109.674  10
   1   1 -16 1423.58 116.287   7
  -1   2  16 1447.03 117.420   5
   1  -2 -16 1402.62 116.541  10
  -1  -1  16 1367.22 109.916  11
  -2   1 -16 1583.75 121.644   7
  -2   1 -17-11.3646 25.6618  10
   1  -2 -17 27.0319 20.4746  10
   1   1 -17-3.62727 29.7942  10
  -1   2  17-21.9922 36.0311   5
   1   1 -17 89.8089 42.8094   7
  -2   1 -17-83.4750 36.8595   7
  -1  -1  17-24.2629 36.5673  11
   2   0   0 1487.70 50.9045   9
   0  -2   0 1456.62 52.9844  11
  -2   2   0 1485.46 40.7343   2
  -2   0   0 1462.47 51.5671   2
  -2   0   0 1484.26 50.3037   6
  -2   2   0 1426.94 50.9948   1
   0  -2   0 1373.84 48.7880   6
   2   0   0 1421.99 52.0639   4
   0   2   0 1493.97 53.6025   9
  -2   0  -1 1156.40 42.6897   6
  -2   0   1 1072.79 45.3294   6
   2   0   1 1183.16 42.5570   9
   0  -2  -1 1139.13 43.3337   2
   0   2   1 1097.39 33.6821   8
   0  -2  -1 1126.73 41.1915   6
   0   2   1 1137.28 47.6689   9
  -2   0   1 1128.56 44.8145   2
  -2   2   1 1060.21 45.7956   1
   2   0  -1 1124.75 47.2702   9
   2   0   1 1143.50 48.7205   4
  -2   2  -1 1173.43 42.5441   2
  -2   0   1 1165.16 40.7507  11
  -2   0  -1 1121.78 47.9025   2
   2  -2   1 1178.97 44.7158  11
   0   2  -1 1126.02 47.0314   9
   2  -2  -1 1183.61 48.0795   1
   0  -2   1 1144.28 46.6078   6
   0  -2  -1 1102.41 47.4834  11
   0  -2   1 1054.10 45.6531  11
   2  -2  -2 5075.16 98.5163   1
  -2   0  -2 4738.48 97.5419   2
   2   0   2 5012.28 97.1926   4
  -2   0   2 4935.18 88.8281   2
  -2   2  -2 4850.93 93.3630   2
   0  -2   2 4835.93 95.4667  12
   0  -2   2 4842.45 97.5495   6
  -2   0   2 4798.86 96.0787   6
   0   2  -2 4856.02 94.1376   9
  -2   0   2 5016.63 92.4771  11
   0   2   2 4753.31 93.6172   9
   0  -2  -2 4922.42 79.3650   8
   0  -2   2 4769.16 98.8475  11
   2  -2   2 4922.11 85.4479  11
   0   2   2 4800.71 77.4489   8
   2   0   2 4964.51 71.3528   5
  -2   2   2 4637.93 95.0495   1
   2  -2   2 4891.90 96.4969  12
   2   0   2 4977.51 77.1767   9
  -2   0   2 4772.27 87.6167   1
  -2   0  -2 4847.38 80.0348   6
   2  -2   2 4681.17 77.8656   8
   2   0  -2 4930.27 99.5665   9
   0  -2  -2 5144.04 98.7894  11
   0  -2  -2 4894.53 86.1085   2
  -2   0   3 9868.58 142.833   6
  -2   0   3 9824.66 104.565   5
   0  -2   3 9983.83 144.645   6
   2   0   3 10283.7 101.520   9
  -2   2  -3 9921.82 144.259   2
  -2   0  -3 9875.06 109.459   6
   2   0  -3 9793.11 119.680  10
   0  -2   3 9890.59 143.544  12
  -2   0   3 9838.83 128.125   1
  -2   0   3 10181.9 145.546  11
  -2   0  -3 9684.16 146.435   2
   2   0   3 9463.53 150.048   8
   0   2   3 10065.6 136.073   9
   2  -2  -3 10153.6 148.352   1
  -2   2  -3 10262.3 127.222   8
   2  -2   3 10130.1 122.768  11
   2   0   3 10008.5 121.259   5
   2   0  -3 10224.1 130.503   1
   2   0   3 10054.9 143.133   4
   2  -2   3 9597.76 122.697   8
   0   2   3 9955.80 126.332   8
   2  -2   3 10131.8 145.958  12
   0  -2   3 9549.74 145.570  11
   2   0  -3 9771.55 146.623   9
   0  -2  -3 9955.85 124.915   2
   0  -2  -3 10038.7 127.759   8
   0   2  -3 10002.4 137.673   9
   0  -2   4 2812.88 80.7074   6
  -2   0  -4 2826.81 83.8867   2
   0  -2  -4 2931.26 77.5718   8
  -2   0   4 2775.18 66.4798   5
   0  -2  -4 2751.22 68.5427   2
   2   0  -4 2767.96 71.1729   1
   2  -2   4 2840.22 68.3660  11
  -2   0  -4 2742.14 84.5731   8
   2   0  -4 2814.58 73.8764  10
   2  -2   4 2886.98 83.9409  12
  -2   0  -4 2814.01 55.2725   6
   0   2   4 2863.46 75.1221   9
   2  -2  -4 2875.28 85.0753   1
   0   2   4 2767.14 75.2726   8
   0   2  -4 2775.68 74.7611   9
   2   0   4 2902.41 75.5147   5
  -2   2  -4 2897.61 76.1894   8
   0  -2   4 2846.44 85.3294  11
  -2   2  -4 2815.69 84.4572   2
  -2   2   4 2871.23 72.5699   6
   2   0   4 2875.61 87.2355   8
   0  -2   4 2922.04 84.6391  12
   2  -2   4 2977.54 58.4812   4
   2   0  -4 2738.21 82.3391   9
   2  -2   4 2569.85 71.1787   8
   0  -2  -4 2825.24 78.3166  10
  -2   0   4 2888.44 85.7830  11
  -2   2   4 2902.78 86.9093  11
  -2   0   4 2744.20 79.0180   6
   2   0  -5 5235.76 111.422   7
  -2   2  -5 5143.88 120.603   2
   2   0  -5 5216.31 111.774  10
   2   0  -5 5323.47 119.404   9
  -2   0   5 5544.18 126.062  11
  -2   0  -5 5187.18 119.524   2
   2  -2   5 5297.89 99.2998  11
   0  -2  -5 5350.38 116.199  10
  -2   2   5 5781.55 130.023  11
  -2   2   5 5376.71 99.6404   6
  -2   0  -5 5202.80 123.839   8
   0   2  -5 5262.69 106.116   9
   2   0   5 5458.37 126.807   8
   0   2  -5 5299.85 108.841   8
   0  -2   5 5170.64 112.808   6
   2  -2   5 5342.37 76.8570   4
   2   0   5 5501.69 114.298   5
   2   0  -5 5483.25 106.510   1
   2   0   5 5210.60 121.197   3
   0  -2   5 5371.20 122.266  12
   2  -2  -5 5472.43 124.262   1
  -2   0   5 5508.75 114.737   6
   0   2   5 5356.88 114.826   8
   0  -2  -5 5336.90 116.134   8
   0   2   5 5485.11 106.074   9
   0  -2   5 5395.64 123.731  11
   0  -2  -5 5258.65 99.1597   2
  -2   0   5 5227.42 102.723   5
   2  -2  -5 5301.68 119.541   9
  -2   2  -5 5505.86 114.532   8
   2  -2   5 5466.09 123.921  12
   2  -2   5 5173.02 110.461   8
   2  -2   6 12235.0 184.142   8
   0  -2   6 12520.7 181.211   6
   0  -2  -6 12434.7 193.111   8
   2  -2  -6 12192.8 189.206   9
   0   2  -6 12551.8 183.383   8
   0  -2   6 12725.5 201.477  12
   0   2  -6 12328.6 166.963   9
  -2   0   6 12789.6 204.362  11
  -2   2   6 12769.9 155.808   6
  -2   2  -6 12291.2 198.572   2
   2   0   6 12421.7 186.915   5
  -2   2   6 12704.2 205.194  11
   0   2   6 12542.0 191.892   3
   0  -2  -6 12552.1 192.124  10
   2   0  -6 12242.3 187.268  10
   2   0  -6 12711.8 174.897   1
   2   0   6 12462.7 203.355   8
   0  -2   6 12916.3 201.906  11
   2  -2   6 12726.8 201.820  12
  -2   0  -6 11985.3 191.717   2
  -2   2  -6 12697.4 188.521   8
   2  -2  -6 12883.1 195.511   8
   2   0   6 12568.6 201.295   3
   2   0   6 12293.8 125.800  11
  -2   0   6 12306.1 174.470   5
   2  -2   6 12432.1 162.043  11
   0   2   6 12605.1 165.926   9
  -2   0   6 12615.6 179.331   6
   0   2   6 12430.1 189.729   8
   0  -2  -6 12429.7 162.359   2
   2   0  -6 12187.3 185.546   7
   2   0  -6 12337.8 188.981   9
  -2   0  -6 12774.1 204.727   8
   2   0   7 562.541 31.9508  11
   0   2   7 639.995 50.9845   5
   2   0  -7 615.007 47.7011  10
   2  -2  -7 591.079 46.4439   9
   2   0  -7 618.969 46.8122   9
   0   2  -7 606.791 39.9159   9
   0   2  -7 629.077 46.3986   8
   2   0  -7 588.936 41.8184   1
  -2   2   7 622.591 48.5947   5
  -2   2   7 630.631 36.4381   6
   0   2   7 616.689 48.3240   8
  -2   0   7 572.802 50.6270  11
  -2   2  -7 634.356 47.5467   8
   2  -2  -7 686.175 51.0335  10
  -2   0   7 601.097 44.0481   5
   0   2   7 606.861 48.0044   3
  -2   2   7 665.640 52.2142  11
   2   0   7 674.607 50.0358   5
   0  -2  -7 695.421 51.4815   8
   2   0   7 651.061 51.3832   3
  -2   2  -7 578.254 48.5463   2
   2  -2  -7 569.023 47.2351   8
   2  -2   7 614.387 50.3687  12
   0  -2  -7 583.530 39.2000   2
   2  -2   7 577.498 47.3404   8
   2   0  -7 618.191 47.8533   7
  -2   0   7 599.062 43.0857   6
  -2   0  -7 622.535 48.9719   2
   0  -2   7 617.186 43.4290   6
   2  -2   7 612.173 40.9760  11
   0  -2   7 634.784 49.8342  11
   0  -2   7 655.668 51.8484  12
   0  -2  -7 641.700 49.3702  10
   0   2  -8 230.820 26.7332   9
   2   0  -8 241.729 33.8728  10
  -2   0   8 211.191 36.4642  11
  -2   2   8 285.636 38.1108   5
   2   0   8 264.603 36.5439   5
  -2   0  -8 253.456 35.8481   2
   2   0  -8 278.982 37.4732   7
   0  -2   8 232.638 29.6676   6
   2  -2   8 238.511 29.2360  11
   2   0  -8 226.751 28.8957   1
   2  -2  -8 221.319 32.4458   9
  -2   2   8 261.302 37.5309  11
   0  -2   8 242.971 35.8627  11
  -2   0   8 238.071 32.7113   5
   0   2   8 245.102 36.7913   5
   2  -2   8 246.867 37.5335  12
   0  -2  -8 212.770 25.9969   2
  -2   0   8 289.739 32.3236   6
  -2   2  -8 195.725 32.6228   2
  -2   2   8 228.547 23.1788   6
   2   0  -8 222.251 32.3587   9
   0   2   8 261.614 37.1895   3
   2  -2  -8 219.823 33.8899  10
   0  -2  -8 243.746 35.3022  10
   0  -2  -8 218.847 34.3251   7
   0  -2   8 217.950 35.4684  12
   2   0   8 257.066 38.3998   3
  -2   0  -9 998.871 66.9722   2
   0  -2  -9 990.604 68.2814   7
   0  -2  -9 929.812 53.8713   2
   2   0  -9 965.551 67.9646   7
   0   2  -9 1017.99 54.0574   9
   2   0  -9 929.767 61.1118   9
   0  -2   9 980.084 67.2909  11
   0  -2  -9 993.435 68.5978  10
  -2   2  -9 929.742 66.4805   2
   0   2   9 953.491 66.4524   3
   2  -2  -9 864.338 59.4323   9
   2  -2   9 989.727 57.8456  11
  -2   2   9 993.712 68.2558   5
   0  -2   9 1007.11 57.8285   6
   0   2   9 969.280 69.6694   5
  -2   0   9 943.338 55.7356   6
   2   0   9 919.287 66.1595   5
  -2   0   9 1014.78 71.3390  11
   2   0  -9 907.825 58.7385   1
   2   0  -9 1004.68 69.0843  10
  -2   2   9 952.499 68.4458  11
   2   0   9 887.139 68.0878   3
  -2   0   9 997.700 64.8077   5
   2  -2  -9 954.744 69.5297  10
   2  -2   9 939.177 68.8720  12
   0  -2   9 969.445 70.1757  12
   2  -2  10 1769.54 79.5352  11
   0  -2 -10 1763.10 96.1123  10
   2   0  10 1833.12 96.9285   5
   2  -2 -10 1673.85 96.5117  10
   2   0 -10 1807.83 86.4673   9
  -2   0  10 1807.43 98.8699  11
  -2   0  10 1822.60 92.8251   5
   0   2  10 1844.77 96.3676   3
  -2   2 -10 1768.67 94.8355   2
  -2   2  10 1791.42 95.3650   5
   2   0 -10 1810.44 96.6042   7
   0  -2  10 1807.61 94.1129  11
  -2   2  10 1722.66 95.4992  11
  -2   0 -10 1833.98 93.3772   2
   2   0 -10 1782.73 95.8471  10
   2  -2 -10 1844.89 88.0897   9
   0  -2  10 1805.38 78.2666   6
  -2   0 -10 1848.78 97.0421   7
   0  -2 -10 1882.50 98.3015   7
   0   2  10 1733.11 97.2512   5
  -2   0 -10 1876.60 97.4910  10
   2   0 -11 1281.96 87.6174   7
   0  -2 -11 1328.20 88.3055   7
  -2   0 -11 1379.09 89.7759   7
   0  -2 -11 1441.04 92.2316  10
  -2   0  11 1341.34 89.9985  11
   2   0  11 1361.07 88.6087   5
  -2   2  11 1282.72 86.3413   5
   0  -2  11 1248.33 82.4576  11
   0   2  11 1345.64 90.9247   5
   2  -2 -11 1324.03 90.7615  10
   2  -2 -11 1382.70 79.4793   9
   2   0 -11 1223.60 73.8803   9
  -2   0  11 1396.27 86.9492   5
   2   0 -11 1242.24 86.2287  10
  -2   2 -11 1298.12 85.7114   2
  -2   2  11 1242.35 85.4175  11
  -2   0 -11 1463.18 91.7124  10
  -2   0 -11 1383.60 85.7730   2
   2   0 -12 446.338 57.3388  10
  -2   0 -12 371.132 52.0848  10
   0  -2  12 317.132 47.5367  11
  -2   2  12 366.458 53.0974  11
  -2   0 -12 423.905 53.8583   2
  -2   2  12 359.447 51.7118   5
   2  -2 -12 355.756 53.3162  10
  -2   2 -12 480.649 58.1999   2
   0   2 -12 386.243 56.3691   7
   0  -2 -12 451.583 58.3829  10
  -2   0 -12 388.996 54.0596   7
   0   2  12 338.281 51.6748   5
  -2   0  12 383.369 52.1620   5
   0  -2 -12 361.292 54.3017   7
   2   0 -12 417.188 57.8820   7
   0   2 -12 371.689 53.3587  10
  -2   0  12 382.751 56.5621  11
   2   0  12 339.462 50.8391   5
  -2   0 -13 420.444 54.1214   2
   0   2 -13 381.781 56.1578  10
   2   0  13 358.643 55.1276   5
  -2   0  13 403.502 55.9231  11
  -2   2  13 297.229 50.5774  11
   0  -2 -13 431.545 58.6383  10
  -2   0 -13 350.954 55.6305   7
  -2   2  13 358.253 53.6922   5
   2   0 -13 410.693 58.8914  10
   0   2  13 432.331 61.6233   5
  -2   0  13 442.719 59.2958   5
  -2   0 -13 424.956 58.7127  10
   0   2 -13 329.820 48.2261   2
   0   2 -13 329.278 52.9239   7
   2  -2 -13 404.552 56.2811  10
  -2   2 -13 393.470 55.3971   2
   2   0 -13 514.380 65.1906   7
   0  -2  13 382.721 52.7492  11
   0   2 -14 1160.49 95.6919   7
  -2   0  14 1352.29 99.7754   5
  -2   0 -14 1106.44 93.8862   7
  -2   0 -14 1266.85 99.8086  10
   0   2 -14 1091.25 87.0503   2
   2  -2 -14 1115.61 94.2205  10
   2   0  14 1119.45 94.7001   5
   2   0 -14 1231.32 99.6501  10
   0  -2 -14 1204.16 97.9792  10
  -2   2  14 1160.59 96.0860   5
   0   2 -14 1183.06 95.8967  10
   2   0 -14 1314.78 102.238   7
   0  -2  14 1152.48 91.1465  11
  -2   2  14 1087.01 92.9278  11
   0   2  14 1292.28 102.590   5
  -2   0 -14 1222.76 91.1933   2
  -2   2 -14 1243.13 96.6825   2
  -2   0  14 972.451 89.6282  11
  -2   0 -15 12.5440 28.4134  10
  -2   2 -15 55.2058 34.8763   7
   0   2 -15-16.9404 39.1057   7
   0  -2  15 71.1153 38.6611  11
  -2   0 -15-6.41406 30.8557   7
   2   0 -15 21.1349 29.7016   7
   2  -2 -15-20.0415 35.0455  10
   2   0  15-9.76665 31.1058   5
  -2   0  15 87.7038 37.4372  11
   0   2 -15 71.8680 38.2652  10
  -2   2 -15 11.5608 23.1687  10
  -2   2  15 24.3289 32.5703  11
   2   0 -15 62.7438 40.1095  10
  -2   2 -15 38.2415 31.5580   2
   0  -2 -15 51.3133 33.3806  10
  -2   2  15 93.5422 40.0169   5
   0   2  15 71.8290 41.1645   5
   2   0  16 25.4889 36.7392   5
  -2   0  16 20.3078 31.7966  11
  -2   0 -16 9.07870 35.6695   7
  -2   0 -16-71.2781 36.6499  10
  -2   2 -16 47.7492 28.3892  10
   2  -2 -16-19.7000 25.7795  10
   0  -2  16 31.6465 30.4180  11
   2   0 -16-5.04293 39.4106   7
   2   0 -16 88.5250 46.4427  10
  -2   2 -16 61.6116 34.6567   2
  -2   2 -16 82.5963 43.0312   7
   0   2 -16 3.73229 24.1761  10
   0   2 -16-4.11666 36.0219   7
  -2   2  16 22.6172 38.0158   5
   0   2  16 8.81672 32.9496   5
  -2   2  16-35.8293 43.6962  11
   0  -2 -16 10.9856 27.5762  10
   0   2  17 129.680 48.2404   5
  -2   0 -17 247.323 59.4141   7
  -2   2  17 119.485 44.7178   5
   2   0 -17 242.782 57.7367  10
   2   0  17 142.153 45.9058   5
   0  -2 -17 203.028 47.0338  10
   0   2 -17 132.044 34.3630  10
  -2   2  17 182.035 48.0336  11
  -2   2 -17 125.343 41.8022   7
  -2   2 -17 193.947 47.8025  10
  -2   0  17 162.540 50.6348  11
  -2   0 -17 60.1110 33.3354  10
   0   2 -17 109.159 44.9219   7
   2  -2 -17 81.0356 33.3721  10
  -1  -2 -17 98.4390 41.4300  10
  -2   3 -17 239.141 58.0284   2
  -3   2  17 26.7353 35.8731  11
   3  -2 -17 91.3599 35.2527  10
  -2  -1 -17 35.2453 37.1751   7
   3  -1 -17 12.4690 23.7557  10
  -1   3 -17 193.421 49.3037  10
  -3   2  17 3.47852 37.1695   5
  -3   1  17 159.506 53.0371  11
  -3   1  17 85.5460 43.8418   5
  -2  -1 -17 107.709 36.2026  10
  -1   3 -17 105.159 42.5626   7
  -2  -1 -16 732.741 86.7492   7
  -3   1  16 599.682 75.6664   5
   3  -1 -16 625.828 80.5089  10
  -2  -1 -16 597.008 78.4225  10
  -3   2  16 595.082 79.3514  11
   2   1  16 568.714 78.0259   5
  -2   3 -16 495.037 71.2646  10
  -1   3 -16 534.557 71.3387   2
  -3   2  16 652.716 83.1669   5
  -2   3 -16 676.607 82.0544   2
  -1   3 -16 627.897 78.5234  10
   3  -2 -16 590.730 78.8596  10
  -3   1  16 637.212 82.2692  11
  -1   3 -16 630.788 79.0981   7
  -1  -2 -16 648.217 81.0209  10
   1   2  16 667.439 85.1418   5
  -2   3 -16 656.352 80.6968   7
  -2  -1 -15 119.666 39.2751  10
  -3   1  15 311.938 63.3842  11
  -3   2  15 138.489 47.7721  11
  -1   3 -15 237.987 55.1524   7
   3  -1 -15 118.683 38.6830  10
  -2   3 -15 98.7229 35.8309   2
  -1  -2 -15 169.697 45.4337  10
   3  -2 -15 169.200 42.5502  10
  -3   2  15 172.559 47.7008   5
  -3   1  15 116.759 37.7186   5
   2   1  15 104.408 40.7917   5
   1   2  15 241.019 60.1881   5
  -1   3 -15 217.016 48.8424   2
  -1   3 -15 187.353 46.8746  10
  -2  -1 -15 192.502 51.1031   7
  -1   3 -14 622.323 71.7988   2
   3  -1 -14 665.592 75.4256  10
  -2   3 -14 678.715 74.3818   2
  -3   1  14 678.540 79.1524  11
  -2  -1 -14 524.750 67.4863  10
   2   1  14 653.258 76.7568   5
  -3   2  14 596.321 72.5563   5
  -1  -2 -14 589.749 70.0613   7
   3  -2 -14 713.398 78.6552  10
  -3   2  14 554.828 72.5598  11
   1  -3  14 599.782 65.6218  11
  -3   1  14 614.772 70.6962   5
   1   2  14 811.444 85.3573   5
  -1  -2 -14 637.008 72.4975  10
  -2  -1 -14 766.240 80.2668   7
  -1   3 -13 94.7234 35.0323   2
  -1  -2 -13 111.634 37.7143   7
  -2  -1 -13 182.570 43.7546   7
  -3   2  13 122.020 40.1907  11
  -1  -2 -13 181.370 43.6283  10
  -2   3 -13 75.0318 30.9079   2
  -3   2  13 111.790 37.3248   5
   2   1  13 154.119 42.4097   5
  -2  -1 -13 88.6608 32.0163   2
  -2  -1 -13 61.3689 23.8106  10
   1   2  13 89.3429 36.8355   5
  -3   1  13 100.578 41.3612  11
   3  -2 -13 104.229 37.5234  10
   3  -1 -13 57.1672 32.5881  10
  -3   1  13 99.4608 34.8095   5
   1  -3  13 62.0933 28.2348  11
   1   2  12-9.27813 27.4001   5
   3  -2 -12 16.3853 24.2054  10
  -2  -1 -12-34.9264 25.3756  10
   1  -3  12 43.5329 29.8709  11
  -1  -2 -12 6.80567 27.7966   7
  -3   2  12 22.0953 27.7516   5
   3  -1 -12 14.2428 25.7564  10
  -1  -2 -12 29.4514 25.0121  10
  -3   1  12 1.31396 23.6977   5
  -2   3 -12 6.37877 20.8630   2
   3  -1 -12 20.8455 27.3545   9
   1  -3  12 12.0700 29.3768  12
  -3   1  12 37.6330 33.5746  11
  -2  -1 -12-10.7586 25.2840   2
   3  -2 -12-7.01213 25.4567   9
   2   1  12 2.41788 27.3303   3
   1   2  12 0.29426 26.3620   3
  -3   2  12 5.70823 26.0870  11
   2   1  12 36.4384 29.3113   5
  -2  -1 -12 16.5850 27.5323   7
   2  -3  12 44.5419 31.0067  12
   1  -3  11 306.417 45.6610  11
  -3   1  11 222.785 44.4566  11
   3  -2 -11 231.862 44.4443  10
  -2  -1 -11 257.688 43.0548   7
  -2   3 -11 243.943 43.3747   2
  -2  -1 -11 265.985 41.8343  10
   1  -3  11 244.437 46.6054  12
   2   1  11 224.075 47.3919   3
  -1  -2 -11 252.059 42.4961   7
   2   1  11 283.404 47.3343   5
  -3   2  11 287.522 48.3517  11
  -2  -1 -11 271.622 41.3891   2
  -3   1  11 255.299 42.0215   5
   1   2  11 316.060 51.2399   3
   3  -2 -11 269.011 43.6491   9
   3  -1 -11 262.153 43.5571   9
   1   2  11 217.792 42.1277   5
   2  -3  11 229.683 44.1984  12
  -3   2  11 277.727 42.7641   5
   2  -3  11 298.612 42.1861  11
  -1  -2 -11 329.826 49.6192  10
   3  -1 -11 343.314 50.4325  10
  -3   2  10 1190.94 84.3764  11
   2  -3  10 1171.88 71.6285  11
  -1  -2 -10 1151.59 77.5775   7
   2   1  10 1210.78 84.4666   3
  -2   3 -10 1176.10 82.0945   2
   1  -3  10 1154.37 76.1210  11
  -2  -1 -10 1266.08 80.4346  10
   3  -2 -10 1137.05 81.9633  10
   1  -3  10 1001.73 79.1421  12
   2  -3  10 1116.42 82.6002  12
   2   1  10 1064.23 76.6423   5
  -2  -1 -10 1202.37 77.8360   2
   3  -2 -10 1123.52 76.1707   9
   3  -1 -10 1305.66 81.7792   9
  -2  -1 -10 1260.85 80.1832   7
  -1  -2 -10 1217.92 79.9911  10
  -3   2  10 1145.22 76.0630   5
   1   2  10 1152.48 81.0413   5
   1   2  10 1193.03 83.4323   3
  -1  -2 -10 1235.12 73.8272   2
   3  -1 -10 1102.89 79.7728  10
  -3   1  10 1106.18 82.3199  11
  -3   1  10 1175.33 75.7867   5
  -2  -1  -9 3653.88 126.131  10
   2  -3   9 3570.03 135.714  12
   3  -1  -9 3716.86 134.033  10
   2   1   9 3702.45 129.505   5
  -1  -2  -9 3764.18 129.069  10
  -2  -1  -9 3681.82 126.427   7
  -3   1   9 3749.34 138.900  11
  -3   2   9 3625.61 125.677   5
   2   1   9 3720.23 137.034   3
  -3   2   9 3622.64 135.208  11
   2  -3   9 3822.31 121.245  11
  -2  -1  -9 3568.76 124.887   2
   1  -3   9 3631.63 128.210  11
  -3   1   9 3843.82 127.087   5
   3  -2  -9 3684.72 129.035   9
  -3   1   9 3832.64 116.362   6
   1   2   9 3794.18 135.049   5
  -2   3  -9 3506.37 130.968   2
  -1  -2  -9 3601.09 125.770   7
  -1  -2  -9 3854.92 121.700   2
   1   2   9 3573.98 132.444   3
   3  -1  -9 3652.71 127.981   9
   1  -3   9 3433.47 133.270  12
   3  -1  -8 65.0932 25.6643   9
  -1  -2  -8 64.6618 22.3430  10
  -3   1   8 58.6137 21.6674   6
   2  -3   8 67.1213 23.0423  11
  -3   2   8 61.1669 18.5730   6
  -2  -1  -8 54.9576 21.8569  10
   2   1   8 31.0314 22.0725   3
   3  -1  -8 22.2900 20.7891  10
   1   2   8 60.7824 26.3125   3
  -3   2   8 52.5447 27.2356  11
   3  -2  -8 40.8101 23.8560   9
  -1   3  -8 65.5614 21.8198   8
  -1  -2  -8 62.3643 21.1253   7
   1   2   8 51.9506 26.7448   5
  -2  -1  -8 28.2079 17.8719   7
  -3   2   8 51.7547 24.0390   5
   2  -3   8 36.9632 23.8314  12
  -2  -1  -8 81.8410 26.4014   2
  -3   1   8 42.8046 20.4747   5
   1  -3   8 50.1120 25.1908  12
   2   1   8 47.5376 21.3708   5
  -3   1   8 43.5786 25.1441  11
   1  -3   8 79.2417 26.8326  11
  -1  -2  -8 53.7954 23.0711   2
   2  -3   7 6080.82 139.347  11
  -1  -2  -7 6232.55 144.367  10
   2   1   7 6158.83 146.697   5
   3  -1  -7 6315.23 153.467  10
  -1  -2  -7 6425.47 143.457   2
  -1  -2  -7 6126.47 142.561   7
   2  -3   7 5913.33 136.616   8
  -2  -1  -7 6218.72 141.691   7
  -3   2   7 5970.61 156.770  11
  -2   3  -7 5964.92 134.803   8
   2   1   7 6101.69 157.318   3
  -3   2   7 6454.94 136.321   6
   3  -1  -7 6069.08 145.927   1
  -3   1   7 6348.54 162.171  11
   1   2   7 5969.11 154.184   3
   1   2   7 6449.69 124.164   9
   3  -2  -7 6221.53 154.969   9
  -3   1   7 6200.51 136.106   5
   3  -1  -7 6176.28 153.239   9
   1  -3   7 6066.02 158.568  12
   1   2   7 6283.08 155.280   5
  -1   3  -7 6081.72 133.599   8
  -1   3  -7 6120.93 121.640   9
  -2  -1  -7 6279.21 142.623  10
   1  -3   7 6191.91 151.569  11
   2  -3   7 6014.61 158.065  12
  -2  -1  -7 6157.07 150.582   2
  -3   1   7 6163.99 139.589   6
  -3   2   7 6147.96 142.987   5
  -3   1   6 11990.5 189.276   6
  -3   2   6 12332.0 211.300  11
   2   1   6 11617.8 187.288   5
  -2  -1  -6 11653.4 177.894   7
  -3   1   6 11868.4 208.262  11
   2   1   6 11709.3 207.335   8
   2  -3   6 12092.7 186.768  11
   2  -3   6 11431.1 174.156   8
  -3   2   6 11505.3 182.024   5
   1   2   6 11978.0 198.240   8
   3  -1  -6 11191.3 199.006   9
  -2  -1  -6 11826.7 179.730  10
  -3   1   6 11707.3 170.139   5
  -2   3  -6 11781.6 174.894   8
  -3   2   6 11802.0 179.360   6
  -1  -2  -6 11661.8 180.673  10
  -1  -2  -6 11449.1 195.824   8
   3  -2  -6 11249.7 200.338   9
   1  -3   6 11929.3 200.073  11
  -2  -1  -6 11497.3 196.965   2
   2   1   6 12117.8 143.300   9
   3  -1  -6 11908.6 192.707   1
  -2   3  -6 11241.1 135.215   9
  -1   3  -6 11145.1 161.611   9
  -1  -2  -6 11560.4 179.960   7
  -1   3  -6 11375.3 166.727   8
  -2  -1  -6 11871.2 207.061   8
  -1  -2  -6 11523.0 183.983   2
   1  -3   6 11525.2 206.539  12
   2  -3   6 12201.7 211.384  12
   1   2   6 12101.8 167.082   9
   3  -2  -6 11968.9 204.424   1
  -1   3  -5 1344.29 52.9211   8
   2  -3   5 1179.63 64.1562  12
   3  -2  -5 1258.49 64.0285   1
  -2  -1  -5 1260.61 42.1916  11
  -1  -2  -5 1195.00 59.0612   2
  -3   1   5 1260.66 65.8294  11
  -2  -1  -5 1201.69 37.8961   6
  -1  -2  -5 1194.81 36.4268   6
  -2   3  -5 1122.14 44.1408   9
   2   1   5 1313.62 59.0792   5
  -3   1   5 1264.00 61.5955   6
   1   2   5 1249.33 54.0086   9
  -2  -1  -5 1240.41 53.3050  10
  -1   3  -5 1169.40 52.9875   9
   2   1   5 1277.15 47.3900   9
  -3   2   5 1269.38 58.6946   6
  -2   3  -5 1286.24 53.5199   8
   2   1   5 1272.07 66.7077   8
   1  -3   5 1240.91 65.7485  12
   1  -3   5 1253.60 64.4384  11
  -2  -1  -5 1267.52 53.9875   7
  -2  -1  -5 1184.47 62.7124   2
   1   2   5 1288.21 62.7176   8
   3  -1  -5 1229.33 65.1652   9
   3  -2  -5 1236.77 66.0014   9
  -3   1   5 1243.70 51.0995   5
   2  -3   5 1199.94 52.3706   8
   2  -3   5 1299.98 61.1311  11
  -3   2   5 1315.59 67.0436  11
  -1  -2  -5 1247.38 55.1849  10
   3  -1  -5 1283.94 61.7607   1
  -1  -2  -5 1190.22 61.0760   8
   3  -2  -4 11464.7 181.787   1
  -2  -1  -4 11965.8 144.241   7
  -2  -1  -4 12129.4 145.342  10
   3  -1  -4 11245.3 183.206   9
  -1  -2  -4 11426.1 122.570   6
  -3   2   4 11656.7 184.732  11
  -3   1   4 11408.1 174.851   6
  -3   2   4 11478.4 183.610   1
  -2  -1  -4 11421.1 124.900   6
   3  -2  -4 11614.9 187.481   9
   2  -3   4 11715.3 172.491  11
  -3   2   4 11495.5 170.548   6
   2   1   4 11833.4 159.907   5
  -2   3  -4 11167.4 139.377   9
  -1   3  -4 11127.6 157.198   9
  -2  -1  -4 11403.8 181.301   2
  -1   3  -4 11700.6 135.462   8
  -3   1   4 11290.2 133.771   5
   1  -3   4 12072.7 186.981  11
   2  -3   4 11440.3 139.872   8
   1   2   4 11291.5 169.972   8
  -3   1   4 12097.6 185.433  11
   2  -3   4 11758.9 191.354  12
  -1  -2  -4 11751.0 156.013  11
   2   1   4 11280.5 184.335   8
   1  -3   4 11719.4 190.506  12
  -3   1   4 11543.4 177.503   1
   3  -1  -4 11465.7 173.901   1
  -2   3  -4 12114.9 143.711   8
  -1  -2  -4 11464.8 170.562   2
   1   2   4 11795.3 161.002   9
   2   1   4 11594.6 143.392   9
  -1  -2  -4 11733.0 173.972   8
  -1  -2  -4 11848.5 151.169  10
  -2  -1  -4 11181.9 115.870  11
  -2  -1  -3 99.7156 13.9877   7
  -1  -2  -3 86.4786 14.5991   6
   3  -2  -3 83.1867 21.3090   9
   2  -3   3 95.3031 23.1335  12
  -2  -1  -3 97.8676 13.9055  10
  -3   1   3 89.6407 12.8736   5
  -1  -2  -3 101.802 22.5964   2
  -3   2   3 97.9484 20.3145   6
  -3   1   3 99.1317 21.1317  11
   3  -2  -3 92.1374 20.5908   1
   2  -3   3 111.620 14.4495   8
  -3   1   3 116.570 18.2756   2
   1   2   3 100.273 19.3532   8
  -1  -2  -3 117.697 19.7031  11
   2  -3   3 92.7431 20.5260  11
  -2   3  -3 117.850 18.2167   9
   2   1   3 121.320 25.1980   8
  -3   2   3 126.629 24.9019   1
  -3   1   3 98.6099 20.9194   6
  -1   3  -3 111.643 11.6998   1
  -1   3  -3 111.138 13.5066   8
   1   2   3 127.709 20.5447   9
  -1   3  -3 106.667 19.9828   9
  -3   2   3 91.6345 19.9763  11
   2   1   3 102.931 17.3173   9
   1  -3   3 95.5270 23.6122  12
  -2  -1  -3 85.3461 14.8637   6
   1  -3   3 116.501 25.0476  11
   3  -1  -3 101.656 21.6739   1
  -2  -1  -3 95.5644 12.5609  11
   3  -1  -3 84.4462 20.0926   9
  -2  -1  -3 120.385 25.1087   2
  -3   1   3 109.026 20.7443   1
  -2   3  -3 117.489 15.5292   8
   1  -3   2 7037.22 136.290  11
  -3   2   2 6672.62 122.349  11
  -1  -2  -2 6795.28 108.444   6
  -3   2   2 6906.03 135.537   1
   3  -2  -2 6960.90 133.359   1
   1   2   2 6693.32 121.078   9
  -1   3  -2 6836.35 75.7465   1
  -1   3  -2 6751.24 121.796   9
  -2   3  -2 6488.96 111.162   9
  -3   1   2 6832.39 129.981   1
  -3   2   2 6917.15 84.9100   2
   2  -3   2 6874.31 77.8449   8
  -3   2   2 6772.13 126.970   6
  -1  -2  -2 6821.93 114.122  11
  -2   3  -2 6624.13 105.064   1
   2  -3   2 6450.07 125.534  11
   3  -1  -2 6825.21 131.220   9
   3  -2  -2 6836.83 131.311   9
   2   1   2 6753.99 114.632   9
  -1  -2  -2 6648.96 126.072   2
  -3   1   2 6844.24 108.433   2
   1   2   2 6651.15 116.049   8
  -1   3  -2 7021.99 70.1616   8
  -2  -1  -2 6826.32 131.261   2
  -2  -1  -2 6714.67 86.9972  11
  -3   1   2 6813.53 128.615   6
  -2  -1  -2 6668.83 107.373   6
  -3   1   2 6750.59 117.528  11
  -1  -2  -1 879.321 47.9944   2
   3  -1  -1 874.697 47.2824   9
  -3   1   1 879.354 41.3650   2
   2  -3   1 885.573 22.9574   8
   1   2   1 888.788 47.0880   9
  -2   3  -1 897.580 40.8783   1
  -2  -1  -1 890.600 42.7761   6
  -3   1   1 836.871 46.2650   6
  -3   2   1 871.789 35.0386   2
  -3   1   1 889.637 39.5322  11
   3  -2  -1 846.525 46.7337   9
   2   1   1 871.916 44.2818   9
   1  -3   1 948.912 32.5015   1
  -2   3  -1 879.079 43.4819   9
  -3   1   1 744.057 45.0048   1
   2   1   1 907.529 49.2380   4
  -2  -1  -1 917.047 35.6395  11
   2  -3   1 914.594 50.0487  11
  -1  -2  -1 917.714 44.1378   6
   1  -3   1 902.624 51.1583  11
  -3   2   1 857.159 48.4409   1
  -1  -2  -1 861.595 41.9250  11
  -2  -1  -1 822.505 47.5533   2
  -1   3  -1 888.152 46.5888   9
  -1  -2   0 17.1833 15.7210  11
   2   1   0-5.06669 16.3993   4
  -3   1   0 7.91868 9.43116  11
   1   2   0 3.58025 15.1458   9
   1  -3   0 10.5778 9.96062   1
  -1   3   0-2.40064 14.7509   9
  -1  -2   0 7.32972 16.8097   2
  -2  -1   0 3.63484 13.2498   6
  -3   1   0 5.89736 13.9796   2
   2  -3   0-4.52443 20.0234  11
  -2  -1   0 0.99663 18.3619   2
  -3   2   0 8.38221 11.8748   2
  -3   2   0 4.66120 15.8026   1
   1  -3   0 1.18125 18.7508  11
   2   1   0 18.2400 18.1583   9
   3  -2   0-1.01638 14.8781   9
   2  -3   0-2.11190 13.7777   1
  -2  -1   0 6.37128 11.0488  11
   3  -1   0 6.36385 15.4855   9
  -2   3   0 27.1037 13.7235   1
  -2   3   0-8.99786 17.2057   9
  -3   1   0-0.60982 16.7929   6
  -1  -2   0 13.7729 13.7363   6
   1  -3  -1 2166.94 59.1718   1
  -1  -2   1 2048.88 71.5673   2
  -3   2  -1 2120.08 63.6441   2
  -2  -1   1 2001.21 70.5407   2
   2  -3  -1 2114.85 65.4044   1
  -3   1  -1 1980.21 65.7103   6
   1  -3  -1 2126.57 77.0075  11
  -2   3   1 1996.82 68.0759   9
   1   2  -1 2173.83 72.8217   9
   2   1  -1 2081.20 72.3425   9
   3  -1   1 2147.52 63.3356   9
  -1  -2   1 2093.61 68.9801  11
   3  -2   1 2094.77 62.6352   9
  -2  -1   1 1942.41 67.2025   6
  -2   3   1 1991.90 63.1569   1
  -3   1  -1 2054.38 68.2056   2
   2  -3  -1 2109.17 76.2029  11
  -1  -2   1 2057.86 70.0311   6
   3  -2   1 2179.48 48.2538   3
  -2  -1   1 2131.15 63.6749  11
  -1   3   1 2086.55 34.0828   8
   2   1  -1 2027.73 67.0439   4
  -1   3   1 2024.06 69.9065   9
  -2  -1   2 327.751 30.9260  11
   2   1  -2 268.617 26.9486   4
   1   2  -2 276.435 29.8936   9
  -3   1  -2 307.947 28.0225   6
   3  -2   2 303.416 23.9765   9
  -1  -2   2 316.703 31.5082  11
   3  -1   2 290.342 23.4793   9
   3  -2   2 323.479 23.0848  11
  -2   3   2 260.319 28.5781   9
   3  -1   2 302.189 20.0364  12
   1  -3  -2 284.118 32.2700  11
  -3   2  -2 289.752 28.1972   2
  -1   3   2 313.355 31.4309   9
   3  -2   2 321.577 23.7212   3
  -1  -2   2 299.784 14.2915   1
  -3   1  -2 333.862 31.6750   2
   3  -2   2 344.835 27.7514  12
   2   1  -2 334.000 33.0065   9
  -2  -1   2 312.687 23.4213   1
  -1   3   2 297.661 18.6514   8
   2  -3  -2 270.926 27.7993   1
   3  -1   2 315.059 31.9034   4
  -2  -1   2 286.253 30.2347   6
  -1  -2   2 311.443 30.9238   6
   1  -3  -2 317.723 19.2674   8
  -1  -2   2 291.085 26.1131  12
  -2  -1   2 299.380 31.1988   2
  -2  -1   2 285.741 19.2197  12
   3  -2   3 12590.0 122.483  11
   3  -1   3 13148.2 128.899   9
  -1  -2   3 13082.6 186.454   6
   1  -3  -3 12479.7 132.415   2
  -1  -2   3 12658.8 160.019  12
  -2  -1   3 13177.7 181.913  11
   3  -1   3 12575.0 173.350   4
  -2   3   3 12425.3 118.506   3
  -1   3   3 12303.2 176.586   9
   2   1  -3 12487.7 125.741   7
  -3   2  -3 12421.1 176.895   2
   3  -2   3 12639.9 128.479   9
   3  -2   3 13172.6 155.041   3
  -2  -1   3 12522.4 137.750  12
  -1  -2   3 12669.5 184.672  11
  -2  -1   3 12657.8 137.329   1
   2   1  -3 12477.7 126.478  10
  -3   1  -3 12649.5 157.004   6
   3  -1   3 12714.1 139.224  12
   2   1  -3 12403.8 184.874   9
   3  -1   3 12262.7 187.016   8
   1   2  -3 12252.5 179.408   9
   2  -3  -3 12940.2 139.985   8
   1  -3  -3 13139.3 138.195   8
   2  -3  -3 12945.6 179.970   1
   2   1  -3 12106.6 158.381   4
  -2  -1   3 12598.4 180.652   6
  -3   1  -3 12756.5 182.699   2
   3  -2   3 12187.8 170.456   8
   3  -2   3 13007.9 164.029  12
  -1   3   3 12704.5 134.264   8
   2   1  -4 2236.03 63.8394   7
   3  -2   4 2271.80 72.5847   3
   3  -1   4 2252.93 75.2897   4
  -1   3   4 2280.35 66.1877   8
   3  -2   4 2192.63 73.6541  12
   2   1  -4 2175.79 63.0755  10
  -2  -1   4 2373.38 84.6175  11
  -1  -2   4 2286.66 82.2202   6
  -3   1  -4 2241.66 66.3355   6
   3  -2   4 2260.48 77.6851   8
  -2   3   4 2246.68 58.0030   3
   2  -3  -4 2364.87 69.0169   8
   3  -1   4 2306.55 77.8563   3
   2   1  -4 2306.71 61.1410   1
   2   1  -4 2188.20 67.3290   4
  -3   1  -4 2254.95 82.5439   2
   2   1  -4 2274.77 82.4779   9
   1  -3  -4 2271.09 57.5393   2
   1   2  -4 2299.95 57.6822   4
   3  -1   4 2375.07 68.9386  12
  -1  -2   4 2293.44 74.4477  12
   2  -3  -4 2292.41 82.2835   1
   1  -3  -4 2335.12 67.7397   8
   3  -1   4 2193.67 83.3118   8
   3  -2   4 2244.18 52.2457  11
  -1   3   4 2308.93 78.9778   9
  -1  -2   4 2360.32 85.3075  11
  -2  -1   4 2386.57 69.1407  12
  -2  -1   4 2287.31 80.8232   6
  -2  -1   4 2271.32 59.2106   1
  -3   2  -4 2265.33 81.8405   2
   3  -2   4 2383.46 70.6042   4
   1   2  -4 2188.95 78.9266   9
   1   2  -5 4443.91 76.2761   4
  -1   3   5 4603.03 104.192   8
   1  -3  -5 4431.55 81.5697   2
   2   1  -5 4399.18 99.7131  10
   3  -1   5 4636.88 106.352  12
   1   2  -5 4508.20 66.7893   1
  -2  -1   5 4531.44 116.947   6
   3  -1   5 4449.14 122.718   8
  -3   2  -5 4651.09 117.457   8
  -2   3   5 4364.73 90.5112   3
   3  -2   5 4463.21 114.892   8
   3  -1   5 4476.10 115.636   3
   2  -3  -5 4867.35 125.218   1
  -1   3   5 4438.31 104.607   3
  -1   3   5 4602.15 113.920   9
   3  -2   5 4609.17 113.877  12
  -2  -1   5 4704.88 124.302  11
  -1  -2   5 4516.33 112.280  12
   2  -3  -5 4484.02 104.675   8
   3  -2   5 4464.26 96.5356   4
   2   1  -5 4629.43 90.3033   1
   3  -2   5 4474.98 77.6985  11
  -3   1  -5 4455.74 119.805   2
   1   2  -5 4492.09 116.003   9
   3  -1   5 4473.06 107.353   4
   2   1  -5 4431.84 119.020   9
  -3   2  -5 4563.95 122.005   2
  -1  -2   5 4737.23 121.178   6
   1  -3  -5 4339.39 102.768   8
  -1  -2   5 4650.87 125.503  11
   2   1  -5 4302.94 98.0697   7
  -3   2  -6 11456.2 196.704   8
   1  -3  -6 11459.2 181.877   8
  -2  -1   6 11398.4 204.349  11
   1   2  -6 11265.7 187.248   9
   2   1  -6 11194.8 149.915   1
   1  -3  -6 10791.6 132.322   2
   3  -1   6 11332.7 205.988   8
  -3   1  -6 11546.4 204.220   8
  -2  -1   6 11303.9 189.718   6
  -1  -2   6 11583.2 205.808  11
   2  -3  -6 11051.2 178.673   8
  -3   1  -6 11547.1 203.076   2
   2   1  -6 11382.6 196.103   9
   1   2  -6 11363.9 122.180   1
   1   2  -6 11153.9 117.838   4
   3  -2   6 11114.2 132.091  11
  -1   3   6 11046.8 175.948   3
  -1  -2   6 11364.3 190.273  12
   2   1  -6 11005.8 173.806  10
  -2   3   6 11007.6 158.306   3
   3  -2   6 11075.1 191.232   8
   3  -1   6 11384.7 195.410   3
   2   1  -6 10998.7 173.156   7
  -1  -2   6 11571.4 194.733   6
   3  -2   6 11845.2 193.643  12
  -3   2  -6 11449.3 204.795   2
  -1   3   6 11260.2 178.243   8
   3  -2   6 11194.9 153.900   4
  -2  -1   7 1523.74 80.8386  11
   1  -3  -7 1401.93 70.3094   8
  -3   2  -7 1496.79 78.7466   2
  -1   3   7 1419.86 70.3836   8
  -3   1  -7 1376.07 75.9836   2
  -1  -2   7 1523.65 74.5943   6
   2  -3  -7 1427.10 70.8071   8
  -2   3   7 1530.23 56.1806   6
  -1  -2   7 1485.12 75.3306  12
  -2  -1   7 1448.22 71.7693   6
   2   1  -7 1497.76 59.8094   1
   3  -1   7 1523.12 78.0518   3
   2   1  -7 1490.91 70.8968  10
   2   1  -7 1554.66 72.2735   7
  -1   3   7 1456.44 69.6184   3
   1   2  -7 1412.33 69.9302   9
   2   1  -7 1467.15 74.5030   9
  -1  -2   7 1352.58 76.1653  11
   3  -2   7 1597.69 77.9434  12
   3  -1   7 1534.22 74.7465   5
   2   1  -8 6194.46 154.937   9
   2   1  -8 6295.60 154.616  10
   1   2  -8 6397.51 149.805   9
  -2  -1   8 6442.43 153.289   6
  -2  -1   8 6289.36 169.176  11
   3  -1   8 6170.95 163.815   3
  -1   3   8 6303.78 152.024   3
  -1  -2   8 6075.51 159.594  12
   3  -1   8 6242.05 158.423   5
   2   1  -8 5972.79 127.816   1
  -3   2  -8 6230.71 166.512   2
   2   1  -8 6384.04 155.801   7
  -1  -2   8 6191.72 166.557  11
  -3   1  -8 6119.04 164.261   2
  -1  -2   8 6399.41 153.759   6
   3  -2   8 6087.88 159.653  12
   2  -3  -9 573.130 52.4608   9
  -1  -2   9 672.155 53.9786   6
  -1  -2   9 634.121 58.6394  11
  -3   1  -9 594.644 57.2739   2
  -1   3   9 652.093 55.5093   3
   2   1  -9 673.923 56.6012  10
   3  -1   9 594.636 57.8869   3
  -2  -1   9 701.330 54.4177   6
  -2  -1   9 605.192 58.4674  11
   2   1  -9 652.400 55.8797   7
   1   2  -9 653.182 51.8098   9
   2   1  -9 609.322 54.1207   9
  -2   3   9 591.615 56.7459   5
   3  -1   9 631.843 57.3274   5
  -1  -2   9 665.395 59.4677  12
   3  -2   9 629.907 57.5172  12
  -1   3   9 688.466 62.3352   5
  -3   2  -9 620.690 59.1361   2
   1  -3  -9 635.178 59.7520  10
  -3   1 -10 2900.13 125.211   2
   1   2 -10 2854.15 120.822   7
   1   2 -10 2986.16 109.001   9
  -2  -1  10 2794.33 124.449  11
  -2  -1  10 2998.41 111.085   6
   2  -3 -10 2986.00 116.065   9
   1   2 -10 2893.80 121.264  10
   2   1 -10 2742.67 110.696   9
   3  -1  10 2979.13 123.479   5
  -1   3  10 2808.75 125.792   5
  -1  -2  10 2579.64 119.093  11
  -2   3  10 2817.85 124.609   5
  -3   2 -10 2915.26 126.230   2
   2   1 -10 2982.62 122.378  10
   1  -3 -10 2875.59 126.242  10
   2   1 -10 3078.10 123.887   7
  -1  -2  10 2970.55 111.870   6
   2   1 -11 7.49735 18.9667   9
  -3   1 -11 1.32083 25.8687   2
  -2   3  11 19.7684 28.8692   5
   2   1 -11 22.1984 24.6450   7
   2  -3 -11 30.0177 25.7000  10
  -2  -1  11-18.1549 27.7034  11
  -1   3  11 11.7006 24.9859   5
   1   2 -11 10.7964 25.0854  10
   1  -3 -11-3.03537 23.2193  10
   2  -3 -11-14.8314 25.0940   9
  -3   2 -11 16.3992 27.7007   2
   1   2 -11 26.3724 25.7742   7
   2   1 -11-5.92544 24.5035  10
  -1  -2  11-7.73312 26.5616  11
  -1  -2  12 69.3713 33.4107  11
   2   1 -12 97.6917 35.8772   7
  -2  -1  12 111.732 39.6016  11
   2   1 -12 45.4719 25.1162  10
   1   2 -12 71.3044 31.1992  10
  -3   1 -12 86.3628 34.7734   2
   1  -3 -12 131.991 35.2523  10
  -3   2 -12 42.6866 26.1921   2
   1   2 -12 54.4379 29.4988   7
  -2   3  12 71.9329 32.1569   5
  -1   3  12 109.054 37.0380   5
   2  -3 -12 96.5546 35.5455  10
  -2  -1  13 155.922 44.3659  11
   1   2 -13 188.447 44.4336  10
   2   1 -13 207.024 46.1976   7
   2  -3 -13 147.093 40.3181  10
  -3   2 -13 132.221 40.4508   2
  -1  -2  13 146.326 42.4848  11
   1   2 -13 99.7615 35.4989   7
  -1   3  13 95.5600 37.6016   5
   2   1 -13 114.799 36.6547  10
   1  -3 -13 128.270 40.9835  10
  -3   1 -13 158.695 41.7402   2
  -2   3  13 110.714 35.7735   5
   1   2 -14 489.630 67.3278   7
   1   2 -14 469.782 63.9039  10
  -1  -2  14 418.291 61.7786  11
  -3   1 -14 470.323 68.2529   7
   2   1 -14 440.024 61.6272  10
   2   1 -14 443.852 67.0253   7
  -1   3  14 437.418 64.3671   5
   1  -3 -14 461.054 63.2219  10
  -2   3  14 498.429 65.4768   5
  -3   2 -14 487.540 64.2742   2
   2  -3 -14 488.685 66.2229  10
  -2  -1  14 412.315 63.7041  11
  -3   1 -14 510.497 67.4768   2
  -3   1 -14 464.600 63.1987  10
  -2  -1  15 816.072 87.9359  11
  -3   1 -15 950.845 88.3919   2
  -3   1 -15 861.892 90.0866   7
   1  -3 -15 920.358 91.7731  10
  -2   3  15 851.470 90.1978   5
   2  -3 -15 916.445 91.9933  10
   1   2 -15 789.479 83.2136  10
  -1  -2  15 916.402 91.9776  11
   1   2 -15 785.679 84.2108   7
  -3   1 -15 851.476 88.5537  10
  -1   3  15 786.852 85.9202   5
   2   1 -15 834.222 86.0877   7
  -3   2 -15 836.790 85.7500   2
   2   1 -15 841.057 86.9360  10
  -3   2 -16 22.7090 36.8882   7
  -2  -1  16-19.0516 42.4599  11
  -2   3  16 45.9577 42.5337   5
  -3   1 -16 28.4292 40.5721  10
   2   1 -16 78.4595 36.2828  10
   2  -3 -16 77.9642 32.4561  10
  -3   1 -16 50.1106 37.8866   2
   1  -3 -16-35.3043 25.1168  10
   1   2 -16-13.2668 33.7538   7
   2   1 -16-10.8635 38.4719   7
  -3   1 -16-27.8678 41.6906   7
  -1   3  16 6.03892 34.5700   5
  -3   2 -16-1.19631 28.2451   2
  -3   2 -16-1.72281 22.4207  10
  -1  -2  16 64.8291 41.6297  11
   2   1 -17 528.822 79.1883  10
  -3   1 -17 374.589 66.7393   7
   2   1 -17 647.182 87.0914   7
  -3   2 -17 467.369 70.4644   2
  -2  -1  17 370.308 66.6840  11
   1   2 -17 374.531 62.8826  10
  -3   1 -17 433.971 71.6713  10
  -2   3  17 551.407 81.3932   5
   1   2 -17 416.639 69.9430   7
  -1  -2  17 459.104 72.8596  11
  -3   3   0 9393.82 155.608   1
  -3   0   0 9581.53 152.730   6
  -3   0   0 9765.88 118.163  11
   0   3   0 9889.42 161.230   9
   3   0   0 9926.78 155.311   9
  -3   0   0 9785.32 157.275   2
   3   0   0 9353.28 157.267   4
  -3   3   0 10064.1 126.759   2
   3  -3   0 9710.15 154.180  11
   0  -3   0 9635.36 152.906   6
   0  -3   0 9925.61 163.976  11
   3   0   1 5.06226 18.0942   4
   0  -3  -1-5.68721 15.8550  11
   0  -3   1 20.8033 18.0405   6
   0  -3   1-0.87944 17.4936  11
  -3   0  -1 27.1665 9.02967  11
   0  -3  -1-2.45624 14.1910   2
   0  -3  -1 4.27082 14.2113   6
  -3   3   1 19.2212 8.90635   2
  -3   3  -1 13.4190 11.8936   2
  -3   3  -1 14.1132 16.8631   1
   3   0  -1 2.53196 15.2626   4
   3  -3  -1 10.2428 15.8542   1
   3   0   1 9.45939 14.6330   9
  -3   0   1 7.96412 17.1768   2
  -3   0   1 2.61905 12.9407   6
   0   3   1 29.0042 18.9484   9
   0   3  -1 22.9374 18.5814   9
  -3   3   1 12.5082 13.5555   1
  -3   0   1 6.30157 11.0622  11
   3   0  -1 13.3967 17.2236   9
   0   3   1 15.8412 10.2906   8
  -3   0  -1 2.44942 17.2790   2
  -3   0  -1 23.9279 16.0236   6
   3  -3   1 0.10710 15.1766  11
  -3   3  -2 15.7544 13.3627   2
   0  -3  -2 9.39280 14.4483   6
   3   0   2-12.8528 17.9727   4
   0  -3  -2 14.5367 18.1845  11
  -3   0   2 0.88183 17.1701   6
   3  -3   2 22.7109 16.8122  11
   0  -3   2 14.7856 18.6280  11
   0  -3   2 13.1440 14.3810   6
   0  -3  -2 30.9244 17.1854   2
  -3   0   2 8.48064 12.8339   1
  -3   0   2 4.17979 14.5524   2
  -3   0   2 6.71754 13.0062  11
   3   0  -2 14.1930 19.2990   9
   0   3   2 20.6453 16.6555   9
   0   3  -2 8.26372 15.5906   9
   3  -3   2 15.9039 11.9695   8
   3   0   2 12.7340 13.3544   9
   3  -3  -2 9.29247 14.8369   1
   3   0   2 14.8238 8.37303   5
  -3   0  -2-6.39266 18.5604   2
  -3   0  -2 13.4746 13.8974   6
  -3   3   2 3.78721 14.9382   1
   0   3   2 4.89449 9.97471   8
   0  -3   2 20.1845 18.4400  12
  -3   0   3 157.498 24.0465  11
   3  -3   3 178.951 23.7922  11
   0  -3   3 189.862 29.3650   6
  -3   3   3 170.818 24.8859   1
   0  -3   3 177.485 27.3697  12
   3   0   3 161.709 18.7729   5
  -3   3  -3 146.783 24.8005   2
   0   3   3 144.783 23.8334   9
  -3   0  -3 166.500 27.1611   2
  -3   0   3 131.702 23.9002   6
  -3   0   3 193.540 25.6259   2
   0   3  -3 145.073 25.5965   9
   0  -3   3 116.031 25.0791  11
   3   0   3 150.754 19.3208   9
   3  -3  -3 148.250 25.5506   1
   0  -3  -3 159.966 26.5433  11
   3   0  -3 169.517 26.9622   9
  -3   0   3 149.544 22.0552   1
   3   0   3 156.231 26.8700   4
   3  -3   3 153.631 19.6941   8
   0   3   3 158.693 20.0899   8
  -3   0  -3 188.376 22.6000   6
   0  -3  -3 137.423 22.5003   2
   3  -3   3 182.254 27.0222  12
   3   0   3 139.444 25.9687   8
   3   0   4 11895.9 204.778   8
   3  -3   4 12325.7 192.958  12
   0  -3   4 12145.4 192.609  12
  -3   0   4 12177.0 191.220  11
   0   3  -4 11654.2 183.115   9
   0   3   4 12168.2 183.665   9
  -3   0  -4 11765.5 148.606   6
   0  -3  -4 12206.6 189.451  11
   3   0   4 11906.0 137.303   9
   0  -3  -4 12237.5 166.558   8
  -3   3  -4 11857.7 190.180   2
   0   3   4 12045.2 163.569   8
   0  -3  -4 11741.5 165.461   2
   3   0   4 11714.7 186.872   4
   3  -3   4 11368.6 158.402   8
   0  -3   4 12591.9 202.955  11
   3   0   4 12254.3 156.417   5
   3  -3   4 12297.2 163.958  11
  -3   0  -4 11509.8 194.171   2
  -3   0   4 11911.6 172.344   1
   3  -3  -4 12352.3 197.620   1
   3   0  -4 11785.6 195.972   9
  -3   0   4 11604.1 188.434   6
   0  -3   4 12083.3 194.894   6
  -3   0   5 16.8431 17.1955  11
   3  -3   5 7.24078 13.2400  11
   0  -3   5 14.4007 21.1203  11
  -3   3   5 18.7521 13.6543   6
   0  -3   5 14.5826 16.2369   6
   3   0  -5 37.3492 14.0734  10
   0  -3  -5 33.9457 15.0873   8
   0  -3   5 27.3524 18.5145  12
  -3   0   5 37.7174 21.1994   6
  -3   3  -5 21.9080 18.6707   2
  -3   0   5 99.1744 17.1949   1
   3   0  -5 53.2219 18.5390   1
   3  -3  -5 56.6259 21.5098   1
   0   3   5 11.1722 14.4505   9
   3  -3   5 13.4475 17.4729  12
   0  -3  -5 32.8990 16.2712   2
  -3   0  -5 24.1162 12.2827   6
   3   0   5 14.5577 8.98820   9
   0   3  -5 34.5013 18.0381   9
   3   0  -5 13.6893 18.2386   9
  -3   0  -5 17.1404 19.5545   2
   3  -3   5 11.8920 13.5529   8
  -3   3  -5 52.8833 17.3320   8
   3   0   5 18.5193 14.9106   5
   0   3   5 39.2598 16.8010   8
   3   0   5 16.5394 16.1285   8
   3  -3   6 15.3751 15.2059  11
  -3   0   6 29.2791 21.1764  11
   0   3  -6-14.0638 15.8325   8
  -3   0  -6 12.0001 16.7105   2
   0  -3   6 2.48767 20.5246  11
   3  -3   6 30.5770 21.5097  12
   3   0   6 33.9012 23.2152   3
   0   3   6 21.5228 17.8486   8
   3   0  -6 22.7059 13.9443  10
  -3   3   6 12.6688 12.3405   6
  -3   0   6 15.5434 15.9528   6
   0  -3   6 31.3732 21.2699   6
   3  -3  -6 20.0285 20.7549   9
  -3   3  -6 13.0655 17.1382   2
   0  -3  -6 3.80410 16.0177   8
  -3   0  -6 34.8367 10.9406   6
   0  -3   6 26.6945 20.9584  12
   0   3   6 4.47865 15.4014   9
  -3   0   6 18.6673 12.2268   5
   0  -3  -6 22.2844 15.3166   2
   0   3  -6 13.2374 15.4823   9
   3  -3   6 27.8499 17.4988   8
   3   0  -6-4.49128 18.7767   9
  -3   3  -6 19.6590 17.2832   8
   3   0   6 16.4210 17.3349   5
   3   0  -6 12.8027 13.2836   1
   0   3  -7 13.6670 17.6556   9
   0  -3   7 23.0160 21.6135   6
   0  -3  -7 10.1136 17.4535   8
   3  -3   7 23.5379 19.3239   8
   3   0  -7-1.43528 12.8569   1
  -3   0   7 15.0362 22.4724  11
  -3   3  -7 25.3526 20.5281   8
   3   0  -7 11.3883 16.1201  10
   0  -3  -7 13.4259 16.1176  10
   0  -3   7 1.32319 19.6492  12
   0  -3  -7 9.59171 15.7416   2
   0   3   7 4.25580 20.6620   3
   3   0   7 8.11511 20.7714   3
   0   3   7 0.14609 15.8139   9
   3  -3  -7 14.3956 22.4150   9
  -3   3  -7 5.65677 18.4691   2
  -3   3   7 8.77058 14.5514   6
  -3   0   7 6.21909 17.9586   6
   0  -3   7 33.0695 24.7074  11
  -3   0  -7 5.56214 19.4637   2
   3  -3   7 6.83034 15.0000  11
   3  -3   7 7.39711 18.2383  12
   0   3   7-3.99014 17.6842   8
  -3   3   7 19.8471 22.6498  11
  -3   0   7 17.2323 16.0488   5
   3   0  -7 9.62341 19.5504   9
   3   0   7 9.56060 18.6369   5
   0   3  -7 14.6110 16.9560   8
  -3   0   8 4592.53 125.496   5
  -3   3   8 4477.60 145.612  11
  -3   0   8 4556.52 148.047  11
  -3   0   8 4668.38 134.477   6
  -3   3  -8 4485.74 146.131   2
   3   0  -8 4436.25 124.156   1
  -3   3   8 4805.75 116.423   6
   0   3   8 4715.18 142.730   3
   0  -3   8 4505.62 145.070  11
   3   0  -8 4675.49 136.399  10
  -3   0  -8 4703.83 146.472   2
   0  -3  -8 4649.77 139.772  10
   3   0   8 4899.28 151.770   3
   3  -3   8 4781.01 118.121  11
   3   0  -8 4637.72 141.820   9
   3  -3   8 4627.29 145.672  12
   0  -3  -8 4981.79 121.879   2
   3  -3  -8 4765.45 145.045   9
   0   3  -8 4768.57 127.098   9
   3   0   8 4706.94 137.115   5
   0  -3   8 4544.31 143.758  12
   0  -3   8 4622.00 136.103   6
  -3   0  -9 58.6049 26.0883   2
  -3   0   9 128.559 30.9401   6
   3  -3  -9 48.2639 26.8608   9
   0  -3  -9 91.2149 30.3364  10
  -3   0   9 76.6904 33.1566  11
   3   0  -9 92.3987 29.4448  10
   0  -3   9 76.9649 24.9324   6
   3   0   9 55.1994 31.3685   3
   0   3   9 82.1515 31.9652   3
  -3   0   9 96.5344 24.9830   5
  -3   3   9 93.1117 32.3036  11
  -3   3  -9 63.9276 26.1703   2
   0  -3   9 64.9409 29.4387  11
   0   3  -9 122.570 25.5068   9
  -3   3   9 90.0704 28.5511   5
   3  -3   9 86.2168 30.0939  12
   3   0  -9 69.6505 29.6885   9
   3   0   9 94.8900 30.4859   5
   0  -3   9 88.4068 33.6272  12
   0   3   9 29.3513 26.1691   5
   0   3  10-4.98383 23.8667   5
  -3   3  10 7.20883 24.5108  11
  -3   0 -10-17.7001 25.0459   2
   0   3  10 38.6399 29.3628   3
   3  -3 -10 20.8460 23.0401   9
   3   0 -10 1.18375 20.0627  10
  -3   0  10 12.7742 27.6667  11
  -3   0  10 37.5267 18.0541   6
   3   0  10 15.5562 29.3559   3
   3  -3  10 34.6230 29.2650  12
   0  -3  10 9.12387 24.6651  11
   0  -3 -10 19.3631 24.1680  10
   0  -3  10 18.1863 22.4270   6
   3   0 -10 15.8212 24.9688   9
  -3   0  10 16.2111 21.4516   5
   3   0  10 2.79887 23.7003   5
  -3   3  10 29.2534 28.9202   5
   0  -3  10 1.02510 23.8826  12
  -3   3 -10 6.39056 23.2302   2
   0  -3  11 4.27823 27.3800  11
  -3   0 -11 10.8706 24.0935   7
   0  -3  11 8.20069 26.7141  12
   0  -3 -11 4.03978 24.1171  10
  -3   0  11 20.9209 28.4665  11
  -3   0 -11 5.06600 22.7169   2
  -3   3  11 21.8453 26.2778  11
   0   3  11 15.6989 29.6649   3
   3   0 -11 5.56393 19.3104  10
  -3   0 -11 11.9685 22.7616  10
   3   0  11 2.56085 26.2900   3
   0   3  11 21.8403 31.4334   5
  -3   0  11 32.3936 25.7627   5
  -3   3 -11 5.84300 24.6553   2
  -3   3  11 41.0014 27.6535   5
   3   0 -11 9.85398 26.5188   9
   3   0  11-8.08243 25.5631   5
   3  -3  11 18.6672 25.5854  12
   3  -3 -11 30.7242 27.5915   9
   3   0 -12 2728.17 123.699   9
   0  -3  12 2637.47 131.278  11
  -3   3 -12 2612.85 132.635   2
   0  -3 -12 2749.69 134.326  10
   3   0 -12 2693.40 131.818  10
   0   3  12 2646.70 130.323   3
  -3   0 -12 2476.16 125.301   7
  -3   0 -12 2707.73 130.601  10
   3   0  12 2760.11 131.837   5
  -3   3  12 2681.05 131.391   5
   0   3  12 2713.52 137.090   5
  -3   0 -12 2716.57 131.381   2
  -3   0  12 2605.78 135.418  11
  -3   3  12 2563.69 130.926  11
   3  -3 -12 2808.01 127.022   9
  -3   0  13-31.3380 35.3970  11
  -3   0 -13-32.0889 30.7298   2
   3   0 -13 14.6769 27.9711  10
  -3   0 -13 36.3743 31.1491  10
   3   0  13-12.1413 29.9474   5
  -3   3  13-18.8257 28.8315   5
  -3   3  13 0.98906 28.7154  11
   0  -3 -13-24.0667 29.7573  10
   0   3  13-32.9790 36.6872   5
  -3   3 -13-0.98470 28.2789   2
   0  -3  13 21.5527 26.7204  11
  -3   0 -13-24.1299 28.6102   7
   0   3 -14-18.6398 28.0447   7
   0  -3  14 8.76980 31.3716  11
  -3   0  14-7.48021 31.6783  11
  -3   0 -14-18.4499 32.2135   2
   3   0 -14 11.4990 22.5622  10
  -3   0 -14 57.8674 32.9655  10
   0   3 -14 23.6851 26.0881  10
   0   3  14-32.2450 40.6123   5
   0  -3 -14-18.1417 28.1184  10
  -3   0 -14 7.67759 32.6804   7
  -3   3  14-27.9335 34.1314   5
  -3   3 -14 46.5621 36.1546   2
   3   0  14 7.02783 31.0540   5
  -3   3  14-2.85375 29.4535  11
  -3   0  15-13.4299 33.3948  11
   0   3 -15 15.3378 31.4318   7
   3   0 -15 40.6380 28.4797  10
  -3   3  15-10.2647 31.9361   5
   0  -3  15-35.2895 33.4892  11
  -3   0 -15-15.1271 31.9760   2
   0  -3 -15-78.4058 37.7034  10
   0   3 -15-29.1854 37.0868   2
  -3   3  15 5.00537 33.1325  11
  -3   3 -15-5.39236 30.8134   2
   0   3 -15 28.1045 33.4928  10
   3   0  15 10.4015 28.9842   5
   0   3  15 16.7384 33.9949   5
  -3   0 -15-29.5244 33.8407   7
  -3   0 -15 23.9527 27.0414  10
   0   3  16 1552.46 124.405   5
  -3   3 -16 1397.92 114.845   2
  -3   0  16 1426.12 120.824  11
  -3   3  16 1335.36 114.468  11
  -3   3  16 1419.51 117.438   5
   3   0 -16 1454.02 114.463  10
  -3   0 -16 1373.50 114.106  10
   3   0  16 1379.69 117.468   5
  -3   0 -16 1531.77 120.863   7
   0  -3  16 1300.17 109.685  11
   0   3 -16 1521.94 120.185  10
   0   3 -16 1151.78 106.762   7
   0  -3 -16 1481.31 119.217  10
  -3   3  17 45.8216 37.3936   5
   3   0 -17-55.9082 31.2020  10
   0   3 -17 57.2450 34.0802  10
  -3   0 -17 56.9670 36.6752   7
  -3   3 -17 32.1930 36.7897   2
  -3   0 -17-115.553 38.7242  10
   0   3 -17-77.2826 48.6932   7
  -4   2  16 2338.50 155.035  11
   2   2  16 2297.52 150.791   5
  -2  -2 -16 2443.90 150.687  10
  -2   4 -16 2197.09 145.191   2
  -4   2  15-2.93265 38.4894  11
  -2  -2 -15 68.2603 28.4853  10
  -2  -2 -15-21.4155 35.9211   7
  -2   4 -15-20.9672 27.0291   2
   2   2  15 40.9321 37.6351   5
  -2  -2 -14 156.614 44.5516   7
   2   2  14 152.051 48.8240   3
  -2  -2 -14 239.016 48.2139  10
  -2   4 -14 229.194 54.3363   2
  -4   2  14 156.031 48.1356  11
   2   2  14 203.103 51.1489   5
  -2  -2 -13-5.67637 30.8105   7
  -2   4 -13 14.5018 29.9920   2
  -4   2  13 22.6242 35.9659  11
   2   2  13 5.98067 32.6896   3
   2  -4  13-13.4146 33.4993  12
  -2  -2 -13 66.4678 26.0820  10
   2   2  13 51.8094 39.5913   5
   4  -2 -13 65.5935 37.3638   9
  -4   2  13 39.4140 28.3097   5
  -4   2  12 506.382 67.4221  11
   2   2  12 439.115 64.1672   3
  -2  -2 -12 551.973 59.8533  10
  -2  -2 -12 489.038 60.1333   7
  -4   2  12 467.564 56.2142   5
   2   2  12 457.654 61.8292   5
   4  -2 -12 446.194 58.1774   9
   2  -4  12 309.917 52.6144  12
   2  -4  12 368.549 49.4326  11
  -2   4 -12 395.897 55.6262   2
  -2  -2 -11-16.7148 27.9930   2
   2  -4  11-19.5401 26.7901  11
  -2  -2 -11 32.0872 26.5847   7
   2   2  11-16.8213 32.3706   5
  -4   2  11 21.3496 30.9505  11
   2   2  11-1.79178 28.0968   3
  -4   2  11 16.8421 25.3767   5
   4  -2 -11-1.64501 23.5553   9
  -2  -2 -11 6.68849 21.9241  10
   2  -4  11 4.57753 26.7990  12
  -4   2  10 412.771 57.3787  11
   2  -4  10 413.156 54.8710  12
  -2  -2 -10 512.895 51.5545  10
   2   2  10 453.226 58.4982   3
  -2  -2 -10 560.078 56.3624   7
   4  -2 -10 535.846 60.3960   9
  -4   2  10 514.322 52.6466   5
   2   2  10 480.220 54.3529   5
  -2  -2 -10 515.309 55.9147   2
   2  -4  10 594.660 59.6063  11
  -2  -2  -9 20.2000 22.9542   7
  -2  -2  -9 5.25321 18.1864  10
   2   2   9 27.6473 25.6006   5
   2  -4   9 11.4368 23.0791  11
  -4   2   9 17.9648 29.0845  11
  -4   2   9-6.88087 20.7802   5
  -4   2   9-27.5544 21.8548   6
   2  -4   9-27.8757 32.3166  12
   2   2   9-20.8982 28.8099   3
  -2  -2  -9-7.59975 25.2779   2
   4  -2  -9-18.3795 25.4820   9
  -4   2   8 9933.21 197.791   6
   2  -4   8 9842.13 206.304  11
  -2   4  -8 8969.17 174.689   8
  -2  -2  -8 10136.6 196.281  10
   2   2   8 9473.18 218.727   3
  -4   2   8 9615.92 220.313  11
   4  -2  -8 9605.36 217.379   9
   2  -4   8 9046.02 215.986  12
  -2  -2  -8 10126.1 195.297   7
  -4   2   8 9826.25 188.358   5
   2   2   8 9953.58 209.623   5
  -2  -2  -8 10111.6 210.058   2
  -4   2   7 17.9510 20.3043   6
  -4   2   7 21.1040 18.0203   5
   2  -4   7 16.9787 24.7263  11
  -2  -2  -7 22.1689 16.9185  10
   2   2   7 8.80036 21.0864   5
  -2   4  -7 13.3164 15.2620   8
  -4   2   7 16.1290 25.8343  11
  -2  -2  -7 18.2546 23.6349   2
   2  -4   7 9.42929 23.0863  12
  -2  -2  -7 11.4217 17.2375   7
   4  -2  -7 12.2767 25.9361   9
  -4   2   6 48.0431 21.4058   6
  -2  -2  -6 36.5598 16.1336  10
  -2  -2  -6 30.7614 24.9079   2
   2  -4   6 38.4611 23.3544  11
  -4   2   6 60.5735 26.0549  11
   2   2   6 34.4802 15.1544   9
  -2   4  -6 43.8735 15.2534   9
  -2  -2  -6 34.4600 17.3825   7
  -4   2   6 51.8854 16.3788   5
   4  -2  -6 34.3828 24.9289   9
   2  -4   6 10.7542 21.3620  12
  -2   4  -6 57.4013 17.8095   8
   2   2   6 19.5318 18.3328   5
   2   2   5 12.6269 14.4334   9
  -2  -2  -5 9.96530 14.4820  11
  -2  -2  -5 2.69918 8.18309   6
  -2   4  -5 3.14075 10.8130   8
   2   2   5-3.88457 18.8784   8
   2  -4   5 10.1043 21.8958  12
  -4   2   5 17.5192 16.4991   6
  -4   2   5-5.59149 12.0379   5
   2  -4   5 5.58514 18.5756  11
  -2   4  -5-9.61288 14.9739   9
  -4   2   5 12.0235 21.4793  11
  -2  -2  -5 20.8254 22.5537   2
   4  -2  -5-0.55126 18.5010   9
  -2  -2  -5 16.9426 12.3610  10
   2   2   4 8296.45 167.858   8
  -2   4  -4 7741.54 143.030   9
  -2  -2  -4 8225.09 122.110  10
  -2  -2  -4 7810.42 125.188  11
   2   2   4 8229.41 147.811   9
  -2   4  -4 8191.81 118.525   1
  -4   2   4 8594.00 168.856  11
  -2  -2  -4 8071.66 127.105   6
  -4   2   4 8151.19 114.977   2
  -4   2   4 8803.31 178.613   1
   4  -2  -4 8392.97 170.818   1
  -2   4  -4 8537.74 113.247   8
   2  -4   4 8423.41 183.089  12
  -4   2   4 8302.93 166.404   6
  -2  -2  -4 8199.79 169.264   2
   4  -2  -4 8270.25 175.954   9
   2  -4   4 8565.86 174.523  11
  -4   2   3-1.36134 15.6575  11
  -4   2   3 3.74103 17.1426   1
   2   2   3 2.04647 17.2225   8
  -2   4  -3-0.04777 7.12133   8
  -2  -2  -3 11.4539 13.0044  11
  -2  -2  -3 4.08249 11.5511   6
  -4   2   3 5.23470 19.0289   6
  -2   4  -3 5.35211 15.0977   9
  -2  -2  -3 2.01076 17.2183   2
   2   2   3 4.52552 15.5302   9
   4  -2  -3 11.3840 19.3217   9
  -4   2   3 4.69619 12.4092   2
   2  -4   3-3.61210 21.4394  11
  -2   4  -3 9.78309 10.2391   1
   2  -4   3-7.21114 18.4770  12
  -4   2   2 6816.98 133.132  11
   2  -4   2 6824.66 153.289  11
  -2  -2  -2 6352.84 113.227  11
  -2   4  -2 6652.99 106.977   1
  -2  -2  -2 6356.20 123.024   6
  -4   2   2 6470.91 142.669   6
  -4   2   2 6810.75 151.779   1
   2   2   2 6674.84 135.842   9
   4  -2  -2 6703.72 146.105   9
  -2   4  -2 6194.07 130.476   9
  -2  -2  -2 6478.06 145.286   2
  -4   2   2 6586.15 111.650   2
  -4   2   1 2.95379 15.9947   6
  -2  -2  -1 11.8330 13.9610  11
  -4   2   1 11.8869 15.4588   1
  -2  -2  -1-0.74503 19.5000   2
   2  -4   1 0.93042 22.8210  11
  -2   4  -1-4.82686 15.7812   9
   2   2   1 8.47758 17.2939   9
  -4   2   1 9.11439 13.1726   2
  -4   2   1 7.02276 13.7542  11
  -2  -2  -1 4.04964 12.9820   6
   4  -2  -1 8.96924 16.8549   9
  -2   4  -1 2.18362 9.99019   1
  -2  -2   0 8106.43 138.077  11
  -4   2   0 8142.96 138.332   2
   4  -2   0 8136.74 146.975   9
  -4   2   0 7940.98 153.801   6
  -2   4   0 7828.78 150.412   9
   2   2   0 7898.13 153.377   9
  -2  -2   0 7996.25 160.646   2
   2  -4   0 8406.05 170.788  11
   2  -4   0 8063.33 128.282   1
  -2  -2   0 7805.12 146.702   6
  -4   2  -1 0.13464 14.2670   6
   4  -2   1-4.38863 10.5835  12
  -2  -2   1 7.90108 16.2091  11
  -2  -2   1-2.85061 16.2251   6
   2  -4  -1 7.69133 12.6575   1
   2   2  -1 9.58106 18.5169   9
  -2   4   1-11.2902 15.6324   9
   4  -2   1-6.08628 14.8315   9
  -4   2  -1 30.6958 17.4713   2
   2  -4  -1-7.75616 20.7939  11
  -2  -2   1-5.03690 10.6333  12
  -2  -2   1 4.16141 17.7683   2
  -2  -2   2 5298.73 123.130  11
   2   2  -2 5105.05 115.306   4
   4  -2   2 5152.48 97.0072  12
   2  -4  -2 5171.96 137.699  11
  -2  -2   2 4888.06 91.7081  12
  -2  -2   2 4949.46 124.963   6
  -2   4   2 4888.69 123.866   9
   2  -4  -2 5218.90 70.2258   8
  -2  -2   2 5192.63 130.957   2
   2  -4  -2 5098.44 114.329   1
   4  -2   2 4992.04 81.4509  11
   4  -2   2 5075.77 104.672   9
  -4   2  -2 5236.33 122.527   2
   2   2  -2 5222.92 131.186   9
   2   2  -3-1.81060 14.5102   4
   4  -2   3 11.4460 12.4860  12
   2   2  -3-2.39655 7.33207  10
   2   2  -3 32.9717 9.96070   7
   4  -2   3-12.8905 19.6117   4
   2  -4  -3-7.41757 9.51873   8
   2  -4  -3 0.16758 19.2427  11
   4  -2   3-0.61609 17.1996   8
   4  -2   3-2.70658 13.6516   3
  -2  -2   3-10.7240 17.9830   6
  -4   2  -3 21.7299 19.4689   2
  -2  -2   3-2.29634 8.02047   1
   2  -4  -3-7.95942 11.7081   1
  -2   4   3 6.96955 19.0854   9
   2   2  -3-12.0095 19.7015   9
   4  -2   3-6.78097 12.2963   9
  -2  -2   3 5.99144 17.4236  11
  -2  -2   3 8.13483 12.9234  12
   2  -4  -4 4776.21 96.0079   8
   4  -2   4 4582.55 118.328   4
  -2  -2   4 4716.50 129.202  11
   2   2  -4 4622.60 104.099   4
  -4   2  -4 4850.03 130.000   2
  -2   4   4 4575.50 125.221   9
  -2  -2   4 4705.03 129.045   6
   4  -2   4 4738.31 86.0481   9
   4  -2   4 4786.16 114.459   3
   2  -4  -4 4905.33 127.293   1
  -2  -2   4 4646.31 104.963  12
   2   2  -4 4493.85 88.8279  10
   2   2  -4 4567.73 89.1782   7
   2   2  -4 4567.06 128.786   9
  -2  -2   4 4773.97 77.1264   1
   4  -2   4 4538.25 127.134   8
   4  -2   4 4527.19 104.739  12
   4  -2   5-2.81641 13.5049   8
   2   2  -5 1.45845 10.8349   7
   4  -2   5 10.3692 17.1985   4
   2   2  -5-9.79712 14.6472   4
   4  -2   5 2.31465 16.4931   3
   2   2  -5 4.91492 10.7051  10
  -4   2  -5 0.88188 17.8034   2
  -2  -2   5-1.03591 17.2295   6
  -2   4   5 5.55667 12.5554   3
   2  -4  -5-2.70546 13.4254   8
  -2  -2   5 12.5738 22.7217  11
   2   2  -5 0.35067 18.3583   9
  -2  -2   5 7.62543 12.6651  12
   4  -2   5-11.3637 14.7322  12
  -2  -2   6 25.1957 23.4115  11
   2   2  -6 24.7813 14.8765   7
  -2   4   6 15.4829 13.1085   3
   2   2  -6 41.9237 14.4403   4
  -4   2  -6 37.0549 22.5636   2
   4  -2   6 37.3693 23.1762   3
   2  -4  -6 45.2983 17.5498   8
  -2  -2   6 36.7118 22.2456   6
  -2  -2   6 45.6794 20.0916  12
   4  -2   6 42.2696 19.0478  12
   2   2  -6 49.3689 17.7875  10
   2   2  -6 52.6040 25.0055   9
   4  -2   6 37.5494 19.7434   4
   4  -2   7-18.1131 20.7645   4
   4  -2   7-4.07305 17.2415  12
   4  -2   7 6.50821 22.4456   3
  -2   4   7 9.40036 17.0829   3
   2   2  -7-4.99041 15.4724  10
  -2  -2   7 0.58048 19.2878   6
  -4   2  -7 0.63787 21.9636   2
   2  -4  -7-26.0815 20.8725   8
   2   2  -7-1.95847 16.0774   7
   2   2  -7 28.8588 24.8936   9
  -2  -2   7 1.86797 16.7021  12
  -2  -2   7-3.61054 23.0853  11
  -2   4   8 11000.2 195.073   3
  -2  -2   8 10557.2 231.245  11
  -4   2  -8 11089.8 236.420   2
   2   2  -8 11010.6 203.614   7
   2   2  -8 11028.8 204.048  10
   4  -2   8 11139.7 215.689  12
   2   2  -8 11024.1 222.221   9
  -2  -2   8 11109.6 222.324   6
  -2  -2   8 10928.1 213.271  12
   2   2  -9-26.3219 21.5328   7
  -2  -2   9 15.4149 28.5868  11
   2   2  -9-2.82589 19.0407  10
  -2  -2   9 26.7140 24.6287   6
  -4   2  -9 6.06958 25.0593   2
  -2   4   9 11.3541 19.5092   3
   2   2  -9 9.30521 25.6606   9
  -4   2 -10 1794.27 105.192   2
  -2  -2  10 1680.23 102.126  11
   2   2 -10 1725.67 95.0639   9
   2   2 -10 1833.41 96.3922   7
   2   2 -10 1790.25 96.3409  10
  -2  -2  10 2008.35 100.564   6
   2   2 -11-26.1092 28.4207   7
  -4   2 -11-14.5683 23.6929   2
   2   2 -11 1.54682 20.4599  10
  -2  -2  11 12.3982 20.3188   6
   2   2 -11 8.87804 23.7428   9
  -2  -2  11-7.44819 29.9794  11
  -2   4  11 0.59723 26.3339   5
  -4   2 -12 754.225 76.8053   2
  -2  -2  12 689.909 74.1718  11
   2   2 -12 782.270 71.9254  10
  -2   4  12 743.415 77.2408   5
   2   2 -12 763.309 71.6252   7
   2   2 -13 5.37015 26.5310   7
   2   2 -13-26.1552 31.0772  10
  -2  -2  13-3.14441 33.7677  11
  -4   2 -13 2.42448 29.1502   2
  -2   4  13 43.3279 36.1284   5
  -2  -2  14 391.184 63.9111  11
   2   2 -14 367.421 56.9635  10
  -2   4  14 450.425 67.9192   5
   2   2 -14 507.585 66.3894   7
  -4   2 -14 510.386 69.9543   2
   2   2 -15-93.1330 36.5032  10
  -4   2 -15 24.4120 35.9794   2
   2   2 -15 99.0512 43.7386   7
  -2   4  15-101.006 41.9220   5
  -2  -2  15 30.9681 41.7913  11
  -2  -2  16 1715.17 131.237  11
   2   2 -16 1481.81 116.622  10
  -4   2 -16 1709.13 128.876  10
  -2   4  16 1625.75 128.603   5
  -4   2 -16 1636.60 127.550   7
   2   2 -16 1583.94 121.776   7
  -4   2 -16 1701.11 129.547   2
  -4   2 -17 113.475 47.6575   2
   2   2 -17 41.3358 30.8703  10
   2   2 -17 40.4885 35.6681   7
  -1   4 -17 177.099 49.6865   2
  -4   3  17 312.786 60.8502   5
  -3  -1 -16 466.642 71.0236   7
  -1   4 -16 423.215 69.8683   7
  -4   1  16 469.348 76.6881  11
  -4   3  16 361.169 68.7343  11
  -1  -3 -16 277.051 55.0450  10
  -3  -1 -16 287.127 55.3057  10
  -1   4 -16 316.250 61.7678  10
  -1   4 -16 462.891 73.0679   2
   4  -1 -16 381.251 65.4484  10
   3   1  16 316.611 60.6842   5
  -3   4 -16 414.963 68.5506   2
  -4   3  16 410.195 67.1992   5
   1   3  16 512.560 78.9047   5
  -3  -1 -15 312.974 60.6701   7
  -3   4 -15 270.022 57.9536   2
   1  -4  15 289.285 54.1329  11
  -4   1  15 218.583 56.6878  11
  -4   3  15 213.077 54.6848  11
   4  -1 -15 226.686 54.1020  10
  -3  -1 -15 167.858 46.0958  10
  -1   4 -15 198.980 47.4398   2
   1   3  15 248.195 58.7758   5
  -1  -3 -15 114.812 37.1613  10
   3   1  15 248.421 54.2353   5
  -4   3  15 262.066 55.9700   5
   1  -4  14 1659.64 113.818  11
  -3   4 -14 1648.45 118.807   2
  -3  -1 -14 1701.90 114.761  10
   1   3  14 1597.82 118.995   3
   4  -1 -14 1794.80 122.423  10
  -1  -3 -14 1697.35 116.254  10
  -4   1  14 1703.55 125.588  11
  -4   3  14 1692.79 122.106  11
   3   1  14 1768.01 120.225   5
  -4   3  14 1612.17 112.829   5
   1   3  14 1612.99 119.678   5
  -3  -1 -14 1754.56 117.273   2
  -3  -1 -14 1824.59 119.672   7
  -3  -1 -13 106.493 40.5505   2
  -4   3  13 44.4630 33.6227  11
  -3   4 -13 68.4819 31.0589   2
  -1  -3 -13 98.2391 30.9875  10
  -4   1  13 145.400 47.6966  11
   3   1  13 63.8364 43.4216   3
   1   3  13 113.811 40.6541   3
  -3  -1 -13-23.8871 29.8804  10
  -4   3  13 52.3748 29.5930   5
  -3  -1 -13 88.5885 36.7469   7
   3  -4  13 7.25827 31.7736  12
   1   3  13 18.0498 32.1863   5
   1  -4  13 84.9705 38.4826  11
   4  -1 -13 36.1179 30.2800   9
   3   1  13 33.1181 30.1413   5
   4  -3 -13 56.3590 30.7870   9
   4  -1 -13 68.0912 31.8512  10
   1  -4  13 43.6888 32.6935  12
  -3  -1 -12 18.5115 26.9497   7
  -3  -1 -12 5.06887 30.5698   2
   1  -4  12 5.33530 25.4497  11
  -4   1  12-11.9743 34.1264  11
  -4   3  12 14.9158 29.5606  11
   4  -1 -12-1.88487 20.5621  10
  -1  -3 -12 0.29602 18.5877  10
   3   1  12 61.1148 38.6085   3
   1   3  12 25.4860 34.3492   3
  -3  -1 -12-14.0981 22.0391  10
  -3   4 -12-75.3473 33.0096   2
   4  -1 -12 1.46935 28.1581   9
  -4   3  12-14.2743 23.9949   5
   3   1  12 31.1622 33.4531   5
   4  -3 -12 9.46125 29.8575   9
   1   3  12 0.64851 28.6493   5
   3  -4  12 8.99903 29.6496  12
   1  -4  12-20.4342 35.0329  12
   1  -4  11 619.820 64.8963  11
  -4   1  11 492.771 63.1980  11
  -4   3  11 623.151 68.9658  11
   1   3  11 597.598 68.2666   3
   4  -1 -11 619.874 65.1998  10
  -1  -3 -11 603.086 68.1498  10
   1  -4  11 482.592 62.5235  12
  -3  -1 -11 608.184 61.2451  10
  -3  -1 -11 664.427 63.3307   7
   4  -1 -11 599.235 64.6393   9
   4  -3 -11 671.342 69.4271   9
   3   1  11 568.481 67.1685   3
  -4   3  11 589.740 61.4151   5
  -3   4 -11 643.594 68.8635   2
   1   3  11 619.681 69.3831   5
  -3  -1 -11 619.031 63.9000   2
   3  -4  11 600.542 68.2934  12
   3   1  11 634.756 66.1192   5
   1  -4  10 764.692 69.8540  11
  -4   1  10 844.787 65.8317   6
  -4   3  10 779.793 73.0940  11
   1  -4  10 772.786 72.6673  12
   1   3  10 859.358 74.3579   3
   3   1  10 852.907 75.9711   3
  -1  -3 -10 794.507 66.0131  10
  -3  -1 -10 858.070 68.4099  10
   3   1  10 877.063 71.4428   5
   4  -1 -10 947.610 77.8703   9
   4  -3 -10 808.144 72.6519   9
  -3  -1 -10 884.620 68.0503   7
  -4   3  10 833.057 67.9584   5
   1   3  10 870.831 74.5692   5
  -3  -1 -10 844.070 72.0793   2
  -3   4 -10 804.003 72.9940   2
   3  -4  10 736.455 71.1637  12
  -4   1  10 830.072 76.4810  11
  -3  -1  -9 3255.22 119.568   7
   3  -4   9 2970.61 111.090  11
  -4   3   9 2758.68 126.501  11
   3  -4   9 2689.23 124.111  12
   4  -3  -9 2970.19 128.666   9
  -4   1   9 3003.78 116.459   6
   1   3   9 2902.88 126.385   3
  -3  -1  -9 3122.51 117.041  10
  -1  -3  -9 3056.10 118.439  10
   4  -1  -9 3165.27 131.450   9
   3   1   9 2964.98 130.794   3
  -1  -3  -9 3056.98 114.153   2
   1  -4   9 2803.52 123.102  11
   3   1   9 3007.38 120.787   5
  -4   3   9 3088.18 118.989   5
   1   3   9 2982.19 128.197   5
  -3  -1  -9 3016.74 127.526   2
   1  -4   9 2730.87 125.614  12
  -4   1   9 2904.55 130.108  11
  -3   4  -9 3078.54 130.865   2
  -3  -1  -8 121.206 33.3599   2
   1  -4   8 113.918 33.2512  12
  -4   3   8 87.6702 29.8499  11
  -3   4  -8 130.014 33.6952   2
  -1  -3  -8 133.505 28.6684  10
  -3  -1  -8 162.106 30.5253  10
   3   1   8 125.407 38.6792   3
   3   1   8 106.719 29.4967   5
   1   3   8 146.485 36.9901   3
  -4   1   8 156.436 32.1659   6
  -3  -1  -8 150.895 28.3536   7
  -4   3   8 102.989 23.8506   6
   1   3   8 167.563 27.3657   9
  -1   4  -8 133.396 26.8399   9
  -1  -3  -8 98.8126 28.4939   2
   4  -1  -8 163.360 37.6168   9
   3  -4   8 145.803 35.6604  12
   4  -3  -8 128.579 34.2581   9
  -4   1   8 126.004 33.6495  11
   1  -4   8 132.590 33.5641  11
  -4   3   8 173.672 32.8483   5
   3  -4   8 115.010 26.9333  11
  -3  -1  -7 1665.98 75.2672   7
  -4   1   7 1564.10 82.3471   6
  -1  -3  -7 1700.29 79.2772  10
  -3   4  -7 1549.19 85.9372   2
  -1  -3  -7 1584.36 75.4702  11
  -3  -1  -7 1645.36 74.7635  10
   1  -4   7 1658.59 88.4563  11
   3  -4   7 1585.35 78.1740  11
   1   3   7 1710.69 76.2008   9
  -1   4  -7 1606.60 74.7487   9
   3  -4   7 1544.10 71.7166   8
   4  -1  -7 1682.48 92.0303   9
   1  -4   7 1511.43 87.3247  12
  -4   3   7 1558.14 88.1616  11
  -3   4  -7 1545.25 71.6595   8
  -1  -3  -7 1646.28 79.5792   2
  -1   4  -7 1463.89 66.3580   8
   3   1   7 1618.50 78.4291   5
  -4   3   7 1609.99 77.2688   6
  -4   1   7 1653.16 90.0272  11
  -3  -1  -7 1562.58 87.1422   2
   3  -4   7 1598.54 89.1406  12
   4  -3  -7 1607.71 90.2691   9
   3  -4   6 5240.49 134.436  11
  -3  -1  -6 5378.50 122.479   7
  -4   3   6 5589.43 155.782  11
  -4   3   6 5221.53 135.954   6
  -4   1   6 5395.41 145.459   6
  -3   4  -6 5084.42 145.772   2
  -3  -1  -6 5436.79 123.368  10
   1   3   6 5627.38 135.185   9
  -1   4  -6 5303.54 131.947   9
  -1   4  -6 5088.38 111.737   8
   1  -4   6 5210.46 152.213  12
   1  -4   6 5001.24 147.859  11
  -1  -3  -6 5486.74 138.886   2
  -4   1   6 5349.87 111.860   5
   3   1   6 5496.30 131.535   5
  -3  -1  -6 5167.02 149.687   2
   3  -4   6 5037.47 117.699   8
   3  -4   6 5266.07 152.414  12
  -1  -3  -6 5125.75 138.557   8
  -3   4  -6 5145.10 118.675   8
   4  -1  -6 5317.69 154.130   9
   4  -3  -6 5133.23 152.912   9
  -4   1   6 5421.14 151.080  11
  -1  -3  -6 5412.86 132.236  11
  -1  -3  -5 138.131 18.8077   6
  -3  -1  -5 170.968 22.0560  10
  -1  -3  -5 170.638 27.9464  11
   4  -3  -5 144.785 31.4796   9
   3  -4   5 180.537 31.1590  11
   1  -4   5 128.457 31.4107  11
  -3   4  -5 191.119 23.6987   8
  -4   1   5 204.215 32.8310  11
  -4   3   5 185.990 32.2393  11
   4  -1  -5 135.673 25.3395   1
  -3  -1  -5 131.375 31.5634   2
   3  -4   5 155.033 21.5237   8
   3   1   5 167.719 26.7704   5
  -4   3   5 200.488 31.4049   6
   1  -4   5 153.794 30.9525  12
  -3   4  -5 124.841 18.9938   9
  -1  -3  -5 167.118 29.8623   2
   1   3   5 144.028 25.6874   9
  -1   4  -5 137.263 25.0701   9
   3   1   5 151.799 21.8266   9
  -4   1   5 170.260 20.0248   5
  -3  -1  -5 156.495 21.7717   7
   3  -4   5 179.774 33.4914  12
   4  -1  -5 182.866 35.3614   9
  -3  -1  -5 149.824 19.4435   6
   1   3   5 179.387 27.8044   8
  -4   1   5 152.152 27.7087   1
  -1   4  -5 157.025 20.4593   8
  -4   1   5 177.234 31.6146   6
  -4   3   4 2172.76 86.4050   6
   1  -4   4 2374.40 97.4383  11
  -4   1   4 2392.94 90.0544  11
  -1  -3  -4 2219.54 69.1866   6
  -3   4  -4 2181.29 72.2876   9
   3  -4   4 2184.62 64.4712   8
  -3  -1  -4 2325.28 64.3798  10
  -4   1   4 2355.65 90.7237   1
   3  -4   4 2294.22 87.7092  11
   4  -3  -4 2371.01 96.7094   9
   1   3   4 2196.63 84.2843   9
  -4   1   4 2268.80 91.0485   6
  -4   1   4 2211.09 74.5599   2
   4  -1  -4 2277.05 94.6189   9
  -1   4  -4 2227.24 59.3144   8
  -1  -3  -4 2179.78 86.1560   2
   1  -4   4 2289.87 96.6466  12
  -3  -1  -4 2235.66 93.7920   2
   3   1   4 2291.69 74.3572   9
   3   1   4 2213.19 71.0573   5
   3  -4   4 2220.70 95.0926  12
  -3  -1  -4 2324.68 64.6203   7
  -3  -1  -4 2251.28 70.5863   6
   1   3   4 2130.65 78.7900   8
  -1   4  -4 2295.12 86.6595   9
  -1  -3  -4 2376.94 84.8323  11
  -3  -1  -3 833.789 45.7097   6
  -3  -1  -3 890.082 34.5728   7
  -1  -3  -3 837.511 54.2535   2
  -4   1   3 917.868 53.0989  11
  -1  -3  -3 884.947 47.0005   6
   3  -4   3 881.594 55.5486  11
   3  -4   3 854.625 36.3468   8
   3   1   3 915.686 50.1768   9
  -4   1   3 847.013 56.4747   6
  -3  -1  -3 859.272 33.9225  10
  -4   3   3 862.790 55.2680   6
  -3   4  -3 862.242 47.4863   9
  -1  -3  -3 828.710 50.6364  11
   1   3   3 883.666 54.2514   9
  -1   4  -3 860.338 54.0390   9
  -4   3   3 973.077 62.4021   1
  -3   4  -3 789.005 45.9146   1
   1  -4   3 842.254 58.8149  12
  -4   1   3 912.588 49.4170   2
   1  -4   3 871.306 59.2492  11
   4  -1  -3 885.957 59.1037   9
  -1   4  -3 873.466 32.3288   8
   4  -3  -3 874.967 59.0578   9
   4  -3  -3 889.277 58.0970   1
  -4   1   3 902.978 56.2114   1
   3  -4   3 856.457 59.7519  12
  -3  -1  -3 872.076 58.9926   2
   3   1   3 894.588 41.1490   5
   1   3   3 887.877 48.3064   8
  -3  -1  -3 846.391 32.9200  11
  -3  -1  -2 6930.80 99.7336  11
  -4   1   2 7207.67 134.003  11
  -1   4  -2 7202.65 73.9782   8
  -3   4  -2 6904.03 133.699   9
   3  -4   2 7035.61 151.785  11
  -3  -1  -2 6990.88 133.690   6
  -1   4  -2 7150.15 150.341   9
   4  -3  -2 7102.17 156.250   1
   3   1   2 6962.20 137.008   9
  -1  -3  -2 6915.11 147.990   2
   4  -1  -2 6973.29 152.012   9
   4  -3  -2 7080.56 153.343   9
  -4   1   2 7165.73 135.031   2
   3  -4   2 7294.66 91.7975   8
  -3  -1  -2 7050.85 155.525   2
  -4   1   2 6973.80 150.760   1
  -3   4  -2 6862.57 132.178   1
   1   3   2 6959.26 147.234   9
  -4   3   2 6938.08 157.572   1
  -1  -3  -2 6831.29 132.458   6
  -4   3   2 6970.40 100.862   2
  -1  -3  -2 7111.90 140.350  11
   3   1   2 6798.48 152.032   4
   1  -4   2 7230.67 162.087  11
   1   3   2 6995.53 128.987   8
  -4   1   2 6707.63 148.850   6
  -1  -3  -1 2920.19 91.2163  11
  -3  -1  -1 2977.68 71.6879  11
  -4   3   1 3017.22 102.835   1
  -1  -3  -1 2876.91 89.7065   6
   1  -4   1 2994.36 103.980  11
  -4   1   1 2746.97 94.2098   6
   3  -4   1 2984.21 54.2848   8
  -3   4  -1 2790.69 87.3985   9
  -1   4  -1 2968.20 97.1016   9
   1   3   1 2870.18 95.6067   9
   3   1   1 2866.41 90.8500   9
  -4   1   1 2891.38 97.9152   1
  -1  -3  -1 2924.20 97.3806   2
   3  -4   1 3108.26 103.190  11
   4  -1  -1 3047.21 97.7258   9
  -4   3   1 2825.24 71.3517   2
   4  -3  -1 2959.82 96.1812   9
  -3  -1  -1 2825.63 98.3222   2
  -4   1   1 2991.32 89.5250   2
   1  -4   1 3045.46 63.3485   1
   3   1   1 2946.50 98.3944   4
  -4   1   1 2908.62 78.6318  11
  -3   4  -1 2874.49 87.7038   1
  -3  -1  -1 2789.90 87.9525   6
  -1  -3   0 293.469 32.3553  11
  -3  -1   0 258.410 26.4503  11
  -1  -3   0 331.899 34.0599   6
  -4   1   0 280.878 23.8450  11
   1  -4   0 288.140 35.8583  11
   1  -4   0 287.922 23.0653   1
  -1   4   0 263.884 32.0685   9
  -4   3   0 313.890 27.9287   2
  -1  -3   0 265.819 33.2930   2
  -3   4   0 289.639 31.5458   1
  -3  -1   0 316.185 33.4920   6
   3   1   0 236.540 31.3348   4
   3   1   0 310.262 34.8924   9
   4  -1   0 270.821 31.3455   9
  -4   1   0 249.083 31.7107   6
  -3  -1   0 263.520 34.0442   2
   4  -3   0 273.360 32.8054   9
  -3   4   0 247.333 30.3969   9
  -4   3   0 302.010 36.9360   1
  -4   1   0 330.906 34.4429   2
   1   3   0 282.839 34.5075   9
   3  -4   0 294.341 37.0238  11
  -1  -3   1 3572.88 105.138  11
   1  -4  -1 3637.31 114.948  11
   4  -3   1 3574.68 96.1318   9
   4  -3   1 3473.65 89.9580  11
  -4   1  -1 3346.80 99.3008   6
   1   3  -1 3485.53 107.301   9
   3  -4  -1 3419.42 110.364  11
   3   1  -1 3531.47 107.382   9
   4  -1   1 3463.78 95.1661   9
  -3  -1   1 3312.97 104.759   2
   4  -1   1 3533.02 108.374   4
   3  -4  -1 3514.04 99.5311   1
  -4   1  -1 3445.16 66.0657  11
  -3   4   1 3369.14 98.8387   1
  -4   3  -1 3342.29 105.349   1
  -4   1  -1 3412.90 101.594   2
   4  -3   1 3434.28 61.4120   3
  -3  -1   1 3639.74 92.9556  11
  -1   4   1 3710.69 52.1425   8
  -4   3  -1 3501.86 91.9529   2
  -1   4   1 3258.67 103.003   9
   3   1  -1 3396.11 102.175   4
  -1  -3   1 3567.72 106.847   6
   1  -4  -1 3493.31 83.2640   1
  -3  -1   1 3348.37 102.185   6
   4  -1   2 4280.16 119.474   4
  -3  -1   2 4278.81 107.609  11
  -1   4   2 4376.81 70.4558   8
  -1  -3   2 4255.55 120.199   6
   4  -3   2 4392.89 109.342  12
  -4   1  -2 4032.51 106.473   6
  -3  -1   2 4115.71 64.9445  12
  -3   4   2 4076.40 111.372   1
  -1   4   2 4296.51 119.391   9
  -3  -1   2 4195.55 99.0044   1
   3   1  -2 4052.86 118.888   9
  -3  -1   2 4225.79 118.144   2
   4  -1   2 4260.37 100.219   9
   4  -3   2 4131.94 99.4151   9
  -1  -3   2 4314.94 118.891  11
  -3  -1   2 4080.32 115.000   6
   3   1  -2 4188.96 112.395   4
  -4   3  -2 4159.83 107.339   2
  -1  -3   2 4073.32 104.490  12
   3  -4  -2 4144.13 111.152   1
  -4   1  -2 4118.94 115.932   2
   4  -1   2 4100.21 65.9449  12
   1  -4  -2 4532.63 129.317  11
   1   3  -2 4230.44 119.465   9
   4  -3   2 4250.00 96.1814  11
   4  -1   3 2081.61 85.1535   4
  -1  -3   3 2143.25 87.8111  11
   3   1  -3 2171.14 81.2097   4
  -4   3  -3 2109.69 82.0943   2
  -3  -1   3 2094.80 84.3684   2
  -1  -3   3 2008.61 85.3279   6
  -1   4   3 2106.10 85.2335   9
  -4   1  -3 2073.24 75.4813   6
  -1  -3   3 2047.91 76.6128  12
  -3  -1   3 2146.76 82.1465  11
   1   3  -3 2042.29 85.8398   9
   1  -4  -3 2212.83 60.3073   8
   4  -1   3 2174.33 68.1439   9
   4  -3   3 2098.65 66.9479   9
   4  -3   3 2217.31 80.5460  12
   3   1  -3 2157.04 89.5331   9
  -3  -1   3 2122.41 70.5001   1
   4  -3   3 2062.79 77.0939   8
  -4   1  -3 2052.53 86.4374   2
   3  -4  -3 2090.86 83.8186   1
  -3  -1   3 2088.93 85.6122   6
  -1   4   3 2193.35 58.7886   8
   4  -1   3 2062.20 55.4395  12
   1  -4  -3 2090.91 90.0642  11
   4  -3   3 2103.62 66.3343  11
  -4   1  -4 129.042 28.6605   2
   4  -3   4 107.374 18.2419  11
  -1  -3   4 121.008 28.4566  11
  -3  -1   4 141.684 28.6986  11
   1  -4  -4 137.716 32.0970  11
   1  -4  -4 121.653 19.7699   2
   3   1  -4 127.515 16.7232  10
  -3  -1   4 126.985 26.1092   6
   4  -3   4 131.889 18.4169   9
  -4   1  -4 135.038 23.0891   6
   3  -4  -4 111.040 18.8850   8
  -1   4   4 89.1088 24.9500   9
  -4   3  -4 140.724 27.4272   2
  -1  -3   4 116.512 25.5257   6
  -1   4   4 156.964 20.8204   8
   1   3  -4 141.804 28.9299   9
   3   1  -4 115.596 24.1036   4
  -3  -1   4 150.361 21.4385   1
   4  -1   4 117.537 17.1686   9
   3   1  -4 109.790 26.6551   9
   3  -4  -4 146.793 25.6370   1
   4  -3   4 131.546 24.9884  12
  -1  -3   4 106.274 23.3466  12
   4  -3   4 129.403 24.1051   8
   1  -4  -4 152.642 20.9657   8
   4  -1   4 94.8466 26.3063   4
  -1  -3   5 1833.51 89.1215  11
   3   1  -5 1914.19 75.9310   4
  -4   3  -5 1845.70 86.1866   2
  -1  -3   5 1924.10 89.1381   6
  -3  -1   5 1804.31 84.2994   6
  -3  -1   5 1855.93 85.9619  11
   3   1  -5 1717.90 62.5439  10
  -4   1  -5 1871.29 69.8854   6
   4  -1   5 1846.38 82.7345   3
  -3  -1   5 1828.13 65.8209   1
  -1   4   5 1873.64 83.4595   9
   1   3  -5 1924.02 86.5917   9
   1  -4  -5 1909.85 65.4438   2
   3   1  -5 1954.26 90.4844   9
   4  -3   5 1875.92 71.7119   4
   4  -1   5 1885.61 82.5864   4
   1  -4  -5 2002.43 91.6127  11
   3  -4  -5 1857.36 71.1982   8
   4  -3   5 1712.96 76.5657   8
  -1  -3   5 1884.45 80.2043  12
   4  -3   5 1941.29 81.2985  12
  -4   1  -5 2008.86 91.2324   2
   1  -4  -5 1789.53 68.2397   8
  -1   4   5 1873.28 68.7880   8
   4  -3   6 3123.29 91.6247   4
   3   1  -6 3097.66 116.421   9
  -3  -1   6 3304.87 119.546  11
  -1  -3   6 3055.62 114.405   6
   4  -3   6 3290.31 110.986  12
   3  -4  -6 3097.85 98.3584   8
   4  -1   6 3359.00 115.412   3
   3   1  -6 3058.14 91.6297  10
  -4   1  -6 3043.58 86.6019   6
  -1   4   6 3208.69 110.570   9
   4  -1   6 3102.69 106.922   4
  -1  -3   6 3273.34 120.331  11
   1   3  -6 3080.16 111.053   9
   4  -3   6 2989.62 105.578   8
   1  -4  -6 3015.14 95.6447   8
  -4   3  -6 3206.56 118.534   2
  -1  -3   6 3281.29 110.275  12
  -4   1  -6 3112.43 117.211   2
  -3  -1   6 3092.78 112.996   6
  -1   4   6 3099.29 96.2491   8
  -1  -3   7 1871.86 97.2243  11
  -3  -1   7 1856.69 94.7201  11
  -3  -1   7 1852.34 90.4264   6
   4  -3   7 1899.66 89.8930  12
  -1  -3   7 1950.89 90.7277  12
   4  -1   7 1917.57 93.9133   3
  -1   4   7 1934.94 86.6173   3
  -4   3  -7 1935.86 97.4055   2
  -3   4   7 2023.35 78.7160   6
   1   3  -7 1918.64 89.6881   9
   1  -4  -7 1784.70 80.9754   8
   3   1  -7 1930.31 95.2858   9
   3   1  -7 1882.66 79.2445  10
   3  -4  -7 1692.34 79.0918   8
  -1  -3   7 1816.79 91.6311   6
  -1   4   7 1903.40 86.8559   9
  -4   1  -7 1786.99 93.9584   2
  -1   4   7 1811.15 79.1602   8
   3   1  -7 1869.69 78.7796   7
  -3  -1   8 1766.66 97.0484  11
  -3  -1   8 1732.40 90.1570   6
  -1  -3   8 1820.80 97.7518  11
  -1  -3   8 1821.57 93.2434   6
   1   3  -8 1844.68 90.0288   9
   3   1  -8 1815.13 83.7247   7
   3   1  -8 1813.63 95.4152   9
  -4   3  -8 1887.30 101.049   2
  -4   1  -8 1709.39 95.6565   2
   3   1  -8 1811.83 83.8402  10
  -1   4   8 1733.45 86.4968   3
   4  -1   8 1740.40 94.1390   3
   4  -3   8 1816.10 92.4767  12
  -1  -3   8 1778.46 91.7754  12
   3   1  -9 225.673 36.8864   7
  -1  -3   9 191.766 40.1501  11
  -4   1  -9 244.811 44.3574   2
  -3  -1   9 245.862 38.1525   6
   4  -1   9 200.716 42.3516   3
   3   1  -9 248.059 38.7811  10
  -1   4   9 242.461 39.8679   3
  -1  -3   9 243.161 40.0571   6
  -3  -1   9 169.424 40.2062  11
  -4   3  -9 217.641 42.7911   2
   1   3  -9 211.483 36.2320   9
   3   1  -9 231.686 41.4981   9
   3  -4  -9 242.112 43.4340   9
   4  -3   9 241.462 41.6486  12
  -1  -3   9 251.005 40.7238  12
  -1  -3  10 2989.73 134.671  11
  -3  -1  10 2973.36 136.288  11
  -4   3 -10 3295.12 143.232   2
  -1  -3  10 3331.41 131.428   6
  -3  -1  10 3218.52 127.450   6
   4  -1  10 3231.35 138.935   3
  -1   4  10 3243.79 129.203   3
   3   1 -10 3226.93 127.050   7
   3   1 -10 3276.17 128.334  10
   4  -3  10 3107.98 134.058  12
  -1  -3  10 3113.48 133.945  12
   1   3 -10 3347.89 124.900   9
   3   1 -10 3131.48 130.254   9
   3  -4 -10 3337.98 134.933   9
  -4   1 -10 3403.30 143.908   2
   3   1 -11 142.757 35.2081   7
   1   3 -11 190.316 41.4148   7
  -1   4  11 112.223 37.9240   5
   4  -1  11 100.957 37.4497   3
  -1  -3  11 126.569 41.7441  11
  -3  -1  11 120.827 39.4476  11
  -4   1 -11 189.980 43.8245   2
  -1   4  11 142.421 34.7696   3
  -1  -3  11 164.131 38.8856   6
   1   3 -11 98.5615 28.4513  10
  -3  -1  11 131.761 34.0673   6
  -4   3 -11 117.031 37.7501   2
   3  -4 -11 121.129 34.0771   9
   4  -3  11 136.527 38.0932  12
   3   1 -11 98.5485 29.3970   9
  -3   4  11 110.393 34.9579   5
   3   1 -11 185.691 38.4509  10
  -1  -3  11 149.735 39.1036  12
   1   3 -12 107.890 35.3742   7
  -3   4  12 110.837 38.6963   5
  -3  -1  12 115.950 42.7248  11
  -1  -3  12 153.417 44.3481  11
  -4   1 -12 130.180 40.1619   2
   3   1 -12 175.517 39.8093  10
  -1   4  12 113.645 41.7523   5
  -4   3 -12 103.301 33.9870   2
   3   1 -12 101.532 33.6510   7
   3  -4 -12 88.9774 30.1098   9
   3   1 -12 75.3395 25.3628   9
   1   3 -12 123.094 36.4200  10
   3   1 -13 1016.28 86.0993   7
  -1  -3  13 984.654 91.0303  11
  -3  -1  13 1162.96 100.972  11
   3   1 -13 1176.94 93.5236  10
   1   3 -13 1112.21 90.6361  10
   1   3 -13 1015.07 87.6912   7
  -4   1 -13 1079.14 94.4724   2
  -3   4  13 1154.46 96.8697   5
  -1   4  13 1105.33 97.2274   5
  -4   3 -13 1074.06 93.2718   2
  -4   1 -14 725.925 82.2066   7
   1   3 -14 480.545 67.0387   7
  -3  -1  14 512.831 72.0949  11
  -1  -3  14 459.960 67.1111  11
   3   1 -14 675.512 74.7533  10
   1   3 -14 641.277 73.9980  10
  -4   1 -14 605.877 73.2915  10
  -4   3 -14 532.518 72.1237   2
  -3   4  14 605.793 75.6891   5
  -1   4  14 514.355 72.6250   5
  -4   1 -14 585.005 75.8539   2
   3   1 -14 614.659 73.7137   7
  -4   1 -15 705.824 82.8824   7
   1   3 -15 604.217 74.8109   7
  -1  -3  15 586.053 76.3233  11
  -3  -1  15 679.256 84.4382  11
  -4   1 -15 560.689 73.3804   2
   3   1 -15 692.713 80.1627  10
  -4   1 -15 678.947 79.9232  10
  -1   4  15 607.503 79.0446   5
  -4   3 -15 616.152 78.3990   2
   1   3 -15 619.149 75.4368  10
  -3   4  15 618.904 79.9887   5
   1   3 -16 12.2020 29.3761   7
  -4   1 -16-86.7830 37.4929   7
  -1  -3  16 27.5252 33.6077  11
  -3  -1  16 4.99390 38.2869  11
  -4   1 -16-13.7019 32.2515   2
   3   1 -16 66.2137 37.5449  10
   1   3 -16-37.2965 33.1514  10
  -4   1 -16-1.73563 27.3536  10
  -1   4  16-5.98095 35.4439   5
  -4   3 -16-0.43928 25.0133   2
  -3   4  16-20.1341 41.1582   5
   1   3 -17 54.3296 35.0197   7
   1   3 -17-29.5077 28.1641  10
  -4   1 -17-22.3698 40.3966   2
   4   0   0 361.263 40.0147   4
   0  -4   0 334.022 36.4879   6
  -4   4   0 402.931 30.9241   2
  -4   4   0 348.464 37.3104   1
  -4   0   0 338.427 36.5560   6
   0   4   0 363.864 39.7919   9
   0  -4   0 376.573 41.6485  11
   4   0   0 352.050 37.3753   9
  -4   0   0 349.198 27.4208  11
  -4   0   0 392.227 41.0448   2
   4  -4   0 363.525 39.4230  11
   0  -4   1 2798.92 103.162  11
  -4   0  -1 2679.48 93.6502   6
  -4   0   1 2752.69 80.0608  11
  -4   0  -1 2637.46 62.4333  11
  -4   4   1 2707.00 69.6667   2
   0  -4  -1 2559.36 91.6164   6
   4   0  -1 2732.72 99.6411   4
  -4   4   1 2839.19 102.167   1
  -4   0   1 2515.57 94.7165   6
   0  -4   1 2827.47 54.2278   1
  -4   4  -1 2806.31 85.1707   2
   0   4   1 2674.05 98.7296   9
   0   4  -1 2483.63 96.1778   9
   4   0   1 2750.08 92.6301   9
   4   0  -1 2723.35 98.3927   9
  -4   0   1 2771.84 97.5445   2
   0  -4   1 2634.04 97.8497   6
   0   4   1 2743.01 66.9298   8
  -4   0  -1 2744.93 100.528   2
  -4   4  -1 2682.01 95.9118   1
   4  -4   1 2811.04 96.3606  11
   4   0   1 2670.94 99.6123   4
   0  -4  -1 2822.24 102.408  11
   4   0   2 7848.43 170.478   4
   4   0  -2 7831.07 168.359   4
  -4   0   2 8307.77 150.109  11
   0  -4   2 8051.48 172.768   6
  -4   4  -2 7919.01 152.898   2
  -4   0   2 7858.83 169.737   6
  -4   0  -2 7922.07 155.165   6
   0   4  -2 7779.15 168.690   9
   0  -4  -2 7946.22 159.196   2
   4   0   2 8231.06 152.286   9
   4   0  -2 7965.88 172.179   9
  -4   4   2 8045.55 175.096   1
  -4   0   2 7963.93 163.003   2
  -4   4  -2 7465.35 157.083   1
  -4   0   2 7844.87 158.923   1
   4  -4  -2 8107.29 170.457   1
   4  -4   2 8053.20 159.104  11
   0   4   2 7924.94 169.692   9
   0  -4   2 8013.00 176.616  11
   0  -4  -2 8434.00 175.741  11
  -4   0  -2 8043.67 174.056   2
   4  -4   2 7634.02 127.384   8
   0   4   2 8126.57 121.604   8
   4  -4   3 3982.04 110.281  11
  -4   0  -3 3895.52 106.398   6
   0  -4   3 3740.47 122.463   6
  -4   4  -3 3968.03 115.809   2
  -4   0   3 4033.75 125.283   6
   0  -4   3 3951.87 127.231  11
   0  -4   3 3927.42 123.043  12
   0   4   3 3828.96 118.958   9
   0   4  -3 3851.82 120.746   9
   4   0   3 3962.79 102.262   9
   0  -4  -3 4052.83 113.005   2
  -4   0   3 3959.90 115.486   2
   4   0  -3 3863.63 124.820   9
   4  -4   3 3887.95 94.6939   8
   0  -4  -3 4114.21 124.357  11
  -4   0   3 3954.13 112.189  11
  -4   0  -3 3956.54 125.999   2
  -4   0   3 3692.36 109.800   1
   4  -4   3 4113.42 124.705  12
   0   4   3 3972.73 92.4318   8
   4   0   3 3951.47 123.797   4
   0  -4   4 1483.92 81.7048  11
  -4   0   4 1524.63 75.5693  11
   0  -4  -4 1564.43 71.2058   2
  -4   0   4 1511.65 79.8308   6
  -4   0  -4 1539.73 65.6722   6
   4  -4   4 1500.11 68.0417  11
   4  -4   4 1436.69 62.2668   8
   0   4   4 1547.10 77.8129   9
  -4   0   4 1471.97 70.6869   1
   0  -4   4 1462.85 77.5971  12
   0   4  -4 1575.69 79.4321   9
  -4   0   4 1460.64 71.2789   2
   4   0   4 1480.94 60.0798   9
   4   0  -4 1351.57 78.3155   9
   4  -4   4 1497.50 78.2735  12
   0  -4   4 1469.84 79.9279   6
   4   0   4 1420.64 55.7945   5
  -4   0  -4 1507.24 82.2346   2
   4   0   4 1454.93 78.8377   4
  -4   4  -4 1420.09 74.3977   2
   0  -4  -4 1535.30 79.2921  11
   0   4   4 1533.35 62.4517   8
  -4   0  -5 286.062 41.5202   2
   0  -4  -5 301.918 39.3845  11
   0   4   5 298.693 32.2318   8
  -4   4  -5 242.324 35.5086   2
  -4   0  -5 294.201 29.6863   6
   0  -4   5 289.782 40.8838   6
   0   4  -5 312.438 39.2491   9
   4  -4   5 286.551 33.2433  11
   0  -4  -5 253.808 32.4236   2
   0  -4   5 294.848 42.0042  11
   4   0  -5 306.157 44.1135   9
  -4   0   5 282.753 33.2215   1
  -4   0   5 319.020 41.6218  11
   0   4   5 287.599 38.0102   9
   4   0   5 273.815 29.5345   5
   4  -4   5 303.269 32.4204   8
   0  -4   5 241.273 35.8219  12
   0  -4  -5 306.847 33.1319   8
  -4   0   5 314.058 40.9325   6
   4  -4   5 300.042 38.5440  12
   0  -4  -6 374.604 38.1816   2
   0  -4  -6 360.105 45.2591  11
  -4   0  -6 313.210 45.4497   2
  -4   0   6 400.080 47.2332  11
  -4   0   6 291.233 40.8254   6
   0   4  -6 350.881 41.0025   9
  -4   4   6 327.319 37.4376   6
   0  -4   6 317.481 43.1210   6
   0   4   6 355.781 40.5081   9
   4  -4   6 268.975 32.5267   8
   4   0  -6 311.057 44.7357   9
   4   0   6 261.245 31.5502   5
  -4   0   6 271.745 32.4313   1
   4  -4   6 305.898 41.2055  12
   4  -4   6 311.078 33.4005  11
   4  -4  -6 339.439 48.0733   9
   0  -4  -6 282.988 35.3257   8
   0  -4   6 351.106 46.8740  11
   0   4   6 325.127 36.4364   8
   0  -4   6 302.090 40.8371  12
  -4   4  -6 286.946 40.8409   2
   0   4  -6 288.128 31.1468   8
   0  -4  -7 63.4767 29.1427  11
   4  -4   7 67.5823 28.3059  12
   0  -4   7 57.2702 29.2731  11
   0  -4   7 45.9027 26.3960   6
  -4   0  -7 36.8402 27.5530   2
   0  -4   7 48.9965 26.0229  12
  -4   0   7 33.7612 25.7887   6
   0  -4  -7 68.9522 23.4995   2
   4  -4  -7 62.8043 30.9843   9
   0   4   7 28.6754 19.6685   9
   0   4  -7 64.3282 27.9616   9
   4   0   7 89.6982 32.2503   3
   4   0  -7 23.5234 25.4849   9
   4   0   7 27.4555 16.9615   5
  -4   0   7 67.3629 28.8125  11
  -4   4  -7 50.9470 26.2208   2
  -4   4   7 53.4088 19.7733   6
   0  -4   8 37.9735 25.6263  12
  -4   4  -8 35.9692 27.2025   2
  -4   0  -8 55.9162 29.8755   2
  -4   0   8 35.7142 27.9526  11
   4  -4   8 32.8748 25.2428  12
   4   0  -8 64.3583 25.7655  10
   0  -4   8 51.9939 26.8067   6
   4   0   8 78.5441 33.3584   3
   0   4   8 96.1323 32.9023   3
  -4   0   8 65.4101 27.0847   6
  -4   4   8 76.5897 23.1480   6
   0   4   8 98.5382 28.0105   9
   4  -4  -8 91.5253 34.4772   9
   0   4  -8 14.4200 20.5162   9
   4   0  -8 90.0681 34.6241   9
   4   0   8 66.1237 24.8032   5
   0  -4   8 79.5248 31.4314  11
   0  -4   9 549.894 62.4047  11
  -4   0   9 482.712 59.1784  11
  -4   4  -9 547.204 61.2655   2
  -4   0   9 560.493 56.9054   6
   4   0  -9 509.400 51.0457  10
   0   4   9 549.380 58.6143   3
   0   4   9 544.372 50.2645   9
   0   4  -9 552.447 51.8626   9
   4   0  -9 506.383 56.5472   9
   0  -4   9 515.519 55.8587   6
   4  -4  -9 504.274 57.8788   9
   4   0   9 529.803 52.7536   5
  -4   0  -9 485.905 59.3932   2
   4   0   9 468.277 57.8890   3
   0  -4   9 446.695 54.2994  12
   4  -4   9 404.746 52.5733  12
  -4   0  10 1801.94 110.658  11
   0  -4  10 2070.02 107.853   6
  -4   4 -10 1808.15 108.296   2
   4  -4  10 1801.51 106.864  12
   4   0  10 1925.21 112.605   3
   0   4  10 2021.00 109.948   3
   4   0 -10 1911.03 101.490  10
   4   0 -10 1962.09 109.694   9
  -4   0  10 1965.64 103.965   6
   4  -4 -10 1878.37 108.401   9
   4   0  10 1949.19 102.621   5
   0  -4  10 1803.37 108.315  11
  -4   4  10 1960.78 107.014   5
  -4   0 -10 2002.04 113.271   2
   0  -4  10 1697.04 104.849  12
   0  -4  11 1670.34 107.346  11
  -4   0  11 1508.55 105.209  11
   0  -4  11 1686.49 99.9363   6
   0   4  11 1771.03 108.445   3
   4   0 -11 1745.52 101.372  10
  -4   0 -11 1776.10 102.349   7
   4   0  11 1729.66 110.935   3
  -4   0  11 1667.13 97.0443   6
   4   0 -11 1623.39 103.870   9
   4  -4 -11 1603.78 102.590   9
  -4   0 -11 1757.80 109.847   2
  -4   0 -11 1702.91 99.8751  10
   4   0  11 1528.59 97.3498   5
  -4   4 -11 1762.46 112.702   2
  -4   4  11 1700.10 104.311   5
   0   4  11 1717.47 111.247   5
   0  -4  11 1514.22 104.217  12
   4  -4  11 1625.67 106.733  12
  -4   4 -12 556.628 69.0505   2
   0   4  12 488.567 65.0835   3
  -4   0 -12 557.562 63.1637  10
   4   0  12 422.847 65.4377   3
  -4   0 -12 440.528 57.8100   7
  -4   0  12 433.793 63.3304  11
   4  -4 -12 508.334 67.4128   9
   4   0  12 496.576 61.7443   5
   4   0 -12 480.837 62.0258   9
   4   0 -12 417.664 53.9244  10
  -4   4  12 487.575 63.1090   5
   0   4  12 481.301 67.4175   5
  -4   0 -12 507.465 64.7960   2
   4  -4  12 512.942 68.8330  12
   0  -4  12 387.810 58.3976  12
   0  -4  12 472.875 64.5568  11
  -4   0 -13 839.115 79.9894   7
   0  -4  13 879.397 87.3140  11
  -4   0  13 821.593 88.3475  11
  -4   4 -13 999.864 93.3977   2
  -4   0 -13 880.390 87.0369   2
   4   0  13 961.602 92.4821   3
   0   4  13 867.962 85.2445   3
   4   0 -13 877.671 81.2160  10
  -4   0 -13 1060.77 88.3168  10
   4   0 -13 940.934 84.5639   9
   4  -4 -13 916.664 85.5004   9
   4   0  13 1007.92 88.7489   5
  -4   4  13 962.969 86.7794   5
   0   4  13 1054.05 96.3742   5
   4  -4  13 971.062 91.5411  12
   0  -4  13 823.404 86.3633  12
   0  -4  14 1920.08 127.351  11
  -4   0  14 1756.96 129.014  11
   4   0 -14 1858.14 121.392  10
  -4   0 -14 1896.05 122.499  10
  -4   0 -14 1839.97 126.246   2
  -4   0 -14 1702.89 116.825   7
   4   0  14 1655.38 117.173   5
  -4   4  14 1652.95 116.442   5
   0   4  14 1871.94 130.471   5
  -4   4 -14 1855.28 128.247   2
  -4   0 -15 116.058 38.9394   7
   0   4 -15 144.837 47.3588   7
  -4   4  15 105.899 35.4894   5
  -4   0 -15 151.361 46.9382   2
   0  -4  15 210.062 51.7361  11
  -4   0  15 117.482 45.2166  11
  -4   0 -15 108.314 38.5064  10
   0   4 -15 169.056 45.4524  10
  -4   4 -15 199.631 51.4164   2
   0   4  15 96.2398 38.8455   5
   0   4 -16 67.7405 40.3234   7
   0  -4  16 4.72355 42.9624  11
  -4   0 -16 43.3062 22.4733  10
   0   4 -16 145.930 47.5154  10
  -4   0 -16 62.3889 34.8178   7
  -4   4 -16 141.596 46.5306   2
  -4   4  16 98.1403 37.7689   5
  -3   5 -15 278.577 52.7517   2
   3   2  15 339.791 68.2473   3
  -5   2  15 362.912 69.5173  11
  -5   3  15 326.763 65.5019  11
   2   3  15 368.233 71.3052   3
  -2   5 -15 427.452 71.5886   2
   3   2  15 339.502 64.0021   5
   2   3  15 317.723 64.0763   5
   3  -5  15 259.710 61.1680  12
   2  -5  15 290.023 65.9526  12
  -5   2  14 804.299 92.1663  11
  -5   3  14 804.590 92.5243  11
   3   2  14 702.867 87.8258   3
   2   3  14 788.876 91.4838   3
  -2   5 -14 810.073 90.9797   2
   5  -2 -14 603.069 74.9218   9
   5  -3 -14 838.608 88.4066   9
  -3   5 -14 805.845 88.0720   2
   3   2  14 761.981 85.0012   5
   2   3  14 742.075 85.3776   5
   3  -5  14 714.741 87.6565  12
   2  -5  14 687.733 86.5887  12
  -3   5 -13 366.549 60.7561   2
   2  -5  13 305.803 54.1770  11
  -5   2  13 277.969 59.3001  11
  -5   3  13 366.145 61.9974  11
   3   2  13 382.448 67.6682   3
   2   3  13 370.695 65.1956   3
   2   3  13 294.888 54.8622   5
   5  -2 -13 383.787 62.7719   9
   5  -3 -13 328.989 58.0535   9
   3   2  13 395.822 62.2781   5
   3  -5  13 382.435 62.0753  12
   2  -5  13 358.940 65.4006  12
  -5   2  12 272.793 54.9000  11
   3   2  12 344.287 56.7168   5
   2  -5  12 312.739 52.9040  11
  -3   5 -12 355.348 59.6952   2
   3   2  12 337.063 58.8598   3
   2   3  12 274.259 54.6707   3
  -3  -2 -12 320.878 54.1396   2
   5  -2 -12 350.945 62.8255   9
   5  -3 -12 263.297 51.1962   9
   2   3  12 219.602 45.4345   5
  -5   3  12 177.484 47.1708  11
   3  -5  12 319.939 57.6508  12
   2  -5  12 229.374 54.2156  12
   2   3  11 103.176 39.3429   3
  -3   5 -11 103.873 33.7416   2
   3   2  11 48.9547 34.3941   3
  -5   3  11 68.2880 33.5935  11
   2  -5  11 144.675 42.8275  11
  -5   2  11 134.137 45.5005  11
   2   3  11 134.030 40.4923   5
   5  -2 -11 171.190 45.1789   9
   5  -3 -11 91.3496 35.1605   9
   3   2  11 171.225 41.4967   5
  -3  -2 -11 96.5382 35.2183   2
   3  -5  11 67.8009 33.7186  12
   2  -5  11 79.1237 34.4544  12
   3  -5  10 1228.38 83.5147  11
  -5   2  10 1174.17 91.8001  11
  -5   3  10 1127.88 90.4150  11
  -5   2  10 1303.50 85.2682   6
  -3   5 -10 1264.31 92.4978   2
   3   2  10 1280.79 96.4540   3
   2   3  10 1189.02 91.8912   3
   2  -5  10 1198.39 88.5525  11
   5  -2 -10 1298.08 96.7537   9
   5  -3 -10 1309.57 96.5487   9
  -2  -3 -10 1384.73 89.9753   2
   3   2  10 1186.90 83.9081   5
  -3  -2 -10 1397.42 94.5344   2
   2   3  10 1390.40 93.7782   5
   2  -5  10 1049.09 88.0170  12
   3  -5  10 1110.46 89.8276  12
   3  -5   9 313.281 45.2369  11
   2  -5   9 282.251 46.1051  11
  -5   3   9 379.243 47.0143   6
  -5   3   9 274.682 45.8184  11
   3   2   9 310.824 52.2108   3
   2   3   9 341.335 54.5154   3
  -5   2   9 338.767 45.0667   6
   3  -5   9 326.629 51.8924  12
   3   2   9 285.749 42.3096   5
  -2  -3  -9 415.645 52.7389   2
   5  -2  -9 317.096 52.9803   9
   5  -3  -9 310.563 50.7444   9
  -3  -2  -9 399.772 55.5765   2
   2   3   9 348.420 50.1705   5
  -5   2   9 390.262 56.4143  11
   2  -5   9 337.060 53.5883  12
  -5   3   8 361.034 51.0586  11
   2  -5   8 417.665 54.6403  11
   3  -5   8 379.150 49.0809  11
  -5   2   8 466.054 52.1331   6
  -5   3   8 457.567 51.1931   6
   2  -5   8 359.635 53.7305  12
   5  -2  -8 454.099 59.3309   9
   5  -3  -8 425.546 58.4227   9
  -5   2   8 407.256 55.2086  11
  -2  -3  -8 403.660 51.1800   2
   3   2   8 405.948 47.5685   5
  -3  -2  -8 424.618 54.4185   2
   2   3   8 425.560 50.7868   5
   3  -5   8 397.792 53.9427  12
   3  -5   7 1358.79 82.1534  11
   2  -5   7 1378.22 87.2785  11
  -5   2   7 1354.86 86.6207  11
  -5   3   7 1373.80 87.5484  11
   5  -2  -7 1537.07 95.2772   9
  -5   2   7 1449.26 85.3426   6
  -5   3   7 1439.33 82.8101   6
   2  -5   7 1221.25 86.4252  12
   2   3   7 1435.27 74.0675   9
  -2   5  -7 1387.71 72.2389   9
   5  -3  -7 1347.79 90.2184   9
  -2  -3  -7 1491.66 86.4917   2
  -3  -2  -7 1445.75 89.7043   2
   3   2   7 1437.57 78.8121   5
   3  -5   7 1339.89 89.4748  12
   3  -5   6 4472.94 144.350  11
   2  -5   6 4330.36 147.427  11
  -5   3   6 4516.78 147.234  11
   2   3   6 4519.39 128.685   9
  -5   2   6 4403.60 142.281   6
  -5   3   6 4377.35 139.302   6
  -2   5  -6 4313.82 125.521   9
  -5   2   6 4342.21 144.234  11
   2  -5   6 4042.21 148.800  12
   5  -2  -6 4526.03 155.149   9
   5  -3  -6 4454.71 152.914   9
  -2  -3  -6 4527.57 143.880   2
   3  -5   6 4102.00 149.332  12
  -3  -2  -6 4560.53 150.437   2
   3   2   6 4326.41 125.440   5
   2  -5   5 2412.59 108.683  11
  -5   2   5 2384.48 102.161  11
  -5   3   5 2421.78 104.034  11
  -2   5  -5 2300.92 92.7711   9
  -5   2   5 2437.17 105.333   6
  -5   3   5 2338.53 101.288   6
  -3   5  -5 2332.62 86.9226   9
   3  -5   5 2344.73 112.002  12
   3   2   5 2420.86 88.7218   9
   5  -2  -5 2371.82 109.745   9
   3  -5   5 2496.25 105.984  11
   5  -3  -5 2437.68 111.485   9
   2   3   5 2512.42 96.5166   9
  -2  -3  -5 2382.03 104.580   2
  -3  -2  -5 2436.10 108.414   2
   3   2   5 2522.93 90.6699   5
   2  -5   5 2510.88 115.467  12
   3  -5   4 369.217 45.3517  11
   2  -5   4 403.612 48.6204  11
  -5   2   4 411.654 43.2942  11
  -5   3   4 421.022 45.2651  11
   3  -5   4 377.645 49.1799  12
  -3  -2  -4 385.995 34.7194   6
  -5   2   4 418.435 45.1096   6
  -5   3   4 390.116 44.7441   6
  -3   5  -4 420.505 39.3586   9
  -2   5  -4 359.194 39.7527   9
   2   3   4 429.680 42.6841   9
   3   2   4 404.935 39.6749   9
  -2  -3  -4 415.416 37.6110  11
   5  -2  -4 398.293 48.1873   9
  -2  -3  -4 434.406 48.3530   2
  -3  -2  -4 391.400 47.0596   2
   2  -5   4 385.382 48.8645  12
  -2  -3  -4 401.683 35.1209   6
   5  -3  -4 374.000 48.1053   9
   3  -5   3 2357.01 102.015  11
  -2  -3  -3 2388.37 83.5698  11
   2  -5   3 2254.80 102.710  11
  -5   2   3 2402.34 91.1761  11
  -2  -3  -3 2262.38 82.6365   6
  -5   2   3 2271.38 97.8411   6
  -5   3   3 2254.72 97.1128   6
  -3   5  -3 2225.26 86.7972   9
  -2   5  -3 2233.99 91.8184   9
   2   3   3 2306.02 92.8781   9
   3   2   3 2309.57 88.7653   9
   5  -2  -3 2243.67 99.6530   9
  -2  -3  -3 2209.72 97.7171   2
   5  -3  -3 2250.71 100.182   9
  -5   2   3 2274.43 78.8042   2
   2  -5   3 2213.26 104.353  12
  -3  -2  -3 2349.09 102.511   2
  -3  -2  -3 2274.50 82.2958   6
   3  -5   3 2191.92 104.961  12
   2   3   3 2217.29 89.7493   8
  -3   5  -3 2249.15 76.4359   1
   2  -5   2 3733.34 129.393  11
  -3  -2  -2 3528.79 90.7008  11
  -5   2   2 3680.70 105.628  11
  -2  -3  -2 3456.59 105.127   6
  -3  -2  -2 3508.17 105.667   6
  -3   5  -2 3407.70 94.7110   1
  -5   2   2 3483.68 118.455   6
  -5   3   2 3431.35 117.555   6
  -3   5  -2 3395.77 108.515   9
   2   3   2 3477.01 114.195   9
   3   2   2 3546.46 111.568   9
  -2  -3  -2 3380.09 118.813   2
   5  -2  -2 3633.69 121.181   9
   5  -3  -2 3576.75 119.832   9
  -3  -2  -2 3460.42 121.747   2
  -2   5  -2 3498.75 114.720   9
  -2  -3  -2 3505.65 102.272  11
   3  -5   2 3737.16 126.590  11
  -5   2   2 3438.00 98.5816   2
  -5   3   2 3472.07 88.5507   2
  -2  -3  -1 987.845 57.4796  11
  -3  -2  -1 1010.26 52.1504  11
  -5   2   1 1010.07 52.5140  11
  -2  -3  -1 979.960 58.3248   6
  -3  -2  -1 871.905 55.5042   6
   3  -5   1 974.093 68.0935  11
  -5   2   1 920.283 61.4885   6
  -5   3   1 921.681 63.0503   6
  -2   5  -1 924.907 61.4958   9
   2   3   1 948.116 62.4903   9
  -2  -3  -1 917.223 65.4574   2
   5  -2  -1 933.233 61.2317   9
  -3  -2  -1 853.944 63.0159   2
   5  -3  -1 967.072 61.8503   9
  -3   5  -1 929.256 59.6917   9
  -3   5  -1 904.827 50.2120   1
   3   2   1 1006.14 62.8828   9
  -5   2   1 932.177 54.5965   2
  -5   3   1 951.772 50.0885   2
   2  -5   1 965.158 45.8199   1
   2  -5   1 908.807 66.8844  11
  -5   2   0 231.533 34.7398   6
   3  -5   0 175.632 36.0603  11
   2  -5   0 228.744 38.9033  11
  -2  -3   0 178.341 30.2493  11
   3  -5   0 181.147 26.8507   1
  -2  -3   0 109.995 30.2654   2
  -2  -3   0 168.902 29.0037   6
  -3  -2   0 181.617 30.5960   6
  -3  -2   0 166.917 33.4585   2
   2  -5   0 182.266 23.0313   1
  -3   5   0 119.178 21.6185   1
  -5   3   0 196.978 27.6918   2
  -3  -2   0 177.678 26.0817  11
  -3   5   0 174.464 30.6088   9
  -2   5   0 227.658 34.8445   9
  -5   3   0 164.632 30.4719   6
   2   3   0 143.085 31.0775   9
   3   2   0 164.735 30.9334   9
   5  -2   0 194.028 31.2997   9
   5  -3   0 184.990 30.6801   9
  -5   2   0 220.779 32.3427   2
  -3  -2   1 477.689 40.9552  11
   2  -5  -1 503.525 37.3988   1
  -2  -3   1 538.035 51.5015   2
  -2  -3   1 557.645 48.9591   6
  -2  -3   1 488.771 36.2507  12
  -5   2  -1 565.344 48.2496   6
  -3   5   1 495.927 46.6141   9
  -2   5   1 510.281 48.2938   9
   2   3  -1 485.697 47.6015   9
  -3  -2   1 501.058 50.0412   2
   5  -2   1 581.409 47.1831   9
   5  -3   1 537.780 44.5833   9
   3   2  -1 482.000 48.1607   9
  -3  -2   1 533.401 47.3072   6
  -2  -3   1 478.540 43.7901  11
   3  -5  -1 490.114 40.9855   1
  -5   2  -1 543.956 46.1680   2
  -5   3  -1 481.193 41.2497   2
   3   2  -1 531.533 47.0586   4
   3  -5  -1 500.040 52.8978  11
   2  -5  -1 477.213 52.6423  11
  -2  -3   2 1624.32 79.8076  11
  -3  -2   2 1612.29 75.4765  11
   3  -5  -2 1713.96 90.0120  11
  -2  -3   2 1575.10 80.5446   6
  -3  -2   2 1578.85 79.8013   6
  -5   2  -2 1583.73 76.9982   6
   3   2  -2 1492.64 80.7256   9
   2  -5  -2 1567.28 87.6471  11
  -2   5   2 1602.78 81.1051   9
   2  -5  -2 1622.33 69.9446   1
   2   3  -2 1498.95 81.7092   9
  -5   3  -2 1665.80 76.3756   2
  -3  -2   2 1661.69 85.3312   2
   5  -2   2 1551.93 69.7709   9
   5  -3   2 1689.35 71.8300   9
  -2  -3   2 1563.85 63.5253  12
  -5   2  -2 1641.48 79.7853   2
   3   2  -2 1504.71 74.8035   4
   5  -3   2 1666.83 67.5747  12
   3  -5  -2 1663.43 75.5236   1
  -3   5   2 1634.99 81.8691   9
  -3  -2   3 935.234 63.8283   6
  -2  -3   3 853.589 61.4543  11
   5  -2   3 941.662 64.3951   4
  -2  -3   3 863.343 49.4415  12
   5  -3   3 970.327 50.2242   3
  -5   2  -3 915.386 59.4173   6
  -3   5   3 917.240 63.9215   9
  -2   5   3 927.496 63.3182   9
   2   3  -3 880.362 64.9514   9
   3   2  -3 916.352 66.1982   9
   2  -5  -3 886.290 68.5653  11
   5  -2   3 886.946 50.0878   9
   5  -3   3 915.148 50.7901   9
   5  -3   3 945.275 52.3164  12
  -5   3  -3 904.159 60.9319   2
   2  -5  -3 867.163 55.0576   1
  -3  -2   3 890.821 60.5872  11
  -5   2  -3 832.555 60.0076   2
  -2  -3   3 911.777 64.2580   6
   3  -5  -3 972.656 73.2430  11
   3   2  -3 926.832 58.8905   4
   5  -2   4 1032.38 67.1671   4
  -2  -3   4 1091.74 71.3479  11
  -3  -2   4 1126.22 70.1425  11
   5  -3   4 1054.82 65.2666   4
  -2  -3   4 1083.70 70.8241   6
  -3  -2   4 976.448 67.1770   6
   5  -3   4 1053.50 56.8142   3
   5  -2   4 1049.69 60.5963   3
  -5   2  -4 1091.86 62.5921   6
  -2   5   4 991.553 68.3184   9
   2  -5  -4 1179.34 79.1583  11
   2   3  -4 1070.74 72.2242   9
   3   2  -4 1018.44 71.8732   9
  -2  -3   4 991.235 55.4251  12
  -5   2  -4 1029.25 68.4188   2
   5  -3   4 1084.25 58.5422  12
  -5   3  -4 1013.07 67.2772   2
   3   2  -4 1109.44 62.8639   4
   3   2  -5 836.107 53.8058   4
   5  -2   5 832.054 60.4352   4
  -3  -2   5 897.382 65.0720  11
  -2  -3   5 884.815 67.0100   6
  -2  -3   5 828.016 53.7408  12
  -2  -3   5 834.426 65.1930  11
   2  -5  -5 879.158 71.7528  11
   5  -2   5 898.407 60.4605   3
  -5   2  -5 905.164 56.8963   6
  -5   3  -5 949.510 68.1486   2
  -2   5   5 863.861 64.4458   9
  -3  -2   5 849.389 63.9110   6
   2   3  -5 914.819 68.0891   9
   3   2  -5 886.987 68.1830   9
   5  -3   5 922.539 60.8416   4
   5  -3   5 955.511 58.7666  12
  -5   2  -5 926.059 68.2749   2
   5  -3   5 906.516 56.9056   3
  -5   3  -6 5237.97 160.849   2
   5  -3   6 5260.22 139.255   4
  -2  -3   6 5074.40 158.890  11
  -3  -2   6 5101.79 156.897  11
  -2  -3   6 5344.46 161.233   6
  -3  -2   6 5173.46 157.317   6
   5  -3   6 5445.30 142.103   3
   5  -2   6 5306.34 148.128   3
  -5   2  -6 5161.97 132.433   6
  -2   5   6 5304.11 153.178   9
   2   3  -6 5472.37 162.042   9
   3   2  -6 5086.33 160.464   9
   5  -3   6 5286.09 140.985  12
  -2  -3   6 5077.42 136.651  12
  -5   2  -6 5036.20 159.704   2
   5  -2   6 5392.31 148.174   4
  -5   3  -7 1304.57 85.3670   2
  -2  -3   7 1190.71 83.7032  11
  -3  -2   7 1249.88 84.1573  11
  -3  -2   7 1231.26 81.6463   6
   5  -2   7 1296.93 79.4527   3
  -2  -3   7 1204.81 81.6408   6
  -5   2  -7 1313.22 85.8781   2
   2   3  -7 1277.39 83.4512   9
   3   2  -7 1272.34 85.1934   9
   5  -3   7 1332.53 76.0716  12
  -2  -3   7 1143.87 70.1884  12
   5  -2   7 1271.23 74.8700   4
  -2  -3   8 571.226 62.5381  11
  -3  -2   8 586.891 62.4228  11
  -3  -2   8 624.547 60.9645   6
   5  -2   8 619.050 60.6418   3
   2   3  -8 557.624 57.0274   9
   3   2  -8 672.134 63.8254   9
  -5   3  -8 617.726 64.2078   2
  -5   2  -8 633.956 67.0501   2
  -2  -3   8 607.678 60.6369   6
   5  -3   8 602.693 55.6632  12
  -2  -3   8 594.380 56.6270  12
  -5   3  -9 1687.05 103.769   2
  -2  -3   9 1517.63 99.5143  11
  -3  -2   9 1542.21 100.417  11
  -2  -3   9 1729.44 101.177   6
   5  -2   9 1732.59 100.502   3
   3   2  -9 1609.66 97.8869   9
  -5   2  -9 1897.11 109.890   2
  -3  -2   9 1818.81 101.608   6
   5  -3   9 1594.71 93.0143  12
  -2  -3   9 1597.60 91.9648  12
   2   3  -9 1645.31 96.9242   9
  -5   3 -10 1166.05 91.4560   2
  -2  -3  10 1044.95 87.4364  11
  -3  -2  10 1066.47 87.8133  11
  -2  -3  10 1192.89 86.0404   6
  -3  -2  10 1280.66 88.0869   6
   2   3 -10 1067.26 80.2913   9
   3   2 -10 1127.74 84.5277   9
   5  -3  10 1064.52 80.9434  12
  -5   2 -10 1190.99 91.7297   2
  -5   3 -11 607.636 72.0545   2
  -2  -3  11 581.538 71.6654  11
  -3  -2  11 549.712 67.1702  11
  -2  -3  11 641.756 65.1311   6
  -3  -2  11 639.533 67.1098   6
   2   3 -11 618.689 64.1453   9
   3   2 -11 622.024 65.5174   9
  -5   2 -11 622.650 71.4908   2
  -2  -3  12 4.61381 30.1516  11
  -5   2 -12-1.43390 31.3119   2
  -2  -3  12-40.5553 26.4413   6
  -3  -2  12 3.51484 22.7673   6
  -5   3 -12-12.8808 30.7326   2
   3   2 -12 45.6985 28.6782   9
  -3  -2  12 5.02121 34.4796  11
  -2   5  12-17.2641 36.6261   5
   3  -5 -12 38.0211 29.2995   9
  -3   5  12-13.2822 29.2949   5
  -3   5  13 183.063 52.2650   5
  -2  -3  13 144.233 45.4533  11
  -3  -2  13 97.5040 41.7961  11
  -5   2 -13 160.319 48.4755   2
  -5   3 -13 129.779 45.8601   2
  -2   5  13 133.636 46.5922   5
  -3  -2  14 661.878 82.8952  11
  -5   2 -14 710.069 85.0786   2
  -2  -3  14 579.971 78.0638  11
  -3   5  14 776.390 87.9912   5
  -2   5  14 803.467 90.9932   5
  -5   3 -14 709.474 84.6814   2
  -2  -3  15 130.430 45.4112  11
  -5   2 -15 109.553 46.2945   2
  -5   3 -15 199.886 53.9585   2
  -3  -2  15 206.634 60.2593  11
  -3   5  15 149.582 48.5582   5
  -2   5  15 119.695 46.0691   5
   4   1  15 33.1298 38.2996   3
   1  -5  15 42.8539 40.4667  11
  -5   1  15 61.4569 39.3917  11
   1   4  15 23.1327 37.1061   3
   1   4  15-21.9963 44.4032   5
   4   1  15-88.5006 38.2407   5
  -4   5 -15 47.1325 35.5494   2
   1  -5  14 168.775 50.7409  11
  -5   1  14 103.753 48.2755  11
   4   1  14 92.0749 48.5329   3
   1   4  14 136.740 51.1643   3
  -4  -1 -14 17.1781 33.7224   2
   5  -1 -14 145.282 42.8580   9
   4   1  14 67.8371 36.9438   5
   5  -4 -14 98.4698 35.5909   9
  -4   5 -14 146.444 42.5154   2
   1   4  14 106.277 46.2606   5
   4  -5  14 83.2996 39.3599  12
   1  -5  14 105.734 44.0325  12
  -4  -1 -13 1.83498 33.5575   2
   1  -5  13 25.9009 35.8255  11
   4  -5  13 42.3427 35.2696  12
   4   1  13 49.4107 47.2614   3
   1   4  13 12.0938 35.9875   3
  -5   1  13-25.2213 40.3344  11
   1  -5  13 1.18950 32.1995  12
   5  -1 -13-19.5841 35.1760   9
   4   1  13-10.3206 29.0475   5
   5  -4 -13 9.79043 32.6309   9
   1   4  13-8.05744 34.6725   5
  -4   5 -13-5.42565 32.0990   2
   1  -5  12 4351.37 181.381  11
  -5   1  12 4388.46 190.505  11
  -4   5 -12 4584.09 189.980   2
   4   1  12 4699.72 193.664   3
   1   4  12 4542.16 188.015   3
   5  -1 -12 4268.24 180.043   9
   5  -4 -12 4283.37 181.029   9
   4   1  12 4292.94 170.145   5
  -5   4  12 4570.66 172.800   5
   1   4  12 4508.64 186.594   5
  -4  -1 -12 4520.00 184.538   2
   4  -5  12 4107.91 181.896  12
   1  -5  12 4061.01 183.069  12
  -4  -1 -11 2.26668 34.3593   2
  -4   5 -11-20.0455 31.4369   2
  -5   4  11 60.0399 32.2660   5
   1  -5  11 81.9917 39.5324  11
  -5   1  11 28.3641 27.7134  11
   4   1  11 1.01554 33.5908   3
   1   4  11 6.21784 31.0942   3
  -5   1  11 27.1282 25.4490   6
   5  -1 -11 17.5885 27.2500   9
   4   1  11 29.0172 30.5407   5
   5  -4 -11 38.7817 36.6739   9
   1   4  11 39.2741 32.6770   5
   4  -5  11-20.7452 32.6305  12
   1  -5  11 15.3338 31.4901  12
  -4   5 -10 14.8517 28.9091   2
   1  -5  10 25.4020 30.3835  11
  -5   1  10 4.19925 26.4781  11
   4   1  10-5.34609 29.6738   3
   1   4  10 26.4663 33.9790   3
  -5   1  10 2.41960 25.5377   6
   1  -5  10 16.5134 28.4152  12
  -4  -1 -10 15.8305 30.9312   2
   5  -1 -10 2.77086 29.8869   9
   4   1  10 44.6412 28.7475   5
   5  -4 -10 40.7483 30.4656   9
   4  -5  10 26.9346 27.1135  12
  -5   4  10 36.6575 25.8686   5
   1   4  10 62.7178 29.8931   5
  -4   5  -9 0.00000 25.9665   2
   4  -5   9 11.2363 24.6613  12
   1  -5   9-22.5370 29.6307  11
  -5   1   9 6.48296 28.0949  11
   1  -5   9 22.5317 28.6965  12
   4   1   9 41.1517 31.2005   3
   1   4   9 15.2861 27.2840   3
   5  -1  -9 1.45546 25.4925   9
   4   1   9 24.4760 24.8549   5
   5  -4  -9 7.87595 27.6246   9
  -5   1   9-53.9301 25.9492   6
  -5   4   9-18.1423 23.6626   5
  -4  -1  -9 17.7783 28.1989   2
   1  -5   8 990.926 80.2448  11
  -5   1   8 1003.81 79.1507  11
  -4   5  -8 1068.92 81.2269   2
  -5   1   8 1106.28 79.8892   6
  -5   4   8 1002.29 69.1773   6
   4   1   8 1018.88 81.8355   3
   1  -5   8 996.479 81.3391  12
   1   4   8 1111.66 70.7331   9
  -1   5  -8 1125.45 71.9617   9
   4  -5   8 1009.87 81.1959  12
   5  -1  -8 1120.89 86.3916   9
   5  -4  -8 1042.06 84.0726   9
  -1  -4  -8 1168.09 75.7774   2
  -4  -1  -8 1016.12 82.1264   2
   4  -5   7 113.391 28.7172  11
  -4   5  -7 172.337 38.5329   2
  -5   1   7 127.168 34.2320  11
   1  -5   7 174.939 42.6960  11
   4  -5   7 109.802 34.4522  12
  -5   1   7 139.613 36.6559   6
  -5   4   7 159.481 33.9722   6
  -1  -4  -7 164.009 35.1106   2
  -1  -4  -7 107.379 29.3731  11
   1   4   7 119.166 30.3871   9
  -1   5  -7 163.239 32.6815   9
   5  -1  -7 362.399 46.8978   9
   5  -4  -7 137.986 30.9871   9
  -4  -1  -7 135.950 37.2594   2
   1  -5   7 108.245 34.7096  12
  -1  -4  -6 143.858 34.0680  11
   5  -4  -6 125.813 35.6315   9
   4  -5   6 155.617 33.3529  11
   1  -5   6 138.781 38.3806  11
  -4   5  -6 157.916 35.7742   2
  -5   1   6 157.965 37.1113  11
   4  -5   6 104.870 32.8133  12
  -5   1   6 129.276 33.2192   6
  -1  -4  -6 152.870 32.9409   2
  -5   4   6 152.679 31.6903   6
   1   4   6 178.767 34.4603   9
  -1   5  -6 156.137 32.1831   9
   5  -1  -6 127.428 37.1153   9
   1  -5   6 116.157 34.3361  12
  -4  -1  -6 149.745 39.1343   2
  -1  -4  -5 2.90714 24.8352  11
   4  -5   5 2.84335 22.6201  11
   1  -5   5-25.7302 29.3773  11
  -5   1   5 13.3214 22.0896  11
  -4   5  -5 2.67292 22.7889   2
   4  -5   5 49.4064 27.2820  12
  -1  -4  -5-4.40042 20.9533   2
  -5   1   5-3.29139 22.4907   6
  -5   4   5 2.22257 21.0671   6
   1   4   5-16.2859 18.9074   9
  -1   5  -5 3.73718 20.5505   9
   5  -1  -5-5.31849 28.7070   9
  -4  -1  -5 25.0041 30.3973   2
   5  -4  -5 4.41715 26.2752   9
  -5   1   5-1.10095 18.8189   2
   1  -5   5 24.5773 28.0618  12
   4  -5   4 3297.49 116.572  11
   1  -5   4 3402.18 131.249  11
  -5   1   4 3420.95 116.153  11
  -1  -4  -4 3354.17 101.674   6
   1   4   4 3205.81 101.643   8
  -4  -1  -4 3351.67 103.289   6
  -5   1   4 3522.03 128.567   6
  -4   5  -4 3285.36 117.195   2
  -5   4   4 3360.73 121.321   6
  -4   5  -4 3441.00 103.816   9
   1   4   4 3290.03 117.845   9
  -1   5  -4 3474.88 121.735   9
   4   1   4 3260.69 102.480   9
   5  -1  -4 3418.04 130.430   9
  -1  -4  -4 3349.99 117.746   2
  -4   5  -4 3188.97 104.644   1
   4  -5   4 3403.48 129.613  12
   5  -4  -4 3416.42 129.786   9
  -5   1   4 3333.63 107.639   2
  -4  -1  -4 3092.26 124.058   2
   1  -5   4 3263.82 128.423  12
  -1  -4  -4 3613.86 118.191  11
  -1  -4  -3 0.86531 20.0661  11
   4  -5   3-3.53767 21.8082  11
  -5   1   3-17.5932 19.9464  11
  -4   5  -3-5.44156 16.1525   2
  -1  -4  -3-1.36172 15.0904   6
  -1  -4  -3-2.61112 21.9770   2
  -5   1   3 1.91188 20.6057   2
  -4  -1  -3-0.61430 13.8592   6
  -5   1   3 3.45255 21.0774   6
  -4   5  -3-3.17016 16.4955   1
   1   4   3 9.86938 22.2403   9
  -1   5  -3 2.89664 19.3119   9
   4   1   3 25.9477 18.9874   9
  -4  -1  -3-5.31276 26.1985   2
   5  -1  -3-21.9905 26.6037   9
   4  -5   3-12.5747 21.2335  12
   5  -4  -3-13.8274 25.6313   9
   1  -5   3 19.2849 27.1640  11
   1  -5   3 46.2912 28.3289  12
   1   4   3 9.04316 14.9606   8
  -4  -1  -2 231.903 31.5921   6
   4   1   2 229.352 37.5716   4
  -5   1   2 254.035 29.8442  11
  -1  -4  -2 261.687 36.4714  11
   1  -5   2 272.086 40.2501  11
  -1  -4  -2 283.570 35.9245   6
  -5   1   2 287.459 39.6331   6
  -4   5  -2 247.826 31.9300   2
  -1  -4  -2 258.738 38.3312   2
   4  -5   2 280.367 40.3397  11
   1   4   2 298.458 40.6955   9
   5  -4  -2 301.312 42.3006   9
  -5   1   2 303.761 37.7319   2
  -1   5  -2 279.883 40.1203   9
  -4  -1  -2 262.155 41.9505   2
   4   1   2 261.483 34.6181   9
   5  -1  -2 316.068 42.0058   9
  -4   5  -2 306.692 36.1652   1
   1   4   2 306.901 31.3659   8
   4   1   1 40.9768 25.9595   4
   4  -5   1 110.091 32.6985  11
  -1  -4  -1 51.4507 23.7704  11
  -5   1   1 55.7300 16.5009  11
   1  -5   1 58.2087 28.7841  11
  -4   5  -1 51.9200 17.3226   2
  -1  -4  -1 72.2340 26.1661   2
  -4   5  -1 60.5091 21.2461   1
  -1  -4  -1 77.1047 24.0628   6
  -5   4   1 62.1005 15.8149   2
  -4  -1  -1 63.3302 22.6799   6
  -5   1   1 64.3540 25.4369   6
  -4  -1  -1 46.8062 27.2223   2
  -5   1   1 59.6238 23.0905   2
  -1   5  -1 62.5128 27.2003   9
   1   4   1 59.8020 25.8745   9
   4   1   1 48.9890 22.5802   9
   5  -1  -1 76.4854 26.5646   9
   5  -4  -1 67.9793 26.6877   9
  -1  -4   0 18630.7 267.676  11
  -4  -1   0 19540.5 219.785  11
   5  -1   0 18780.5 282.268   4
  -1  -4   0 18751.9 270.925   6
  -4  -1   0 18810.7 267.088   6
  -4   5   0 20179.0 224.773   2
  -5   1   0 19090.1 273.677   6
  -4   5   0 18543.6 259.919   1
  -1   5   0 18931.3 279.959   9
   1   4   0 18903.5 280.168   9
   4   1   0 19272.7 273.722   9
   5  -1   0 18916.4 263.276   9
  -4  -1   0 18815.4 283.127   2
   5  -4   0 19384.7 266.976   9
  -5   1   0 19020.4 266.148   2
   4  -5   0 19425.5 285.210  11
  -5   4   0 19922.1 226.907   2
   4   1   0 18907.0 275.991   4
   1  -5   0 19511.0 295.870  11
   5  -4   1-0.72833 18.3510  11
   4  -5  -1 12.4331 25.6870  11
   4   1  -1-2.96830 21.8217   4
   1  -5  -1-1.66319 24.0847  11
  -1  -4   1 20.8260 23.0831  11
   5  -1   1 25.5468 26.9657   4
  -4  -1   1-16.4325 16.7985  11
  -1  -4   1 14.1478 20.2454   6
  -5   4  -1 10.7887 15.0608   2
  -4  -1   1-1.84381 19.1871   6
  -4  -1   1 7.93893 23.2071   2
  -5   1  -1-3.34891 17.7892   6
  -1   5   1 0.97202 21.5753   9
   1   4  -1-3.92116 20.2606   9
   1  -5  -1 1.11643 10.7329   1
   4   1  -1 5.11544 19.2756   9
   5  -1   1 18.2808 19.4784   9
  -5   1  -1 23.7951 24.9685   2
   5  -4   1 20.6523 21.0991   9
   4   1  -2 597.927 51.5314   4
  -1  -4   2 583.770 53.0252  11
   5  -1   2 556.920 54.7436   4
  -5   4  -2 567.552 45.5341   2
  -1  -4   2 528.244 51.4622   6
   1  -5  -2 575.771 42.2206   1
  -1   5   2 577.553 53.5090   9
  -5   1  -2 586.925 49.2137   6
   1   4  -2 516.352 51.2934   9
  -4  -1   2 558.899 44.9394   1
   4   1  -2 549.285 52.7784   9
   5  -1   2 583.588 45.5004   9
  -4  -1   2 565.834 54.0306   2
  -4  -1   2 616.886 47.0450  11
   5  -4   2 601.268 46.7042   9
  -1  -4   2 541.820 47.3178  12
   5  -4   2 611.815 49.4790  12
  -5   1  -2 570.465 52.8111   2
  -4  -1   2 512.425 49.5781   6
   4  -5  -2 589.640 57.6971  11
   5  -4   2 573.878 44.9241  11
   1  -5  -2 584.049 57.6221  11
   5  -1   3 25.2788 24.9826   4
   5  -4   3 45.2695 18.5208  11
   4   1  -3 34.2723 23.6002   4
  -1  -4   3 22.1052 23.2420  11
  -4  -1   3 40.8940 21.4521  11
  -4  -1   3 15.5952 23.0030   2
  -1  -4   3 24.7243 21.6657   6
  -4  -1   3 30.3759 22.0105   6
   5  -4   3 50.7871 20.8825   8
  -5   1  -3 28.0080 18.8084   6
  -5   4  -3 3.98439 16.9527   2
  -1   5   3 48.9187 24.5922   9
  -4  -1   3 47.3514 18.6725   1
   1   4  -3 23.9448 20.7342   9
   4   1  -3 9.20065 23.4206   9
   5  -1   3 35.4003 17.4033   9
   5  -4   3 33.7515 19.4603   9
   5  -4   3 29.3974 18.9349  12
   1  -5  -3 30.4911 28.5474  11
  -1  -4   3 46.0231 23.8886  12
  -5   1  -3 114.794 30.2155   2
   5  -1   4 3076.02 117.598   4
  -1  -4   4 3008.07 119.746  11
   4   1  -4 3186.81 112.100   4
  -4  -1   4 3205.84 114.483  11
  -5   4  -4 3197.93 116.681   2
  -5   1  -4 3049.29 102.957   6
  -1   5   4 3123.98 118.609   9
   1   4  -4 3076.48 119.835   9
   4   1  -4 3054.04 122.389   9
   5  -4   4 3297.18 113.959  12
  -4  -1   4 3206.65 121.965   6
  -5   1  -4 3141.88 122.076   2
  -1  -4   4 3179.78 123.302   6
  -1  -4   4 3050.08 108.845  12
   5  -4   4 2839.45 100.774   8
   1  -5  -4 3219.48 125.761  11
  -5   1  -5 92.2583 32.5600   2
   5  -1   5 93.7726 31.9140   4
   1  -5  -5 82.9062 34.0896  11
   4   1  -5 134.913 31.6621   4
  -1   5   5 66.8289 26.6612   9
  -1  -4   5 87.4259 30.3927  11
  -1  -4   5 86.7493 30.4780   6
  -4  -1   5 134.156 33.4595   6
  -4  -1   5 87.5540 28.2559  11
  -5   1  -5 111.411 23.7575   6
  -5   4  -5 96.8056 27.2184   2
   1   4  -5 64.2837 26.7636   9
   4   1  -5 85.1886 30.0843   9
   5  -4   5 58.9681 23.3259  12
  -1  -4   5 78.1600 23.7082  12
   5  -1   6 108.228 31.9133   4
   1  -5  -6 86.6095 34.5198  11
  -5   1  -6 83.6542 33.1475   2
   4   1  -6 79.1183 28.0421   4
  -1  -4   6 52.3023 30.8977  11
  -4  -1   6 97.4616 31.0380  11
  -1  -4   6 114.809 34.4095   6
   5  -1   6 91.6460 31.3311   3
  -4  -1   6 72.1527 29.6112   6
  -1   5   6 102.634 30.1075   9
  -5   4  -6 72.5756 29.6865   2
   1   4  -6 65.2023 29.5505   9
   4   1  -6 75.8784 29.3156   9
   5  -4   6 99.2637 27.5969  12
  -1  -4   6 107.951 29.4333  12
   1  -5  -7 28.7478 22.6466  11
  -1  -4   7 2.85512 25.4107  11
  -4  -1   7 11.3295 26.4687  11
  -5   1  -7-6.72598 29.3947   2
  -1  -4   7 24.0488 27.2996   6
   5  -1   7-25.0798 27.4460   3
  -4  -1   7 7.17507 22.2782   6
  -1   5   7 37.4181 25.7494   9
  -5   4  -7 7.26560 25.9618   2
   1   4  -7 14.3039 24.7785   9
   4   1  -7 14.7728 25.1718   9
   5  -4   7 24.8428 25.1359  12
   4   1  -7 9.34772 21.0567   4
  -1  -4   7 20.6583 21.3004  12
  -1  -4   8 857.640 77.3700  11
  -4  -1   8 864.946 75.3124  11
  -5   4  -8 943.729 78.1077   2
  -1  -4   8 953.395 77.2259   6
  -4  -1   8 856.070 71.8713   6
   5  -1   8 910.071 74.9105   3
  -1   5   8 948.878 70.3349   3
  -1   5   8 875.194 67.6438   9
   1   4  -8 1005.77 73.8167   9
   4   1  -8 781.625 70.7998   9
  -5   1  -8 932.124 78.3518   2
   5  -4   8 869.995 70.0023  12
  -1  -4   8 913.487 70.7359  12
   1  -5  -8 875.001 75.9812  11
  -1  -4   9 54.6857 34.6814  11
  -4  -1   9-8.75648 31.3769  11
   5  -1   9 19.2848 25.4160   3
  -1  -4   9 60.9026 31.2953   6
  -1   5   9 5.03118 22.9352   3
  -5   4  -9-1.46484 26.2295   2
   1   4  -9 9.14701 19.6958   9
   4   1  -9-0.28168 26.5278   9
   4  -5  -9 20.2131 27.5450   9
  -5   1  -9-5.64030 24.4733   2
  -4  -1   9 5.26165 26.1200   6
   5  -4   9 13.4265 21.7717  12
  -1  -4   9 6.23086 24.8238  12
  -5   1 -10 21.8930 26.6072   2
  -1  -4  10-9.75806 27.3093  11
  -4  -1  10 11.0936 29.1534  11
   5  -1  10 26.3229 33.2036   3
  -1  -4  10 77.3530 35.9049   6
  -1   5  10 18.6741 26.5962   3
  -1  -4  10 34.6755 27.8803  12
  -4  -1  10-6.34995 26.9364   6
   4  -5 -10 58.4797 36.5646   9
  -5   4 -10 33.7836 31.3958   2
   1   4 -10 63.2500 23.7568   9
   4   1 -10-18.0828 28.2791   9
   5  -4  10 78.5027 33.9698  12
  -1  -4  11 8.43070 26.4147  11
  -5   1 -11-0.68052 28.3451   2
  -4  -1  11 29.4654 35.3625  11
   4  -5 -11 30.1465 36.3083   9
   5  -1  11 41.5018 37.7511   3
  -1  -4  11 49.0092 31.1539   6
  -4  -1  11-31.7724 26.3845   6
  -5   4 -11-30.5615 32.5383   2
   4   1 -11-65.5307 31.7563   9
   5  -4  11 72.1786 35.8905  12
  -1  -4  11-8.38213 27.0430  12
  -1  -4  12 4731.23 192.635  11
  -5   4 -12 5465.32 209.866   2
  -4  -1  12 4727.52 195.719  11
  -1  -4  12 5342.08 189.289   6
  -4  -1  12 5229.07 184.266   6
   5  -1  12 4963.58 195.383   3
  -5   1 -12 5416.95 208.505   2
   4   1 -12 5041.65 190.308   9
   4  -5 -12 4984.31 189.405   9
  -4   5  12 4958.88 191.486   5
  -1   5  12 5434.35 209.735   5
   5  -4  12 4793.16 190.426  12
  -1  -4  12 4827.38 189.878  12
  -5   1 -13 15.6085 29.2639   2
  -1  -4  13 79.8370 45.5262  11
  -5   4 -13-81.8354 36.9328   2
  -4  -1  13 47.6741 37.4313  11
   4   1 -13 28.3309 27.8385   9
   4  -5 -13-4.46351 31.6126   9
  -4   5  13 77.4775 42.0365   5
  -1   5  13 85.2764 44.8295   5
  -5   1 -14 27.1802 32.3486   7
  -1  -4  14 7.00550 34.1110  11
  -4  -1  14 42.6298 42.2378  11
  -5   1 -14 22.0850 25.6657  10
  -5   4 -14 2.51884 32.6513   2
  -5   1 -14-5.00345 28.1082   2
  -4   5  14 17.8127 29.7574   5
  -1   5  14 68.5164 44.5067   5
  -5   1 -15 14.9696 27.9649   7
  -1  -4  15-81.0452 39.7066  11
  -4  -1  15 38.0230 38.0458  11
  -5   1 -15 53.6327 34.3765  10
  -5   1 -15-16.8981 35.2806   2
  -4   5  15 1.27886 30.0245   5
  -1   5  15 5.98458 39.9684   5
  -5   4 -15-101.235 41.2328   2
   0  -5   0 1469.86 85.6095  11
   5   0   0 1458.38 84.8038   4
   0   5   0 1412.55 83.2158   9
   0  -5   0 1441.55 81.3376   6
   5   0   0 1488.65 80.9288   9
  -5   0   0 1538.33 86.0752   2
  -5   0   0 1421.73 80.0814   6
   5  -5   0 1573.30 84.9571  11
   0  -5  -1 3721.70 131.969  11
   5   0   1 3569.84 130.591   4
   0  -5   1 3784.10 135.526  11
   5   0  -1 3727.54 132.711   4
   0  -5   1 3709.43 131.507   6
  -5   5  -1 3698.16 107.964   2
  -5   0   1 3646.24 129.024   6
  -5   0  -1 3627.02 123.333   6
   0   5   1 3808.96 133.981   9
   0   5  -1 3542.46 129.410   9
   5  -5   1 3512.11 121.417  11
   5   0   1 3721.83 122.468   9
   5   0  -1 3734.13 129.452   9
  -5   0   1 3699.24 127.978   2
  -5   0  -1 3743.88 131.745   2
   5  -5  -1 3564.54 127.525  11
   0  -5   2 8451.91 203.684  11
   5   0  -2 8826.05 201.532   4
  -5   0   2 8995.62 171.136  11
   0  -5   2 8797.39 205.215   6
  -5   5  -2 9055.38 178.842   2
  -5   0   2 8961.01 204.922   6
  -5   0  -2 8801.98 188.513   6
   0   5   2 8806.24 202.569   9
   0   5  -2 9054.35 205.838   9
   5   0   2 8969.36 182.581   9
   5   0  -2 8758.37 202.440   9
  -5   0   2 8677.95 193.550   2
  -5   0  -2 8796.58 205.135   2
   5  -5   2 9041.96 190.165  11
   0  -5  -2 8839.67 202.181  11
   5   0   2 8990.32 205.490   4
   0  -5   3 1906.15 100.694  11
   5   0  -3 2046.97 99.6691   4
  -5   0   3 1976.28 87.3849  11
   0  -5   3 1889.06 99.1103   6
  -5   5  -3 2112.71 92.7492   2
  -5   0   3 1968.68 99.5985   6
  -5   0  -3 2053.12 89.9066   6
   0   5   3 1982.45 97.7745   9
   0   5  -3 1935.52 97.8858   9
   0  -5  -3 2136.77 94.6824   2
   5   0   3 1923.91 83.0830   9
  -5   0   3 2016.86 94.9842   2
   5   0  -3 1902.85 99.2841   9
  -5   0  -3 1988.93 102.757   2
   5  -5   3 1916.41 96.8972  12
   0  -5   3 1968.48 98.3233  12
   5   0   3 1961.69 100.452   4
   0  -5  -3 1831.75 95.6019  11
   5  -5   3 1933.93 88.6297  11
   5   0   4 72.5937 30.6334   4
   0  -5  -4 124.604 36.2443  11
   5  -5   4 114.869 28.5830  11
   0  -5   4 86.4380 31.1891  11
   5   0  -4 89.5747 29.5878   4
  -5   0   4 125.749 29.6770  11
   0  -5  -4 76.2762 24.9405   2
  -5   0   4 83.9541 29.4541   2
   0  -5   4 119.781 35.4629   6
  -5   0   4 82.6293 30.8280   6
  -5   0  -4 91.0363 22.3170   6
   0   5   4 185.370 41.6886   9
   0   5  -4 100.361 30.8996   9
   5   0  -4 104.829 32.9663   9
  -5   0  -4 70.9707 34.4262   2
  -5   5  -4 96.6933 27.8779   2
   5  -5   4 114.247 31.9729  12
   0  -5   4 95.0558 32.8230  12
   0  -5  -5 81.1216 35.1581  11
  -5   0   5 85.8163 29.4229  11
   0  -5   5 72.7889 30.1276   6
   0  -5  -5 83.4650 28.4465   2
  -5   5  -5 88.3158 28.4879   2
  -5   0   5 63.7259 30.1764   6
   5  -5  -5 73.8390 38.2100   9
   0   5   5 96.3969 30.3725   9
   0   5  -5 101.519 34.4779   9
   5   0  -5 91.5747 35.0811   9
   0  -5   5 81.0622 35.6492  11
  -5   0  -5 77.9718 35.7399   2
   5  -5   5 94.8192 32.7302  12
   0  -5   5 62.8381 28.6609  12
   5   0   5 55.5778 30.8512   4
  -5   0   6 12.7605 25.5866  11
   0  -5   6 25.3965 29.1261   6
   0  -5  -6-3.28381 29.0197  11
   0  -5   6-3.42757 28.0451  12
  -5   0   6-4.77349 25.7931   6
   5  -5  -6 27.0143 31.1646   9
   0   5   6 21.3598 22.2097   9
  -5   5   6 1.09354 20.8793   6
   0   5  -6 29.9411 25.0289   9
   0  -5   6 8.83562 31.1281  11
   5   0  -6 23.6963 27.7897   9
  -5   5  -6 37.4204 27.6914   2
   5  -5   6-0.49243 23.8898  12
  -5   0  -6 11.9146 31.4082   2
   0  -5   7 50.8347 33.7773  11
  -5   0   7 29.2507 28.9851  11
   0  -5   7 10.8111 26.1724   6
  -5   0   7 13.3424 22.3246   6
   5  -5   7 25.8083 26.5924  12
  -5   5  -7 31.9011 24.4542   2
   0   5   7 6.83958 22.1630   9
  -5   5   7 3.29356 20.8024   6
   0   5  -7 39.4376 23.1700   9
   0  -5  -7 1.21663 30.8153  11
   5   0  -7 9.14596 27.8041   9
   5  -5  -7 35.6386 35.4312   9
   0  -5   7 69.5976 30.9133  12
  -5   0  -7 12.0086 29.1722   2
   0  -5   8-13.7284 30.9555  11
  -5   0   8 22.3842 30.1215  11
   0  -5   8 12.1151 22.7442   6
   5   0   8 36.0042 32.2906   3
  -5   0   8-4.08413 23.9121   6
  -5   5   8 38.3764 24.3890   6
   0   5   8 28.4070 22.7346   9
   0   5  -8 21.0513 21.8953   9
   0  -5  -8-20.5703 31.4528  11
   5   0  -8 4.96144 23.6148   9
  -5   0  -8-18.9138 33.4955   2
  -5   5  -8-3.95224 28.7519   2
   5  -5  -8 0.58595 29.9743   9
   5  -5   8 22.8173 28.6743  12
   0  -5   8 9.96757 25.7014  12
   0  -5   9 770.169 77.9042  11
  -5   0   9 694.365 73.2960  11
   0  -5   9 793.062 75.8540   6
  -5   5  -9 760.859 74.9701   2
  -5   0   9 820.740 75.0622   6
   5   0   9 781.983 76.7157   3
   0   5   9 881.374 77.0657   3
   0   5   9 764.669 65.6706   9
   0   5  -9 730.352 66.3048   9
   5  -5   9 720.509 70.5237  12
   5   0  -9 788.596 77.4496   9
   5  -5  -9 766.907 77.2603   9
  -5   0  -9 837.628 80.6879   2
   0  -5   9 765.848 73.5567  12
   0  -5  -9 760.065 71.6445  11
   0  -5  10 2718.83 141.983  11
  -5   0  10 2565.02 137.443  11
   0  -5  10 2691.70 134.786   6
  -5   5 -10 2819.75 142.961   2
   5   0  10 2527.06 136.462   3
   0   5  10 2762.18 136.335   3
  -5   0  10 2782.77 134.555   6
   5   0 -10 2535.55 135.824   9
   5  -5 -10 2634.97 138.578   9
  -5   0 -10 2805.60 146.383   2
   5  -5  10 2589.36 135.989  12
   0  -5  10 2495.39 132.958  12
   0  -5  11 1379.65 100.870   6
   0  -5  11 1209.97 101.004  11
  -5   0  11 1145.57 99.3941  11
  -5   5 -11 1226.42 100.239   2
  -5   0  11 1284.05 95.0975   6
   5   0  11 1156.59 99.0573   3
   0   5  11 1183.52 93.8481   3
   5   0 -11 1214.58 98.7770   9
   5  -5 -11 1241.38 100.506   9
  -5   5  11 1280.51 95.4294   5
  -5   0 -11 1185.72 99.1532   2
   5  -5  11 1156.58 96.1366  12
   0  -5  11 1259.23 99.8873  12
   0   5  12 402.553 66.1837   5
  -5   0 -12 402.426 68.9608   2
   0  -5  12 344.114 60.7721  11
  -5   0  12 343.082 61.1979  11
   5   0  12 489.233 72.2497   3
   0   5  12 471.184 68.5000   3
  -5   0  12 463.954 60.6455   6
   5   0 -12 466.315 66.2642   9
  -5   5 -12 472.125 68.6462   2
   5  -5 -12 398.410 65.8917   9
   5  -5  12 495.066 68.6377  12
  -5   5  12 452.080 62.8433   5
   0  -5  12 466.085 68.4590  12
   0  -5  13 641.343 83.6769  11
  -5   0  13 666.482 84.6250  11
  -5   5 -13 705.225 83.0003   2
   5   0  13 684.033 85.7461   3
   0   5  13 712.485 83.3526   3
   5   0 -13 638.951 79.7401   9
   5  -5 -13 644.210 79.9131   9
  -5   5  13 720.964 79.9297   5
   0   5  13 688.579 84.8090   5
  -5   0 -13 616.568 81.0057   2
   5  -5  13 650.633 81.2422  12
   0  -5  13 608.701 77.6792  12
   0  -5  14 1620.04 126.873  11
  -5   0  14 1542.03 125.828  11
  -5   5 -14 1585.23 123.483   2
   5   0  14 1490.27 122.029   3
   0   5  14 1512.98 119.052   3
  -5   5  14 1421.21 112.566   5
   0   5  14 1722.34 131.286   5
  -5   0 -14 1505.81 123.463   2
   5  -5  14 1471.84 120.515  12
   0  -5  14 1269.43 112.207  12
  -5   0 -15 301.381 66.1694   2
   0  -5  15 246.471 64.0956  11
  -5   5  15 155.672 44.1021   5
   3   3  15 121.582 49.1516   5
  -3   6 -14 286.532 58.4389   2
  -6   3  14 191.711 51.0209  11
   3   3  14 314.737 67.4990   3
   6  -3 -14 335.756 68.6899   9
   3   3  14 271.719 57.7220   5
   3  -6  14 273.435 63.4660  12
  -3   6 -13 6.31145 27.1797   2
  -6   3  13 12.8759 38.2324  11
   3   3  13-98.6458 49.0688   3
   6  -3 -13 29.1484 40.4182   9
   3   3  13 38.6579 36.7935   5
   3  -6  13 30.0805 36.4162  12
   3   3  12 1569.03 118.644   3
  -6   3  12 1537.75 118.727  11
   6  -3 -12 1813.40 128.514   9
  -3   6 -12 1787.09 124.911   2
   3   3  12 1615.29 111.357   5
   3  -6  12 1488.00 117.922  12
   3   3  11-29.6745 29.6259   5
   3  -6  11-17.0766 32.6473  11
  -6   3  11-42.1794 42.8988  11
   3   3  11-15.1951 34.0137   3
  -3  -3 -11 40.1655 37.2757   2
   6  -3 -11-2.91937 30.7321   9
   3  -6  11-37.5797 39.2581  12
   3  -6  10 1841.96 112.860  11
  -6   3  10 1591.30 111.033  11
  -6   3  10 1879.37 107.517   6
   3   3  10 1907.23 123.335   3
   6  -3 -10 2118.96 130.327   9
  -3  -3 -10 1974.35 116.527   2
   3   3  10 2039.67 113.499   5
   3  -6  10 1713.21 119.194  12
   3  -6   9 9.75383 30.6893  11
  -6   3   9 6.64514 32.2246  11
   3  -6   9 22.4289 32.9098  12
  -6   3   9-23.9304 21.0243   6
  -3  -3  -9-32.0533 33.0376   2
   6  -3  -9 0.00000 29.5527   9
   3   3   9 37.4052 30.0731   5
   3  -6   8 2785.28 132.712  11
  -6   3   8 2594.60 129.858  11
  -6   3   8 2824.47 127.610   6
   3  -6   8 2442.14 133.174  12
   6  -3  -8 2709.88 138.262   9
  -3  -3  -8 2894.60 133.692   2
   3   3   8 2903.69 123.585   5
   3  -6   7-10.7347 31.5980  11
  -6   3   7-12.3486 29.3777  11
  -6   3   7 12.7898 22.4722   6
  -3  -3  -7-13.7512 26.5395   2
   6  -3  -7-10.2841 27.6089   9
   3  -6   7-7.97784 28.9889  12
   3   3   7-10.0255 22.9029   5
  -6   3   6 482.818 55.2532  11
   3  -6   6 456.322 57.6608  11
   3   3   6 474.694 47.5246   9
  -6   3   6 398.706 51.9539   6
  -3  -3  -6 505.414 60.5584   2
   6  -3  -6 394.552 55.4512   9
   3  -6   6 359.126 56.1870  12
   3  -6   5 31.2641 30.3290  11
  -6   3   5-6.08353 22.2602  11
  -6   3   5-4.34004 24.9315   6
  -3  -3  -5 41.8217 38.6124   2
  -3   6  -5 24.7260 22.6510   9
   3   3   5-0.79038 20.7414   9
   6  -3  -5-14.9402 32.0773   9
   3  -6   5 8.55286 30.8465  12
  -6   3   4 9585.78 206.238  11
  -6   3   4 9637.97 222.119   6
   3  -6   4 8408.97 226.225  12
  -3   6  -4 9495.80 200.253   9
   3  -6   4 9205.35 224.311  11
   3   3   4 9436.20 201.348   9
   6  -3  -4 9497.13 226.609   9
  -3  -3  -4 9750.02 226.925   2
   3  -6   3 16.4432 30.7838  11
  -3  -3  -3 23.6248 18.9990   6
   3  -6   3-2.17771 28.0371  12
  -3  -3  -3 2.87558 28.0916   2
  -6   3   3-3.89353 23.7266   6
  -3   6  -3-21.7846 25.1628   9
   3   3   3-11.1406 20.5518   9
   6  -3  -3 3.95404 24.8675   9
   3  -6   2 1188.96 82.9002  11
  -3  -3  -2 1098.78 67.5018   6
  -6   3   2 1087.59 75.4177   6
  -3   6  -2 1161.40 73.4242   9
   3   3   2 1137.01 73.4261   9
  -3  -3  -2 1047.14 77.2562   2
   6  -3  -2 1172.70 78.1961   9
  -3  -3  -1 3.54328 17.7855  11
  -3  -3  -1 2.65856 17.3323   6
  -3  -3  -1-5.61163 28.0249   2
   3  -6   1-2.89221 27.8372  11
  -6   3   1 20.1768 25.2338   6
  -3   6  -1-14.1238 22.6773   9
   3   3   1 10.5931 24.0068   9
   6  -3  -1 0.81921 22.4527   9
  -6   3   1 22.1783 21.6425   2
  -3  -3   0 587.434 50.1264  11
  -3  -3   0 509.437 49.9781   6
  -6   3   0 562.472 55.7154   6
  -3   6   0 502.448 52.6045   9
   3   3   0 522.440 53.6918   9
  -3  -3   0 608.900 62.0989   2
   6  -3   0 500.093 49.0978   9
  -6   3   0 588.198 49.6896   2
   3  -6   0 624.641 63.3608  11
  -6   3  -1-17.9635 23.8855   2
   3  -6  -1 9.60154 30.1299  11
  -3  -3   1 4.94293 22.3512  11
  -3  -3   1-0.70814 26.4920   2
  -3  -3   1 1.66056 17.3720   6
  -6   3  -1 4.67432 20.9482   6
  -3   6   1 19.0907 24.0082   9
   3   3  -1 23.5069 27.4592   9
   3  -6  -1 27.2244 19.1630   1
   6  -3   1-9.27246 21.4839   9
  -3  -3   2 1453.66 79.9567  11
  -3  -3   2 1389.09 82.8255   6
  -6   3  -2 1508.04 84.7186   6
  -3   6   2 1437.61 86.0072   9
  -3  -3   2 1554.44 93.0860   2
   3   3  -2 1396.43 87.3837   9
   6  -3   2 1514.51 75.3055   9
  -6   3  -2 1541.75 82.6517   2
   3  -6  -2 1450.61 93.4877  11
   3  -6  -3-6.43500 32.0892  11
  -6   3  -3 1.89364 22.3032   2
  -3  -3   3 14.2682 21.8776  11
  -3  -3   3 11.0857 22.1101   6
  -3   6   3-13.9979 23.2776   9
  -6   3  -3-61.7450 25.4086   6
   3   3  -3 31.5315 30.3859   9
  -3  -3   4 7733.85 194.699  11
   6  -3   4 8342.21 200.530   4
  -3  -3   4 7929.97 201.568   6
  -6   3  -4 8264.08 192.029   6
  -3   6   4 8306.32 206.980   9
   3   3  -4 8008.80 208.270   9
  -6   3  -4 8106.61 199.864   2
   3  -6  -4 7672.68 211.338  11
   3  -6  -5 11.5826 34.7062  11
   6  -3   5 22.3983 30.5296   4
  -3  -3   5 14.2157 25.5997  11
  -6   3  -5 8.21815 26.1167   2
  -3  -3   5 14.0312 26.5909   6
  -6   3  -5-21.7184 21.4294   6
   3   3  -5 1.79965 27.3320   9
   6  -3   6 528.527 54.2768   4
  -3  -3   6 597.272 62.7928  11
  -3  -3   6 647.285 65.0321   6
  -6   3  -6 582.629 53.1042   6
   3   3  -6 562.831 63.6521   9
   6  -3   6 550.120 52.3999   3
  -6   3  -6 574.771 61.9498   2
   3  -6  -6 589.501 69.3413  11
   6  -3   7-12.2765 27.2207   4
  -3  -3   7 9.12101 26.8888  11
  -6   3  -7 5.87073 29.0017   2
   6  -3   7 7.49944 24.9292   3
  -3  -3   7 8.62430 26.8250   6
   3   3  -7-18.6394 32.0278   9
   6  -3   8 4496.65 154.301   3
  -3  -3   8 4138.68 161.175   6
   3   3  -8 4462.05 169.056   9
  -3  -3   8 3991.16 160.544  11
  -6   3  -8 4338.13 168.871   2
  -3  -3   9 32.5048 34.4729  11
  -6   3  -9 45.5936 32.0747   2
  -3  -3   9 30.4719 26.5692   6
   3   3  -9-17.7464 28.0452   9
  -3  -3  10 1562.55 110.594  11
  -3  -3  10 1599.65 106.462   6
   3   3 -10 1579.79 106.411   9
  -6   3 -10 1883.38 122.175   2
  -3  -3  11-9.51757 34.7597  11
  -6   3 -11 32.3366 34.1861   2
  -3  -3  11-11.3799 30.2501   6
   3   3 -11-20.5386 25.1790   9
  -3  -3  12 589.175 75.7527  11
  -3  -3  12 636.896 71.3484   6
   3   3 -12 554.758 69.3623   9
  -6   3 -12 657.479 79.0256   2
  -3  -3  13-27.3027 44.3957  11
  -6   3 -13-26.3185 33.1493   2
  -3   6  13 1.25667 30.0172   5
  -3  -3  14 524.193 76.1518  11
  -3   6  14 714.530 86.8866   5
  -6   3 -14 639.183 84.0407   2
  -6   2  14 621.241 86.3169  11
   4   2  14 596.886 86.1117   3
   2   4  14 577.498 85.0160   3
   6  -2 -14 422.871 66.9733   9
   6  -4 -14 543.178 78.6250   9
   2  -6  14 554.987 75.3847  11
   2   4  14 492.420 72.6128   5
   4  -6  14 623.037 86.1996  12
   2  -6  14 561.526 83.9022  12
  -4   6 -14 549.345 77.5080   2
  -4   6 -13 151.476 46.6406   2
   2  -6  13 265.897 57.6714  11
  -6   2  13 260.073 60.4592  11
  -6   4  13 211.232 52.5853  11
   4   2  13 174.395 55.4704   3
   2   4  13 271.418 61.3325   3
   6  -2 -13 169.441 50.8600   9
   6  -4 -13 208.316 54.0286   9
  -4  -2 -13 312.062 62.9857   2
   2   4  13 153.461 41.8593   5
   4  -6  13 203.725 51.9818  12
   2  -6  13 254.706 61.5776  12
  -4   6 -12 193.042 47.1416   2
   2  -6  12 223.940 54.8629  11
  -6   4  12 144.630 46.7763  11
   4   2  12 121.182 48.5148   3
   2   4  12 121.257 42.8993   3
   6  -2 -12 88.4326 37.2011   9
   6  -4 -12 111.717 44.1183   9
  -4  -2 -12 201.680 50.3205   2
  -6   2  12 170.402 49.0921  11
   2   4  12 180.408 47.3462   5
   4  -6  12 125.476 43.9563  12
   2  -6  12 120.859 43.1303  12
  -4   6 -11 346.632 58.8088   2
   2  -6  11 320.338 57.3273  11
  -6   2  11 481.641 70.5013  11
  -6   4  11 288.431 56.3673  11
   4   2  11 306.561 59.3063   3
   2   4  11 349.643 58.0462   3
  -6   2  11 324.823 47.6088   6
  -4  -2 -11 526.657 73.9252   2
   6  -2 -11 417.917 64.5966   9
   6  -4 -11 331.689 56.7064   9
   2   4  11 412.542 60.0110   5
   4  -6  11 287.500 54.7729  12
   2  -6  11 260.750 54.0152  12
   2  -6  10 1990.36 122.468  11
  -6   2  10 1882.16 122.393  11
  -4   6 -10 1990.58 123.740   2
   4   2  10 2105.35 130.079   3
   2   4  10 1903.71 123.307   3
  -6   2  10 2082.55 118.100   6
   6  -2 -10 1971.50 126.067   9
   6  -4 -10 1907.59 124.485   9
  -4  -2 -10 2170.98 128.044   2
   2   4  10 2050.29 119.252   5
   4  -6  10 1797.36 121.113  12
   2  -6  10 1769.53 120.693  12
   2  -6   9 210.738 47.0746  11
  -6   2   9 272.607 52.2209  11
  -4   6  -9 287.109 50.9753   2
   4   2   9 301.254 55.6078   3
  -6   2   9 321.523 51.0010   6
  -6   4   9 256.723 43.1825   6
  -2  -4  -9 308.434 49.1523   2
  -4  -2  -9 313.178 56.9975   2
   6  -2  -9 255.097 53.2503   9
   6  -4  -9 169.105 43.6900   9
   2   4   9 218.654 43.4843   5
   4  -6   9 250.849 52.6491  12
   2  -6   9 243.522 52.6947  12
   4  -6   8 638.155 64.5139  11
  -6   2   8 726.009 72.9095  11
  -6   2   8 670.254 66.3324   6
  -4   6  -8 567.322 63.3917   2
  -6   4   8 695.565 64.6933   6
   4  -6   8 619.457 69.4726  12
   6  -2  -8 671.283 74.7895   9
   6  -4  -8 635.759 73.2239   9
   2  -6   8 638.993 69.6631  11
  -2  -4  -8 742.326 69.5213   2
  -4  -2  -8 683.115 72.3279   2
   2  -6   8 563.991 67.5192  12
   4  -6   7 202.206 40.6171  11
   2  -6   7 223.302 47.1674  11
  -6   2   7 223.602 44.8460  11
  -4   6  -7 173.144 37.5484   2
  -6   2   7 210.781 40.8555   6
  -6   4   7 168.368 35.3040   6
  -2  -4  -7 283.054 47.6434   2
   2   4   7 270.303 40.7363   9
  -2   6  -7 198.861 33.6616   9
  -4  -2  -7 228.940 46.1400   2
   6  -2  -7 201.985 47.3041   9
   6  -4  -7 237.962 50.4881   9
   4  -6   7 213.938 44.8186  12
   2  -6   7 178.082 43.9777  12
   4  -6   6 2441.68 117.009  11
   2  -6   6 2177.97 117.652  11
  -6   2   6 2194.86 110.380  11
   2  -6   6 2046.87 116.500  12
  -6   2   6 2208.72 113.412   6
  -6   4   6 2278.00 112.153   6
   2   4   6 2282.74 104.594   9
  -2   6  -6 2250.91 104.080   9
   6  -2  -6 2345.96 123.112   9
   6  -4  -6 2287.65 121.946   9
  -2  -4  -6 2375.52 113.880   2
  -4  -2  -6 2213.97 118.206   2
   4  -6   6 2032.48 115.663  12
   2  -6   5 2433.05 122.760  11
  -6   2   5 2598.21 113.153  11
  -6   2   5 2597.34 120.394   6
  -6   4   5 2595.35 117.591   6
  -2   6  -5 2712.15 114.750   9
   2   4   5 2560.62 110.090   9
   6  -2  -5 2678.36 127.571   9
  -2  -4  -5 2595.75 117.606   2
   6  -4  -5 2490.48 125.532   9
  -4  -2  -5 2579.64 125.022   2
   4  -6   5 2507.77 116.777  11
   4  -6   5 2461.88 124.320  12
   2  -6   5 2430.23 125.174  12
  -2  -4  -4 24.3045 24.6683  11
   4  -6   4 10.9505 26.0726  11
  -6   2   4 14.4924 23.3264  11
  -4  -2  -4 8.84933 15.3115   6
  -2  -4  -4-0.70663 26.7895   2
  -6   2   4 35.0731 29.9367   6
   2  -6   4 14.3722 31.3033  11
  -6   4   4 64.8041 28.8666   6
  -4   6  -4 18.3784 21.6309   9
  -2   6  -4-7.03021 21.5721   9
  -4  -2  -4 35.0934 33.9019   2
   2   4   4 30.5596 24.9333   9
   4   2   4 12.7034 19.3373   9
   6  -2  -4 23.8624 29.9525   9
   6  -4  -4 22.8873 31.4981   9
   4  -6   4-16.0366 32.8458  12
   2  -6   4 6.15721 26.6404  12
   4  -6   3 3654.36 138.044  11
  -2  -4  -3 3360.55 114.976  11
   2  -6   3 3324.74 136.950  11
  -6   2   3 3490.52 117.191  11
  -2  -4  -3 3354.06 115.710   6
  -4  -2  -3 3352.90 114.604   6
  -6   2   3 3555.28 136.211   6
  -6   4   3 3511.83 133.835   6
  -4   6  -3 3513.37 120.967   9
  -2   6  -3 3458.90 128.775   9
   2   4   3 3510.10 129.515   9
   4   2   3 3474.10 121.481   9
  -2  -4  -3 3712.06 139.146   2
   6  -2  -3 3405.35 135.057   9
   6  -4  -3 3526.33 137.508   9
  -4  -2  -3 3467.14 138.886   2
   2  -6   3 3249.24 141.256  12
   4  -6   3 3372.64 141.773  12
   2  -6   2 2266.12 114.397  11
  -2  -4  -2 2256.50 95.7961  11
  -6   2   2 2253.55 88.6576  11
  -2  -4  -2 2278.24 97.8730   6
  -4  -2  -2 2290.42 97.4452   6
  -6   2   2 2274.81 107.769   6
  -6   4   2 2258.52 107.508   6
  -4   6  -2 2316.32 99.7275   9
  -2   6  -2 2243.67 105.793   9
   2   4   2 2314.64 106.030   9
   4   2   2 2496.09 105.576   9
  -2  -4  -2 2287.84 110.397   2
   6  -2  -2 2126.95 105.114   9
   6  -4  -2 2287.26 107.416   9
  -4  -2  -2 2245.95 111.378   2
  -6   2   2 2380.19 96.1873   2
   4  -6   2 2254.21 109.577  11
   4  -6   1 212.225 42.8575  11
   2  -6   1 220.866 44.5043  11
  -2  -4  -1 248.123 39.3123  11
  -2  -4  -1 233.804 41.9345   2
  -2  -4  -1 176.551 31.5122   6
  -4  -2  -1 255.810 37.9142   6
  -4  -2  -1 213.764 40.9148   2
  -6   2   1 235.778 39.7283   6
  -4   6  -1 204.861 35.5156   9
  -6   4   1 192.023 36.2721   6
  -2   6  -1 263.047 42.2580   9
   2   4   1 218.584 36.8584   9
  -6   2   1 212.684 35.5002   2
   4   2   1 281.753 42.2310   9
   6  -2  -1 224.207 39.1723   9
   6  -4  -1 246.680 40.8767   9
  -6   4   0 66.2103 22.3317   2
   4  -6   0 78.4195 35.5003  11
   2  -6   0 51.2378 29.6563  11
  -2  -4   0 52.0812 25.0187  11
  -2  -4   0 27.1180 26.6370   2
  -2  -4   0 38.4033 21.0429   6
  -4  -2   0 44.4257 23.8222   6
  -4  -2   0 48.4952 28.2655   2
  -6   2   0 80.3094 29.1597   6
  -4   6   0 24.8854 20.9272   9
  -2   6   0 54.8294 29.2270   9
  -6   4   0 64.3855 28.3307   6
   2   4   0 47.9394 25.6096   9
   4   2   0 51.4110 26.6517   9
  -6   2   0 81.8598 29.1958   2
   6  -2   0 41.8400 25.3419   9
   6  -4   0 66.5344 27.0317   9
   4   2  -1 230.385 40.8582   4
   4  -6  -1 236.386 46.6860  11
   2  -6  -1 254.909 46.6497  11
  -2  -4   1 242.640 37.7270  11
   6  -2   1 266.980 43.7229   4
  -4  -2   1 248.017 33.9328  11
  -6   4  -1 202.027 31.7277   2
  -4  -2   1 282.243 47.7548   2
  -4  -2   1 230.974 38.8338   6
   6  -4   1 286.365 39.5171   9
  -6   2  -1 233.971 33.0584   6
  -2   6   1 265.537 42.0375   9
   2   4  -1 242.324 40.1997   9
   4   2  -1 202.720 37.5109   9
   6  -2   1 225.800 34.7619   9
  -6   2  -1 289.644 43.9288   2
  -2  -4   2 3365.12 126.068  11
  -4  -2   2 3202.39 113.050  11
   6  -2   2 3241.17 129.823   4
   4  -6  -2 2882.97 128.448  11
  -2  -4   2 3007.15 122.130   6
   4   2  -2 3082.10 119.318   4
  -4  -2   2 3089.18 122.607   6
  -6   2  -2 3184.38 120.389   6
  -2   6   2 2916.66 121.655   9
   2   4  -2 3006.41 126.263   9
   4   2  -2 2976.38 124.547   9
  -4  -2   2 2996.24 126.364   2
   6  -2   2 3120.20 109.113   9
   6  -4   2 3188.74 109.264   9
  -6   2  -2 3007.37 120.622   2
  -6   4  -2 3241.72 114.334   2
   2  -6  -2 3040.82 131.979  11
  -2  -4   3 1286.65 82.9053  11
  -4  -2   3 1297.45 76.2421  11
  -2  -4   3 1334.90 84.6712   6
  -4  -2   3 1339.51 84.2648   6
  -6   2  -3 1287.94 77.9307   6
  -2   6   3 1247.21 82.6592   9
   2   4  -3 1341.61 86.7278   9
  -4  -2   3 1181.50 82.8686   2
   4   2  -3 1302.78 85.9602   9
   6  -2   3 1317.02 85.1657   4
  -6   2  -3 1245.22 81.5434   2
  -6   4  -3 1330.75 78.3132   2
   4  -6  -3 1297.82 91.8013  11
   4   2  -3 1233.87 77.1641   4
   2  -6  -3 1197.19 88.3573  11
   6  -2   4 2194.25 107.712   4
  -2  -4   4 1990.07 104.281  11
  -4  -2   4 2089.60 100.694  11
  -2  -4   4 2025.27 105.505   6
  -4  -2   4 2007.20 104.788   6
  -6   2  -4 2141.28 97.6713   6
  -2   6   4 2137.54 106.789   9
   2   4  -4 2097.25 109.254   9
   4   2  -4 1993.98 108.256   9
  -6   2  -4 2107.00 107.862   2
  -6   4  -4 2075.63 101.606   2
   4  -6  -4 1966.84 112.155  11
   2  -6  -4 2005.46 111.905  11
   4   2  -4 2032.33 95.8497   4
  -2  -4   5 533.635 60.2054  11
   6  -4   5 690.315 59.5506   4
  -2  -4   5 577.550 60.2011   6
  -4  -2   5 673.969 63.4986   6
  -6   2  -5 700.494 56.5916   6
   6  -2   5 710.235 59.4210   3
   6  -2   5 624.507 61.7865   4
  -2   6   5 652.000 63.9445   9
   2   4  -5 605.487 63.7941   9
   4   2  -5 687.030 69.3906   9
   4   2  -5 676.416 56.8489   4
  -6   2  -5 632.990 65.6325   2
  -4  -2   5 674.502 62.4818  11
   2  -6  -5 573.833 66.2698  11
  -6   4  -5 730.819 65.7885   2
  -2  -4   6 2961.27 133.367  11
  -4  -2   6 3072.77 131.183  11
  -2  -4   6 2980.17 133.552   6
  -4  -2   6 3147.59 135.176   6
   2  -6  -6 3004.54 139.535  11
   6  -2   6 3231.03 126.004   3
  -2   6   6 3185.90 133.831   9
   2   4  -6 3071.47 134.565   9
   4   2  -6 3169.57 139.545   9
  -6   2  -6 3173.91 139.045   2
   6  -2   6 2959.25 125.836   4
  -6   4  -6 3146.05 134.645   2
  -6   4  -7 980.672 80.8060   2
  -2  -4   7 921.236 79.6680  11
  -4  -2   7 934.701 78.2996  11
  -2  -4   7 998.858 80.2644   6
  -4  -2   7 982.876 79.0638   6
   6  -2   7 963.360 74.2809   3
  -2   6   7 955.124 75.8575   9
   2   4  -7 964.744 79.3207   9
   4   2  -7 910.379 78.8861   9
  -6   2  -7 978.919 80.3117   2
   6  -2   7 1004.76 75.5439   4
   2  -6  -7 1002.08 88.2445  11
   2  -6  -8 52.4108 41.2877  11
  -6   2  -8-7.10700 28.3122   2
  -2  -4   8 55.8177 36.6730  11
  -4  -2   8 8.88544 27.0885  11
   6  -2   8 51.6950 31.6555   3
  -2  -4   8 12.6682 26.8864   6
  -4  -2   8 3.15145 27.3639   6
  -6   4  -8 33.4612 31.4092   2
   2   4  -8 11.9452 25.3574   9
   4   2  -8 30.8598 29.7603   9
  -6   4  -9 1254.17 97.6620   2
  -2  -4   9 1163.80 95.3576  11
  -4  -2   9 1101.95 90.2787  11
  -2  -4   9 1206.32 93.1766   6
  -4  -2   9 1233.24 91.7221   6
   6  -2   9 1178.03 89.6417   3
   2   4  -9 1149.46 89.4512   9
   4   2  -9 1210.40 93.6515   9
  -6   2  -9 1292.19 99.5665   2
   2  -6  -9 1173.93 97.0615  11
  -6   4 -10 980.621 89.3161   2
  -2  -4  10 875.575 86.6388  11
  -4  -2  10 886.502 85.2598  11
  -2  -4  10 1159.65 92.5206   6
  -4  -2  10 1077.32 88.8856   6
   6  -2  10 1058.48 88.7688   3
   2   4 -10 996.530 84.7573   9
   4   2 -10 958.536 85.4248   9
  -6   2 -10 1096.45 94.8860   2
  -4  -2  11 492.750 64.2457   6
   6  -2  11 483.858 65.6600   3
  -2  -4  11 435.006 66.6191  11
  -4  -2  11 348.584 59.7509  11
  -2  -4  11 435.440 61.2067   6
   2   4 -11 516.728 64.5031   9
   4   2 -11 565.060 69.3421   9
  -6   4 -11 566.285 75.0854   2
   4  -6 -11 575.158 72.2685   9
  -6   2 -11 551.990 70.3119   2
   4  -6 -12 163.369 48.6451   9
  -6   2 -12 92.6504 38.0854   2
  -2  -4  12 153.902 50.9512  11
  -4  -2  12 104.461 45.1617  11
  -2  -4  12 220.517 49.0293   6
  -4  -2  12 161.072 44.6632   6
  -6   4 -12 133.262 44.3872   2
   4   2 -12 125.139 66.6243   9
  -6   2 -13 198.147 50.3055   2
  -2  -4  13 231.348 57.2201  11
  -4  -2  13 138.711 51.0159  11
  -2  -4  13 227.444 50.5476   6
  -6   4 -13 253.598 55.9492   2
   4  -6 -13 191.195 52.1699   9
  -4   6  13 160.085 52.7833   5
  -2   6  13 241.550 54.0011   5
  -2  -4  14 633.115 87.7824  11
  -4  -2  14 603.051 84.0237  11
  -4   6  14 627.521 82.8426   5
  -2   6  14 656.907 86.4715   5
  -6   2 -14 617.755 80.6358   2
  -6   4 -14 597.304 79.6275   2
   1  -6  14 729.768 88.9185  11
   1   5  14 816.566 96.3421   3
   6  -1 -14 826.430 93.4511   9
   6  -5 -14 724.148 89.4845   9
   1   5  14 755.568 96.4234   5
  -5  -1 -14 687.517 86.4297   2
   5  -6  14 631.685 86.4026  12
   1  -6  14 620.360 86.4584  12
   1  -6  13 82.1995 41.9790  11
  -6   1  13 131.086 51.9295  11
   5   1  13 151.798 58.1082   3
   1   5  13 106.726 42.6357   3
   6  -1 -13 175.570 50.2183   9
   6  -5 -13 101.226 45.6046   9
  -5   6 -13 191.462 54.5929   2
   1   5  13 153.573 56.7989   5
  -5  -1 -13 160.534 48.8141   2
   5  -6  13 156.438 47.1232  12
   1  -6  13 187.360 58.4147  12
  -5  -1 -12 225.466 58.2436   2
  -6   1  12 189.028 51.9961  11
   5   1  12 188.106 52.7306   3
   1   5  12 170.563 47.4702   3
   1   5  12 250.259 57.6678   5
   1  -6  12 229.585 62.0812  11
   6  -1 -12 176.564 48.8866   9
   6  -5 -12 200.614 56.4404   9
  -5   6 -12 153.665 49.2197   2
   5  -6  12 186.536 49.8426  12
   1  -6  12 161.484 50.1444  12
   1  -6  11 552.064 76.9226  11
   1  -6  11 398.748 65.3085  12
  -6   1  11 461.482 69.1715  11
   5   1  11 451.546 70.1933   3
   1   5  11 430.710 66.3768   3
  -6   1  11 437.811 60.5325   6
   5  -6  11 354.443 60.7647  12
   6  -1 -11 445.529 66.4395   9
   6  -5 -11 468.298 71.3130   9
  -5  -1 -11 454.847 69.4742   2
  -5   6 -11 422.291 61.4440   2
   1   5  11 469.103 66.7551   5
   1  -6  10 1438.30 111.001  11
  -6   1  10 1418.41 108.695  11
  -5   6 -10 1469.40 107.124   2
  -6   1  10 1531.44 105.936   6
   5   1  10 1341.88 108.519   3
   1   5  10 1441.06 108.051   3
   6  -1 -10 1542.22 113.795   9
   6  -5 -10 1525.08 115.727   9
  -5  -1 -10 1523.05 113.088   2
   5  -6  10 1322.81 104.217  12
   1  -6  10 1347.15 106.939  12
   1  -6   9 1393.15 106.520  11
  -6   1   9 1382.18 103.074  11
   5  -6   9 1348.12 102.889  12
  -5   6  -9 1368.39 101.314   2
  -6   1   9 1393.18 98.5154   6
   5   1   9 1518.87 109.370   3
   6  -1  -9 1414.94 106.952   9
   6  -5  -9 1578.57 113.630   9
  -5  -1  -9 1603.25 112.544   2
   1  -6   9 1361.55 104.783  12
  -5   6  -8 207.475 43.3796   2
   1  -6   8 247.319 51.7787  11
  -6   1   8 216.900 45.6712  11
   6  -5  -8 189.885 48.8483   9
  -6   1   8 221.686 46.9553   6
  -6   5   8 248.658 41.0195   6
   1   5   8 175.253 34.0553   9
   5  -6   8 230.511 46.5260  12
  -1   6  -8 261.441 42.4329   9
   6  -1  -8 259.975 51.6308   9
  -5  -1  -8 257.199 53.1801   2
   1  -6   8 241.082 52.1738  12
  -6   1   7 460.802 58.0734  11
   1  -6   7 462.773 65.3686  11
  -5   6  -7 408.606 54.5714   2
  -6   1   7 457.214 60.8447   6
  -6   5   7 507.303 56.7390   6
   1   5   7 444.007 51.5010   9
  -1   6  -7 466.062 53.6514   9
   6  -1  -7 486.136 65.0429   9
   5  -6   7 392.415 56.2952  12
  -5  -1  -7 540.160 65.4681   2
   6  -5  -7 450.740 62.3471   9
   1  -6   7 397.225 56.7366  12
   1  -6   6 838.376 79.1713  11
  -6   1   6 855.227 71.5516  11
  -6   1   6 846.587 74.7402   6
  -6   5   6 877.478 72.2334   6
   1   5   6 986.425 75.1463   9
  -1   6  -6 978.028 75.0170   9
  -1  -5  -6 973.343 73.5178   2
   6  -1  -6 871.333 80.2375   9
   6  -5  -6 891.055 79.3742   9
  -5   6  -6 885.842 73.9266   2
  -5  -1  -6 985.420 83.7612   2
   5  -6   6 885.162 78.7701  12
   1  -6   6 830.514 76.6482  12
  -1  -5  -6 990.290 72.7600  11
  -5   6  -5 19.4251 24.6522   2
  -1  -5  -5-0.90299 25.5994  11
   5  -6   5 13.7388 25.3555  11
   1  -6   5 0.29259 31.3440  11
  -6   1   5 7.39067 22.1656  11
  -1  -5  -5 19.1566 28.1171   2
  -6   1   5-5.40240 27.5732   6
   5  -6   5 8.77343 26.0247  12
  -6   5   5-3.51386 24.9962   6
   1   5   5 31.9609 25.4137   9
  -1   6  -5 101.091 31.8055   9
  -5  -1  -5 5.66737 32.5162   2
   6  -1  -5-5.01992 30.9785   9
   6  -5  -5-7.03074 33.7088   9
   1  -6   5 47.2116 33.1382  12
  -1  -5  -4 127.953 34.7190  11
   5  -6   4 163.192 36.3083  11
   1  -6   4 145.135 40.5672  11
  -6   1   4 142.349 32.4635  11
  -1  -5  -4 139.769 37.7711   2
  -6   1   4 143.079 34.3047   2
  -5  -1  -4 160.289 28.6052   6
  -6   1   4 132.068 34.8804   6
  -5   6  -4 133.922 31.9361   2
  -6   5   4 136.655 34.8838   6
   1   5   4 112.465 32.4662   9
  -1   6  -4 143.384 35.3129   9
  -5  -1  -4 131.724 40.1814   2
   6  -1  -4 146.756 40.9051   9
   6  -5  -4 161.444 42.0889   9
   5  -6   4 91.8728 35.0913  12
   1  -6   4 100.049 37.9396  12
  -1  -5  -3 814.855 67.2608  11
   1  -6   3 673.887 67.9693  11
  -6   1   3 694.033 54.7337  11
  -1  -5  -3 802.949 61.2218   6
  -5   6  -3 681.480 56.0250   2
  -5  -1  -3 721.704 56.9195   6
  -6   1   3 726.442 67.1999   6
   1  -6   3 642.578 66.3848  12
   1   5   3 727.127 65.5872   9
  -1   6  -3 794.665 68.6633   9
   5   1   3 705.913 57.8664   9
  -1  -5  -3 695.325 64.2112   2
   6  -1  -3 744.071 68.3245   9
  -6   1   3 776.718 63.1056   2
   6  -5  -3 738.515 69.3881   9
  -5  -1  -3 771.708 72.3588   2
   5  -6   3 733.487 69.7725  12
   5  -6   3 746.665 65.1539  11
  -1  -5  -2 2185.58 103.645  11
   6  -1  -2 2195.85 110.675   4
  -1  -5  -2 2289.40 102.893   6
   1  -6   2 2224.91 116.123  11
  -5   6  -2 2227.30 94.7737   2
  -5  -1  -2 2250.42 101.783   6
  -6   1   2 2213.49 109.367   6
  -1   6  -2 2365.32 113.264   9
   1   5   2 2221.28 108.580   9
  -1  -5  -2 2341.40 111.816   2
   5   1   2 2322.07 102.374   9
   6  -1  -2 2184.33 108.778   9
  -6   1   2 2175.29 101.340   2
   6  -5  -2 2299.98 113.322   9
  -5  -1  -2 2227.15 113.823   2
   5   1   2 2460.50 117.192   4
   5  -6   2 2240.15 108.082  11
   1  -6   1 2852.15 129.219  11
  -1  -5  -1 2867.17 118.734  11
   6  -1  -1 3026.24 129.666   4
  -1  -5  -1 2882.60 117.885   6
  -5  -1  -1 3022.57 118.755   6
  -6   1   1 2973.16 124.798   6
  -1   6  -1 3078.70 128.733   9
   1   5   1 2853.00 123.290   9
   5   1   1 2834.96 115.170   9
   6  -1  -1 2939.31 121.527   9
   6  -5  -1 2985.50 122.894   9
  -5  -1  -1 3043.79 129.530   2
  -6   1   1 3155.57 122.953   2
   5   1   1 3077.12 128.892   4
   5  -6   1 2915.13 124.005  11
   1  -6   0 1654.89 100.564  11
  -1  -5   0 1643.98 93.1482  11
   6  -1   0 1849.62 103.467   4
  -5  -1   0 1737.91 93.3501   6
  -6   1   0 1777.39 95.7223   6
  -1   6   0 1729.14 97.8499   9
   1   5   0 1756.32 98.5197   9
   5   1   0 1614.13 90.2582   9
   6  -1   0 1676.23 90.5630   9
  -5  -1   0 1650.28 96.3611   2
   6  -5   0 1741.19 92.8321   9
  -6   1   0 1737.95 94.7291   2
  -1  -5   0 1738.97 94.6114   6
   6  -5   0 1702.51 89.6336  11
   5  -6   0 1609.86 95.7066  11
   5   1   0 1763.27 98.3300   4
   6  -1   1 937.653 76.4017   4
  -1  -5   1 912.232 72.2298   6
  -5  -1   1 784.155 66.0136   6
  -6   1  -1 893.748 68.7317   6
  -1   6   1 746.168 66.0071   9
   1   5  -1 801.239 68.2698   9
   5   1  -1 833.629 68.9648   9
   6  -1   1 877.308 64.6439   9
  -1  -5   1 852.713 70.6830  11
  -5  -1   1 827.081 70.7949   2
   6  -5   1 927.151 66.8066   9
  -6   1  -1 760.080 66.6393   2
   5  -6  -1 772.765 70.9941  11
   6  -5   1 785.554 60.7421  11
   5   1  -1 835.123 68.8989   4
   1  -6  -1 846.896 73.9010  11
  -6   5  -2 5359.06 146.524   2
   5   1  -2 5220.80 163.898   4
   6  -1   2 5235.15 168.506   4
  -1  -5   2 5059.24 164.994  11
  -5  -1   2 5088.60 139.256  11
  -1  -5   2 5196.66 167.552   6
  -5  -1   2 5132.25 164.342   6
  -6   1  -2 5128.13 155.630   6
  -1   6   2 5394.77 170.418   9
   1   5  -2 5278.07 170.151   9
   5   1  -2 5138.99 165.807   9
   6  -1   2 5385.58 149.101   9
  -5  -1   2 5258.80 167.174   2
   6  -5   2 5199.24 147.096   9
   5  -6  -2 4932.96 167.746  11
  -6   1  -2 5085.47 164.698   2
   6  -5   2 4990.24 150.988  12
  -1  -5   2 4998.22 152.523  12
   1  -6  -2 5029.43 169.323  11
   5  -6  -3 232.418 49.4552  11
   6  -1   3 228.753 43.8880   4
   5   1  -3 247.863 43.8525   4
   1  -6  -3 256.682 48.4639  11
  -1  -5   3 218.095 42.0803  11
  -5  -1   3 253.066 37.5212  11
  -5  -1   3 254.855 46.1406   2
  -1  -5   3 268.356 46.0272   6
  -5  -1   3 270.855 42.9611   6
  -6   5  -3 233.491 36.8752   2
  -6   1  -3 241.445 37.3913   6
  -1   6   3 290.349 47.3561   9
   1   5  -3 282.513 45.7820   9
   5   1  -3 222.226 42.4544   9
  -6   1  -3 301.851 49.8209   2
   6  -5   3 255.653 39.5636  12
  -1  -5   3 223.490 38.1186  12
   6  -1   4 31.4170 29.8604   4
   1  -6  -4 31.2434 33.3155  11
   5   1  -4 36.5905 31.0105   4
  -1  -5   4 30.1527 31.6523  11
  -5  -1   4 23.4733 24.2016  11
  -5  -1   4 45.1228 30.5952   2
  -1  -5   4 39.7452 30.4593   6
  -5  -1   4 24.8620 26.0698   6
  -6   5  -4 24.7085 19.0505   2
  -6   1  -4 66.1563 27.9807   6
  -1   6   4 55.1269 31.4612   9
   1   5  -4 58.9738 29.4581   9
   5   1  -4 55.9312 34.7075   9
  -6   1  -4 38.0349 33.6878   2
   6  -5   4 49.4307 26.0864  12
  -1  -5   4 58.9592 28.5191  12
   5   1  -5 1059.60 76.4234   4
  -1  -5   5 921.226 79.1027  11
  -6   5  -5 1075.58 77.9311   2
  -5  -1   5 1021.88 74.4069  11
  -1  -5   5 1100.79 83.8435   6
  -5  -1   5 1029.43 81.4127   6
  -6   1  -5 1168.91 72.7361   6
  -1   6   5 995.964 77.0720   9
   1   5  -5 1054.13 81.4669   9
   5   1  -5 951.142 81.6185   9
   6  -5   5 884.972 68.9586  12
  -1  -5   5 981.803 71.5114  12
  -6   1  -5 952.129 80.1545   2
   6  -1   5 982.634 79.0761   4
   1  -6  -5 1045.56 84.8284  11
   6  -1   6 178.684 38.3370   4
   1  -6  -6 163.067 42.4858  11
   5   1  -6 169.849 38.5783   4
  -1  -5   6 159.075 41.2265  11
  -5  -1   6 164.553 36.5620  11
  -1  -5   6 178.105 42.5157   6
  -5  -1   6 236.247 44.8770   6
  -6   5  -6 195.720 40.4903   2
  -1   6   6 187.136 38.9058   9
   1   5  -6 153.558 40.5297   9
   5   1  -6 177.771 43.7870   9
   6  -5   6 156.371 35.5402  12
  -1  -5   6 177.628 36.2463  12
  -6   1  -6 154.948 41.1036   2
  -1  -5   7 819.943 78.0783  11
  -6   5  -7 851.462 74.5886   2
  -5  -1   7 891.427 76.6481  11
  -5  -1   7 961.757 82.2947   6
   6  -1   7 1015.41 80.6939   3
  -1   6   7 1088.94 82.5194   9
   1   5  -7 948.400 79.2769   9
   5   1  -7 813.709 77.3380   9
  -6   1  -7 886.790 81.3410   2
   6  -5   7 920.037 75.7595  12
  -1  -5   7 865.789 71.3908  12
  -1  -5   7 1008.47 85.9597   6
   1  -6  -7 901.325 80.8506  11
  -6   1  -8 236.081 51.2897   2
   1  -6  -8 245.383 49.9530  11
  -1  -5   8 269.710 54.0705  11
  -5  -1   8 193.935 44.5222  11
  -1  -5   8 384.410 58.0173   6
   6  -1   8 257.817 50.9218   3
  -5  -1   8 279.495 47.5750   6
  -6   5  -8 183.697 42.5890   2
  -1   6   8 220.121 40.3223   9
   1   5  -8 233.977 45.4806   9
   5   1  -8 233.951 45.9704   9
   6  -5   8 280.478 45.5986  12
  -1  -5   8 217.589 42.2564  12
  -6   1  -9 258.237 55.4027   2
   1  -6  -9 212.401 50.3618  11
  -1  -5   9 213.406 52.6382  11
  -5  -1   9 221.504 48.0749  11
  -1  -5   9 234.246 48.8856   6
  -1   6   9 235.879 40.7744   9
   6  -1   9 229.343 47.8631   3
  -5  -1   9 267.172 49.8482   6
  -6   5  -9 219.455 46.8980   2
   1   5  -9 234.732 44.9870   9
   5   1  -9 193.350 46.3945   9
   5  -6  -9 271.639 55.1964   9
   6  -5   9 211.010 43.2349  12
  -1  -5   9 197.479 42.0067  12
  -1  -5  10 2054.48 130.733  11
  -6   5 -10 2103.42 129.335   2
  -5  -1  10 2171.90 131.370  11
  -1  -5  10 2098.15 127.315   6
  -5  -1  10 2278.50 128.410   6
   6  -1  10 2197.77 129.373   3
   1   5 -10 1885.93 111.934   9
   5   1 -10 1979.20 125.134   9
   5  -6 -10 2088.15 129.143   9
  -6   1 -10 2202.61 135.574   2
   6  -5  10 2000.31 120.654  12
  -1  -5  10 1940.23 117.972  12
   1  -6 -10 1983.08 122.991  11
  -6   1 -11 175.995 52.0122   2
   1  -6 -11 203.590 52.4869  11
  -1  -5  11 177.034 49.9254  11
  -5  -1  11 141.061 48.4639  11
   6  -1  11 234.359 53.9534   3
  -1  -5  11 247.486 52.4912   6
  -5  -1  11 176.563 39.9820   6
  -6   5 -11 207.977 49.2353   2
   5   1 -11 219.942 47.5301   9
   5  -6 -11 155.703 45.0910   9
   6  -5  11 192.815 48.0544  12
  -1  -5  11 206.244 47.5908  12
  -6   1 -12 333.600 64.1799   2
   5  -6 -12 182.563 49.0139   9
  -1  -5  12 285.417 57.0929  11
  -5  -1  12 288.891 58.3686  11
   6  -1  12 382.905 68.2718   3
  -1  -5  12 352.284 57.5052   6
  -5  -1  12 193.326 43.8133   6
  -6   5 -12 292.513 57.0679   2
   5   1 -12 306.474 55.8600   9
  -5   6  12 373.668 64.8155   5
   6  -5  12 369.939 61.2344  12
  -1  -5  12 284.772 53.4754  12
  -6   1 -13 290.864 60.2028   2
  -1  -5  13 365.120 68.1552  11
  -5  -1  13 403.938 72.2112  11
   6  -1  13 403.747 73.6544   3
  -1  -5  13 429.221 64.6521   6
  -6   5 -13 278.035 58.2073   2
   5  -6 -13 313.116 59.2464   9
   5   1 -13 471.846 70.5851   9
  -5   6  13 293.331 58.6513   5
  -1   6  13 445.932 72.4926   5
   6  -5  13 346.709 63.4963  12
  -1  -5  13 358.779 62.7850  12
  -6   1 -14 636.142 93.8675   2
  -5   6  14 599.920 79.9178   5
   6   0   0 8926.99 227.302   4
  -6   0   0 9378.02 225.033   6
   0   6   0 9068.64 229.507   9
   6   0   0 9084.68 217.859   9
  -6   0   0 8987.74 222.858   2
   0  -6   0 8651.99 224.194  11
   6  -6   0 8927.82 215.467  11
   6  -6  -1-3.47956 30.0229  11
   6   0   1-5.09170 29.3559   4
   6  -6   1 22.2475 30.6617  11
   6   0  -1 43.4939 35.5282   4
   0  -6  -1 18.2176 30.6124  11
  -6   0   1 34.7617 28.5839   6
  -6   0  -1-15.4574 24.6206   6
  -6   0   1 1.75111 30.5895   2
   0  -6   1 30.0649 31.9437  11
  -6   0  -1 24.3349 34.6307   2
   0   6   1 16.6462 26.7463   9
   0   6  -1 46.0437 31.2136   9
   6   0   1 40.8892 27.9122   9
   6   0  -1 16.9112 27.0706   9
   0  -6   2 166.233 39.8122   6
   6   0   2 100.552 39.1439   4
   6  -6  -2 171.179 45.1962  11
   6  -6   2 88.0607 32.2138  11
   0  -6  -2 126.602 41.7097  11
   6   0  -2 123.788 40.1921   4
   0  -6   2 72.5214 35.1569  11
  -6   0   2 64.6406 30.3342   2
  -6   0   2 144.459 39.9699   6
  -6   0  -2 74.1473 25.0737   6
   0   6   2 70.7761 29.5884   9
   0   6  -2 165.780 39.2597   9
  -6   0  -2 79.4279 34.5407   2
   6   0   2 114.200 30.0600   9
   6   0  -2 66.5972 29.4271   9
   0  -6   2 102.305 32.9651  12
   6   0   3 12.7121 30.3777   4
   0  -6   3 106.957 38.8877   6
   0  -6  -3 61.2158 33.4472  11
   6   0  -3 71.5677 34.7471   4
   0  -6   3 31.9894 29.4155  11
  -6   0   3 64.4409 31.6965   2
  -6   0   3 74.8140 33.5733   6
  -6   0  -3 27.1621 22.6295   6
   0   6   3 33.6825 26.6574   9
   0   6  -3 32.9372 29.2162   9
  -6   0  -3 83.6583 35.9114   2
  -6   6  -3 39.6402 24.8114   2
   6   0  -3 31.0098 26.5528   9
   6  -6   3 13.9147 24.2405  12
   0  -6   3 39.7639 24.9816  12
   0  -6   4 1450.27 99.5385  11
  -6   0   4 1476.75 85.5796  11
   0  -6   4 1440.76 99.1968   6
  -6   0   4 1425.49 96.3595   6
  -6   0  -4 1449.92 83.4485   6
   6   0  -4 1380.36 92.4663   4
   0   6   4 1617.86 99.6761   9
   6  -6   4 1492.82 95.4424  12
   0   6  -4 1453.46 95.3535   9
  -6   0   4 1536.21 93.6641   2
  -6   6  -4 1510.75 90.4923   2
   6   0  -4 1477.86 99.5110   9
   6  -6  -4 1616.03 106.043   9
  -6   0  -4 1485.56 99.3285   2
   0  -6   4 1477.26 96.3339  12
   6   0   4 1450.40 97.5635   4
   0  -6  -4 1427.50 93.8600  11
   0  -6  -5 35.0179 29.7837  11
   0  -6   5 0.00000 29.1414  11
   6   0  -5 19.1468 31.1659   4
  -6   0   5 6.15525 22.3373  11
   0  -6   5 21.5426 34.1097   6
  -6   0   5 15.2071 25.6579   2
  -6   0   5-19.4478 33.5146   6
   0   6   5 31.4695 34.4407   9
   0   6  -5-0.28246 25.0187   9
   6   0  -5-30.6222 34.6526   9
  -6   6  -5 26.7979 26.4695   2
   6  -6  -5 18.9514 36.3213   9
  -6   0  -5 42.3240 39.0042   2
   6  -6   5 23.7575 25.0505  12
   0  -6   5 15.9816 29.7415  12
   0  -6  -6 131.076 39.3412  11
   6   0  -6 105.971 36.5604   4
  -6   0   6 137.768 38.3603  11
   0  -6   6 138.328 43.4408   6
  -6   0   6 91.2589 32.3077   6
   0  -6   6 133.036 43.4272  11
   0   6   6 135.316 37.2446   9
  -6   6   6 92.0224 27.7002   6
   0   6  -6 132.877 35.5969   9
   6   0  -6 105.369 38.8424   9
  -6   6  -6 139.080 38.3210   2
  -6   0  -6 193.742 47.9079   2
   6  -6  -6 141.995 45.4629   9
   6  -6   6 88.7633 31.8533  12
   0  -6   6 76.1987 28.8771  12
   0  -6   7 2.45488 28.9427  12
   0  -6  -7 23.6974 35.3862  11
   6   0  -7-23.2097 32.7423   4
   0  -6   7-3.05369 36.7730  11
  -6   0   7 33.4870 32.5447  11
   0  -6   7 96.8779 37.2648   6
  -6   0   7-16.1406 25.7054   6
   0   6   7-8.91932 26.3287   9
  -6   6   7-20.8080 28.0845   6
   0   6  -7-73.2074 28.3522   9
   6   0  -7 27.9188 28.7084   9
  -6   6  -7 23.7129 29.4978   2
  -6   0  -7 31.5159 37.6632   2
   6  -6  -7 11.3309 34.7592   9
   6  -6   7-19.9793 30.9507  12
   0  -6   8 2260.80 134.739  11
  -6   0   8 2377.37 129.364  11
   0  -6   8 2559.15 141.938   6
  -6   0   8 2464.49 134.884   6
   6   0   8 2324.48 130.693   3
  -6   6   8 2536.87 122.978   6
   0   6   8 2471.54 126.137   9
   0  -6  -8 2342.74 125.376  11
   0   6  -8 2326.13 123.649   9
   6   0  -8 2424.48 137.648   9
   6  -6  -8 2411.78 138.544   9
  -6   0  -8 2559.61 140.616   2
  -6   6  -8 2555.67 136.108   2
   0  -6   8 2445.06 132.294  12
   6  -6   8 2346.79 130.018  12
   0  -6   9 189.515 53.7197   6
   0  -6   9 24.6247 38.8510  11
  -6   0   9 50.1840 37.3889  11
   6   0   9 6.86988 40.2101   3
  -6   0   9 70.1885 38.5941   6
   0   6   9 92.3145 35.4015   9
  -6   6  -9 49.7062 36.8307   2
   6   0  -9 18.2537 32.1891   9
   6  -6  -9 20.7857 32.5038   9
  -6   0  -9 55.3747 39.5194   2
   6  -6   9 54.9856 35.3293  12
   0  -6   9 32.8485 32.4635  12
   0  -6  10 14.1273 30.7252  11
  -6   0  10 8.58671 34.3631  11
   6   0  10 24.9260 32.7765   3
   0   6  10 66.9146 39.3602   3
  -6   0  10 95.4230 40.1014   6
  -6   6 -10 67.3743 39.6503   2
   6  -6 -10-3.05055 38.5958   9
   6   0 -10 37.1404 31.0765   9
  -6   0 -10 94.0260 46.2504   2
   6  -6  10 41.6454 29.6393  12
   0  -6  10-1.81256 27.5131  12
   0  -6  11 128.728 54.8969  11
  -6   0  11-14.0621 40.0633  11
   6   0  11 10.9402 38.6542   3
  -6   0  11 25.8666 32.8340   6
  -6   6 -11 33.6295 35.4058   2
   6   0 -11-24.1016 32.7629   9
   6  -6 -11 21.9544 32.8024   9
   6  -6  11 13.9464 27.4687  12
   0  -6  11 32.7285 33.2898  12
  -6   0 -11 43.7674 40.8744   2
   0  -6  12 2079.56 144.858  11
  -6   0  12 1704.94 131.225  11
  -6   6 -12 1977.93 138.140   2
  -6   0  12 1704.14 120.111   6
   6   0  12 1930.71 136.890   3
   6   0 -12 1479.61 118.662   9
   6  -6 -12 1676.05 130.285   9
  -6   0 -12 1873.11 136.426   2
   0   6  12 1826.25 130.580   5
   6  -6  12 1759.71 129.245  12
   0  -6  12 1676.29 125.588  12
   0  -6  13-25.6139 41.0330  11
  -6   0  13-83.5486 42.8126  11
   6   0  13 39.5620 47.8718   3
  -6   6 -13 17.6019 37.1253   2
   6   0 -13-77.3379 41.6633   9
   6  -6 -13 19.6196 35.5328   9
   0   6  13-21.9761 33.5653   5
   6  -6  13 30.9964 40.7477  12
   0  -6  13-12.7610 35.3349  12
  -6   0 -13 5.04098 37.0215   2
   6   0 -14-21.7374 43.2513   9
   6  -6 -14 97.9807 50.1629   9
  -7   3  13 254.961 59.8571  11
  -7   4  13 317.495 67.0708  11
   3   4  13 209.092 58.1750   3
   7  -3 -13 272.035 62.6777   9
   7  -4 -13 394.976 72.2019   9
   3  -7  12 54.3445 40.8039  11
  -4   7 -12 113.414 43.5401   2
  -7   3  12 25.3406 34.0760  11
  -7   4  12 27.0570 36.2725  11
   4   3  12-3.55700 38.2215   3
   3   4  12 40.7978 35.8518   3
  -4  -3 -12-8.38046 39.5865   2
   7  -3 -12 21.9619 37.7507   9
   7  -4 -12 39.7476 45.4712   9
   4  -7  12-83.7159 40.2032  12
   3  -7  12 7.86119 38.1337  12
   3  -7  11 84.7373 36.3370  11
  -7   3  11 112.584 44.4221  11
  -7   4  11 147.223 49.4001  11
  -4   7 -11 106.870 38.3130   2
   4   3  11 95.1784 50.0464   3
   3   4  11 79.4901 48.4035   3
  -7   3  11 97.6202 26.9013   6
  -4  -3 -11 109.642 39.8828   2
   7  -3 -11 135.007 51.9646   9
   7  -4 -11 108.371 46.5393   9
   4  -7  11 64.0199 38.1233  12
   3  -7  11 104.235 45.4487  12
   3  -7  10 1257.11 104.316  11
  -7   3  10 1185.16 101.451  11
  -7   4  10 1162.85 102.107  11
  -7   3  10 1347.14 99.0053   6
  -7   4  10 1446.52 101.113   6
  -4   7 -10 1241.37 103.074   2
   4   3  10 1281.26 110.209   3
   7  -3 -10 1376.89 115.707   9
   7  -4 -10 1255.35 109.377   9
  -3  -4 -10 1451.52 107.687   2
  -4  -3 -10 1341.72 106.663   2
   4  -7  10 1373.38 115.941  12
   3  -7  10 1223.08 110.631  12
   4  -7   9 124.074 43.7833  11
   3  -7   9 67.9082 40.6568  11
  -7   3   9 29.7116 35.3842  11
  -7   3   9 14.0347 25.1770   6
  -7   4   9 59.7098 32.8749   6
  -3  -4  -9 54.2807 39.7393   2
  -4  -3  -9 78.9113 40.9039   2
   7  -3  -9 70.1791 42.4911   9
   7  -4  -9 12.0785 37.9428   9
   4  -7   9 82.0089 40.2869  12
   3  -7   9 33.9615 38.1096  12
   4  -7   8 1372.53 101.683  11
   3  -7   8 1363.81 106.345  11
  -7   3   8 1303.45 98.0925  11
  -7   3   8 1257.83 95.8905   6
  -7   4   8 1331.12 97.0516   6
   7  -3  -8 1264.76 105.252   9
   7  -4  -8 1363.13 106.845   9
  -3  -4  -8 1396.20 101.551   2
  -4  -3  -8 1341.77 102.487   2
   4  -7   8 1135.32 99.3946  12
   3  -7   8 1083.15 100.122  12
  -7   3   7 551.879 63.7362  11
   4  -7   7 556.198 67.4546  11
   3  -7   7 473.695 65.2541  11
  -7   3   7 581.179 67.0830   6
  -7   4   7 529.361 62.8639   6
   7  -3  -7 670.551 78.2597   9
  -3  -4  -7 570.532 66.8473   2
  -4  -3  -7 526.546 68.2548   2
   7  -4  -7 451.010 65.3028   9
   4  -7   7 535.764 69.8178  12
   3  -7   7 393.775 62.7027  12
   4  -7   6 2819.10 139.062  11
   3  -7   6 2916.75 145.114  11
  -7   3   6 2714.88 128.167  11
   3  -7   6 2579.54 142.710  12
  -7   3   6 2762.53 136.043   6
  -7   4   6 2623.70 130.164   6
   3   4   6 2847.35 123.471   9
   7  -3  -6 2812.80 143.749   9
   7  -4  -6 2655.12 139.929   9
  -3  -4  -6 2860.21 138.089   2
  -4  -3  -6 2907.64 143.704   2
   4  -7   6 2442.70 137.769  12
   4  -7   5 1685.85 108.027  11
   3  -7   5 1754.29 113.500  11
  -7   3   5 1730.01 98.4782  11
  -7   3   5 1715.58 106.645   6
  -7   4   5 1693.10 104.893   6
  -3   7  -5 1709.36 96.2809   9
   3   4   5 1788.26 98.7615   9
   7  -3  -5 1719.93 110.450   9
  -3  -4  -5 1664.81 106.465   2
   7  -4  -5 1666.87 109.036   9
  -4  -3  -5 1782.87 112.126   2
   4  -7   5 1530.80 108.571  12
   3  -7   5 1535.87 109.795  12
   4  -7   4-17.2816 33.5657  11
   3  -7   4 27.6851 32.7459  11
  -7   3   4 66.3064 26.8550  11
  -3  -4  -4-14.0840 34.1630   2
  -4  -3  -4 13.6974 30.2761   2
  -7   3   4 95.8418 33.3645   6
  -7   4   4 44.2210 27.4852   6
  -4   7  -4 16.9654 22.8433   9
  -3   7  -4 35.2254 24.1403   9
   3   4   4 41.4947 27.7737   9
   4   3   4 45.9422 25.8203   9
   7  -3  -4 60.9459 36.9114   9
   7  -4  -4-4.06579 33.0641   9
   4  -7   4 14.5343 28.3991  12
   3  -7   4 7.31044 32.0772  12
   4  -7   3 1078.49 86.8933  11
   3  -7   3 932.865 81.7174  11
  -3  -4  -3 1057.77 70.8822   6
  -4  -3  -3 1133.02 73.3514   6
  -7   3   3 1182.55 86.6846   6
  -7   4   3 1191.71 86.7570   6
  -4   7  -3 1220.64 80.6234   9
  -3   7  -3 1055.00 78.4972   9
   3   4   3 1129.52 80.0025   9
   4   3   3 1197.95 81.2035   9
  -3  -4  -3 1097.05 86.9568   2
   7  -3  -3 1101.62 84.4660   9
   7  -4  -3 1083.77 85.6041   9
  -4  -3  -3 1078.87 87.2105   2
   4  -7   3 966.649 85.9720  12
   3  -7   3 1056.32 90.2364  12
   3  -7   2 874.597 80.1700  11
  -3  -4  -2 698.729 60.3101   6
  -4  -3  -2 776.028 62.9943   6
  -7   3   2 747.521 69.7728   6
  -7   4   2 799.075 72.7035   6
  -4   7  -2 742.652 65.6857   9
  -3   7  -2 768.119 69.6501   9
   3   4   2 768.759 68.9928   9
   4   3   2 778.876 67.4990   9
  -3  -4  -2 829.326 77.0462   2
   7  -3  -2 789.274 72.4273   9
  -4  -3  -2 712.095 71.6682   2
   7  -4  -2 701.346 68.6807   9
   4  -7   2 816.366 76.8709  11
   4  -7   1 373.927 53.7633  11
  -3  -4  -1 379.053 47.4819   6
   3  -7   1 407.216 60.3400  11
  -4  -3  -1 333.114 45.0341   6
  -3  -4  -1 355.675 44.8983  11
  -7   4   1 447.569 57.0734   6
  -3  -4  -1 355.076 54.5488   2
  -4   7  -1 372.530 50.2031   9
  -3   7  -1 381.759 51.4290   9
  -4  -3  -1 450.965 59.6114   2
   3   4   1 378.242 51.3043   9
   4   3   1 439.811 55.3901   9
   7  -3  -1 452.867 55.3929   9
  -7   3   1 321.515 48.0505   6
   7  -4  -1 397.575 52.5706   9
   4  -7   0 72.6038 39.6425  11
   3  -7   0 39.2313 29.5857  11
  -3  -4   0 41.8745 28.5846  11
  -3  -4   0 15.8813 34.0924   2
  -4  -3   0 57.8821 35.8440   2
  -3  -4   0 66.1427 29.7473   6
  -4  -3   0 53.7396 23.5710   6
  -7   3   0 69.0663 28.9328   6
  -4   7   0 51.9005 30.3256   9
  -7   4   0 73.7680 29.5034   6
  -3   7   0 2.09039 28.2243   9
   3   4   0 58.8142 28.4771   9
   4   3   0 47.1923 29.3486   9
  -7   3   0 94.8253 32.8754   2
   7  -3   0 144.343 37.3331   9
   7  -4   0 71.2405 29.9789   9
  -3  -4   1 421.696 50.8172  11
  -4  -3   1 393.677 46.4626  11
   4  -7  -1 345.895 57.5447  11
   3  -7  -1 349.580 55.8930  11
  -3  -4   1 388.351 51.1142   6
  -4  -3   1 337.547 52.9853   2
  -4  -3   1 319.042 46.1085   6
   7  -3   1 432.163 50.1455   9
  -7   3  -1 328.450 48.2493   6
  -4   7   1 399.277 51.4641   9
  -7   4  -1 393.737 51.5349   6
  -3   7   1 345.457 49.4598   9
   3   4  -1 411.645 56.0719   9
   4   3  -1 388.260 54.8938   9
  -7   4  -1 443.807 51.1807   2
   7  -4   1 307.586 43.8971   9
  -7   3  -1 360.515 47.5935   2
  -3  -4   2 1820.58 99.8153  11
  -4  -3   2 1906.76 97.9988  11
   7  -3   2 1915.71 109.973   4
  -3  -4   2 1810.14 103.382   6
  -4  -3   2 1831.98 102.798   6
  -7   3  -2 1925.14 104.350   6
  -7   4  -2 1879.02 103.643   6
  -4   7   2 1840.29 104.152   9
  -3   7   2 1882.28 107.673   9
   3  -7  -2 1813.66 113.084  11
   3   4  -2 1805.19 107.416   9
  -4  -3   2 1947.40 113.885   2
   4   3  -2 1928.92 111.019   9
  -7   3  -2 1894.99 102.030   2
  -7   4  -2 1950.08 98.7054   2
   4  -7  -2 1911.89 115.638  11
  -7   3  -3 408.779 52.4501   2
  -4  -3   3 447.751 52.5825  11
   4  -7  -3 294.815 54.9819  11
   3  -7  -3 351.087 59.6664  11
  -4  -3   3 385.753 52.1938   6
   7  -3   3 331.952 53.2645   4
  -7   4  -3 402.155 50.1082   2
  -3  -4   3 322.145 48.0580  11
  -3   7   3 430.980 56.1701   9
  -3  -4   3 355.383 51.9322   6
  -7   3  -3 334.444 47.7562   6
  -7   4  -3 316.469 47.9081   6
   3   4  -3 371.126 53.6492   9
   4   3  -3 399.458 57.5217   9
   7  -3   4 1790.40 106.101   4
  -4  -3   4 1725.26 99.6002  11
   7  -4   4 1739.68 102.212   4
  -3  -4   4 1710.13 104.055   6
  -4  -3   4 1651.80 102.006   6
  -7   3  -4 1769.99 98.9619   6
  -7   4  -4 1653.02 97.2384   6
  -3   7   4 1659.45 101.539   9
   3   4  -4 1666.37 106.956   9
   4   3  -4 1681.69 106.805   9
  -7   3  -4 1530.12 97.9266   2
  -7   4  -4 1676.57 98.1619   2
  -3  -4   4 1549.67 97.2150  11
   4  -7  -4 1537.13 107.553  11
   3  -7  -4 1495.14 106.809  11
   7  -3   5 452.722 57.6965   4
   7  -4   5 494.095 58.5858   4
  -7   3  -5 371.541 54.4240   2
   4  -7  -5 415.590 63.7726  11
  -3  -4   5 421.604 56.9276   6
  -4  -3   5 429.557 57.8154   6
  -3  -4   5 408.244 57.0769  11
  -4  -3   5 421.747 55.2948  11
  -7   3  -5 482.183 53.9969   6
  -7   4  -5 448.088 52.7309   6
   3   4  -5 498.669 65.0445   9
  -3   7   5 376.519 52.1334   9
   4   3  -5 500.388 63.1220   9
   3  -7  -5 351.879 57.4276  11
  -7   4  -5 436.126 55.5813   2
   7  -3   6 3868.82 152.491   4
   7  -4   6 3870.30 147.940   4
  -3  -4   6 3548.68 154.158  11
  -4  -3   6 3574.26 151.473  11
  -3  -4   6 3698.76 157.519   6
  -4  -3   6 3757.86 158.683   6
  -7   4  -6 3681.58 143.745   6
   3   4  -6 3792.45 163.020   9
   4   3  -6 3713.18 161.185   9
  -7   3  -6 3815.36 161.213   2
  -7   4  -6 3792.47 157.403   2
   4  -7  -6 3385.48 161.171  11
   3  -7  -6 3547.06 164.950  11
  -3  -4   7 794.564 79.3977  11
  -4  -3   7 812.443 78.5930  11
  -3  -4   7 865.553 79.7020   6
  -4  -3   7 908.164 82.4409   6
   3   4  -7 910.542 85.4849   9
   4   3  -7 909.976 83.9613   9
  -7   3  -7 1021.18 87.9723   2
  -7   4  -7 977.588 86.1018   2
   4  -7  -7 908.286 92.3724  11
   3  -7  -7 927.467 90.0233  11
   7  -3   7 930.707 78.1430   4
   3  -7  -8 17.4683 39.8720  11
  -7   3  -8-1.72542 28.0911   2
  -3  -4   8 9.15969 31.4318  11
  -4  -3   8 54.3096 36.8747  11
  -7   4  -8 8.13694 29.3634   2
  -3  -4   8-20.1928 29.4533   6
  -4  -3   8 39.2178 28.7593   6
   3   4  -8 52.8521 36.3086   9
   4   3  -8-2.38884 29.1439   9
   4  -7  -8 16.0189 37.6445  11
  -3  -4   9 823.290 84.4127  11
  -4  -3   9 977.850 90.8993  11
  -3  -4   9 939.637 88.0040   6
  -4  -3   9 1054.34 92.1140   6
  -7   3  -9 1048.69 95.1885   2
   3   4  -9 919.516 88.6185   9
   4   3  -9 936.193 88.1477   9
  -7   4  -9 981.445 92.4243   2
   3  -7  -9 872.519 92.3097  11
   3  -7 -10 263.193 61.7887  11
  -7   3 -10 228.317 51.2104   2
  -3  -4  10 231.854 55.9398  11
  -4  -3  10 202.826 50.7000  11
  -7   4 -10 236.968 54.3613   2
  -3  -4  10 174.899 46.4383   6
  -4  -3  10 243.567 49.6458   6
   3   4 -10 266.494 56.2180   9
   4   3 -10 203.330 47.4022   9
  -7   3 -11 329.769 58.2356   2
  -3  -4  11 275.875 61.6266  11
  -4  -3  11 234.007 54.7378  11
  -7   4 -11 296.165 59.5703   2
  -3  -4  11 284.146 53.2346   6
  -4  -3  11 299.998 58.7923   6
   3   4 -11 390.884 62.2114   9
   4   3 -11 289.988 53.8921   9
   3  -7 -11 389.573 73.7888  11
  -7   3 -12 100.425 41.1231   2
  -3  -4  12 35.2583 48.5618  11
  -4  -3  12 4.33237 40.6310  11
  -7   4 -12 25.1023 40.3179   2
  -3  -4  12 80.8837 34.2184   6
  -4  -3  12 13.6070 33.4102   6
   4   3 -12-7.94321 34.5244   9
   3  -7 -12 57.6075 48.6188  11
  -3  -4  13 42.9360 35.5016   6
  -4  -3  13-126.329 41.5675   6
   2  -7  13 83.8133 43.4105  11
   2   5  13-29.6034 42.1342   3
   7  -2 -13 53.4317 42.6346   9
  -5  -2 -13 52.9334 36.6049   2
   7  -5 -13-91.9430 47.6228   9
   2   5  13 35.2631 38.5866   5
   2  -7  12 751.465 91.2042  11
  -7   2  12 753.713 92.7806  11
  -5   7 -12 682.592 83.8490   2
   2   5  12 713.748 88.4298   3
   5   2  12 744.463 93.1410   3
   7  -5 -12 770.822 91.0340   9
  -5  -2 -12 659.550 84.6720   2
   2   5  12 856.479 90.8685   5
   7  -2 -12 641.837 87.0677   9
   5  -7  12 537.688 78.1111  12
   2  -7  12 555.325 78.0458  12
  -5   7 -11-4.84332 30.8548   2
   2  -7  11-58.9195 44.5862  11
  -7   2  11 53.1232 39.1735  11
   5   2  11 1.26850 35.1602   3
   2   5  11 33.0595 39.5235   3
  -7   2  11-58.2101 29.5758   6
  -5  -2 -11-15.8983 32.3756   2
   7  -2 -11-31.5637 43.8893   9
   7  -5 -11-1.26855 37.8258   9
   2   5  11 23.9385 31.7355   5
   5  -7  11-26.5140 39.7906  12
   2  -7  11-70.4458 37.3321  12
  -5   7 -10-19.9692 32.7676   2
   5  -7  10 23.4608 31.1451  12
   2  -7  10-8.81292 36.2316  11
  -7   2  10 102.826 44.7406  11
   5   2  10 39.9728 44.1612   3
  -7   2  10 24.9918 32.7686   6
  -5  -2 -10-10.5253 35.3301   2
   7  -2 -10-13.3964 46.7480   9
   7  -5 -10 25.8147 45.7860   9
   2   5  10 0.00000 26.8432   5
   2  -7  10 63.0244 43.6365  12
  -5   7  -9 20.3702 29.1247   2
   2  -7   9 24.9985 37.5142  11
  -7   2   9 17.6944 29.0007  11
  -7   2   9 53.2757 34.4847   6
  -7   5   9 12.1442 26.2277   6
  -5  -2  -9 22.3850 35.2507   2
   7  -2  -9-32.4430 40.4767   9
   7  -5  -9 11.5196 36.3073   9
   5  -7   9 68.0788 36.8817  12
   2  -7   9 26.5503 36.9332  12
   2  -7   8 3878.12 178.532  11
  -7   2   8 4067.34 171.152  11
  -5   7  -8 4186.46 174.171   2
  -7   2   8 4190.52 176.012   6
  -7   5   8 4113.39 165.430   6
   7  -2  -8 4094.57 182.255   9
   7  -5  -8 4305.23 186.584   9
  -5  -2  -8 4375.63 185.639   2
   5  -7   8 3923.08 178.589  12
   2  -7   8 3657.66 174.610  12
   2  -7   7-18.9416 33.6602  11
  -5   7  -7 41.6772 31.8233   2
  -7   2   7 34.8610 30.0276  11
  -2  -5  -7 10.2450 26.9144   2
  -7   2   7-61.6774 31.5007   6
  -7   5   7 25.2540 25.6356   6
   2   5   7 53.6001 30.5403   9
  -5  -2  -7-18.6020 39.8457   2
   7  -2  -7-10.4895 34.3485   9
   7  -5  -7 40.8400 41.5206   9
   5  -7   7-18.5832 29.1478  12
   2  -7   7 8.36712 32.9340  12
   5  -7   6 34.0528 34.3174  11
   2  -7   6-15.5229 33.9762  11
  -7   2   6 38.2786 29.1076  11
  -5   7  -6 7.35206 22.0480   2
  -2  -5  -6-1.43142 28.8833   2
  -7   2   6-15.7176 31.0465   6
  -7   5   6 13.0193 23.7006   6
   2   5   6 35.9021 25.1928   9
  -2   7  -6-26.6639 23.3884   9
  -5  -2  -6 8.29569 34.7641   2
   7  -2  -6-68.1558 39.5968   9
   7  -5  -6 22.6168 39.4796   9
   5  -7   6 19.0597 32.5539  12
   2  -7   6 21.8884 34.5495  12
   5  -7   5 15.9596 28.0343  11
   2  -7   5 25.8317 31.5942  11
  -7   2   5 107.747 31.5705  11
  -5   7  -5 9.44474 21.5637   2
  -2  -5  -5 30.9976 30.0808   2
  -7   2   5 37.4994 33.1979   6
  -7   5   5 45.1371 32.7615   6
  -5  -2  -5 42.6240 35.1511   2
  -2   7  -5-12.0949 32.2028   9
   2   5   5 26.8910 25.0836   9
   7  -2  -5 3.16054 32.5987   9
   7  -5  -5 30.7176 34.1899   9
   5  -7   5 51.0047 32.9888  12
   2  -7   5 44.4336 39.8497  12
   5  -7   4 1971.91 112.177  11
   2  -7   4 2122.50 124.973  11
  -7   2   4 2225.97 120.150   6
  -5   7  -4 2104.04 107.128   2
  -7   5   4 2220.39 119.462   6
  -2   7  -4 2192.48 115.193   9
  -2  -5  -4 2226.03 118.218   2
   7  -2  -4 2169.48 122.245   9
   7  -5  -4 2154.15 121.829   9
  -5  -2  -4 2323.45 127.600   2
   5  -7   4 2139.15 124.545  12
   2  -7   4 1967.12 122.232  12
   5  -7   3 19.6459 31.7496  11
  -2  -5  -3-10.9708 25.0851  11
   2  -7   3 8.19378 33.1297  11
  -5   7  -3 3.13297 20.3512   2
  -2  -5  -3 29.6419 33.6866   2
  -2  -5  -3 15.4737 17.6811   6
  -5  -2  -3 29.5417 21.8010   6
  -7   2   3 14.6262 25.0079   6
  -5  -2  -3-4.83194 30.2548   2
  -7   5   3-17.5443 25.1953   6
  -2   7  -3 20.5791 25.1359   9
   2   5   3 32.1324 28.1393   9
   5   2   3-10.4505 22.5281   9
   7  -2  -3-12.8300 32.3142   9
   7  -5  -3-16.2678 29.4356   9
   5  -7   3-11.2837 32.0232  12
   2  -7   3-6.52733 28.1404  12
   5  -7   2 27.4143 32.3631  11
   2  -7   2-4.92833 39.7654  11
  -2  -5  -2 62.0753 30.8877  11
  -2  -5  -2 40.7822 32.8241   2
  -2  -5  -2 28.2092 22.2925   6
  -5  -2  -2 61.7330 26.8247   6
  -5  -2  -2 9.75877 30.0666   2
  -7   2   2 51.0681 31.8913   6
  -7   5   2 28.8281 21.6545   6
  -2   7  -2 36.0422 28.4685   9
   2   5   2 69.0583 31.1836   9
   5   2   2 72.5434 30.6459   9
   7  -2  -2 32.7547 30.7335   9
   7  -5  -2 25.4056 31.1250   9
   5  -7   1 35.1971 32.2170  11
   2  -7   1 34.2443 34.0085  11
  -2  -5  -1 13.3899 28.3836  11
  -2  -5  -1 14.9768 18.3128   6
  -2  -5  -1 17.3074 30.8136   2
  -5  -2  -1 25.5923 22.4281   6
  -5  -2  -1 2.90436 32.2570   2
  -7   2   1 23.9371 28.8622   6
  -7   5   1-6.10083 27.8046   6
  -2   7  -1 39.8047 31.7529   9
  -7   2   1 6.45415 24.6170   2
   2   5   1 26.9345 23.6448   9
   5   2   1 28.1194 26.5264   9
   7  -2  -1-15.4092 26.4563   9
   7  -5  -1 9.95115 25.9528   9
   2  -7   0 2862.27 139.494  11
  -2  -5   0 2746.84 122.635  11
   7  -2   0 3002.08 139.234   4
  -2  -5   0 2840.70 126.741   6
  -5  -2   0 2905.98 127.531   6
  -7   2   0 2904.87 130.396   6
  -7   5   0 2941.30 133.286   6
  -2   7   0 2878.20 132.726   9
   2   5   0 3052.54 136.802   9
   5   2   0 2784.17 126.986   9
   7  -2   0 3130.80 130.525   9
  -5  -2   0 2996.44 138.807   2
   7  -5   0 2941.11 125.515   9
  -7   2   0 2936.24 125.565   2
   5  -7   0 2742.68 132.928  11
   5   2  -1 13.0843 27.2596   4
   5  -7  -1 2.32903 31.6523  11
   2  -7  -1-22.6509 36.0975  11
   7  -2   1 39.3630 37.0159   4
  -2  -5   1 6.64057 26.7854  11
  -2  -5   1 5.31424 22.1762   6
  -5  -2   1 51.5214 36.9496   2
  -5  -2   1 21.2072 27.2857   6
  -7   2  -1 3.89403 21.9620   6
  -2   7   1-7.57908 27.6260   9
   2   5  -1-14.7342 24.6287   9
   5   2  -1-6.52327 27.7895   9
  -7   2  -1 17.8916 30.8196   2
   7  -2   1 11.2638 24.7673   9
   7  -5   1 16.8572 23.6010   9
   5   2  -2-0.52357 29.4625   4
   5  -7  -2-94.4350 53.0455  11
   2  -7  -2 9.15776 29.3046  11
   7  -2   2 52.2258 37.8640   4
  -2  -5   2-19.1315 25.7261  11
  -5  -2   2 30.5901 33.5970   2
  -2  -5   2-9.93622 23.6277   6
  -5  -2   2 6.23715 23.2041   6
  -7   2  -2 9.16164 25.7110   6
  -2   7   2 2.83721 27.9896   9
   2   5  -2 58.8406 34.1029   9
   5   2  -2-8.76055 29.2111   9
  -7   2  -2 20.5209 30.1364   2
   5   2  -3 21.8451 29.2434   4
   5  -7  -3 24.8467 35.4080  11
   2  -7  -3-4.64424 33.1426  11
   7  -2   3 6.87433 30.6329   4
  -2  -5   3-9.14876 26.4484  11
  -5  -2   3-6.62182 23.9253  11
  -7   5  -3-7.01763 21.4521   2
  -5  -2   3-15.0258 32.6040   2
  -2  -5   3-16.3376 26.4790   6
  -5  -2   3 6.45957 24.5070   6
  -7   2  -3 10.4934 22.6321   6
  -2   7   3-108.860 35.5471   9
   2   5  -3 5.30205 28.7546   9
   5   2  -3-36.0080 28.6611   9
  -7   2  -3 18.7380 30.6151   2
   7  -2   4 3846.65 156.953   4
  -2  -5   4 3882.23 157.475  11
  -5  -2   4 3884.88 144.465  11
  -2  -5   4 3648.70 155.492   6
  -5  -2   4 3648.36 153.243   6
  -7   2  -4 3974.09 145.748   6
  -2   7   4 4143.39 162.329   9
   2   5  -4 4033.60 163.707   9
   5   2  -4 4024.95 165.361   9
  -7   2  -4 4095.85 161.903   2
  -7   5  -4 4159.44 151.861   2
   5  -7  -4 3711.73 164.672  11
   5   2  -4 3844.37 145.982   4
   2  -7  -4 3850.64 164.890  11
   5   2  -5 80.9703 31.4769   4
   5  -7  -5 68.8784 46.7919  11
   7  -2   5 59.5991 31.4900   4
   2  -7  -5 13.9757 35.8931  11
  -2  -5   5 15.2245 30.0866  11
  -5  -2   5 60.7395 31.8633  11
  -7   5  -5 46.2462 29.6708   2
  -2  -5   5 48.5714 31.3937   6
  -5  -2   5-4.83130 27.2832   6
  -7   2  -5 23.8816 18.9294   6
  -2   7   5 64.8408 35.1001   9
   2   5  -5 7.11449 28.6806   9
   5   2  -5 25.8617 31.0009   9
  -7   2  -5 28.2466 35.7769   2
  -7   2  -6 110.675 41.6036   2
   7  -2   6 161.421 43.3646   4
   2  -7  -6 90.0055 41.6692  11
  -2  -5   6 100.677 36.1481  11
  -5  -2   6 98.9420 35.7592  11
  -2  -5   6 145.413 42.7061   6
  -7   5  -6 131.377 38.7479   2
  -5  -2   6 66.4902 29.8737   6
  -2   7   6 162.338 41.0484   9
   2   5  -6 113.185 39.9153   9
   5   2  -6 153.485 44.2813   9
   5  -7  -6 112.187 45.3432  11
  -7   2  -7-13.1864 28.2895   2
   7  -2   7-7.78422 28.7067   4
   2  -7  -7-30.0713 40.8692  11
  -2  -5   7-14.1964 32.0496  11
  -5  -2   7 7.76111 29.4506  11
  -2  -5   7 33.8126 33.5992   6
  -7   5  -7 24.7991 32.8587   2
   7  -2   7-10.3446 29.8703   3
  -5  -2   7-20.5351 29.0430   6
  -2   7   7-17.3509 29.8536   9
   2   5  -7 29.7337 28.6345   9
   5   2  -7-6.13268 28.9519   9
  -2  -5   8 2318.99 136.155  11
  -5  -2   8 2479.87 135.784  11
  -2  -5   8 2708.27 144.947   6
  -5  -2   8 2632.63 141.531   6
   7  -2   8 2648.02 133.053   3
  -2   7   8 2578.97 134.520   9
   2   5  -8 2474.63 136.033   9
   5   2  -8 2752.29 147.394   9
  -7   2  -8 2532.92 142.378   2
   2  -7  -8 2321.30 139.332  11
  -7   5  -8 2635.14 141.836   2
  -7   2  -9-32.6817 38.0588   2
   2  -7  -9-73.1232 48.2530  11
  -2  -5   9 53.3183 40.8052  11
  -5  -2   9-85.2337 35.9554  11
   7  -2   9 21.6586 29.8107   3
  -2  -5   9 1.08996 29.1150   6
  -7   5  -9 23.0204 29.1034   2
  -5  -2   9-18.3245 28.0382   6
   2   5  -9-93.7430 37.6518   9
   5   2  -9 42.7706 37.9177   9
  -7   2 -10 228.862 56.3766   2
   2  -7 -10 152.134 49.8284  11
  -2  -5  10 128.356 45.5414  11
  -5  -2  10 112.224 40.3835  11
   7  -2  10 249.524 53.2071   3
  -2  -5  10 236.942 50.2432   6
  -7   5 -10 215.771 51.6459   2
  -5  -2  10 175.027 44.8092   6
   2   5 -10 123.200 56.7749   9
   5   2 -10 194.349 51.0786   9
  -7   2 -11 34.3166 40.2724   2
   2  -7 -11 17.9149 45.9566  11
  -2  -5  11-76.3223 44.9762  11
  -5  -2  11 17.3134 34.4442  11
   7  -2  11 16.0839 37.8516   3
  -2  -5  11 46.1159 36.6589   6
  -7   5 -11 80.6638 42.6561   2
  -5  -2  11 30.1346 32.9609   6
   5   2 -11-68.0680 39.7357   9
   5  -7 -11 7.28572 32.9639   9
  -5  -2  12 791.739 92.9640  11
  -2  -5  12 682.348 81.4855   6
  -5  -2  12 691.288 79.2836   6
   7  -2  12 661.712 84.5162   3
  -2  -5  12 582.282 84.4940  11
   5   2 -12 707.825 84.8231   9
   5  -7 -12 705.551 89.1534   9
  -7   2 -12 749.650 92.8620   2
   2  -7 -12 749.180 94.4840  11
  -7   5 -12 887.869 95.6843   2
  -2  -5  13-6.39136 31.2235   6
  -5  -2  13 60.9645 32.3705   6
   5   2 -13-28.2596 28.7429   9
   5  -7 -13 24.1063 40.1032   9
  -5   7  13-0.89925 35.1477   5
   1   6  13 148.795 52.4061   3
   1  -7  12 96.0873 48.9080  11
  -7   1  12 55.4673 43.5189  11
   6   1  12-10.9443 44.6337   3
   1   6  12 18.9367 32.6188   3
  -7   1  12 116.621 38.4648   6
   7  -1 -12 16.6986 75.6289   9
  -6   7 -12 115.719 45.5967   2
  -6  -1 -12 319.136 73.1081   2
   7  -6 -12 264.563 60.1851   9
   1   6  12 28.9715 36.6295   5
   6  -7  12 14.7140 40.1822  12
   1  -7  12-12.0595 40.1674  12
   1  -7  11 209.080 56.9940  11
  -7   1  11 207.642 55.9189  11
   6   1  11 132.243 54.6847   3
   1   6  11 235.113 61.0206   3
  -7   1  11 216.731 52.0007   6
   7  -1 -11 247.419 62.6889   9
  -6  -1 -11 285.372 63.3314   2
  -6   7 -11 316.537 61.4697   2
   7  -6 -11 281.828 66.9293   9
   6  -7  11 157.976 43.9628  12
   1  -7  11 130.616 45.8205  12
   1  -7  10 908.549 97.0127  11
  -7   1  10 834.622 89.0069  11
  -6   7 -10 1058.16 100.130   2
  -7   1  10 889.081 88.6942   6
   6   1  10 829.879 91.6007   3
   1   6  10 909.674 95.4885   3
   7  -1 -10 923.760 96.6575   9
   7  -6 -10 866.609 96.1684   9
  -6  -1 -10 939.887 97.9972   2
   6  -7  10 950.601 97.6033  12
   1  -7  10 875.558 94.4528  12
   1  -7   9 651.057 83.4247  11
  -7   1   9 612.976 75.9001  11
  -6   7  -9 725.601 80.6998   2
  -7   1   9 543.562 72.7632   6
   6   1   9 726.559 86.9468   3
   7  -1  -9 765.387 88.3333   9
   7  -6  -9 614.264 80.9166   9
  -6  -1  -9 671.571 82.3579   2
   6  -7   9 721.544 84.3508  12
   1  -7   9 663.968 82.8843  12
   1  -7   8 3.15650 36.8767  11
  -7   1   8-18.1195 33.5747  11
  -7   1   8-23.0127 34.2856   6
  -7   6   8 50.8403 29.1259   6
   1   6   8-36.4431 25.3858   9
  -6  -1  -8 8.38541 37.7086   2
   7  -1  -8 52.9226 40.2225   9
   7  -6  -8 8.06094 41.3335   9
  -6   7  -8 23.1917 29.1585   2
   6  -7   8 34.3110 31.5934  12
   1  -7   8-4.54780 33.2600  12
   1  -7   7 1389.83 112.095  11
  -7   1   7 1418.07 100.277  11
  -6   7  -7 1467.61 103.131   2
  -7   1   7 1531.92 109.994   6
  -7   6   7 1535.40 104.305   6
   1   6   7 1428.95 99.9015   9
  -1   7  -7 1644.83 105.921   9
   7  -1  -7 1516.77 114.270   9
   7  -6  -7 1326.01 107.762   9
  -6  -1  -7 1573.34 115.274   2
   6  -7   7 1236.09 101.238  12
   1  -7   7 1315.58 104.898  12
   1  -7   6 1778.57 122.179  11
  -7   1   6 1734.03 105.844  11
  -6   7  -6 1880.74 111.730   2
  -7   1   6 1944.60 122.040   6
  -7   6   6 1903.04 114.337   6
   1   6   6 2011.75 116.479   9
  -1   7  -6 1926.00 115.735   9
   7  -1  -6 1914.83 125.191   9
   7  -6  -6 1820.86 121.539   9
  -6  -1  -6 1769.62 119.541   2
   6  -7   6 1806.62 117.751  12
   1  -7   6 1631.75 113.952  12
  -1  -6  -5 779.781 71.8208  11
   1  -7   5 663.467 76.3051  11
   7  -1  -5 729.388 75.3445   4
  -6   7  -5 826.611 72.5463   2
  -7   1   5 784.450 77.9982   6
  -7   6   5 858.143 78.8655   6
   1   6   5 865.605 76.5508   9
  -1   7  -5 852.500 77.4613   9
  -1  -6  -5 774.462 72.0755   2
   7  -1  -5 786.359 81.3397   9
   7  -6  -5 640.126 75.4563   9
  -6  -1  -5 833.197 83.1261   2
   6  -7   5 827.717 81.9249  12
   1  -7   5 849.358 84.1216  12
  -1  -6  -4 779.967 71.4562  11
   1  -7   4 609.463 73.1331  11
   7  -1  -4 663.306 71.7143   4
  -6   7  -4 729.542 65.8759   2
  -7   1   4 680.606 72.0338   6
  -7   6   4 709.917 71.9111   6
   1   6   4 627.569 66.4092   9
  -1   7  -4 800.081 74.8073   9
  -1  -6  -4 781.924 72.4121   2
   7  -1  -4 746.174 76.6445   9
   7  -6  -4 750.561 78.2252   9
   6  -7   4 679.382 72.8204  12
  -6  -1  -4 755.101 79.6643   2
   1  -7   4 812.043 81.1624  12
   6  -7   3 11.5886 27.0995  11
  -1  -6  -3 14.3557 26.1066  11
   1  -7   3 30.5930 37.5375  11
   7  -1  -3 22.6932 29.8031   4
  -7   1   3 11.2285 25.1853   2
  -6  -1  -3-12.7003 19.4782   6
  -7   1   3 4.59633 29.3683   6
  -6  -1  -3 0.31777 31.4870   2
  -7   6   3 10.2104 26.6155   6
   1   6   3-53.9779 32.9489   9
  -1   7  -3-11.2080 25.2877   9
   7  -1  -3 29.5155 28.2053   9
   7  -6  -3 2.46793 30.9595   9
   6  -7   3-19.8726 30.6198  12
   1  -7   3 6.54489 25.3273  12
  -1  -6  -2 2206.72 115.973  11
   1  -7   2 2181.04 126.181  11
   7  -1  -2 2418.76 128.341   4
  -1  -6  -2 2287.17 115.478   6
  -6  -1  -2 2301.01 113.733   6
  -7   1   2 2365.84 124.472   6
  -1   7  -2 2499.09 129.674   9
   1   6   2 2338.74 123.493   9
   6   1   2 2304.95 112.711   9
   7  -1  -2 2326.86 123.044   9
  -7   1   2 2212.92 112.752   2
   7  -6  -2 2277.00 123.334   9
  -6  -1  -2 2393.07 129.653   2
   6   1   2 2298.95 125.142   4
   7  -6  -2 2206.36 118.690  11
   6  -7   2 2214.00 116.207  11
   6   1   1 73.2817 35.3626   4
   7  -6  -1 87.9882 35.7671  11
   6  -7   1 30.8199 36.1182  11
   1  -7   1 32.8896 30.0289  11
  -1  -6  -1 50.4030 33.0259  11
   7  -1  -1 79.6332 39.3387   4
  -1  -6  -1 129.213 35.4266   6
  -6  -1  -1 37.0930 22.3438   6
  -7   1   1 8.09136 23.9701   6
  -7   1   1 44.2671 32.2699   2
  -1   7  -1 28.0214 28.0112   9
   1   6   1 55.7258 30.9295   9
   6   1   1 49.2437 29.8753   9
   7  -1  -1 28.3034 26.6322   9
   7  -6  -1 14.8542 32.7893   9
   6   1   0 296.843 50.9425   4
   6  -7   0 292.084 52.7077  11
   7  -1   0 343.021 56.2821   4
   1  -7   0 334.272 55.4141  11
  -1  -6   0 349.801 53.6642  11
  -1  -6   0 378.976 52.8321   6
  -6  -1   0 308.877 46.4495   6
  -6  -1   0 266.417 49.5468   2
  -7   1   0 304.329 47.7204   6
  -7   1   0 331.896 52.3748   2
  -1   7   0 312.634 51.5788   9
   1   6   0 374.043 56.2356   9
   6   1   0 370.579 51.4220   9
   7  -1   0 263.800 44.2603   9
   7  -6   0 264.150 44.8069   9
   1  -7  -1 1396.89 99.9398  11
  -1  -6   1 1353.73 95.1684  11
   7  -1   1 1501.87 102.187   4
  -1  -6   1 1519.15 100.141   6
  -6  -1   1 1493.76 97.3957   6
  -7   1  -1 1455.17 94.4758   6
  -1   7   1 1510.40 100.921   9
   1   6  -1 1287.31 94.8421   9
   6   1  -1 1542.86 99.9350   9
   7  -1   1 1433.36 89.9030   9
  -6  -1   1 1458.08 101.614   2
   7  -6   1 1422.52 90.7368   9
  -7   1  -1 1431.61 97.2118   2
   6  -7  -1 1493.18 102.458  11
   6   1  -1 1448.15 98.2354   4
   7  -1   2 847.178 80.1487   4
  -1  -6   2 785.120 75.1811  11
  -1  -6   2 839.871 78.3957   6
  -6  -1   2 833.339 76.3736   6
  -7   1  -2 881.775 72.6842   6
  -1   7   2 891.579 80.0762   9
   1   6  -2 762.218 74.5303   9
   6   1  -2 873.483 78.6290   9
  -6  -1   2 908.412 82.0180   2
  -7   1  -2 764.067 74.8045   2
   7  -6   2 820.187 70.3224  12
   6  -7  -2 863.955 82.3014  11
   6   1  -2 775.504 73.8262   4
   1  -7  -2 736.035 76.5531  11
   7  -1   3 1697.38 109.486   4
   6   1  -3 1704.82 106.078   4
  -1  -6   3 1599.74 106.206  11
  -1  -6   3 1716.51 109.951   6
  -6  -1   3 1695.48 107.306   6
  -7   1  -3 1805.26 102.161   6
  -1   7   3 1809.49 111.669   9
   1   6  -3 1737.07 110.114   9
  -6  -1   3 1761.31 107.935   2
   6   1  -3 1876.90 115.091   9
  -7   1  -3 1721.25 109.975   2
   7  -6   3 1727.46 101.307  12
   6  -7  -3 1661.03 112.762  11
   1  -7  -3 1438.05 102.805  11
   7  -1   4 166.313 47.0919   4
   6  -7  -4 117.687 45.7358  11
   6   1  -4 106.888 36.6247   4
   1  -7  -4 55.6653 34.5531  11
  -1  -6   4 111.800 42.6754  11
  -6  -1   4 107.314 35.4498   2
  -1  -6   4 86.4673 33.2283   6
  -6  -1   4 124.044 39.3100   6
  -7   6  -4 75.4710 28.1028   2
  -7   1  -4 126.585 30.6393   6
  -1   7   4 157.126 43.1305   9
   1   6  -4 85.6429 32.8315   9
   6   1  -4 138.697 42.0572   9
  -7   1  -4 197.896 51.9109   2
   7  -6   4 172.057 39.0788  12
   6   1  -5 711.559 70.1303   4
  -1  -6   5 584.248 72.5670  11
  -7   6  -5 706.061 68.2153   2
  -6  -1   5 641.964 64.7248  11
  -1  -6   5 573.107 68.8043   6
  -6  -1   5 773.191 79.3347   6
  -1   7   5 616.555 67.6399   9
   1   6  -5 631.812 71.1051   9
   6   1  -5 655.094 75.0499   9
  -7   1  -5 686.270 76.6848   2
   7  -6   5 610.008 64.0452  12
   6  -7  -5 683.859 81.6975  11
   7  -1   5 705.643 75.0874   4
   1  -7  -5 644.035 74.7227  11
   6   1  -6 2414.42 123.443   4
  -1  -6   6 2228.06 131.824  11
  -7   6  -6 2500.49 130.197   2
  -6  -1   6 2431.35 125.987  11
  -1  -6   6 2647.90 142.822   6
  -6  -1   6 2617.04 140.487   6
  -1   7   6 2554.44 134.117   9
   1   6  -6 2405.62 133.121   9
   6   1  -6 2606.26 143.113   9
  -7   1  -6 2668.53 143.933   2
   7  -1   6 2389.34 131.494   4
   1  -7  -6 2382.92 135.480  11
  -7   6  -7 545.343 66.0641   2
  -6  -1   7 466.540 63.2195  11
  -1  -6   7 551.289 70.4044   6
  -6  -1   7 592.760 72.9046   6
  -1  -6   7 565.196 74.5041  11
   7  -1   7 549.073 68.5216   3
  -1   7   7 562.877 66.8061   9
   1   6  -7 596.392 70.0372   9
   6   1  -7 540.706 72.1644   9
  -7   1  -7 561.991 75.4696   2
   1  -7  -7 551.089 72.4996  11
  -1  -6   8 640.732 77.5441  11
  -7   6  -8 630.278 72.6391   2
  -6  -1   8 681.007 75.7251  11
  -1  -6   8 780.657 83.6865   6
  -6  -1   8 644.570 75.0491   6
   7  -1   8 583.774 69.6474   3
  -1   7   8 645.709 70.3369   9
   1   6  -8 659.406 74.1079   9
   6   1  -8 578.657 74.7024   9
   6  -7  -8 631.525 82.4535   9
  -7   1  -8 634.055 77.3377   2
   1  -7  -8 665.867 78.0509  11
   1  -7  -9 283.856 58.6934  11
  -1  -6   9 318.682 60.8417  11
  -6  -1   9 301.924 57.3471  11
  -1  -6   9 363.397 62.9595   6
   7  -1   9 294.340 55.7920   3
  -6  -1   9 339.379 57.8100   6
  -7   6  -9 268.228 54.5897   2
  -1   7   9 284.753 49.6343   9
   1   6  -9 349.725 54.9279   9
   6   1  -9 324.036 60.8868   9
   6  -7  -9 455.196 71.2612   9
  -7   1  -9 350.320 63.4872   2
  -7   6 -10 805.125 88.3253   2
  -1  -6  10 834.582 94.0388  11
  -6  -1  10 847.974 93.0000  11
  -1  -6  10 829.557 88.6094   6
  -6  -1  10 762.152 85.1615   6
   7  -1  10 738.269 83.2005   3
   6   1 -10 914.842 94.4688   9
   6  -7 -10 808.175 92.9637   9
  -7   1 -10 909.005 95.5510   2
  -1  -6  11 100.448 48.7259  11
  -6  -1  11 61.3645 40.0690  11
  -1  -6  11 144.885 43.7419   6
   7  -1  11 127.900 47.5161   3
  -6  -1  11 44.5799 29.9615   6
  -7   6 -11 40.9348 30.0998   2
   6   1 -11 95.7200 51.6001   9
   6  -7 -11 55.5670 40.1474   9
  -7   1 -11 44.5256 41.5447   2
  -1  -6  12 98.8794 46.0351  11
  -6  -1  12 121.711 48.4375  11
   7  -1  12 165.995 57.0902   3
  -1  -6  12 203.859 53.1867   6
  -6  -1  12 11.2317 20.8535   6
  -7   6 -12 116.076 40.5693   2
   6   1 -12 224.070 57.5134   9
   6  -7 -12 105.045 44.1486   9
  -7   1 -12 40.5112 43.8768   2
  -6  -1  13 39.5695 23.4308   6
  -6   7  13 53.2468 31.9295   5
   7   0   0-35.0777 37.2746   4
   7  -7   0 17.9555 30.3546  11
   0  -7   0 24.4407 33.5691  11
  -7   0   0 92.1282 38.1525   6
  -7   0   0 9.01121 30.8128   2
   0   7   0-2.95299 35.4620   9
   7   0   0 54.4628 35.0974   9
   7   0   1 33.4745 35.6946   4
   7  -7  -1-10.8520 38.6673  11
   7   0  -1 5.83301 31.8178   4
   0  -7  -1-6.10491 35.9496  11
   0  -7   1 52.5452 39.7318  11
  -7   0   1 66.9819 30.3015   6
  -7   0   1 12.4850 31.1075   2
  -7   0  -1 100.447 38.9866   6
  -7   0  -1 76.3516 41.2877   2
   0   7   1 0.00000 33.9367   9
   0   7  -1 37.1384 31.6311   9
   7   0   1 61.7273 33.9124   9
   7   0  -1 72.3124 37.3034   9
   7  -7  -1 84.4278 42.1540   9
   0  -7  -2 929.588 84.4796  11
   7   0  -2 901.348 83.4425   4
   0  -7   2 876.853 86.3866  11
  -7   0   2 935.886 83.5867   6
  -7   0  -2 1050.69 82.9546   6
   7  -7   2 1094.23 88.6846  12
   0   7   2 1012.04 87.2946   9
   0   7  -2 1061.47 91.7216   9
   7   0  -2 952.585 86.7723   9
  -7   0   2 972.522 84.1786   2
   7  -7  -2 961.255 92.0081   9
  -7   0  -2 880.189 85.7308   2
   0  -7   2 1032.23 87.5297  12
   7  -7  -2 829.030 83.7576  11
   7   0   2 949.775 87.0149   4
   0  -7  -3 1158.49 93.6960  11
   0  -7   3 1117.76 95.9893  11
   7   0  -3 1194.14 96.0085   4
  -7   0   3 1196.83 94.7233   6
  -7   0  -3 1167.21 85.4855   6
   0   7   3 1319.83 99.8318   9
   0   7  -3 1326.19 101.261   9
  -7   0   3 1360.44 97.5993   2
   7   0  -3 1159.82 95.0961   9
   7  -7  -3 1312.45 104.396   9
  -7   0  -3 1234.05 100.656   2
   7  -7   3 1198.39 92.7974  12
   0  -7   3 1154.29 92.8964  12
   7   0   3 1323.89 102.488   4
   7  -7  -3 1108.89 95.3952  11
   0  -7  -4 543.997 68.2142  11
   7   0  -4 513.378 67.8190   4
   7   0   4 484.527 66.7548   4
   0  -7   4 393.535 62.7691  11
  -7   0   4 453.960 60.2211   2
   0   7   4 537.620 68.0472   9
  -7   0   4 425.989 60.6880   6
   0   7  -4 423.438 63.7542   9
  -7   0  -4 435.426 66.0955   2
   7   0  -4 384.707 58.5775   9
   7  -7   4 485.888 63.8417  12
   0  -7   4 476.552 62.9128  12
   7  -7  -4 505.754 71.5514   9
   7  -7  -4 414.986 64.4966  11
   0  -7   5 826.848 89.7478  11
   7   0  -5 863.148 85.6720   4
  -7   7  -5 798.094 74.5165   2
  -7   0   5 772.991 82.6504   6
   0   7   5 841.367 82.6622   9
   0   7  -5 869.432 83.7501   9
   7   0  -5 656.768 77.7735   9
   7  -7  -5 969.711 94.7299   9
  -7   0  -5 767.611 84.3568   2
   7  -7   5 829.941 81.8895  12
   0  -7   5 827.171 80.9922  12
   0  -7  -5 843.121 83.1678  11
   0  -7   6 1739.07 124.852  11
   7   0  -6 1759.11 115.348   4
  -7   7  -6 1709.81 111.663   2
  -7   0   6 1604.46 114.636   6
  -7   7   6 1666.43 110.539   6
   0   7   6 1687.89 112.999   9
   0   7  -6 1688.35 114.887   9
   7   0  -6 1470.55 113.875   9
   7  -7  -6 1557.31 117.621   9
  -7   0  -6 1713.41 122.900   2
   7  -7   6 1652.25 113.317  12
   0  -7   6 1646.33 112.930  12
   0  -7  -6 1554.14 108.272  11
   7   0  -7 308.911 56.1532   4
   0  -7   7 221.478 57.0422  11
  -7   0   7 254.713 54.7348   6
   0   7   7 184.607 43.6724   9
  -7   7   7 227.105 45.3322   6
  -7   7  -7 275.924 49.9925   2
   0   7  -7 235.234 47.0856   9
   7   0  -7 251.497 54.0758   9
  -7   0  -7 305.711 62.6231   2
   7  -7  -7 219.542 55.5153   9
   7  -7   7 268.237 51.2003  12
   0  -7   7 252.219 50.0218  12
   0  -7   8 142.157 54.1642  11
  -7   0   8 102.715 40.6172  11
   7   0   8 172.710 55.2518   3
  -7   0   8 175.301 47.0275   6
   0   7   8 120.129 34.4715   9
  -7   7  -8 84.5633 32.5395   2
   0   7  -8 141.601 45.1362   9
   7   0  -8 64.2901 41.1124   9
  -7   0  -8 104.254 46.0638   2
   7  -7  -8 45.2963 39.4605   9
   7  -7   8 121.008 41.5944  12
   0  -7   8 220.558 49.8680  12
   0  -7   9 293.122 62.9651  11
  -7   0   9 221.096 47.7521  11
   7   0   9 344.922 63.1028   3
  -7   0   9 441.128 70.5140   6
  -7   7  -9 353.409 61.9434   2
   7   0  -9 303.582 59.2916   9
  -7   0  -9 398.509 73.6165   2
   7  -7  -9 219.358 56.8058   9
   7  -7   9 354.549 62.3166  12
   0  -7   9 310.101 58.4203  12
   0  -7  10 670.042 86.7630  11
  -7   7 -10 699.399 84.2868   2
  -7   0  10 648.062 79.8350  11
  -7   0  10 763.076 87.2009   6
   7   0  10 575.950 80.1661   3
  -7   0 -10 944.396 103.277   2
   7   0 -10 645.405 82.7399   9
   7  -7 -10 661.539 88.0562   9
   7  -7  10 695.766 81.9401  12
   0  -7  10 635.977 79.6164  12
   0  -7  11 191.417 61.5899  11
  -7   0  11 70.5171 39.5883  11
   7   0  11 90.6601 46.1075   3
  -7   0  11 176.603 45.7521   6
  -7   7 -11 7.08200 28.3058   2
   7   0 -11 92.8691 40.0613   9
  -7   0 -11 196.930 56.3657   2
   7  -7 -11 74.8068 42.7113   9
   7  -7  11 9.66322 33.9737  12
   0  -7  11 48.0948 42.2919  12
   7  -7  12 59.3405 35.7022  12
   0  -7  12 106.123 44.9451  12
  -8   4  11 16.4018 31.1285  11
   4   4  11 21.7801 44.9404   3
   8  -4 -11-4.70903 37.5386   9
   4  -8  11 19.8760 40.3345  12
   4  -8  10-6.23646 43.5087  11
  -8   4  10-18.2838 34.2084   6
  -4  -4 -10 55.8711 46.3887   2
   8  -4 -10 30.5591 42.4187   9
   4  -8  10 60.1061 44.6563  12
   4  -8   9 54.8961 45.3413  11
  -8   4   9 6.68954 25.3672   6
  -4  -4  -9-1.17344 37.3705   2
   8  -4  -9 24.8804 47.9639   9
   4  -8   9-12.2271 32.8902  12
   4  -8   8 1869.16 129.281  11
  -8   4   8 2006.17 127.836   6
   8  -4  -8 2048.35 141.591   9
  -4  -4  -8 1951.88 130.041   2
   4  -8   8 1655.39 126.548  12
   4  -8   7-29.4726 42.2079  11
  -8   4   7 32.9158 35.2930   6
  -4  -4  -7-2.95197 34.1329   2
   8  -4  -7 42.8340 44.4551   9
   4  -8   7 4.20848 37.5381  12
   4  -8   6 157.437 50.7823  11
  -4  -4  -6 129.246 43.3325   2
  -8   4   6 184.876 45.8299   6
   8  -4  -6 124.877 52.4554   9
   4  -8   6 153.177 51.1486  12
   4  -8   5 35.8467 41.4520  11
  -4  -4  -5-18.2710 33.6999   2
  -8   4   5-6.40495 28.5949   6
   8  -4  -5 41.5658 28.7883   9
   4  -8   5 7.15516 31.7965  12
   4  -8   4 1653.67 116.031  11
  -8   4   4 1651.43 109.882   6
  -4   8  -4 1617.41 100.148   9
   4   4   4 1544.15 99.5735   9
  -4  -4  -4 1643.88 115.227   2
   8  -4  -4 1761.86 117.875   9
   4  -8   4 1273.47 107.410  12
   4  -8   3-21.3500 37.5921  11
  -4  -4  -3-16.6183 35.5213   2
  -8   4   3-72.2925 32.2323   6
  -4   8  -3-6.01898 21.8530   9
   4   4   3-5.87551 26.0304   9
   8  -4  -3 30.4430 33.0163   9
   4  -8   3 10.2769 30.7702  12
   4  -8   2 537.935 70.3653  11
  -4  -4  -2 531.283 56.7881   6
  -8   4   2 490.889 62.3727   6
  -4   8  -2 483.754 60.2122   9
   4   4   2 579.814 60.7874   9
  -4  -4  -2 601.005 73.5651   2
   8  -4  -2 531.485 65.8679   9
   4  -8   1-2.03027 32.4246  11
  -4  -4  -1 12.3816 34.5694   2
  -4  -4  -1 44.9114 29.4507   6
  -8   4   1 16.8501 27.6191   6
  -4   8  -1 8.03226 30.4583   9
   4   4   1 9.76282 26.8919   9
   8  -4  -1 42.5950 31.6409   9
  -4  -4   0 4262.56 162.576   6
  -8   4   0 4550.57 174.319   6
  -4   8   0 4371.87 170.157   9
   4   4   0 4478.58 174.905   9
  -4  -4   0 4459.37 181.197   2
   8  -4   0 4301.80 159.571   9
   4  -8   0 4288.18 178.923  11
   4  -8  -1 20.7056 38.9142  11
  -4  -4   1 5.84452 26.1126   6
  -4  -4   1-12.1819 30.2810   2
  -8   4  -1 39.0032 29.4266   6
  -4   8   1-0.92625 27.0794   9
   4   4  -1-23.3428 32.2990   9
   4  -8  -2 149.555 52.4943  11
  -4  -4   2 254.022 46.4512   6
  -8   4  -2 259.499 49.3279   6
  -4   8   2 202.962 44.2953   9
   4   4  -2 228.499 49.0913   9
  -8   4  -2 176.312 40.2098   2
  -8   4  -3-12.2744 30.2349   2
   4  -8  -3 15.5266 39.8286  11
   8  -4   3 2.88534 38.5360   4
  -4  -4   3 56.9618 30.8737  11
  -4  -4   3 21.5917 31.1283   6
  -8   4  -3 19.5088 29.3265   6
  -4   8   3-94.6135 38.1422   9
   4   4  -3-22.5516 37.7442   9
  -4  -4   4 3036.48 142.091  11
   8  -4   4 2923.74 145.440   4
  -4  -4   4 2963.25 145.048   6
  -8   4  -4 2991.13 140.320   6
   4   4  -4 2853.67 147.896   9
  -8   4  -4 2949.25 141.213   2
   4  -8  -4 2660.09 151.421  11
  -8   4  -5 22.1373 40.3990   2
   4  -8  -5 19.1390 42.3230  11
   8  -4   5 42.0823 38.6365   4
  -4  -4   5 80.8991 43.6452  11
  -4  -4   5-20.4684 31.0290   6
  -8   4  -5 61.0295 32.4164   6
   4   4  -5 37.7152 33.4194   9
  -8   4  -6 15.0087 32.7146   2
   4  -8  -6 1.58294 49.0577  11
   8  -4   6 11.0183 34.7063   4
  -4  -4   6-29.8932 30.8355  11
  -4  -4   6 12.1770 28.8307   6
   4   4  -6-5.49802 26.0757   9
   4  -8  -7-6.15764 40.9603  11
  -8   4  -7 16.6379 31.1570   2
  -4  -4   7-16.3781 33.6163  11
  -4  -4   7-4.70656 29.7786   6
   4   4  -7 0.00000 33.4391   9
  -4  -4   8 930.434 95.3795  11
  -4  -4   8 954.749 91.8464   6
  -8   4  -8 1081.83 99.0506   2
   4   4  -8 1029.48 100.548   9
   4  -8  -8 1018.67 105.562  11
   4  -8  -9 3.54681 49.1052  11
  -8   4  -9 8.99355 31.1839   2
  -4  -4   9 9.62137 37.6251  11
  -4  -4   9-16.0408 24.3610   6
   4   4  -9 92.8601 43.9751   9
   4  -8 -10 49.9982 50.8122  11
  -8   4 -10 20.4383 23.3643   2
  -4  -4  10 14.4460 41.2202  11
  -4  -4  10 13.8853 29.9357   6
   4   4 -10 74.3112 44.9611   9
   4  -8 -11 57.0903 51.4591  11
  -8   4 -11-62.8198 38.0263   2
  -4  -4  11 20.7360 41.5870  11
  -4  -4  11-114.789 42.3816   6
   4   4 -11 67.3451 45.0418   9
   4   4 -12 1102.98 106.123   9
   3  -8  12 9.99895 37.4869  11
  -5  -3 -12-33.8130 43.8147   2
  -5   8 -11 120.718 42.6148   2
   3  -8  11 66.2601 39.6992  11
  -8   3  11 126.370 44.6369  11
   3   5  11 168.119 59.1564   3
  -8   3  11 188.017 49.0880   6
  -5  -3 -11 107.705 45.3788   2
   8  -3 -11 80.7323 39.8988   9
   8  -5 -11 67.7697 44.3420   9
   5  -8  11 114.037 49.7811  12
   3  -8  11 54.5536 38.4118  12
  -8   3  10 577.815 77.3083  11
   3  -8  10 545.850 79.0901  11
  -8   3  10 577.366 74.4327   6
  -5   8 -10 749.121 88.0001   2
  -8   5  10 618.434 70.9409   6
  -5  -3 -10 673.500 88.2653   2
   8  -3 -10 513.305 78.5058   9
   8  -5 -10 499.200 77.8540   9
   5  -8  10 625.239 86.6021  12
   3  -8  10 613.192 90.3786  12
   3  -8   9 974.914 101.525  11
  -8   3   9 743.960 82.1621  11
  -8   3   9 820.494 84.5135   6
  -5   8  -9 862.701 89.0940   2
  -8   5   9 996.721 92.7435   6
   8  -3  -9 749.952 94.5444   9
   8  -5  -9 788.586 96.2862   9
  -5  -3  -9 894.858 93.8285   2
   5  -8   9 804.139 92.5974  12
   3  -8   9 814.548 96.8426  12
   3  -8   8 256.540 64.5511  11
  -8   3   8 162.866 46.7706  11
  -5   8  -8 129.517 35.7048   2
  -3  -5  -8 133.248 41.9887   2
  -8   3   8 112.423 38.4152   6
  -8   5   8 147.201 43.8346   6
  -5  -3  -8 276.036 62.8310   2
   8  -3  -8 193.111 55.4436   9
   8  -5  -8 90.5678 44.3066   9
   5  -8   8 130.317 44.4335  12
   3  -8   8 101.075 42.0185  12
   5  -8   7 248.522 50.7339  11
   3  -8   7 266.230 64.1876  11
  -8   3   7 265.583 48.2664  11
  -5   8  -7 213.252 46.2973   2
  -3  -5  -7 282.683 54.2767   2
  -8   3   7 281.773 52.7417   6
  -8   5   7 319.486 53.9051   6
  -5  -3  -7 303.553 59.9496   2
   8  -3  -7 329.614 67.0517   9
   8  -5  -7 227.913 57.5703   9
   5  -8   7 253.295 57.0082  12
   3  -8   7 238.728 54.8899  12
   5  -8   6 2208.60 132.466  11
   3  -8   6 2207.72 140.250  11
  -8   3   6 2296.31 135.444   6
  -5   8  -6 2065.89 119.466   2
  -8   5   6 2067.92 125.906   6
  -3  -5  -6 2262.98 132.714   2
   8  -3  -6 2144.33 135.889   9
   8  -5  -6 2217.00 138.648   9
  -5  -3  -6 2283.27 139.583   2
   5  -8   6 1996.38 134.929  12
   3  -8   6 1927.40 133.654  12
   5  -8   5 30.6437 34.2131  11
   3  -8   5 54.3573 48.9462  11
  -3  -5  -5 32.1654 33.9290   2
  -8   3   5-4.84340 26.9821   6
  -5  -3  -5 23.7579 36.1295   2
  -8   5   5 14.8540 23.1013   6
  -3   8  -5 25.1780 25.2562   9
   3   5   5 2.73929 19.3570   9
   8  -3  -5 32.1913 34.8179   9
   8  -5  -5-17.1909 36.1441   9
   5  -8   5 8.30120 29.7661  12
   3  -8   5 9.99812 39.1780  12
   5  -8   4 314.384 56.5021  11
   3  -8   4 267.143 57.6520  11
  -3  -5  -4 305.707 57.9829   2
  -5  -3  -4 293.244 57.7598   2
  -8   3   4 276.488 53.1476   6
  -8   5   4 252.664 51.8486   6
  -3   8  -4 225.800 49.3519   9
   3   5   4 269.056 49.0996   9
   8  -3  -4 278.258 55.4277   9
   8  -5  -4 268.714 53.5791   9
   5  -8   4 225.633 48.2193  12
   3  -8   4 163.701 46.6155  12
   5  -8   3 699.707 77.3253  11
   3  -8   3 655.645 78.9135  11
  -8   3   3 731.511 76.4825   6
  -8   5   3 744.148 77.6220   6
  -5   8  -3 688.130 64.8113   9
  -3   8  -3 727.720 73.2367   9
   3   5   3 732.689 69.9178   9
   5   3   3 677.070 68.2802   9
  -3  -5  -3 738.503 78.2038   2
   8  -3  -3 618.598 73.6235   9
  -5  -3  -3 686.502 77.8177   2
   8  -5  -3 572.745 70.4542   9
   5  -8   3 655.555 78.4909  12
   3  -8   3 667.467 78.0463  12
   5  -8   2 733.805 79.6839  11
   3  -8   2 744.483 80.7858  11
  -3  -5  -2 771.648 68.9865   6
  -5  -3  -2 664.786 63.6444   6
  -8   3   2 891.431 83.5342   6
  -8   5   2 844.518 80.8248   6
  -5   8  -2 737.127 69.6330   9
  -3   8  -2 790.631 75.7298   9
   3   5   2 763.857 73.9202   9
   5   3   2 704.830 71.2915   9
  -3  -5  -2 860.632 85.1513   2
   8  -3  -2 685.957 74.4308   9
  -5  -3  -2 758.918 79.6973   2
   8  -5  -2 742.424 74.9370   9
   3  -8   1 1209.66 100.845  11
  -3  -5  -1 1120.62 83.9021   6
  -5  -3  -1 1174.36 86.4103   6
  -8   3   1 1189.38 93.0883   6
  -8   5   1 1184.32 92.6843   6
  -3   8  -1 1061.01 88.1877   9
   3   5   1 1132.01 91.0741   9
   5   3   1 1166.15 89.3349   9
  -3  -5  -1 1255.77 101.489   2
  -5  -3  -1 1203.12 99.4272   2
   8  -3  -1 1214.26 89.3534   9
   8  -5  -1 1116.13 87.2807   9
   5  -8   1 1170.08 95.8755  11
   5  -8   0 76.5461 43.6046  11
   3  -8   0 175.691 53.1036  11
   8  -3   0 92.3285 39.4854   4
  -3  -5   0 85.3464 29.1269   6
  -5  -3   0 77.9694 40.5209   2
  -5  -3   0 41.4692 24.5278   6
  -8   3   0 115.264 37.0028   6
  -8   5   0 134.830 39.6614   6
   3   5   0 60.7136 33.9068   9
   5   3   0 110.958 39.9287   9
   8  -3   0 54.2077 27.6936   9
   8  -5   0 54.4402 29.7492   9
   5  -8  -1 220.149 53.8353  11
   3  -8  -1 222.730 50.8500  11
   8  -3   1 285.726 54.7729   4
  -3  -5   1 296.679 51.4841  11
  -5  -3   1 327.637 60.4081   2
  -3  -5   1 198.478 43.3435   6
  -5  -3   1 234.258 41.3447   6
  -8   3  -1 275.775 45.2488   6
  -8   5  -1 231.602 46.2356   6
  -3   8   1 255.972 49.4832   9
   3   5  -1 363.606 57.0768   9
   5   3  -1 357.825 58.2443   9
  -8   3  -1 151.821 39.1968   2
  -3  -5   2 2401.20 125.318  11
   8  -3   2 2544.44 138.478   4
  -3  -5   2 2314.51 126.159   6
  -5  -3   2 2315.45 125.723   6
  -8   3  -2 2345.33 124.523   6
  -8   5  -2 2411.80 128.932   6
  -3   8   2 2443.10 132.787   9
   3   5  -2 2402.29 134.805   9
  -5  -3   2 2527.80 139.151   2
   5   3  -2 2361.77 132.285   9
  -8   3  -2 2462.39 126.652   2
   5  -8  -2 2365.00 138.492  11
   3  -8  -2 2134.30 130.902  11
   5  -8  -3 287.810 60.5107  11
   3  -8  -3 253.046 55.0099  11
   8  -3   3 478.167 68.1838   4
  -3  -5   3 318.117 53.8960  11
  -3  -5   3 263.233 49.3777   6
  -5  -3   3 308.076 52.3696   6
  -8   3  -3 372.616 52.1697   6
  -3   8   3 358.431 56.6711   9
  -8   5  -3 284.825 48.8995   6
   3   5  -3 277.460 51.3164   9
   5   3  -3 326.163 58.6051   9
  -8   3  -3 325.262 53.6171   2
   5  -8  -4 34.8390 40.0063  11
   3  -8  -4 118.726 48.1924  11
   8  -3   4 81.9962 39.3549   4
  -8   5  -4 43.2648 28.3762   2
  -3  -5   4 37.1214 31.2789  11
  -3  -5   4 49.0346 24.8179   6
  -5  -3   4 70.6194 30.4594   6
  -8   3  -4 31.6384 16.9378   6
  -3   8   4 98.0576 39.6488   9
  -8   5  -4 103.561 33.7991   6
   3   5  -4 49.0509 33.8501   9
   5   3  -4 79.2875 43.4204   9
  -8   3  -4 77.0294 39.2027   2
   8  -3   5 702.802 78.6187   4
  -3  -5   5 708.248 77.2869  11
  -5  -3   5 834.638 78.3585  11
   8  -5   5 772.443 77.2854   4
   5  -8  -5 666.632 83.4309  11
  -3  -5   5 664.522 74.6785   6
  -5  -3   5 716.037 76.2160   6
  -8   3  -5 760.040 70.5994   6
  -8   5  -5 708.908 71.9733   6
  -3   8   5 727.122 77.5386   9
   3   5  -5 759.059 81.0544   9
   5   3  -5 715.849 80.8583   9
  -8   3  -5 728.383 78.2671   2
  -8   5  -5 757.992 74.4029   2
   3  -8  -5 727.998 87.2442  11
  -3  -5   6 658.084 77.6136  11
  -3  -5   6 715.890 78.3061   6
  -5  -3   6 885.971 86.0682   6
  -5  -3   6 611.860 68.3853  11
  -8   5  -6 955.126 81.4612   6
  -3   8   6 792.975 79.4368   9
   3   5  -6 789.763 83.4523   9
   5   3  -6 848.021 87.9885   9
  -8   3  -6 755.082 82.1408   2
  -8   5  -6 823.455 80.3684   2
   5  -8  -6 736.898 91.3851  11
   3  -8  -6 686.042 84.2403  11
   8  -3   6 711.628 77.0538   4
  -3  -5   7 750.042 85.7453  11
  -5  -3   7 687.701 76.6845  11
   5  -8  -7 605.098 83.5242  11
   3  -8  -7 566.606 82.5084  11
  -3  -5   7 648.178 78.4381   6
  -5  -3   7 598.793 73.2458   6
   3   5  -7 614.191 76.1625   9
   5   3  -7 634.387 77.7046   9
  -8   3  -7 748.007 84.3166   2
  -8   5  -7 638.507 73.5555   2
   8  -3   7 641.489 74.6819   4
  -8   3  -8 295.747 60.4700   2
   5  -8  -8 397.698 76.6336  11
   3  -8  -8 222.552 61.8190  11
  -3  -5   8 316.219 60.4594  11
  -5  -3   8 264.960 56.4670  11
  -8   5  -8 207.071 46.9393   2
  -3  -5   8 259.233 53.3739   6
  -5  -3   8 342.251 58.8454   6
   3   5  -8 275.201 54.1992   9
   5   3  -8 257.362 60.4170   9
  -8   3  -9 129.252 51.4886   2
   5  -8  -9 136.632 58.7856  11
   3  -8  -9 83.8865 48.5299  11
  -3  -5   9 107.111 46.7145  11
  -5  -3   9 133.755 52.5670  11
  -8   5  -9 149.618 50.1844   2
  -3  -5   9 81.1477 38.8171   6
  -5  -3   9 184.863 52.2005   6
   3   5  -9 7.20650 36.8094   9
   5   3  -9 52.2127 33.5908   9
  -3  -5  10 869.150 96.6644  11
  -5  -3  10 797.110 90.1549  11
  -3  -5  10 1013.91 97.7252   6
  -5  -3  10 1000.93 98.1902   6
   3   5 -10 880.749 92.0938   9
   5   3 -10 928.953 96.2788   9
  -8   3 -10 1090.98 109.352   2
  -8   5 -10 969.496 97.3338   2
   5  -8 -10 986.294 113.142  11
   3  -8 -10 773.628 95.8091  11
   3  -8 -11-38.1871 54.3182  11
  -3  -5  11 65.4695 42.3370  11
  -5  -3  11 0.89957 43.2957  11
  -8   5 -11 40.9218 36.5770   2
  -3  -5  11 73.4215 40.6650   6
  -5  -3  11 48.6786 37.2055   6
   3   5 -11-18.2297 37.0478   9
   5   3 -11 16.3384 28.0343   9
   5  -8 -11 30.4057 55.0513  11
  -8   2  11 222.886 56.5286  11
   2   6  11 281.971 66.1561   3
  -8   2  11 228.799 47.6531   6
   2  -8  10 222.922 58.3788  11
  -8   2  10 258.032 56.1691  11
   6   2  10 254.436 64.0466   3
  -8   2  10 201.496 46.2108   6
  -6  -2 -10 226.252 57.7594   2
   8  -2 -10 300.026 62.4708   9
   8  -6 -10 330.938 67.4029   9
   6  -8  10 276.538 62.3965  12
   2  -8  10 353.952 72.5174  12
  -6   8 -10 159.549 43.8464   2
  -8   2   9 482.277 69.8320  11
   2  -8   9 447.714 78.6096  11
  -8   2   9 519.102 74.5430   6
  -8   6   9 408.055 60.0516   6
  -6  -2  -9 515.049 78.5791   2
   8  -2  -9 551.258 83.9893   9
   8  -6  -9 398.906 77.5736   9
   6  -8   9 390.423 67.2088  12
   2  -8   9 442.521 74.5545  12
  -6   8  -9 449.060 63.6577   2
  -6   8  -8-13.2157 27.8903   2
   2  -8   8 22.4753 42.2958  11
  -8   2   8 84.5697 35.0090   6
  -8   6   8-48.6897 27.6998   6
  -6  -2  -8-1.68298 41.3222   2
   8  -2  -8 29.8353 40.5351   9
   8  -6  -8 18.7528 41.6669   9
   6  -8   8 16.7537 38.2821  12
   2  -8   8-76.9781 37.4645  12
   2  -8   7 709.426 88.8726  11
  -6   8  -7 769.125 77.9017   2
  -8   2   7 762.017 84.2417   6
  -8   6   7 783.280 80.9914   6
   8  -2  -7 740.967 86.9627   9
   8  -6  -7 729.898 86.8002   9
  -6  -2  -7 772.722 89.1617   2
   6  -8   7 666.027 82.5798  12
   2  -8   7 693.021 83.8577  12
   2  -8   6 1959.83 135.372  11
  -6   8  -6 2119.12 122.024   2
  -8   2   6 2198.11 136.574   6
  -8   6   6 2242.81 134.126   6
   2   6   6 2217.88 126.085   9
  -2   8  -6 2125.58 125.166   9
  -2  -6  -6 2332.23 131.578   2
   8  -2  -6 2084.89 136.006   9
   8  -6  -6 1999.10 135.325   9
  -6  -2  -6 2481.41 149.053   2
   6  -8   6 2044.48 136.500  12
   2  -8   6 1942.99 134.810  12
   2  -8   5 512.169 74.1960  11
  -8   6   5 684.843 76.7883   6
  -2  -6  -5 478.232 65.0208   2
  -2   8  -5 497.686 65.0334   9
   2   6   5 528.349 63.4906   9
  -8   2   5 548.616 71.4545   6
  -6  -2  -5 546.811 74.3878   2
   8  -2  -5 492.613 71.2269   9
   8  -6  -5 530.526 75.9911   9
   6  -8   5 524.459 72.3158  12
   2  -8   5 490.307 72.1804  12
   6  -8   4 1319.95 99.3344  11
   2  -8   4 1365.96 111.080  11
  -8   2   4 1338.27 103.331   6
  -8   6   4 1498.63 108.717   6
  -2   8  -4 1466.22 105.197   9
   2   6   4 1474.82 103.558   9
  -2  -6  -4 1386.53 102.447   2
   8  -2  -4 1483.73 110.222   9
   8  -6  -4 1466.77 111.329   9
  -6  -2  -4 1466.93 111.979   2
   6  -8   4 1401.68 110.780  12
   2  -8   4 1250.24 107.451  12
   6  -8   3 40.2833 40.5661  11
   2  -8   3 48.8968 39.8172  11
   8  -2  -3 16.8362 34.9083   4
  -2  -6  -3 73.2453 36.8843   2
  -8   2   3-16.5209 27.1340   6
  -6  -2  -3 47.4982 41.0804   2
  -8   6   3 14.2783 25.2759   6
  -2   8  -3 20.7648 28.1318   9
   2   6   3 26.6486 33.8873   9
   8  -2  -3 105.618 43.1043   9
   8  -6  -3 8.17846 31.5817   9
   6  -8   3-18.1350 34.5307  12
   2  -8   3-11.4740 39.1472  12
   2  -8   2 1312.06 106.647  11
   8  -2  -2 1429.54 108.172   4
  -2  -6  -2 1390.57 94.9540   6
  -6  -2  -2 1456.30 96.7871   6
  -8   2   2 1365.70 102.247   6
  -8   6   2 1421.07 103.141   6
  -2   8  -2 1507.14 107.977   9
   2   6   2 1327.55 101.031   9
   6   2   2 1551.86 101.377   9
   8  -2  -2 1392.65 102.909   9
  -6  -2  -2 1463.59 109.792   2
   8  -6  -2 1378.51 102.414   9
   6  -8   2 1263.36 98.9296  11
   6  -8   1-27.2269 37.0806  11
   2  -8   1 7.99861 34.8737  11
  -2  -6  -1-3.54517 29.4780  11
   8  -2  -1 45.1781 40.3140   4
  -2  -6  -1 21.1168 25.3729   6
  -6  -2  -1 31.7296 24.7631   6
  -6  -2  -1-14.9621 37.3396   2
  -8   2   1 22.5845 25.1325   6
  -8   6   1-5.35907 31.0970   6
  -2   8  -1 44.0865 31.0207   9
   2   6   1 60.3144 34.7813   9
   6   2   1 73.9253 36.4935   9
   8  -2  -1 9.52868 29.4410   9
   8  -6  -1 19.9825 29.6125   9
   6  -8   0 24.4260 39.8735  11
   2  -8   0 116.579 48.7713  11
   8  -2   0 80.8008 45.5444   4
  -2  -6   0 19.6730 26.4503  11
  -2  -6   0 88.8150 34.2412   6
  -6  -2   0 55.8391 39.0179   2
  -6  -2   0 90.4034 31.0767   6
  -8   2   0 84.5344 38.1414   6
  -2   8   0 73.6864 32.9115   9
  -8   2   0 58.3477 36.1878   2
  -8   6   0 19.0525 32.0242   6
   2   6   0 41.4792 36.0669   9
   6   2   0 55.6760 33.5651   9
   8  -2   0 25.5260 28.5574   9
   8  -6   0 98.4347 37.1207   9
  -2  -6   1 614.810 69.0204  11
   8  -2   1 707.563 81.6096   4
  -2  -6   1 656.961 72.3925   6
   2  -8  -1 577.927 75.8670  11
  -6  -2   1 633.233 69.6705   6
  -8   2  -1 690.725 71.1155   6
  -2   8   1 557.633 68.7095   9
   2   6  -1 644.774 72.6444   9
   6   2  -1 604.698 69.8153   9
  -6  -2   1 731.343 80.6212   2
  -8   2  -1 737.192 76.5639   2
   6   2  -1 502.200 65.9940   4
   6  -8  -1 700.934 82.9399  11
   6   2  -2 377.959 57.5768   4
   6  -8  -2 363.941 63.5100  11
   8  -2   2 424.005 66.4201   4
   2  -8  -2 334.510 62.5079  11
  -2  -6   2 378.787 57.5633  11
  -6  -2   2 279.481 54.5359   2
  -2  -6   2 323.862 55.4676   6
  -6  -2   2 327.258 54.0451   6
  -8   2  -2 376.077 53.8996   6
  -2   8   2 306.544 53.6269   9
   2   6  -2 281.517 49.9826   9
   6   2  -2 324.786 55.0747   9
  -8   2  -2 302.519 53.4697   2
   8  -2   3 1374.96 105.280   4
  -2  -6   3 1236.95 98.2661  11
  -2  -6   3 1329.57 102.888   6
  -6  -2   3 1402.76 103.409   6
  -8   2  -3 1300.39 94.2757   6
  -2   8   3 1201.51 97.0932   9
   2   6  -3 1225.93 99.9882   9
  -6  -2   3 1361.08 104.301   2
   6   2  -3 1175.52 97.8103   9
  -8   2  -3 1269.12 98.9723   2
   6   2  -3 1234.39 95.1433   4
   6  -8  -3 1146.74 102.931  11
   2  -8  -3 1219.63 103.470  11
   6   2  -4 28.9558 32.5329   4
   6  -8  -4 19.1009 37.8083  11
   8  -2   4 44.9905 34.2435   4
   2  -8  -4 17.4460 40.7731  11
  -2  -6   4 3.81752 35.1337  11
  -2  -6   4 57.2560 37.6370   6
  -6  -2   4 30.6479 27.9942   6
  -8   2  -4 56.3654 28.8662   6
  -2   8   4 32.9597 32.6582   9
   2   6  -4 28.1247 30.2987   9
   6   2  -4-0.35945 33.8579   9
  -8   2  -4 50.2643 40.8627   2
  -2  -6   5 795.171 83.1007  11
  -2  -6   5 872.871 88.0818   6
  -6  -2   5 924.630 87.8185   6
  -2   8   5 726.334 79.6148   9
   2   6  -5 866.567 87.3539   9
   6   2  -5 798.297 84.6303   9
  -8   2  -5 872.434 89.8046   2
  -8   6  -5 905.761 81.3959   2
   6  -8  -5 808.372 94.3075  11
   8  -2   5 891.343 90.4841   4
   2  -8  -5 820.686 89.4989  11
  -2  -6   6 1955.06 128.942  11
  -2  -6   6 2178.05 136.698   6
  -6  -2   6 2137.78 132.990   6
  -2   8   6 2172.37 132.225   9
   2   6  -6 2147.91 134.102   9
   6   2  -6 2180.92 137.773   9
  -8   2  -6 2110.63 134.799   2
  -8   6  -6 2244.91 129.556   2
   6  -8  -6 2194.12 146.613  11
   8  -2   6 2106.75 131.584   4
   2  -8  -6 2021.40 135.625  11
   8  -2   7 260.379 55.4202   4
   6  -8  -7 289.924 66.9852  11
   2  -8  -7 281.596 63.1879  11
  -2  -6   7 274.536 57.2618  11
  -6  -2   7 242.547 47.4386  11
  -2  -6   7 284.575 55.9030   6
  -8   6  -7 271.330 55.0632   2
  -6  -2   7 261.300 49.4900   6
  -2   8   7 253.161 51.4952   9
   2   6  -7 327.743 59.5694   9
   6   2  -7 273.062 55.7353   9
  -8   2  -7 306.236 66.2563   2
  -2  -6   8 657.603 81.7428  11
  -6  -2   8 568.756 72.3794  11
  -2  -6   8 760.055 87.4225   6
   2  -8  -8 548.910 79.4610  11
  -6  -2   8 583.193 76.4064   6
   2   6  -8 745.172 84.8068   9
  -2   8   8 551.830 69.3728   9
   6   2  -8 611.068 79.0935   9
  -8   2  -8 667.330 85.5198   2
  -8   6  -8 859.593 88.2417   2
   6  -8  -8 607.762 92.3108  11
   2  -8  -9 33.7085 48.2425  11
  -2  -6   9 145.469 57.6543  11
  -6  -2   9 42.5944 32.6756  11
  -2  -6   9 70.2612 41.8178   6
  -8   6  -9 67.7957 36.3491   2
  -6  -2   9 38.4055 23.4926   6
   2   6  -9 115.782 44.2931   9
   6   2  -9 65.3954 38.7790   9
  -8   2  -9-17.8700 37.1711   2
  -2  -6  10 733.970 87.4274   6
   2  -8 -10 662.442 88.5163  11
  -6  -2  10 627.414 78.9748   6
  -2  -6  10 685.287 91.6626  11
  -6  -2  10 588.548 80.2761  11
   2   6 -10 769.523 87.7360   9
   6   2 -10 744.449 90.3676   9
   6  -8 -10 756.429 94.4455   9
  -8   6 -10 719.106 88.4533   2
  -8   2 -10 646.539 88.8985   2
   2  -8 -11-12.8840 44.0925  11
  -6  -2  11 76.1288 38.8784  11
  -8   1  10 105.415 45.8762  11
  -7   8 -10 27.8829 36.6289   2
   7  -8  10 108.009 51.0329  12
   1  -8  10 92.7246 46.4412  12
   1  -8   9-24.6834 44.4267  11
   7   1   9 116.119 53.2138   3
  -8   1   9-40.1655 33.9370   6
  -7  -1  -9 42.2473 45.3375   2
   8  -1  -9-9.38570 37.5556   9
  -7   8  -9 123.236 47.0649   2
   8  -7  -9 59.8096 39.0700   9
   7  -8   9 101.197 43.8113  12
   1  -8   9 65.7747 43.1856  12
   1  -8   8 1284.59 119.886  11
   8  -1  -8 989.229 94.8767   4
  -7   8  -8 1238.36 104.317   2
  -8   1   8 1128.37 102.389   6
  -8   7   8 1155.14 100.375   6
   8  -1  -8 1059.66 107.340   9
   8  -7  -8 1261.84 117.322   9
  -7  -1  -8 1054.90 105.796   2
   7  -8   8 1045.50 102.856  12
   1  -8   8 1119.46 106.837  12
   8  -1  -7 6.12464 34.9766   4
   1  -8   7-3.59463 38.0952  11
  -8   1   7-66.7260 35.3141   6
  -8   7   7 121.019 42.2841   6
   1   7   7 31.7188 30.3979   9
  -1   8  -7 10.8653 27.3919   9
  -7  -1  -7-28.8517 48.1043   2
   8  -1  -7-56.8082 46.6398   9
  -7   8  -7-14.0480 25.4379   2
   8  -7  -7-0.43252 42.4201   9
   7  -8   7-24.8226 39.7521  12
   1  -8   7 23.3172 43.0718  12
   8  -1  -6 23.4247 37.4041   4
   1  -8   6 18.2518 44.1810  11
  -8   1   6-67.1523 38.2893   6
  -8   7   6-9.63087 27.7103   6
   1   7   6 24.7498 29.5230   9
  -1   8  -6-1.11874 26.3623   9
  -7  -1  -6 39.0938 40.2293   2
   8  -1  -6-7.83164 38.2560   9
   8  -7  -6-22.8943 42.0121   9
   7  -8   6 18.4144 37.0248  12
   1  -8   6-3.28693 37.8199  12
   8  -1  -5 26.1215 37.6651   4
   1  -8   5-5.89367 44.0835  11
  -8   1   5 88.0909 43.1404   6
  -8   7   5-31.5401 26.9383   6
  -7  -1  -5-18.1143 36.8624   2
   1   7   5 49.0076 29.9310   9
  -1   8  -5 14.8138 22.8906   9
   8  -1  -5 1.18449 38.2340   9
   8  -7  -5 18.0245 41.0834   9
   7  -8   5 60.5556 41.5015  12
   1  -8   5 44.3189 36.5275  12
   1  -8   4 3328.48 172.419  11
   8  -1  -4 3508.29 170.615   4
  -8   1   4 3727.68 176.505   6
  -8   7   4 3595.46 168.503   6
   1   7   4 3345.09 163.568   9
  -1   8  -4 3593.43 170.227   9
   8  -1  -4 3531.89 171.322   9
   8  -7  -4 3553.12 176.457   9
  -7  -1  -4 3946.68 186.247   2
   7  -8   4 3459.03 169.776  12
   1  -8   4 3435.72 172.073  12
   8  -7  -3 97.1380 46.2380  11
   8  -1  -3 70.1130 45.0583   4
  -1  -7  -3-46.9443 41.7319  11
   1  -8   3 9.95553 38.0250  11
  -8   1   3 23.0983 28.4640   6
  -7  -1  -3-27.7155 39.9931   2
  -8   7   3-24.2029 36.5887   6
   1   7   3-43.4096 41.8260   9
  -1   8  -3 3.29807 32.6083   9
   8  -1  -3-30.4361 38.0260   9
   8  -7  -3-31.4172 39.8956   9
   7  -8   3-15.3711 35.4824  12
   1  -8   3-0.76577 31.1716  12
  -1  -7  -2 970.246 88.5926  11
   1  -8   2 1006.82 98.9092  11
   8  -1  -2 1123.17 100.849   4
  -7  -1  -2 922.148 79.8988   6
  -8   1   2 880.498 85.7841   6
  -1   8  -2 995.252 92.1884   9
   1   7   2 1022.92 90.4203   9
   8  -1  -2 974.596 88.3433   9
  -8   1   2 1061.00 87.6624   2
  -7  -1  -2 1058.32 98.8654   2
   8  -7  -2 1034.41 94.8778   9
   7  -8   2 1085.72 95.8469  12
   1  -8   2 1050.40 96.5459  12
   7   1   2 1078.10 95.7622   4
   7   1   1 11.2228 37.2108   4
   7  -8   1-16.3975 31.2582  11
   8  -1  -1 31.4051 42.3063   4
   1  -8   1 32.3169 42.6222  11
  -1  -7  -1 55.2223 40.0413  11
  -7  -1  -1-20.0076 19.5657   6
  -8   1   1-13.2174 24.9572   6
  -7  -1  -1-31.1891 40.7252   2
  -8   1   1-56.2181 37.7337   2
  -1   8  -1 1.45074 32.8343   9
   1   7   1 33.3677 30.5407   9
   7   1   1-11.2818 26.1357   9
   8  -1  -1-9.29610 33.2188   9
   8  -7  -1-34.8998 40.7792   9
  -1  -7   0 687.946 77.4255  11
   8  -1   0 601.004 75.8107   4
   1  -8   0 524.359 71.4900  11
  -7  -1   0 817.253 79.3582   6
  -8   1   0 767.671 78.0815   6
  -1   8   0 691.633 79.5746   9
   1   7   0 782.733 82.7464   9
   7   1   0 592.125 70.4232   9
   8  -1   0 629.408 71.5906   9
  -7  -1   0 640.344 77.8128   2
   8  -7   0 570.037 70.6252   9
  -8   1   0 714.414 77.2702   2
   7   1   0 628.985 77.3249   4
   7  -8   0 714.249 80.4077  11
   7   1  -1 9.50623 37.5024   4
  -1  -7   1 42.5396 37.1688   6
   8  -1   1-15.0502 36.3067   4
   7  -8  -1 16.7707 36.9715  11
   1  -8  -1-1.85006 32.3253  11
  -1  -7   1-34.3948 41.1269  11
  -7  -1   1 20.2695 40.1944   2
  -7  -1   1-7.53976 28.1600   6
  -8   1  -1-10.9252 27.2298   6
  -8   1  -1 61.1897 43.8630   2
  -1   8   1 68.9431 42.0761   9
   1   7  -1 81.4373 41.5731   9
   7   1  -1-3.39144 35.6178   9
   1  -8  -2 1001.97 94.5173  11
  -1  -7   2 937.735 89.3871  11
  -1  -7   2 1173.69 100.681   6
  -7  -1   2 1107.74 94.5530   6
  -8   1  -2 981.487 84.7009   6
  -1   8   2 1277.69 104.791   9
   1   7  -2 1396.33 109.356   9
   7   1  -2 1150.48 99.7139   9
  -7  -1   2 1222.37 99.7773   2
  -8   1  -2 1202.64 101.550   2
   7  -8  -2 1037.23 97.6340  11
   7   1  -2 1200.42 99.3935   4
   8  -1   2 1139.68 99.8233   4
   8  -1   3 12.2385 41.7365   4
   7   1  -3-9.38334 33.0525   4
   7  -8  -3-23.3883 44.4680  11
   1  -8  -3 64.6531 41.0067  11
  -1  -7   3-23.3821 36.1478  11
  -7  -1   3-10.7572 35.5296   2
  -1  -7   3 63.9248 37.7947   6
  -7  -1   3 51.1297 31.0996   6
  -8   1  -3 7.58050 19.4857   6
  -1   8   3 1.46570 29.3136   9
   1   7  -3 48.7890 27.2164   9
  -8   1  -3-32.7810 40.7831   2
   7   1  -3 28.1227 35.2776   9
  -1  -7   4 2606.58 149.991  11
  -1  -7   4 2851.58 156.990   6
  -7  -1   4 2735.93 149.655   6
  -1   8   4 2612.70 146.430   9
   1   7  -4 2807.47 153.062   9
  -7  -1   4 2727.10 145.971   2
   7   1  -4 2685.11 151.354   9
  -8   1  -4 2744.06 152.013   2
   7  -8  -4 2621.99 154.075  11
   8  -1   4 2701.79 151.152   4
   7   1  -4 2616.87 141.558   4
   1  -8  -4 2638.07 148.765  11
   8  -1   5 4.20103 32.5684   4
   7  -8  -5 51.1595 44.3624  11
   7   1  -5 51.3494 35.9799   4
   1  -8  -5-23.4876 38.2201  11
  -1  -7   5 36.5550 44.0454  11
  -1  -7   5 33.5397 39.1910   6
  -7  -1   5 40.8921 34.9942   6
  -1   8   5-37.4086 30.8608   9
   1   7  -5 24.2074 38.3655   9
  -8   1  -5-30.8820 41.1717   2
   7   1  -5 14.5389 35.0088   9
   7  -8  -6 212.903 63.9460  11
   1  -8  -6 113.377 43.5188  11
  -1  -7   6 128.454 55.6587  11
  -1  -7   6 197.878 52.3962   6
  -7  -1   6 140.466 46.4853   6
  -1   8   6 121.864 40.7867   9
   1   7  -6 131.701 44.9234   9
   7   1  -6 183.680 57.4151   9
  -8   1  -6 181.319 58.6493   2
   7  -8  -6 226.471 60.0980   9
   8  -1   6 105.973 39.0755   4
   1  -8  -7-33.6138 41.7502  11
  -1  -7   7 22.8004 45.1097  11
  -1  -7   7 44.7409 36.3574   6
  -8   7  -7 26.2871 27.2715   2
  -7  -1   7 120.905 42.3630   6
  -1   8   7 17.7590 33.7789   9
   1   7  -7-72.1231 37.7262   9
   7   1  -7 14.4431 31.2199   9
  -8   1  -7 11.8274 35.3161   2
   7  -8  -7 40.6532 53.0514   9
   7  -8  -7 28.0498 50.8787  11
  -8   7  -8 1557.19 118.321   2
  -1  -7   8 1712.24 132.451  11
  -1  -7   8 1688.93 130.301   6
  -7  -1   8 1713.91 127.994   6
   8  -1   8 1350.01 110.270   3
  -1   8   8 1819.86 126.895   9
   1   7  -8 1514.42 114.062   9
   7   1  -8 1654.70 129.734   9
   7  -8  -8 1729.06 137.671   9
  -8   1  -8 1782.24 135.844   2
   1  -8  -8 1361.44 114.909  11
  -1  -7   9 22.0538 40.0405  11
  -7  -1   9 73.0291 43.6398  11
  -1  -7   9 143.384 52.3347   6
   8  -1   9-17.0454 34.7001   3
  -7  -1   9 8.75265 31.1021   6
  -8   7  -9-16.4413 34.2919   2
  -1   8   9-38.4312 30.4737   9
   1   7  -9-98.0178 39.5951   9
   7   1  -9 107.375 43.3389   9
  -8   1  -9 68.1773 52.8708   2
   7  -8  -9 4.19253 30.0922   9
  -7  -1  10 95.7465 54.8785  11
   8  -1  10 30.4475 35.6883   3
  -8   7 -10 21.5001 28.0203   2
   8   0   0 60.5535 44.1533   4
   0  -8   0 74.6384 43.8131  11
  -8   0   0 53.9449 30.0810   6
  -8   0   0 60.4862 39.0432   2
   0   8   0 36.2704 31.8143   9
   8   0   0 15.5918 30.4927   9
   8  -8   0 139.770 48.6080   9
   0  -8  -1 550.301 75.4149  11
   8   0   1 555.380 76.9317   4
   8   0  -1 420.177 68.7928   4
   0  -8   1 514.963 74.0317  11
  -8   0   1 562.311 71.0781   6
  -8   0  -1 556.487 67.4097   6
  -8   0   1 529.312 72.0032   2
   8   0  -1 534.204 69.4623   9
  -8   0  -1 516.240 71.5153   2
   8  -8  -1 597.654 77.4111   9
   0   8   1 526.380 72.4832   9
   0   8  -1 395.317 63.6390   9
   8   0  -2 899.960 92.4578   4
   0  -8  -2 951.137 94.0493  11
   0  -8   2 908.142 95.4236  11
  -8   0   2 944.065 91.1292   6
  -8   0  -2 882.925 81.9701   6
   0   8   2 917.298 91.6168   9
   0   8  -2 935.175 93.0349   9
   8   0  -2 969.103 93.7759   9
  -8   0   2 1092.14 96.8576   2
  -8   0  -2 983.529 97.9875   2
   8  -8  -2 1039.34 102.646   9
   8   0   2 990.443 99.3554   4
   8  -8  -2 842.884 91.2232  11
   8   0   3 299.135 61.6271   4
   8  -8  -3 284.151 63.6143  11
   8   0  -3 177.957 48.8650   4
   0  -8  -3 236.099 54.8683  11
   0  -8   3 181.834 53.2328  11
  -8   0   3 291.105 57.4956   2
  -8   0   3 344.381 60.0509   6
  -8   0  -3 348.546 67.9125   2
   0   8   3 303.414 62.2128   9
   0   8  -3 369.273 65.1656   9
   8   0  -3 270.675 58.9581   9
   8  -8  -3 377.770 68.6861   9
   8  -8  -4 133.677 48.3943  11
   8   0  -4 34.5976 38.9300   4
   0  -8  -4 126.316 47.2613  11
   0  -8   4 76.7534 40.9850  11
  -8   0   4 87.8715 35.6106   6
  -8   0  -4 116.100 50.5848   2
   0   8   4 181.142 50.3929   9
   0   8  -4 161.504 47.0620   9
   8   0  -4 144.325 49.1722   9
   8  -8  -4 126.028 46.4887   9
   8  -8  -5 307.588 69.4365  11
   8   0  -5 229.709 55.7762   4
   0  -8  -5 313.706 59.6912  11
   0  -8   5 274.000 65.6158  11
  -8   0   5 247.952 52.7860   6
   0   8   5 269.362 54.5723   9
  -8   8   5 256.779 51.2396   6
   0   8  -5 319.041 57.3309   9
  -8   0  -5 321.974 63.0153   2
   8   0  -5 259.756 55.1261   9
   8  -8  -5 288.280 63.2640   9
   8   0  -6 887.844 93.9031   4
   0  -8   6 995.208 106.738  11
  -8   0   6 921.377 96.6040   6
  -8   8   6 943.240 91.8997   6
   0   8   6 829.984 87.1581   9
   0   8  -6 1041.12 96.6886   9
   8   0  -6 928.334 101.914   9
   8  -8  -6 816.040 96.1992   9
  -8   0  -6 882.278 98.0075   2
   8  -8  -6 917.999 104.178  11
   0  -8   7 257.384 63.9212  11
  -8   0   7 231.776 53.5216   6
  -8   8   7 136.108 40.2107   6
   0   8   7 65.6316 34.6099   9
   0   8  -7 315.083 61.6074   9
  -8   0  -7 78.9191 46.9098   2
   8   0  -7 163.132 50.5436   9
   8  -8  -7 75.3905 49.8820   9
  -8   8  -8 116.277 42.5408   2
   0   8   8 116.311 41.7248   9
   0   8  -8 182.535 47.5094   9
   8   0   9 96.1322 49.7211   3
  -8   8  -9 47.1892 31.4806   2
   4  -9   9 193.862 62.5538  11
  -5   9  -9 82.4675 31.8645   2
  -4  -5  -9 51.7213 39.8465   2
  -9   4   9 16.1088 34.7679   6
  -9   5   9 177.484 44.3822   6
  -5  -4  -9 117.238 51.7435   2
   5  -9   8-40.0657 44.9393  11
   4  -9   8-11.1399 47.2611  11
  -5   9  -8-72.4653 36.2058   2
  -4  -5  -8-23.9391 37.3289   2
  -9   4   8-6.38191 22.7876   6
  -5  -4  -8-24.1756 39.8079   2
  -9   5   8 72.1719 34.8402   6
   9  -4  -8 50.8727 43.7935   9
   9  -5  -8 62.4261 47.0353   9
   5  -9   8 1.99045 38.9487  12
   4  -9   8-19.0476 42.3581  12
   5  -9   7 6.00596 41.5768  11
   4  -9   7-22.5477 44.0347  11
  -4  -5  -7-12.0914 34.4812   2
  -5  -4  -7 41.8451 46.0996   2
  -9   4   7-4.56502 27.9989   6
  -9   5   7 86.2282 38.9453   6
   9  -4  -7 89.1170 53.4812   9
   9  -5  -7 29.8305 38.0427   9
   5  -9   7-12.0502 34.0523  12
   4  -9   7 6.79237 39.3843  12
   5  -9   6 210.962 57.5497  11
   4  -9   6 252.175 59.5117  11
  -4  -5  -6 216.755 57.3509   2
  -5  -4  -6 215.021 53.4218   2
  -9   4   6 256.284 57.0683   6
  -9   5   6 226.259 53.7274   6
   9  -4  -6 293.231 66.5191   9
   9  -5  -6 173.757 58.2508   9
   5  -9   6 227.014 61.2755  12
   4  -9   6 326.609 67.9791  12
   5  -9   5 206.000 55.9268  11
   4  -9   5 280.385 66.9098  11
  -4  -5  -5 214.491 56.8511   2
  -5  -4  -5 97.3169 43.8110   2
  -9   4   5 282.079 59.1678   6
  -9   5   5 145.703 44.3364   6
   9  -4  -5 194.341 57.4381   9
   9  -5  -5 171.293 50.3539   9
   5  -9   5 183.693 54.8947  12
   4  -9   5 216.509 62.6467  12
   5  -9   4 172.331 47.7815  11
   4  -9   4 214.854 57.5477  11
  -4  -5  -4 200.398 52.8842   2
  -5  -4  -4 234.214 54.9021   2
  -9   4   4 194.257 50.1186   6
  -9   5   4 110.661 40.0942   6
  -4   9  -4 105.364 34.1623   9
   4   5   4 220.148 45.6919   9
   9  -4  -4 273.576 62.0329   9
   9  -5  -4 228.254 55.1297   9
   5  -9   4 173.089 49.9045  12
   4  -9   4 103.343 42.6156  12
   5  -9   3 318.393 60.4560  11
   4  -9   3 293.681 61.7748  11
  -4  -5  -3 422.354 65.6054   2
  -5  -4  -3 385.314 71.1995   2
  -9   4   3 358.490 61.2967   6
  -9   5   3 325.857 55.6244   6
  -5   9  -3 357.245 53.9645   9
  -4   9  -3 306.261 53.4098   9
   4   5   3 269.806 49.1803   9
   5   4   3 330.135 52.0043   9
   9  -4  -3 320.553 61.6582   9
   9  -5  -3 284.636 58.0428   9
   5  -9   3 242.799 54.5407  12
   4  -9   3 207.931 52.6482  12
   5  -9   2 2210.57 141.095  11
   4  -9   2 2122.59 139.920  11
  -9   4   2 2316.39 139.073   6
  -9   5   2 2139.18 133.155   6
  -5   9  -2 2040.27 123.724   9
  -4   9  -2 2214.77 131.148   9
   4   5   2 2132.02 129.666   9
   5   4   2 2289.55 132.762   9
  -4  -5  -2 2150.76 139.292   2
  -5  -4  -2 2429.02 146.651   2
   9  -4  -2 2184.28 132.325   9
   9  -5  -2 2037.95 127.773   9
   5  -9   1 549.349 78.3743  11
  -5  -4  -1 560.403 65.3400   6
   4  -9   1 488.987 74.6782  11
  -4  -5  -1 326.867 59.4868   2
  -5  -4  -1 443.103 71.6827   2
  -4  -5  -1 391.466 55.0222   6
  -9   4   1 451.937 66.4123   6
  -9   5   1 374.282 62.5555   6
  -5   9  -1 358.146 54.6349   9
  -4   9  -1 457.645 65.8767   9
   4   5   1 360.769 56.8884   9
   5   4   1 488.740 69.2682   9
   9  -4  -1 406.487 64.6113   9
   9  -5  -1 420.985 63.5092   9
   5  -9   0 88.3019 45.4724  11
   4  -9   0 134.355 49.4051  11
  -5  -4   0 110.765 45.6667   2
  -5   9   0 68.7701 29.4660   9
  -4  -5   0 153.046 38.3997   6
  -5  -4   0 153.528 41.5829   6
  -9   4   0 97.6064 33.7025   6
  -9   5   0 181.577 46.4231   6
  -4   9   0 170.295 47.4089   9
   4   5   0 242.010 52.2185   9
   5   4   0 88.3574 40.1158   9
   9  -4   1 1115.77 101.968   4
  -4  -5   1 861.115 83.4871   6
  -5  -4   1 968.199 88.0222   6
  -9   4  -1 951.586 87.5434   6
  -9   5  -1 1071.68 93.7856   6
  -4   9   1 1100.92 98.9605   9
   4   5  -1 1128.56 101.354   9
  -5  -4   1 945.678 96.4947   2
   5   4  -1 897.933 88.4450   9
   5  -9  -1 875.719 92.4551  11
   4  -9  -1 945.287 95.7157  11
   9  -4   2 1373.25 111.751   4
  -4  -5   2 1285.09 102.157   6
  -5  -4   2 1507.07 110.382   6
  -9   4  -2 1441.38 106.409   6
  -9   5  -2 1502.93 110.165   6
  -4   9   2 1520.43 112.738   9
   4   5  -2 1459.00 114.373   9
   5   4  -2 1567.78 117.624   9
   5  -9  -2 1442.61 117.126  11
   4  -9  -2 1420.98 117.803  11
   9  -4   3 556.466 78.4349   4
   5  -9  -3 514.768 78.5976  11
   4  -9  -3 476.031 73.7131  11
  -4  -5   3 489.023 65.9350   6
  -5  -4   3 523.971 70.6371   6
   9  -5   3 506.122 71.5433   4
  -9   4  -3 476.208 63.4422   6
  -9   5  -3 551.230 69.2132   6
  -4   9   3 496.668 67.5800   9
   4   5  -3 425.358 67.8783   9
   5   4  -3 464.524 68.6178   9
   5  -9  -4 227.543 68.3051  11
   4  -9  -4 97.2999 53.6326  11
   9  -4   4 150.736 50.9847   4
   9  -5   4 89.2146 44.1249   4
  -4  -5   4 189.366 49.0855  11
  -4   9   4 152.525 42.8216   9
  -4  -5   4 63.1517 33.9569   6
  -5  -4   4 179.193 46.6417   6
  -9   4  -4 109.599 31.3075   6
  -9   5  -4 193.951 48.0396   6
   4   5  -4 103.957 42.8730   9
   5   4  -4 118.605 45.9985   9
  -9   4  -4 147.758 45.2560   2
  -9   5  -5 44.1013 38.8247   2
   5  -9  -5 21.3870 44.7667  11
   4  -9  -5 30.7973 43.1302  11
   9  -4   5 41.0321 41.3732   4
   9  -5   5 42.6741 45.1988   4
  -4  -5   5 73.7016 42.9869  11
  -4  -5   5-10.5458 36.3150   6
  -5  -4   5 64.2717 36.9271   6
  -9   5  -5 69.4884 33.5477   6
   4   5  -5-19.0671 38.6736   9
   5   4  -5 96.2503 44.7764   9
  -9   4  -5-4.08846 41.5378   2
  -9   4  -6 376.000 63.2263   2
  -9   5  -6 334.444 60.1089   2
   9  -4   6 303.924 55.1571   4
   5  -9  -6 336.117 71.2354  11
   4  -9  -6 380.471 75.2176  11
  -4  -5   6 452.824 69.2636  11
  -5  -4   6 326.452 56.1268  11
  -4  -5   6 348.829 61.4894   6
  -5  -4   6 328.836 60.7093   6
   4   5  -6 337.922 64.6353   9
   5   4  -6 357.787 69.3770   9
  -9   4  -7-29.3890 43.2045   2
   5  -9  -7-37.1757 48.9048  11
  -9   5  -7 59.1435 42.9770   2
   4  -9  -7 34.2020 46.7549  11
  -4  -5   7 2.44866 37.4588  11
  -5  -4   7 1.19049 32.8205  11
  -4  -5   7-15.4557 39.4009   6
  -5  -4   7 39.5438 31.2636   6
   4   5  -7-12.2098 28.3833   9
   5   4  -7 31.4756 42.9823   9
  -9   4  -8-9.63272 41.2778   2
   5  -9  -8-22.2579 50.4121  11
   4  -9  -8 60.5311 45.6473  11
  -9   5  -8-50.1976 43.0841   2
  -4  -5   8 2.58182 38.4307  11
  -5  -4   8 46.5729 41.0605  11
  -4  -5   8-57.4072 32.9963   6
  -5  -4   8-75.5957 37.0282   6
   4   5  -8-36.7125 36.8380   9
   5   4  -8 89.5595 45.5134   9
  -4  -5   9 81.6326 44.7012  11
  -5  -4   9 106.991 43.7649  11
  -6   9  -9-73.0193 32.9437   2
  -9   6   9 14.4710 25.8008   6
   3  -9   8 1378.06 125.455  11
  -6   9  -8 1034.90 96.3225   2
  -9   3   8 1157.04 108.095   6
  -9   6   8 1025.59 99.0340   6
   9  -3  -8 1001.07 105.914   9
   9  -6  -8 843.245 100.026   9
  -6  -3  -8 1128.90 112.782   2
   6  -9   8 1057.45 110.428  12
   3  -9   8 1007.37 108.663  12
  -6   9  -7 38.4709 34.6247   2
   3  -9   7-30.8209 50.3731  11
  -3  -6  -7 57.3198 38.0327   2
  -9   3   7-22.3745 32.1190   6
  -9   6   7-39.8554 28.1073   6
  -6  -3  -7-3.63645 39.0105   2
   9  -3  -7-110.080 49.9059   9
   9  -6  -7-22.8351 42.8578   9
   6  -9   7 11.4990 32.7270  12
   3  -9   7 32.2173 32.6319  12
   3  -9   6-44.3931 45.7291  11
  -3  -6  -6 8.71176 35.6249   2
  -9   3   6-82.1145 38.2785   6
  -6  -3  -6 43.7797 41.7033   2
  -9   6   6-79.9523 36.3662   6
   9  -3  -6-57.7736 44.9965   9
   9  -6  -6-4.80605 42.5763   9
   6  -9   6 50.7543 38.3163  12
   3  -9   6 44.9540 47.0752  12
   6  -9   5 9.78092 34.5768  11
   3  -9   5 51.3165 49.1339  11
  -3  -6  -5-17.2867 39.0982   2
  -6  -3  -5 24.6280 39.9482   2
  -9   3   5-1.63409 37.1830   6
  -9   6   5 52.4952 37.3464   6
  -3   9  -5 22.4296 21.8565   9
   3   6   5 20.9365 27.5734   9
   9  -3  -5-12.8520 34.7573   9
   9  -6  -5 19.6349 38.2521   9
   6  -9   5 145.296 54.2647  12
   3  -9   5 86.8935 48.5651  12
   6  -9   4 1719.15 123.114  11
   3  -9   4 2068.32 144.288  11
  -9   3   4 2129.30 136.855   6
  -9   6   4 2199.26 137.537   6
  -3   9  -4 2101.61 131.677   9
   3   6   4 2084.75 130.084   9
  -3  -6  -4 2033.60 134.078   2
   9  -3  -4 1820.41 128.734   9
  -6  -3  -4 1958.23 136.950   2
   9  -6  -4 1855.00 131.263   9
   6  -9   4 1837.27 136.540  12
   3  -9   4 1856.06 136.676  12
   6  -9   3 46.4098 43.6898  11
   3  -9   3-36.3429 44.7600  11
  -6  -3  -3-14.4661 41.0985   2
  -3  -6  -3 1.17354 35.6339   2
  -9   3   3 20.6215 30.2301   6
  -9   6   3 3.09328 31.1467   6
  -3   9  -3-0.74572 30.8756   9
   3   6   3 18.8274 22.2704   9
   9  -3  -3-0.37619 33.1951   9
   9  -6  -3 2.65664 30.9444   9
   6  -9   3-43.5648 45.0247  12
   3  -9   3-5.73109 39.1583  12
   6  -9   2 18.9584 38.8682  11
   3  -9   2-22.6273 46.0133  11
   9  -3  -2-6.72356 40.3300   4
  -6  -3  -2 50.2762 44.2635   2
  -9   3   2 27.0091 31.6166   6
  -9   6   2 82.5790 45.3319   6
  -3   9  -2-7.87912 30.3670   9
   3   6   2 30.5769 34.6436   9
   6   3   2 24.4230 28.2823   9
   9  -3  -2 17.2169 31.9530   9
   9  -6  -2 12.9698 29.0733   9
   6  -9   1 3.44821 33.6399  11
   3  -9   1 11.1687 43.6694  11
   9  -3  -1-22.0745 44.7213   4
  -3  -6  -1 24.7482 21.6812   6
  -6  -3  -1 47.1484 45.4415   2
  -6  -3  -1-34.7773 24.8967   6
  -9   3   1 12.3108 30.0042   6
  -9   6   1 46.2745 34.4169   6
  -3   9  -1-19.2834 36.0072   9
   3   6   1 73.6393 33.6393   9
   6   3   1-14.8333 35.3235   9
   9  -3  -1 1.70984 28.1832   9
   9  -6  -1 13.2973 32.9026   9
   3  -9   0 1952.79 135.192  11
   9  -3   0 2212.80 142.852   4
  -3  -6   0 1984.00 124.939   6
  -6  -3   0 2029.39 125.135   6
  -9   3   0 1993.30 128.008   6
  -9   6   0 2143.91 134.183   6
  -3   9   0 1968.82 130.018   9
   3   6   0 2002.07 130.330   9
   6   3   0 2105.99 131.317   9
  -6  -3   0 2284.35 144.238   2
   6  -9   0 1913.62 130.727  11
   6  -9  -1 88.3284 47.9919  11
   3  -9  -1 61.2694 42.0587  11
   9  -3   1 41.0444 49.4077   4
  -6  -3   1-8.71078 42.8581   2
  -3  -6   1 66.5029 37.2303   6
  -6  -3   1-19.6104 30.4737   6
  -9   3  -1 23.0934 29.4238   6
  -9   6  -1 34.2337 30.6517   6
  -3   9   1 29.9896 38.9627   9
   3   6  -1-30.7653 23.4365   9
   6   3  -1 72.7264 43.5661   9
   6  -9  -2 45.0114 45.2252  11
   3  -9  -2 29.8313 42.2351  11
   9  -3   2 64.7596 48.0054   4
  -3  -6   2 1.39178 32.3827  11
  -6  -3   2 25.8064 42.2257   2
  -3  -6   2 43.9209 31.7636   6
  -6  -3   2 38.2460 26.5468   6
  -9   3  -2 49.0964 30.0001   6
  -3   9   2 28.6824 34.9980   9
  -9   6  -2 16.5312 31.7514   6
   3   6  -2-14.6626 29.7715   9
   6   3  -2 65.2454 42.2134   9
  -9   3  -2-18.1015 38.6982   2
   6  -9  -3 63.8714 48.4027  11
   9  -3   3-2.37351 41.3957   4
   3  -9  -3-15.1367 44.1403  11
  -3  -6   3 19.9292 33.3135  11
  -3  -6   3 41.5157 34.4202   6
  -6  -3   3 40.5775 33.1526   6
  -9   3  -3 69.8860 34.2551   6
  -3   9   3 43.5848 37.9269   9
  -9   6  -3-21.8224 29.0532   6
   3   6  -3 19.7889 25.0768   9
   6   3  -3 25.2766 37.9559   9
  -9   3  -3 76.3840 43.1838   2
   9  -3   4 1446.42 117.017   4
  -3  -6   4 1295.50 105.948  11
  -3  -6   4 1517.80 117.750   6
  -6  -3   4 1579.75 118.563   6
  -9   3  -4 1604.90 111.226   6
  -9   6  -4 1342.26 107.453   6
  -3   9   4 1613.24 122.718   9
   3   6  -4 1466.21 117.504   9
   6   3  -4 1560.83 122.162   9
  -9   3  -4 1416.45 112.997   2
   6  -9  -4 1526.15 127.505  11
   3  -9  -4 1288.45 114.185  11
   9  -3   5-42.0917 45.8911   4
   6  -9  -5 24.0072 43.7281  11
   3  -9  -5-0.43782 43.3228  11
  -3  -6   5-5.12042 35.4678  11
  -3  -6   5 51.1442 36.9207   6
  -6  -3   5-50.3202 32.6097   6
  -3   9   5-26.3058 28.9390   9
  -9   6  -5-63.0119 29.1145   6
   3   6  -5 23.9739 36.2482   9
   6   3  -5 57.7969 44.4284   9
  -9   3  -5 32.2020 41.8570   2
   9  -3   6 78.1509 50.0631   4
   6  -9  -6-18.3103 52.1689  11
   3  -9  -6 14.8205 52.3259  11
  -9   6  -6-15.0163 26.6277   2
  -3  -6   6 38.2753 37.6924  11
  -3  -6   6 90.5969 42.0075   6
  -6  -3   6 38.6510 41.9471   6
  -3   9   6 11.9699 22.2961   9
  -9   6  -6-90.2939 33.9271   6
   3   6  -6 9.89016 32.4503   9
   6   3  -6 46.6214 41.8857   9
  -9   3  -6 15.1964 32.6526   2
   9  -3   7 100.321 46.0461   4
   6  -9  -7-33.6534 52.9251  11
   3  -9  -7 53.0481 54.9406  11
  -3  -6   7 98.0286 50.5074  11
  -9   6  -7 52.5665 36.7647   2
  -3  -6   7 149.220 48.7305   6
  -6  -3   7 31.7725 30.7400   6
   3   6  -7 94.6878 45.4929   9
   6   3  -7 70.5618 39.3567   9
  -9   3  -7 78.8854 50.6380   2
  -3  -6   8 1212.12 114.534  11
  -6  -3   8 1218.24 106.880  11
  -3  -6   8 1298.14 114.835   6
  -6  -3   8 1356.16 116.009   6
   3   6  -8 1152.66 108.457   9
   6   3  -8 1350.48 117.835   9
  -9   3  -8 1361.19 119.460   2
  -9   6  -8 1173.14 106.187   2
   6  -9  -8 1270.41 125.949  11
   3  -9  -8 1263.33 123.695  11
  -9   6  -9-51.7973 35.2520   2
   3   6  -9 33.2318 37.3371   9
   9  -2  -8-34.5450 39.1264   4
  -9   7   8-61.1967 28.5097   6
   2  -9   8-30.2403 38.9468  12
   2  -9   7 239.272 66.8732  11
   9  -2  -7 135.743 51.7371   4
  -9   2   7 352.642 66.0454   6
  -9   7   7 220.694 46.8668   6
  -7  -2  -7 285.612 65.4961   2
   9  -2  -7 262.474 61.5548   9
   9  -7  -7 253.816 64.4343   9
   7  -9   7 116.134 46.3719  12
   2  -9   7 86.7001 39.8360  12
   2  -9   6 1456.17 129.260  11
   9  -2  -6 1417.38 120.298   4
  -9   2   6 1327.17 117.582   6
  -9   7   6 1650.90 118.797   6
   2   7   6 1447.11 112.945   9
  -2   9  -6 1499.07 117.131   9
   9  -2  -6 1326.65 117.644   9
   9  -7  -6 1323.67 123.286   9
  -7  -2  -6 1587.74 130.598   2
   7  -9   6 1202.56 112.377  12
   2  -9   6 1319.63 118.564  12
   2  -9   5 517.585 79.9863  11
   9  -2  -5 528.129 79.7847   4
  -9   7   5 617.857 78.2173   6
   2   7   5 524.096 68.9120   9
  -9   2   5 520.894 73.3077   6
  -7  -2  -5 532.567 83.8954   2
  -2   9  -5 439.423 67.9011   9
   9  -2  -5 528.312 78.2426   9
   9  -7  -5 623.483 89.8212   9
   2  -9   5 581.400 84.6228  12
   7  -9   5 593.323 82.8318  12
   2  -9   4 768.229 93.7180  11
   9  -2  -4 665.076 103.784   4
  -9   2   4 740.542 84.4317   6
  -9   7   4 785.777 87.7847   6
  -2   9  -4 666.387 80.1600   9
   2   7   4 653.660 75.6405   9
   9  -2  -4 704.728 84.8188   9
  -7  -2  -4 762.875 93.0605   2
   9  -7  -4 732.563 90.4839   9
   7  -9   4 760.164 89.5898  12
   2  -9   4 772.840 93.3894  12
   9  -2  -3 419.536 74.2131   4
   2  -9   3 482.100 82.3526  11
  -7  -2  -3 429.489 70.3462   2
  -9   2   3 377.081 62.1029   6
  -9   7   3 376.393 61.3675   6
  -2   9  -3 414.322 68.1415   9
   2   7   3 292.726 56.6585   9
   9  -2  -3 338.216 61.6566   9
   9  -7  -3 464.696 75.7570   9
   7  -9   3 415.209 66.3847  12
   2  -9   3 287.291 62.1383  12
   2  -9   2 1252.34 116.257  11
   9  -2  -2 1235.30 111.025   4
  -9   2   2 1275.59 109.318   6
  -9   7   2 1268.63 107.759   6
  -2   9  -2 1250.07 110.494   9
   2   7   2 1203.07 104.702   9
   9  -2  -2 1092.71 97.1661   9
  -7  -2  -2 1277.34 113.745   2
   9  -7  -2 1171.96 104.884   9
   7  -9   2 1133.75 106.338  12
   2  -9   2 1113.07 106.740  12
   7  -9   2 1337.80 109.467  11
   7  -9   1-39.9680 46.4260  11
   9  -2  -1 81.4933 53.5659   4
   2  -9   1 15.0994 48.7786  11
  -2  -7  -1 68.0844 32.6129   6
  -7  -2  -1 53.8728 31.9206   6
  -7  -2  -1 54.7113 44.0609   2
  -9   2   1-35.8091 36.3212   6
  -9   7   1-29.9731 33.9754   6
  -2   9  -1 110.455 39.3648   9
   2   7   1 28.3161 34.0016   9
   7   2   1 108.127 43.2288   9
   9  -2  -1-34.2492 29.9489   9
   9  -7  -1 63.1414 45.0529   9
   7  -9   0 3.90145 31.6089  11
   9  -2   0 38.6726 49.7265   4
   2  -9   0-2.13163 41.0830  11
  -2  -7   0-15.9991 32.0907  11
  -2  -7   0 36.3247 32.4522   6
  -7  -2   0 25.1053 32.2254   2
  -7  -2   0 16.8183 25.3104   6
  -9   2   0-117.457 41.7368   6
  -2   9   0-2.82980 33.8995   9
  -9   7   0-24.7359 27.6496   6
   2   7   0 113.805 46.1126   9
   7   2   0 74.9845 41.3697   9
   7  -9  -1 136.107 56.7564  11
   9  -2   1 88.7657 43.9428   4
   2  -9  -1 107.209 49.5314  11
  -2  -7   1 96.1787 42.7410  11
  -2  -7   1 158.797 45.0752   6
  -7  -2   1 130.101 48.8322   2
  -7  -2   1 158.271 41.1922   6
  -9   2  -1 85.6703 29.8564   6
  -9   2  -1 182.508 51.1156   2
  -2   9   1 143.736 45.9587   9
  -9   7  -1 93.9698 36.9166   6
   2   7  -1 164.100 49.5852   9
   7   2  -1 140.983 44.4449   9
   9  -2   2 225.761 54.8992   4
   7  -9  -2 340.764 70.3728  11
   2  -9  -2 345.147 67.9866  11
  -2  -7   2 316.244 62.0729  11
  -7  -2   2 292.650 61.9442   2
  -2  -7   2 271.027 50.0067   6
  -7  -2   2 297.001 54.5141   6
  -9   2  -2 214.154 47.4292   6
  -2   9   2 211.803 51.2827   9
  -9   7  -2 178.029 47.6843   6
  -9   2  -2 264.937 58.1718   2
   2   7  -2 255.377 57.1788   9
   7   2  -2 318.658 60.6836   9
   7   2  -2 167.450 46.4462   4
   2  -9  -3 723.368 92.3767  11
  -2  -7   3 810.258 88.6544  11
   7   2  -3 594.688 76.1676   4
  -2  -7   3 859.577 91.0919   6
   9  -2   3 718.351 89.2280   4
  -7  -2   3 723.916 82.5210   6
  -9   2  -3 715.852 76.4831   6
  -2   9   3 779.029 86.2689   9
   2   7  -3 783.207 88.9611   9
  -7  -2   3 942.125 97.7839   2
   7   2  -3 826.264 87.5202   9
  -9   2  -3 768.261 88.8712   2
   7  -9  -3 851.419 101.647  11
   7   2  -4 37.9989 34.1827   4
   7  -9  -4 12.9477 48.2740  11
   2  -9  -4 2.14886 32.5239  11
  -2  -7   4 69.2795 42.8489  11
  -2  -7   4 14.5608 26.8125   6
  -7  -2   4 23.4897 28.9426   6
  -2   9   4-63.1177 35.1513   9
   2   7  -4 7.24434 32.7576   9
   7   2  -4-21.0105 39.7813   9
  -9   2  -4 36.6532 37.9359   2
   9  -2   5 480.972 75.9997   4
   7  -9  -5 253.803 63.7777  11
   2  -9  -5 398.351 69.6644  11
  -2  -7   5 450.440 71.8318  11
  -2  -7   5 414.186 68.3623   6
  -7  -2   5 372.672 63.2463   6
  -2   9   5 410.774 65.7948   9
   2   7  -5 369.598 63.2608   9
   7   2  -5 414.047 73.0828   9
  -9   2  -5 448.373 71.4480   2
  -2  -7   6 1060.62 105.330  11
  -2  -7   6 1190.93 109.972   6
  -7  -2   6 1167.37 106.602   6
  -2   9   6 1215.48 107.680   9
   2   7  -6 1066.11 103.806   9
   7   2  -6 1142.03 108.088   9
  -9   2  -6 1210.70 112.197   2
   9  -2   6 1249.06 111.875   4
   7  -9  -6 1002.70 110.506  11
   2  -9  -6 1052.83 107.363  11
   7  -9  -7 123.115 56.3765  11
   2  -9  -7 32.4193 42.9484  11
  -2  -7   7 109.865 49.5825  11
  -2   9   7 62.8917 35.9271   9
   7   2  -7 36.3121 41.3755   9
  -9   2  -7 93.0816 49.7314   2
   9  -2   7-6.95563 44.7374   4
   2  -9  -8 277.711 63.7116  11
  -9   7  -8 270.967 58.3677   2
   2   7  -8 248.273 55.2063   9
   1   8   7 63.5242 34.1309   9
  -1   9  -7 116.782 33.6294   9
   8  -9   7 134.651 45.3135  12
   1  -9   7 180.079 47.1511  12
   9  -1  -6 521.939 82.6074   4
  -9   8   6 631.547 79.7219   6
   1   8   6 497.179 70.4835   9
  -1   9  -6 451.581 68.8036   9
   8  -9   6 403.938 70.4338  12
   1  -9   6 506.006 77.7070  12
   9  -8  -6 515.018 87.0544  11
   9  -1  -5 259.944 63.0512   4
   1  -9   5 149.082 55.3306  11
  -9   1   5 154.216 41.2909   6
  -8  -1  -5 213.439 61.8407   2
  -9   8   5 194.803 47.7594   6
   1   8   5 190.995 50.7713   9
  -1   9  -5 131.326 42.7988   9
   9  -1  -5 97.1047 44.7314   9
   9  -8  -5 153.072 52.9218   9
   8  -9   5 219.718 52.4884  12
   1  -9   5 174.882 53.1126  12
   9  -1  -4 332.130 69.7942   4
   1  -9   4 173.039 58.8383  11
  -9   1   4 224.360 53.5001   6
  -8  -1  -4 261.929 61.0790   2
  -9   8   4 220.978 54.1912   6
   1   8   4 251.988 54.6714   9
  -1   9  -4 185.465 47.9866   9
   9  -1  -4 197.595 56.1174   9
   9  -8  -4 162.669 59.2643   9
   8  -9   4 265.485 59.8500  12
   1  -9   4 276.831 59.7286  12
   9  -1  -3 202.672 58.0599   4
   1  -9   3 106.473 49.7680  11
  -9   1   3 213.893 52.7532   6
  -8  -1  -3 153.620 55.9153   2
  -9   8   3 134.864 40.1882   6
   1   8   3 153.739 48.3799   9
  -1   9  -3 159.073 45.5863   9
   9  -1  -3 216.459 57.6645   9
   9  -8  -3 128.255 49.0209   9
   8  -9   3 120.534 39.8266  12
   1  -9   3 142.352 44.4632  12
   9  -1  -2 1219.23 112.897   4
  -1  -8  -2 1270.08 109.355  11
   1  -9   2 1215.72 115.833  11
  -9   1   2 1423.82 117.449   6
  -9   8   2 1164.79 106.036   6
  -1   9  -2 1314.59 112.017   9
   1   8   2 1222.77 106.621   9
   9  -1  -2 1269.24 110.420   9
  -8  -1  -2 1273.01 114.669   2
   9  -8  -2 1206.34 109.414   9
   8  -9   2 1208.43 107.875  12
   1  -9   2 1313.71 113.634  12
   9  -1  -1 365.712 67.7489   4
   1  -9   1 496.679 83.5852  11
  -1  -8  -1 291.874 64.3682  11
  -9   1   1 479.255 72.4859   6
  -8  -1  -1 444.176 64.7042   6
  -8  -1  -1 276.866 65.0050   2
  -1   9  -1 383.603 69.5443   9
   1   8   1 345.760 58.6786   9
   9  -1  -1 386.351 65.2193   9
   1  -9   1 446.254 72.5963  12
   9  -8  -1 395.578 68.7547   9
   8   1   1 295.259 62.5449   4
   8   1   0 9.40712 32.8533   4
   9  -1   0 58.1902 39.6162   4
   1  -9   0 136.700 57.7523  11
  -1  -8   0-9.00307 58.2949  11
  -8  -1   0 21.8600 46.7879   2
  -8  -1   0 111.907 39.1142   6
  -9   1   0 60.0587 35.5262   6
  -9   1   0 19.0249 40.7682   2
  -1   9   0 143.716 50.3273   9
   1   8   0 32.8011 30.0730   9
   8   1   0 62.6863 36.2157   9
   8   1  -1 512.314 76.0181   4
   9  -1   1 575.877 81.1848   4
   1  -9  -1 534.705 77.7632  11
  -1  -8   1 373.301 65.8438  11
  -8  -1   1 572.244 72.9094   6
  -9   1  -1 528.152 71.9248   6
  -1   9   1 755.801 90.3784   9
   1   8  -1 654.195 82.8852   9
  -8  -1   1 617.418 82.6071   2
  -9   1  -1 539.531 78.3157   2
   8   1  -1 560.418 75.3216   9
   9  -1   2 536.167 81.8249   4
   8  -9  -2 608.663 85.0873  11
   1  -9  -2 544.295 79.7782  11
  -1  -8   2 474.069 75.5801  11
  -8  -1   2 711.007 83.6474   6
  -9   1  -2 569.295 72.4694   6
  -8  -1   2 523.865 77.0614   2
   1   8  -2 657.940 85.8974   9
  -9   1  -2 682.520 86.7767   2
  -1   9   2 532.822 77.0530   9
   8   1  -2 485.608 66.6895   9
   8   1  -2 583.512 79.5951   4
   9  -1   3 466.407 76.6030   4
   8   1  -3 460.507 74.8308   4
   8  -9  -3 335.796 71.2836  11
   1  -9  -3 328.295 67.0445  11
  -1  -8   3 457.789 74.8761  11
  -8  -1   3 369.154 67.9366   2
  -8  -1   3 506.671 71.0194   6
  -9   1  -3 464.950 75.9436   2
  -1   9   3 506.518 75.1135   9
   1   8  -3 495.674 75.8911   9
   8   1  -3 398.033 66.8173   9
   8  -9  -3 473.717 76.3123   9
   9  -1   4 1.79916 43.8037   4
   8   1  -4 21.0927 39.6804   4
   8  -9  -4-50.4417 56.7134  11
   1  -9  -4 51.8347 48.1031  11
  -1  -8   4 74.7788 51.6690  11
  -8  -1   4 91.4000 39.6998   6
  -1   9   4-75.2204 34.8017   9
  -9   1  -4 23.9276 41.2206   2
   1   8  -4 22.8020 35.6797   9
   8   1  -4-30.1861 36.2290   9
   8  -9  -4 71.7016 48.3861   9
   8   1  -5 53.1288 48.8013   4
   8  -9  -5 16.2246 50.1083  11
   1  -9  -5 133.937 57.0269  11
  -1  -8   5 146.461 60.4739  11
  -8  -1   5 151.518 52.3422   6
   1   8  -5 104.643 43.7537   9
  -9   1  -5 65.9200 45.6477   2
   8   1  -5 68.4714 44.7024   9
   8  -9  -5 120.392 53.4705   9
   9  -1   5 79.4923 43.3227   4
   1  -9  -6 824.385 100.617  11
   8  -9  -6 612.292 93.9254  11
  -8   9   6 739.551 85.0554   6
   1   8  -6 747.001 88.4354   9
   1  -9  -7 29.3811 40.3116  11
   0  -9   0 3808.65 197.393  11
  -9   0   0 3896.23 190.732   6
  -9   0   0 3921.37 194.738   2
   0  -9  -1 77.9547 52.6664  11
   0  -9   1-5.63573 48.1782  11
  -9   0   1 67.8023 49.8735   2
  -9   0   1-95.3763 38.5086   6
  -9   0  -1-46.6062 25.4038   6
  -9   0  -1 23.0223 38.8512   2
   9   0  -1-52.5172 37.1100   9
   9  -9  -1-17.2401 37.0322   9
   9   0  -2-20.2329 48.1515   4
   0  -9  -2 80.3006 48.4306  11
  -9   0   2-29.8378 19.8771   6
  -9   0  -2-80.1141 48.0307   2
   9   0  -2 0.87841 33.4153   9
   9  -9  -2-9.62213 41.6539   9
   0  -9  -3 81.4452 53.6598  11
   9   0  -3 1.82505 40.9262   9
   9  -9  -3-22.2835 47.9225   9
   0  -9  -4 294.469 62.1312  11
   5 -10   6 258.122 60.5563  11
   5 -10   5 81.1903 53.8925  11
  -5  -5  -5 156.923 62.4570   2
  10  -5  -5 150.953 62.0568   9
   5 -10   4 984.278 105.885  11
 -10   5   4 1090.55 104.520   6
  -5  -5  -4 974.518 104.370   2
  10  -5  -4 909.765 100.615   9
   5 -10   4 1001.57 110.197  12
   5 -10   3-29.3987 50.9966  11
  -5  -5  -3 37.3762 39.4428   2
 -10   5   3-21.3871 24.1195   6
  -5  10  -3-50.6464 28.5892   9
   5   5   3-29.6715 24.9107   9
  10  -5  -3 37.3944 43.5464   9
   5 -10   3-66.2779 48.0894  12
   5 -10   2 99.5806 49.3041  11
  -5  -5  -2 69.7835 46.9588   2
 -10   5   2 106.574 40.8157   6
  -5  10  -2 29.3992 31.1944   9
   5   5   2-6.53618 24.2451   9
  10  -5  -2 147.568 50.7601   9
   5 -10   2 146.145 56.6969  12
   5 -10   1 14.9608 47.6350  11
  -5  -5  -1 32.0536 46.6168   2
 -10   5   1-17.3819 33.9812   6
  -5  10  -1-40.9060 31.9494   9
   5   5   1-20.8088 37.0463   9
   5 -10   0 3217.29 182.469  11
  -5  -5   0 3084.44 160.689   6
 -10   5   0 3357.48 174.833   6
  -5  10   0 3320.46 172.784   9
   5   5   0 3344.12 176.513   9
   5 -10  -1 13.3524 43.4462  11
  10  -5   1-20.8034 45.0822   4
  -5  10   1-52.9612 34.1581   9
 -10   5  -1-122.121 44.9148   6
   5   5  -1 14.7229 35.6719   9
   5 -10  -2 7.97630 43.4301  11
  10  -5   2 55.1402 48.5567   4
  -5  -5   2 6.54369 34.2222   6
 -10   5  -2 16.4906 26.6652   6
   5   5  -2 39.8708 39.0855   9
   5 -10  -3 12.9743 44.5700  11
  10  -5   3 56.5118 55.5406   4
  -5  -5   3-26.1234 24.5678   6
 -10   5  -3-11.0614 17.5551   6
   5   5  -3-22.1999 29.4845   9
  10  -5   4 1005.08 104.507   4
  -5  -5   4 918.864 94.8874   6
 -10   5  -4 798.084 85.5617   6
   5   5  -4 905.678 99.6189   9
   5 -10  -4 1055.85 113.932  11
  10  -5   5 6.49650 41.3483   4
  -4  -6  -6 294.516 66.8983   2
   6 -10   5 162.404 53.0855  11
  -4  -6  -5 122.621 44.9889   2
  10  -4  -5 110.119 46.8528   9
  10  -6  -5 264.328 67.1360   9
   6 -10   4 19.8020 40.7954  11
   4 -10   4 123.058 62.4427  11
  -4  -6  -4 8.23744 34.3340   2
  -4  10  -4-73.2471 35.3094   9
   4   6   4 78.6216 42.3295   9
  10  -4  -4-56.0352 46.1517   9
  10  -6  -4 78.3663 46.6462   9
   4 -10   4 20.4717 42.4402  12
   6 -10   3 126.714 48.9752  11
   4 -10   3 246.721 64.6993  11
  -6  -4  -3 271.403 63.5698   2
  -4  -6  -3 252.000 59.3626   2
 -10   4   3 295.577 61.6792   6
 -10   6   3 82.3223 36.9863   6
  -4  10  -3 245.876 48.6009   9
   4   6   3 306.458 61.6073   9
  10  -4  -3 105.954 46.2857   9
  10  -6  -3 135.935 53.8558   9
   6 -10   3 240.808 58.7260  12
   4 -10   3 96.6819 41.7756  12
   6 -10   2 1350.86 119.992  11
   4 -10   2 1210.23 114.953  11
  10  -4  -2 1219.75 114.887   4
 -10   4   2 1320.84 114.603   6
 -10   6   2 1293.10 111.982   6
  -4  10  -2 1217.67 106.864   9
   4   6   2 1200.80 106.624   9
   6   4   2 1103.22 98.9834   9
  -6  -4  -2 1302.18 119.847   2
  10  -4  -2 1014.11 97.3620   9
  10  -6  -2 963.779 97.4902   9
   6 -10   2 1453.23 126.621  12
   4 -10   2 1143.90 113.810  12
   6 -10   1 405.052 74.6352  11
   4 -10   1 437.282 75.1438  11
  10  -4  -1 271.245 63.4951   4
  -6  -4  -1 407.486 73.4247   2
 -10   4   1 331.760 62.3872   6
 -10   6   1 424.253 68.0052   6
  -4  10  -1 310.559 62.5642   9
   4   6   1 367.263 63.3956   9
   6   4   1 293.995 55.4790   9
   6 -10   0 209.537 58.0658  11
   4 -10   0 344.452 71.9144  11
  10  -4   0 373.038 74.2775   4
  -6  -4   0 235.411 58.6397   2
  -4  -6   0 251.704 53.6202   6
  -6  -4   0 336.175 56.7634   6
 -10   4   0 287.095 58.9381   6
 -10   6   0 335.852 61.5625   6
  -4  10   0 284.347 61.8311   9
   4   6   0 253.908 54.8929   9
   6   4   0 240.979 54.0235   9
   6 -10  -1 259.435 65.5128  11
   4 -10  -1 381.850 78.5771  11
  10  -4   1 314.773 71.8842   4
  -4  -6   1 266.918 52.9601   6
  -6  -4   1 346.245 61.4988   6
 -10   4  -1 354.243 61.3970   6
 -10   6  -1 319.455 58.8721   6
  -4  10   1 317.577 64.8592   9
   4   6  -1 289.326 55.2260   9
   6   4  -1 254.508 55.8170   9
  10  -4   2 982.544 103.676   4
  -4  -6   2 848.538 89.8879   6
  -6  -4   2 1024.23 99.9721   6
 -10   4  -2 788.204 87.2003   6
 -10   6  -2 1000.88 99.2679   6
  -4  10   2 947.769 96.0456   9
   4   6  -2 969.029 99.3724   9
   6   4  -2 746.244 86.4894   9
   6 -10  -2 790.393 97.8632  11
   4 -10  -2 979.140 107.063  11
   6 -10  -3 124.793 57.4119  11
   4 -10  -3 78.4924 45.4695  11
  10  -4   3 188.376 60.0048   4
  10  -6   3 150.524 54.7332   4
  -4  -6   3 164.416 42.2344   6
  -6  -4   3 218.935 54.3147   6
 -10   4  -3 180.990 43.6469   6
 -10   6  -3 294.922 55.0993   6
  -4  10   3 101.688 33.1155   9
   4   6  -3 147.269 43.5710   9
   6   4  -3 91.4138 45.0650   9
   6 -10  -4 55.6396 52.8360  11
  10  -4   4 63.3817 45.8093   4
  10  -6   4 90.3352 50.2166   4
  -4  -6   4 33.6030 28.3324   6
  -6  -4   4 66.2710 39.5123   6
 -10   6  -4 103.448 36.7502   6
  10  -4   5 27.0186 37.0139   4
  -4  -6   5 107.512 44.8937  11
 -10   4  -5 121.102 54.8166   2
  10  -4   6 329.603 63.3761   4
  -4  -6   6 447.567 75.6487  11
 -10   4  -6 384.342 74.1422   2
  -3  10  -5 182.316 46.8205   9
   3   7   5 51.8602 34.8786   9
  -3  10  -4-103.626 44.0229   9
   3   7   4-62.9340 28.3578   9
  10  -3  -4 30.0520 35.1780   9
  10  -7  -4-37.6662 44.5858   9
  -3  10  -3 405.045 67.3879   9
   3   7   3 440.939 70.6180   9
  10  -3  -3 440.521 69.4249   9
  10  -7  -3 308.422 59.5902   9
   7 -10   3 284.313 63.3589  12
   3 -10   3 368.998 68.2488  12
   7 -10   2 583.683 81.7408  11
   3   7   2 595.516 78.3396   9
 -10   3   2 522.488 74.8708   6
  -3  10  -2 559.505 77.6676   9
  10  -3  -2 560.384 76.2608   9
  10  -7  -2 511.980 73.8734   9
   7 -10   2 588.477 82.9464  12
   3 -10   2 440.838 75.6088  12
   7 -10   1 503.491 78.2561  11
   3 -10   1 430.517 74.5790  11
  10  -3  -1 606.398 90.7363   4
  -7  -3  -1 458.538 81.7225   2
 -10   3   1 343.597 59.9666   6
 -10   7   1 440.114 70.1978   6
  -3  10  -1 422.022 70.6030   9
   3   7   1 530.090 74.7853   9
   7   3   1 417.962 65.5451   9
   7 -10   0-69.4118 53.0475  11
  10  -3   0 188.782 58.0995   4
   3 -10   0 63.1625 38.3578  11
  -7  -3   0 110.536 47.4571   2
  -3  -7   0 108.655 37.6582   6
  -7  -3   0 39.8349 26.3104   6
 -10   3   0 58.1752 30.2959   6
 -10   7   0 179.998 50.2277   6
  -3  10   0 84.3415 37.2322   9
   3   7   0 253.398 53.8891   9
   7   3   0 120.341 43.0591   9
   7 -10  -1 73.0670 44.5808  11
  10  -3   1 71.2352 46.9060   4
   3 -10  -1 174.620 63.7896  11
  -7  -3   1 63.2811 40.8375   2
  -3  -7   1 65.4683 30.3236   6
  -7  -3   1 23.0474 23.7437   6
 -10   3  -1 52.1968 31.7491   6
 -10   7  -1 158.957 46.3261   6
  -3  10   1 38.1703 40.3632   9
   3   7  -1 120.399 39.6869   9
   7   3  -1 118.012 48.0854   9
   3 -10  -2 944.821 104.975  11
  10  -3   2 736.769 100.128   4
  -7  -3   2 685.879 82.7026   6
 -10   3  -2 714.951 81.2736   6
 -10   7  -2 617.025 81.1785   6
  -3  -7   2 583.795 76.5682   6
  -7  -3   2 784.798 97.3394   2
   7   3  -2 668.566 86.8992   9
   7 -10  -2 772.676 100.357  11
   7 -10  -3 51.7025 53.4549  11
  -3  -7   3-28.8993 39.7655  11
  -3  -7   3-11.5676 25.8535   6
  -7  -3   3-50.6642 25.0425   6
 -10   3  -3-14.8551 26.5835   6
 -10   7  -3-71.7358 33.4921   6
  -3  -7   4 13.2337 44.3608  11
 -10   7  -4-22.3057 22.9613   6
 -10   3  -4 59.4773 38.9066   2
 -10   7  -5 118.337 35.8541   6
  10  -2  -2 11.0385 29.0628   9
   2 -10   2 26.3508 40.9281  12
   2 -10   1 3.44799 29.4844  12
  -8  -2   0 711.890 82.4286   6
 -10   2   0 762.288 85.0039   6
   8   2   0 940.898 98.3051   9
   8 -10  -1 19.9560 48.5927  11
  -8  -2   1-97.8494 30.0343   6
 -10   2  -1-11.9075 21.5465   6
   8 -10  -2 98.8315 57.4366  11
  -2  -8   2 88.2234 46.9485  11
 -10   2  -2 0.43285 27.7495   6
;
_shelx_hkl_checksum              40665
loop_
_space_group_symop_operation_xyz
'x, y, z'
'-y, x-y, z'
'-x+y, -x, z'
'-y, -x, -z+1/2'
'-x+y, y, -z+1/2'
'x, x-y, -z+1/2'
'-x, -y, -z'
'y, -x+y, -z'
'x-y, x, -z'
'y, x, z-1/2'
'x-y, -y, z-1/2'
'-x, -x+y, z-1/2'
loop_
_atom_site_label
_atom_site_type_symbol
_atom_site_fract_x
_atom_site_fract_y
_atom_site_fract_z
_atom_site_U_iso_or_equiv
_atom_site_adp_type
_atom_site_occupancy
_atom_site_site_symmetry_order
_atom_site_calc_flag
_atom_site_refinement_flags_posn
_atom_site_refinement_flags_adp
_atom_site_refinement_flags_occupancy
_atom_site_disorder_assembly
_atom_site_disorder_group
Fe1 Fe 0.6667 0.3333 0.2500 0.0169(4) Uani 1 6 d S T P . .
Fe2 Fe 1.0000 0.0000 0.0000 0.0153(4) Uani 1 6 d S T P . .
O1 O 0.6620(4) 0.1154(4) 0.16758(19) 0.0342(7) Uani 1 1 d . . . . .
O2 O 0.7947(4) -0.0083(4) 0.08033(18) 0.0277(6) Uani 1 1 d . . . . .
C1 C 0.7912(6) 0.1265(6) 0.1188(3) 0.0289(9) Uani 1 1 d . . . . .
H1 H 0.8949 0.2453 0.1098 0.035 Uiso 1 1 calc R U . . .
C4 C 0.2680(16) 0.7320(16) 0.2500 0.066(4) Uiso 0.3333 2 d DS . P A 1
H4A H 0.3686 0.8487 0.2733 0.098 Uiso 0.1667 1 calc R U P A 1
H4B H 0.2201 0.6419 0.3005 0.098 Uiso 0.1667 1 calc R U P A 1
H4C H 0.1696 0.7510 0.2261 0.098 Uiso 0.1667 1 calc R U P A 1
C3 C 0.3333 0.6667 0.1786(11) 0.066(4) Uiso 0.5 3 d DS . P A 1
H3A H 0.2784 0.5346 0.1938 0.079 Uiso 0.1667 1 calc R U P A 1
H3B H 0.4654 0.7216 0.1938 0.079 Uiso 0.1667 1 calc R U P A 1
N1 N 0.3333 0.6667 0.0800(8) 0.042(3) Uiso 0.5 3 d DS . P A 1
H1A H 0.2256 0.5716 0.0590 0.063 Uiso 0.1667 1 calc R U P A 1
H1B H 0.4284 0.6540 0.0590 0.063 Uiso 0.1667 1 calc R U P A 1
H1C H 0.3460 0.7744 0.0590 0.063 Uiso 0.1667 1 calc R U P A 1
loop_
_atom_site_aniso_label
_atom_site_aniso_U_11
_atom_site_aniso_U_22
_atom_site_aniso_U_33
_atom_site_aniso_U_23
_atom_site_aniso_U_13
_atom_site_aniso_U_12
Fe1 0.0157(4) 0.0157(4) 0.0194(6) 0.000 0.000 0.0078(2)
Fe2 0.0151(4) 0.0151(4) 0.0158(6) 0.000 0.000 0.0075(2)
O1 0.0330(16) 0.0315(16) 0.0393(16) -0.0043(12) 0.0130(13) 0.0170(14)
O2 0.0268(15) 0.0242(14) 0.0335(14) -0.0012(12) 0.0098(11) 0.0138(12)
C1 0.026(2) 0.025(2) 0.036(2) -0.0022(16) 0.0071(16) 0.0133(16)
loop_
_atom_type_symbol
_atom_type_description
_atom_type_scat_dispersion_real
_atom_type_scat_dispersion_imag
_atom_type_scat_source
C C 0.0033 0.0016 'International Tables Vol C Tables 4.2.6.8 and 6.1.1.4'
H H 0.0000 0.0000 'International Tables Vol C Tables 4.2.6.8 and 6.1.1.4'
N N 0.0061 0.0033 'International Tables Vol C Tables 4.2.6.8 and 6.1.1.4'
O O 0.0106 0.0060 'International Tables Vol C Tables 4.2.6.8 and 6.1.1.4'
Fe Fe 0.3463 0.8444 'International Tables Vol C Tables 4.2.6.8 and 6.1.1.4'
loop_
_geom_angle_atom_site_label_1
_geom_angle_atom_site_label_2
_geom_angle_atom_site_label_3
_geom_angle
_geom_angle_site_symmetry_1
_geom_angle_site_symmetry_3
O1 Fe1 O1 88.52(16) . 4_665
O1 Fe1 O1 85.92(15) . 5_655
O1 Fe1 O1 92.80(11) 4_665 5_655
O1 Fe1 O1 92.80(11) . 2_655
O1 Fe1 O1 85.92(15) 4_665 2_655
O1 Fe1 O1 178.20(16) 5_655 2_655
O1 Fe1 O1 92.80(11) . 3_665
O1 Fe1 O1 178.20(16) 4_665 3_665
O1 Fe1 O1 88.52(17) 5_655 3_665
O1 Fe1 O1 92.80(11) 2_655 3_665
O1 Fe1 O1 178.20(16) . 6
O1 Fe1 O1 92.80(11) 4_665 6
O1 Fe1 O1 92.80(11) 5_655 6
O1 Fe1 O1 88.52(16) 2_655 6
O1 Fe1 O1 85.92(15) 3_665 6
O2 Fe2 O2 88.79(11) . 9_545
O2 Fe2 O2 91.21(11) . 3_765
O2 Fe2 O2 180.0(3) 9_545 3_765
O2 Fe2 O2 180.0 . 7_755
O2 Fe2 O2 91.21(11) 9_545 7_755
O2 Fe2 O2 88.79(11) 3_765 7_755
O2 Fe2 O2 88.79(11) . 8_665
O2 Fe2 O2 91.21(11) 9_545 8_665
O2 Fe2 O2 88.79(11) 3_765 8_665
O2 Fe2 O2 91.21(11) 7_755 8_665
O2 Fe2 O2 91.21(11) . 2_645
O2 Fe2 O2 88.79(11) 9_545 2_645
O2 Fe2 O2 91.21(11) 3_765 2_645
O2 Fe2 O2 88.79(11) 7_755 2_645
O2 Fe2 O2 180.00(15) 8_665 2_645
C1 O1 Fe1 126.4(3) . .
C1 O2 Fe2 127.5(3) . .
O1 C1 O2 125.4(4) . .
O1 C1 H1 117.3 . .
O2 C1 H1 117.3 . .
C3 C4 H4A 109.5 . .
C3 C4 H4B 109.5 . .
H4A C4 H4B 109.5 . .
C3 C4 H4C 109.5 . .
H4A C4 H4C 109.5 . .
H4B C4 H4C 109.5 . .
C4 C3 N1 137.3(9) . .
C4 C3 H3A 102.8 . .
N1 C3 H3A 102.8 . .
C4 C3 H3B 102.8 . .
N1 C3 H3B 102.8 . .
H3A C3 H3B 105.0 . .
C3 N1 H1A 109.5 . .
C3 N1 H1B 109.5 . .
H1A N1 H1B 109.5 . .
C3 N1 H1C 109.5 . .
H1A N1 H1C 109.5 . .
H1B N1 H1C 109.5 . .
loop_
_geom_bond_atom_site_label_1
_geom_bond_atom_site_label_2
_geom_bond_distance
_geom_bond_site_symmetry_2
Fe1 O1 2.122(3) .
Fe1 O1 2.122(3) 4_665
Fe1 O1 2.122(3) 5_655
Fe1 O1 2.122(3) 2_655
Fe1 O1 2.122(3) 3_665
Fe1 O1 2.122(3) 6
Fe2 O2 2.008(2) .
Fe2 O2 2.008(2) 9_545
Fe2 O2 2.008(2) 3_765
Fe2 O2 2.008(2) 7_755
Fe2 O2 2.008(2) 8_665
Fe2 O2 2.008(2) 2_645
O1 C1 1.232(5) .
O2 C1 1.248(5) .
C1 H1 0.9300 .
C4 C3 1.372(15) .
C4 H4A 0.9600 .
C4 H4B 0.9600 .
C4 H4C 0.9600 .
C3 N1 1.392(16) .
C3 H3A 0.9700 .
C3 H3B 0.9700 .
N1 H1A 0.8900 .
N1 H1B 0.8900 .
N1 H1C 0.8900 .
