#------------------------------------------------------------------------------
#$Date: 2019-10-07 09:47:08 +0300 (Mon, 07 Oct 2019) $
#$Revision: 219115 $
#$URL: file:///home/coder/svn-repositories/cod/cif/7/23/43/7234397.cif $
#------------------------------------------------------------------------------
#
# This file is available in the Crystallography Open Database (COD),
# http://www.crystallography.net/
#
# All data on this site have been placed in the public domain by the
# contributors.
#
data_7234397
loop_
_publ_author_name
'Weiwei Xie'
'Huixia Luo'
'Brendan F. Phelan'
'Robert J. Cava'
_publ_section_title
;
 Zr5Sb3-xRux, a new superconductor in the W5Si3 structure type
;
_journal_name_full               'Journal of Materials Chemistry C'
_journal_page_first              8235
_journal_page_last               8240
_journal_paper_doi               10.1039/C5TC01818H
_journal_volume                  3
_journal_year                    2015
_chemical_formula_sum            'Ru0.64 Sb2.36 Zr5'
_chemical_formula_weight         808.06
_space_group_crystal_system      tetragonal
_space_group_IT_number           140
_space_group_name_Hall           '-I 4 2c'
_space_group_name_H-M_alt        'I 4/m c m'
_atom_sites_solution_hydrogens   .
_cell_angle_alpha                90
_cell_angle_beta                 90
_cell_angle_gamma                90
_cell_formula_units_Z            4
_cell_length_a                   11.083(3)
_cell_length_b                   11.083(3)
_cell_length_c                   5.5752(17)
_cell_measurement_reflns_used    3221
_cell_measurement_temperature    301(2)
_cell_measurement_theta_max      29.50
_cell_measurement_theta_min      2.60
_cell_volume                     684.8(3)
_computing_cell_refinement       'Bruker SAINT'
_computing_data_collection       'Bruker APEX2'
_computing_data_reduction        'Bruker SAINT'
_computing_molecular_graphics    'Bruker SHELXTL'
_computing_publication_material  'Bruker SHELXTL'
_computing_structure_refinement  'SHELXL-2013 (Sheldrick, 2013)'
_computing_structure_solution    'SHELXS-97 (Sheldrick 2008)'
_diffrn_ambient_temperature      301(2)
_diffrn_measured_fraction_theta_full 0.995
_diffrn_measured_fraction_theta_max 0.996
_diffrn_measurement_device_type  'Bruker APEX-II CCD'
_diffrn_measurement_method       '\f and \w scans'
_diffrn_radiation_type           MoK\a
_diffrn_radiation_wavelength     0.71073
_diffrn_reflns_av_R_equivalents  0.0271
_diffrn_reflns_av_unetI/netI     0.0108
_diffrn_reflns_Laue_measured_fraction_full 0.995
_diffrn_reflns_Laue_measured_fraction_max 0.996
_diffrn_reflns_limit_h_max       15
_diffrn_reflns_limit_h_min       -15
_diffrn_reflns_limit_k_max       15
_diffrn_reflns_limit_k_min       -15
_diffrn_reflns_limit_l_max       7
_diffrn_reflns_limit_l_min       -7
_diffrn_reflns_number            5685
_diffrn_reflns_point_group_measured_fraction_full 0.995
_diffrn_reflns_point_group_measured_fraction_max 0.996
_diffrn_reflns_theta_full        25.242
_diffrn_reflns_theta_max         29.576
_diffrn_reflns_theta_min         3.677
_exptl_absorpt_coefficient_mu    17.696
_exptl_absorpt_correction_T_max  0.7459
_exptl_absorpt_correction_T_min  0.6270
_exptl_absorpt_correction_type   multi-scan
_exptl_crystal_colour            Metallic
_exptl_crystal_density_diffrn    7.838
_exptl_crystal_density_meas      ?
_exptl_crystal_density_method    'Not measured'
_exptl_crystal_description       Irregular
_exptl_crystal_F_000             1394
_exptl_crystal_size_max          0.020
_exptl_crystal_size_mid          0.015
_exptl_crystal_size_min          0.005
_refine_diff_density_max         0.710
_refine_diff_density_min         -0.749
_refine_diff_density_rms         0.129
_refine_ls_extinction_coef       .
_refine_ls_extinction_method     none
_refine_ls_goodness_of_fit_ref   1.175
_refine_ls_hydrogen_treatment    undef
_refine_ls_matrix_type           full
_refine_ls_number_parameters     16
_refine_ls_number_reflns         284
_refine_ls_number_restraints     0
_refine_ls_restrained_S_all      1.175
_refine_ls_R_factor_all          0.0121
_refine_ls_R_factor_gt           0.0100
_refine_ls_shift/su_max          0.000
_refine_ls_shift/su_mean         0.000
_refine_ls_structure_factor_coef Fsqd
_refine_ls_weighting_details
'w=1/[\s^2^(Fo^2^)+(0.0046P)^2^+2.6691P] where P=(Fo^2^+2Fc^2^)/3'
_refine_ls_weighting_scheme      calc
_refine_ls_wR_factor_gt          0.0195
_refine_ls_wR_factor_ref         0.0198
_reflns_Friedel_coverage         0.000
_reflns_Friedel_fraction_full    .
_reflns_Friedel_fraction_max     .
_reflns_number_gt                263
_reflns_number_total             284
_reflns_threshold_expression     'I > 2\s(I)'
_cod_data_source_file            J-Mater-Chem-C-2015-3-8235.cif
_cod_data_source_block           mo_Wei456a_0m
_cod_depositor_comments
;
The following automatic conversions were performed:

data item '_exptl_absorpt_correction_type' value 'Multi-scan' was
changed to 'multi-scan' in accordance with the built-in table derived
from the CIF Core dictionary named 'cif_core.dic' version 2.4.5 last
updated on 2014-11-21.

data item '_exptl_crystal_density_meas' value 'None' was changed to
'?' -- the value is perceived as not measured.

Automatic conversion script
Id: cif_fix_values 6909 2019-04-08 15:41:33Z antanas 
;
_cod_original_cell_volume        684.8(4)
_cod_database_code               7234397
_shelx_space_group_comment
; 
The symmetry employed for this shelxl refinement is uniquely defined 
by the following loop, which should always be used as a source of 
symmetry information in preference to the above space-group names. 
They are only intended as comments. 
;
_shelxl_version_number           2013-4
_shelx_res_file
; 
TITL mo_Wei456a_0m in I4/mcm 
CELL 0.71073  11.08280  11.08280   5.57520  90.0000  90.0000  90.0000 
ZERR    4.00   0.00320   0.00320   0.00170   0.0000   0.0000   0.0000 
LATT  2 
SYMM -X, -Y, Z 
SYMM -Y, X, Z 
SYMM Y, -X, Z 
SYMM -X, Y, 0.5-Z 
SYMM X, -Y, 0.5-Z 
SYMM Y, X, 0.5-Z 
SYMM -Y, -X, 0.5-Z 
SFAC ZR RU SB 
UNIT 20 2.57 9.43 
TEMP 27.990 
  
L.S. 10 
ACTA 
EADP RU2 SB2 
EXYZ RU2 SB2 
  
WGHT    0.004600    2.669100 
FVAR       0.04227   0.35777 
MOLE   1 
SB1   3    0.336832    0.163168    0.500000    10.25000    0.00633    0.00633 = 
         0.01115    0.00000    0.00000    0.00041 
RU2   2    0.000000    0.000000    0.250000   -20.12500    0.01116    0.01116 = 
         0.00951    0.00000    0.00000    0.00000 
SB2   3    0.000000    0.000000    0.250000    20.12500    0.01116    0.01116 = 
         0.00951    0.00000    0.00000    0.00000 
ZR3   1    0.076041    0.214138    0.500000    10.50000    0.00655    0.00952 = 
         0.00928    0.00000    0.00000    0.00062 
ZR4   1    0.500000    0.000000    0.250000    10.12500    0.00916    0.00916 = 
         0.00529    0.00000    0.00000    0.00000 
  
HKLF 4 
  
REM  mo_Wei456a_0m in I4/mcm 
REM R1 =  0.0100 for     263 Fo > 4sig(Fo)  and  0.0121 for all     284 data 
REM     16 parameters refined using      0 restraints 
  
END 
  
WGHT      0.0046      2.6742 
  
REM Highest difference peak  0.710,  deepest hole -0.749,  1-sigma level  0.129 
Q1    1   0.4209  0.0791  0.0000  10.25000  0.05    0.71 
Q2    1   0.4421  0.0030  0.0000  10.50000  0.05    0.47 
Q3    1   0.1738  0.1677  0.5000  10.50000  0.05    0.46 
Q4    1   0.0456  0.3165  0.5000  10.50000  0.05    0.39 
Q5    1   0.1335  0.2005  0.5000  10.50000  0.05    0.36 
Q6    1   0.2590  0.1404  0.2848  11.00000  0.05    0.34 
Q7    1   0.0000  0.1170  0.2500  10.50000  0.05    0.33 
Q8    1   0.0173  0.3347  0.5000  10.50000  0.05    0.33 
Q9    1   0.1768  0.3232  0.5000  10.25000  0.05    0.33 
Q10   1   0.0582  0.0719  0.5000  10.50000  0.05    0.32 
Q11   1   0.0455  0.1799  0.5000  10.50000  0.05    0.32 
Q12   1   0.2786  0.2214  0.5000  10.25000  0.05    0.29 
Q13   1   0.1924  0.1924  0.2500  10.50000  0.05    0.29 
Q14   1   0.0000  0.3126  0.2500  10.50000  0.05    0.29 
Q15   1   0.4615  0.0385  0.3270  10.50000  0.05    0.29 
Q16   1   0.0839  0.1161  0.3080  11.00000  0.05    0.29 
Q17   1   0.4070  0.0930  0.2488  10.50000  0.05    0.28 
Q18   1   0.2468  0.0920  0.5000  10.50000  0.05    0.28 
Q19   1  -0.0177  0.2501  0.5000  10.50000  0.05    0.27 
Q20   1   0.1229  0.2338  0.2785  11.00000  0.05    0.27 
;
_shelx_res_checksum              42512
_shelx_hkl_file
; 
   0  -2   0    3.59    0.16 
  -2   0   0    3.46    0.20 
   0  -2   0    3.69    0.16 
   0  -2   0    3.73    0.16 
  -2   0   0    3.30    0.17 
   0   2   0    3.68    0.17 
   0   2   0    3.42    0.15 
   2   0   0    3.64    0.18 
   2   0   0    3.46    0.17 
   2   0   0    3.72    0.20 
  -2   0   0    3.62    0.19 
  -2  -2   0   17.12    0.56 
  -2   2   0   16.19    0.56 
  -2   2   0   17.06    0.55 
   2   2   0   16.66    0.55 
   2  -2   0   17.28    0.56 
  -2   2   0   16.41    0.49 
   2  -2   0   16.33    0.55 
   3   1   0   12.00    0.46 
   3   1   0   11.53    0.38 
  -3  -1   0   12.25    0.42 
  -3  -1   0   11.87    0.46 
   3   1   0   11.54    0.41 
   1  -3   0   12.31    0.43 
  -1   3   0   12.55    0.46 
  -1   3   0   12.27    0.42 
  -3  -1   0   12.23    0.41 
   1  -3   0   12.11    0.43 
  -3   1   0   11.69    0.44 
   3  -1   0   11.75    0.44 
  -1  -3   0   12.65    0.40 
   1   3   0   11.90    0.42 
  -3   1   0   11.32    0.45 
  -1  -3   0   11.79    0.41 
   3  -1   0   11.60    0.44 
  -3   1   0   11.54    0.44 
  -3   3   0  196.65    5.01 
   3  -3   0  190.40    5.01 
   3  -3   0  197.33    5.01 
  -3   3   0  187.49    5.03 
   3   3   0  190.19    4.99 
  -3  -3   0  196.29    5.00 
  -4  -2   0  404.33   10.37 
  -2   4   0  419.47   10.34 
  -4  -2   0  409.06   10.32 
  -2   4   0  406.74   10.38 
   2  -4   0  407.05   10.35 
   2  -4   0  413.26   10.35 
   4   2   0  406.11   10.37 
   4   0   0   31.69    0.98 
   0   4   0   33.42    0.94 
  -4   0   0   32.21    0.97 
   0  -4   0   32.42    0.92 
   0  -4   0   32.23    0.94 
   0   4   0   31.82    0.95 
  -4   0   0   31.53    0.97 
  -4   0   0   31.41    0.97 
   4   0   0   31.87    0.94 
   4   0   0   32.42    0.96 
   0   4   0   32.01    0.92 
   4  -2   0  405.70   10.23 
  -4   2   0  404.96   10.25 
  -4   2   0  391.88   10.23 
  -2  -4   0  403.12   10.18 
   4  -2   0  405.82   10.23 
  -4   2   0  401.72   10.14 
  -2  -4   0  404.91   10.16 
   2   4   0  410.75   10.20 
  -4  -4   0   98.31    2.72 
   4   4   0   95.95    2.77 
  -4  -4   0   98.57    2.70 
  -4   4   0   95.54    2.70 
  -4   4   0  100.52    2.76 
   4  -4   0   99.42    2.71 
   3  -5   0  116.07    3.12 
  -5  -3   0  115.05    3.15 
  -5  -3   0  113.15    3.07 
   5   3   0  116.96    3.14 
   3  -5   0  113.05    3.12 
  -3   5   0  115.80    3.17 
  -3   5   0  114.93    3.10 
   1  -5   0   15.76    0.59 
  -5  -1   0   16.02    0.60 
   1  -5   0   16.92    0.60 
  -5  -1   0   16.14    0.61 
  -1   5   0   16.50    0.64 
   5   1   0   16.05    0.56 
   5   1   0   16.89    0.69 
  -5  -1   0   16.42    0.66 
   5   1   0   16.09    0.59 
  -1   5   0   16.26    0.58 
  -1  -5   0   15.66    0.56 
  -1  -5   0   16.26    0.57 
   5  -1   0   16.09    0.62 
  -5   1   0   15.86    0.63 
  -1  -5   0   16.53    0.52 
   5  -1   0   16.05    0.62 
   1   5   0   15.97    0.60 
  -5   1   0   16.77    0.66 
   1   5   0   16.35    0.57 
  -5   1   0   16.56    0.64 
   1   5   0   16.17    0.57 
  -3  -5   0  113.14    2.97 
  -5   3   0  101.95    2.93 
   5  -3   0  113.02    3.06 
  -3  -5   0  114.88    3.02 
  -5   3   0  112.70    3.07 
  -5   3   0  113.17    3.09 
   5  -3   0  113.64    3.06 
  -5   5   0  109.24    3.17 
  -5  -5   0  111.69    3.11 
   5  -5   0  109.91    3.12 
   5   5   0  114.58    3.12 
   5  -5   0  114.54    3.13 
  -5  -5   0  109.49    3.01 
  -5   5   0  112.89    3.12 
   6   4   0    3.05    0.40 
  -6  -4   0    4.13    0.46 
  -4   6   0    3.26    0.41 
  -6  -4   0    2.74    0.30 
   4  -6   0    2.85    0.33 
  -4   6   0    3.21    0.38 
   4  -6   0    2.99    0.35 
   6   2   0   93.14    2.57 
  -2   6   0   92.96    2.57 
  -6  -2   0   89.22    2.56 
   6   2   0   90.58    2.49 
   2  -6   0   88.85    2.52 
   2  -6   0   90.82    2.52 
  -6  -2   0   87.50    2.44 
  -6  -2   0   90.85    2.50 
   6   2   0   92.36    2.40 
  -2   6   0   91.94    2.50 
   0  -6   0  125.12    3.28 
   6   0   0  127.81    3.37 
  -6   0   0  124.72    3.39 
   0  -6   0  127.98    3.29 
  -6   0   0  123.87    3.38 
   0   6   0  122.85    3.30 
  -6   0   0  123.81    3.38 
   6   0   0  123.41    3.33 
   0   6   0  126.01    3.35 
   0   6   0  129.72    3.33 
   0  -6   0  123.72    3.33 
   6  -2   0   89.96    2.53 
  -6   2   0   90.10    2.57 
   6  -2   0   89.13    2.52 
  -6   2   0   88.83    2.54 
  -2  -6   0   91.29    2.45 
  -6   2   0   90.38    2.48 
   4   6   0    3.62    0.45 
  -4  -6   0    3.10    0.30 
  -4  -6   0    3.62    0.42 
  -6   4   0    2.89    0.36 
   6  -4   0    3.79    0.44 
   6  -4   0    3.51    0.41 
  -6   4   0    3.13    0.40 
   6  -6   0  402.81   10.17 
   6  -6   0  391.23   10.17 
  -6   6   0  388.97   10.15 
  -6  -6   0  387.75   10.14 
  -6   6   0  385.63   10.23 
  -6  -6   0  391.65   10.03 
   6   6   0  398.26   10.15 
  -7  -5   0    6.95    0.68 
  -7  -5   0    7.52    0.50 
   5  -7   0    6.84    0.57 
   7   5   0    8.10    0.73 
   5  -7   0    8.13    0.65 
  -5   7   0    6.37    0.69 
  -5   7   0    7.29    0.59 
   3  -7   0  121.05    3.31 
  -7  -3   0  116.53    3.35 
  -3   7   0  120.81    3.37 
  -7  -3   0  120.06    3.27 
   7   3   0  118.58    3.34 
  -3   7   0  120.76    3.27 
   3  -7   0  118.15    3.29 
  -1   7   0  119.36    3.14 
  -7  -1   0  111.97    3.14 
   7   1   0  115.88    3.16 
   7   1   0  113.91    3.19 
   7   1   0  113.86    3.08 
   1  -7   0  115.53    3.21 
  -7  -1   0  114.15    3.21 
  -7  -1   0  117.02    3.18 
  -1   7   0  118.15    3.20 
   1  -7   0  116.47    3.15 
  -7   1   0  112.95    3.17 
   1   7   0  118.04    3.11 
  -1  -7   0  116.79    3.02 
   1   7   0  113.36    3.13 
  -1  -7   0  117.10    3.12 
  -7   1   0  115.62    3.22 
   7  -1   0  116.56    3.19 
   7  -1   0  115.88    3.16 
  -1  -7   0  114.87    3.09 
  -7   1   0  113.79    3.20 
   1   7   0  115.78    3.11 
  -3  -7   0  117.61    3.20 
   3   7   0  117.20    3.23 
   7  -3   0  114.69    3.27 
   7  -3   0  115.94    3.26 
  -3  -7   0  118.34    3.17 
  -7   3   0  119.22    3.34 
  -7   3   0  115.60    3.30 
  -7   3   0  118.44    3.20 
   7  -5   0    7.51    0.59 
  -5  -7   0    6.80    0.62 
  -7   5   0    7.54    0.69 
  -5  -7   0    6.94    0.47 
   5   7   0    8.08    0.65 
  -7   5   0    7.22    0.55 
  -7   5   0    7.81    0.65 
   7  -5   0    7.02    0.64 
  -7   7   0   72.10    2.34 
  -7  -7   0   71.39    2.20 
   7   7   0   76.56    2.37 
  -7   7   0   74.00    2.47 
   7  -7   0   72.50    2.36 
  -7  -7   0   76.65    2.40 
   7  -7   0   74.86    2.35 
  -6   8   0   29.64    1.40 
  -8  -6   0   30.97    1.15 
   8   6   0   30.68    1.36 
   6  -8   0   30.12    1.28 
   6  -8   0   31.12    1.28 
  -6   8   0   29.06    1.25 
  -8  -6   0   29.91    1.36 
   4  -8   0   39.96    1.41 
  -4   8   0   38.86    1.36 
  -4   8   0   41.61    1.51 
  -8  -4   0   38.28    1.33 
  -8  -4   0   38.73    1.50 
   4  -8   0   40.53    1.42 
  -2   8   0  164.97    4.44 
   2  -8   0  166.57    4.48 
  -2   8   0  169.16    4.55 
  -8  -2   0  162.79    4.53 
   2  -8   0  166.96    4.44 
  -8  -2   0  167.18    4.49 
   8   2   0  169.13    4.46 
   8   2   0  166.55    4.33 
  -8  -2   0  165.29    4.42 
   8   2   0  163.81    4.53 
  -8   0   0    8.16    0.60 
   0   8   0    7.96    0.52 
   0  -8   0    7.79    0.48 
   8   0   0    7.11    0.50 
  -8   0   0    7.93    0.57 
   8   0   0    8.07    0.53 
  -8   0   0    7.85    0.62 
   0   8   0    8.29    0.57 
   0   8   0    8.22    0.48 
  -8   2   0  161.29    4.49 
   8  -2   0  161.79    4.42 
  -8   2   0  161.85    4.39 
  -2  -8   0  159.29    4.32 
   8  -2   0  166.09    4.44 
   2   8   0  166.67    4.39 
  -2  -8   0  167.57    4.35 
  -8   2   0  162.38    4.47 
   4   8   0   39.02    1.39 
   8  -4   0   38.75    1.43 
  -4  -8   0   39.76    1.29 
  -8   4   0   39.00    1.50 
  -8   4   0   38.19    1.33 
  -4  -8   0   38.53    1.36 
   8  -4   0   38.74    1.40 
  -8   6   0   31.27    1.30 
  -8   6   0   30.19    1.40 
   8  -6   0   30.95    1.28 
   6   8   0   29.89    1.29 
   8  -6   0   29.34    1.29 
  -6  -8   0   31.39    1.14 
  -6  -8   0   30.94    1.14 
  -6  -8   0   29.18    1.29 
  -8   8   0   69.86    2.49 
   8  -8   0   69.56    2.31 
  -8  -8   0   66.67    2.35 
  -8   8   0   67.64    2.29 
   8   8   0   68.99    2.33 
  -8  -8   0   67.50    2.14 
  -7   9   0    9.21    1.14 
   9   7   0    8.76    0.87 
  -9  -7   0    8.49    0.71 
   7  -9   0    8.14    0.87 
  -7   9   0    9.24    0.83 
   7  -9   0    7.22    0.86 
  -9  -7   0    8.64    0.95 
   9   5   0    4.71    0.69 
  -5   9   0    3.25    0.50 
  -9  -5   0    2.39    0.44 
   5  -9   0    2.98    0.52 
  -5   9   0    3.42    0.63 
   5  -9   0    3.88    0.51 
  -9  -3   0   35.04    1.41 
  -3   9   0   33.26    1.37 
   9   3   0   32.50    1.40 
  -9  -3   0   32.21    1.23 
   3  -9   0   33.79    1.25 
  -3   9   0   32.68    1.23 
   3  -9   0   33.74    1.27 
  -9  -1   0   94.30    2.75 
   1  -9   0   95.67    2.67 
   9   1   0   93.28    2.65 
   1  -9   0   95.40    2.74 
  -1   9   0   98.53    2.80 
  -9  -1   0   93.64    2.82 
  -1   9   0   97.49    2.71 
   9   1   0   94.37    2.76 
   1   9   0   93.39    2.70 
   9  -1   0   96.71    2.80 
  -9   1   0   96.14    2.81 
   9  -1   0   95.99    2.75 
  -9   1   0   94.29    2.84 
  -1  -9   0   97.59    2.69 
  -1  -9   0   96.25    2.72 
  -9   3   0   33.91    1.26 
  -9   3   0   32.34    1.33 
  -3  -9   0   31.60    1.18 
   3   9   0   32.85    1.27 
  -9   3   0   34.06    1.40 
   9  -3   0   28.54    1.62 
   9  -3   0   32.41    1.28 
  -3  -9   0   33.22    1.16 
  -5  -9   0    2.96    0.42 
   5   9   0    2.47    0.54 
  -9   5   0    2.09    0.62 
  -9   5   0    2.46    0.44 
   9  -5   0    2.52    0.49 
  -9   5   0    2.99    0.55 
  -9   5   0    2.98    0.50 
  -5  -9   0    3.47    0.57 
   9  -7   0    8.74    0.86 
  -7  -9   0    8.98    0.73 
  -9   7   0    9.45    1.13 
  -7  -9   0    9.85    1.01 
   7   9   0    9.83    1.00 
  -7  -9   0    9.51    0.69 
  -9   7   0    6.79    0.90 
   9  -9   0   84.55    2.81 
  -9  -9   0   85.49    2.65 
  -9  -9   0   86.84    2.92 
  -9   9   0   83.97    3.04 
   9   9   0   81.91    2.88 
   8 -10   0   18.22    1.30 
 -10  -8   0   18.64    1.48 
  10   8   0   19.76    1.55 
  -8  10   0   16.43    1.20 
  -8  10   0   17.91    1.53 
   8 -10   0   17.31    1.22 
 -10  -6   0    7.94    0.92 
  -6  10   0    6.31    0.76 
   6 -10   0    7.57    0.87 
 -10  -6   0    6.38    0.70 
  -6  10   0    6.89    0.87 
   6 -10   0    7.36    0.86 
   4 -10   0   66.00    2.14 
   4 -10   0   63.26    2.19 
 -10  -4   0   66.93    2.12 
  -4  10   0   65.83    2.11 
  -4  10   0   67.87    2.32 
  10   4   0   64.18    2.27 
 -10  -4   0   64.50    2.29 
  10   2   0  109.29    3.19 
 -10  -2   0  112.28    3.34 
   2 -10   0  109.05    3.13 
  -2  10   0  109.50    3.15 
  10   2   0  108.03    3.02 
  -2  10   0  113.25    3.29 
 -10  -2   0  111.72    3.17 
 -10  -2   0  111.37    3.24 
   2 -10   0  113.81    3.22 
   0 -10   0   19.82    0.81 
   0 -10   0   19.53    0.91 
   0  10   0   21.10    0.97 
 -10   0   0   18.87    1.03 
  10   0   0   18.72    0.90 
 -10   0   0   20.10    1.10 
 -10   0   0   18.50    1.00 
   0  10   0   20.12    0.89 
  10   0   0   19.82    0.96 
 -10   2   0  105.53    3.19 
 -10   2   0  112.79    3.27 
  10  -2   0  104.54    3.36 
  -2 -10   0  106.83    3.01 
  -2 -10   0  110.13    3.06 
 -10   2   0  110.04    3.15 
  10  -2   0   98.28    3.25 
  -4 -10   0   64.73    2.08 
  10  -4   0   67.24    2.19 
  10  -4   0   62.06    2.16 
 -10   4   0   68.45    2.37 
   4  10   0   62.49    2.13 
  -4 -10   0   65.89    2.04 
 -10   4   0   64.07    2.21 
 -10   6   0    8.82    0.92 
  -6 -10   0    7.76    0.96 
  10  -6   0    5.26    0.69 
  10  -6   0    7.82    0.86 
 -10   6   0    7.43    0.92 
   6  10   0    7.47    0.81 
  -6 -10   0    8.01    0.71 
 -10   8   0   19.67    1.37 
 -10   8   0   16.91    1.48 
  -8 -10   0   17.77    1.37 
  -8 -10   0   17.25    1.02 
   8  10   0   18.22    1.39 
  10  -8   0   18.21    1.22 
  10 -10   0   51.37    2.17 
 -10 -10   0   52.55    1.98 
 -10 -10   0   49.22    1.98 
 -10 -10   0   49.91    2.52 
 -10  10   0   52.91    2.57 
   9 -11   0   24.83    1.59 
 -11  -9   0   20.81    1.90 
 -11  -9   0   27.69    1.69 
  -9  11   0   24.96    2.06 
 -11  -7   0    0.91    0.85 
 -11  -7   0    0.08    0.56 
  -7  11   0    2.12    0.85 
  11   7   0   -1.09    0.92 
  -7  11   0   -0.03    0.60 
   7 -11   0    0.05    0.63 
   7 -11   0    0.78    0.56 
  -5  11   0   14.62    1.02 
  -5  11   0   18.08    1.34 
 -11  -5   0   17.36    1.35 
   5 -11   0   17.62    1.12 
   5 -11   0   17.54    1.12 
  11   3   0   -0.55    0.53 
 -11  -3   0   -0.20    0.45 
   3 -11   0    0.78    0.46 
 -11  -3   0    0.87    0.67 
  -3  11   0    0.27    0.40 
   3 -11   0    0.62    0.44 
  -3  11   0    1.00    0.56 
   1 -11   0    7.44    0.70 
   1 -11   0    7.56    0.66 
 -11  -1   0    7.37    0.91 
  -1  11   0    6.94    0.66 
 -11  -1   0    6.72    0.80 
  11   1   0    7.38    0.79 
  11   1   0    8.72    0.69 
  -1  11   0    6.63    0.80 
 -11  -1   0    7.89    0.85 
  11  -1   0    6.93    0.74 
  -1 -11   0    6.37    0.76 
   1  11   0    6.91    0.69 
  11  -1   0    6.84    0.77 
  -1 -11   0    7.21    0.70 
 -11   1   0    6.84    0.83 
  -1 -11   0    7.45    0.54 
 -11   1   0    7.38    0.81 
 -11   3   0    1.09    0.57 
  11  -3   0    0.98    0.53 
   3  11   0    0.08    0.51 
  11  -3   0    0.35    0.51 
  -3 -11   0    0.64    0.39 
 -11   3   0   -0.10    0.62 
  -3 -11   0    0.79    0.50 
 -11   5   0   18.38    1.41 
  -5 -11   0   16.98    1.14 
   5  11   0   15.01    1.21 
  11  -5   0   17.91    1.14 
  -5 -11   0   16.52    0.93 
  -7 -11   0    0.43    0.74 
 -11   7   0   -0.65    0.79 
  11  -7   0   -0.01    0.70 
 -11   7   0    0.24    0.75 
  -7 -11   0    0.87    0.45 
   7  11   0    1.33    0.92 
  11  -7   0   -0.22    0.69 
  -7 -11   0    0.89    0.60 
  -9 -11   0   20.67    1.36 
  -9 -11   0   22.69    1.31 
  11  -9   0   20.37    1.54 
  -9 -11   0   24.59    1.74 
 -11   9   0   23.77    2.01 
 -12  -8   0   15.51    1.55 
   8 -12   0   15.16    1.46 
  -8  12   0   20.22    1.99 
   6 -12   0  179.97    5.19 
 -12  -6   0  177.77    5.12 
  -6  12   0  189.72    5.39 
  12   6   0  167.03    5.21 
 -12  -6   0  181.63    5.29 
   6 -12   0  179.17    5.15 
   4 -12   0   22.88    1.29 
  -4  12   0   22.90    1.20 
 -12  -4   0   23.15    1.56 
  -4  12   0   22.98    1.49 
   4 -12   0   25.46    1.29 
  -2  12   0   18.11    1.01 
 -12  -2   0   17.17    1.20 
   2 -12   0   18.65    1.08 
  12   2   0   17.61    0.92 
  -2  12   0   17.69    1.25 
  12   2   0   16.28    1.09 
   2 -12   0   17.01    1.02 
 -12  -2   0   15.02    1.38 
   0  12   0  148.80    4.26 
  12   0   0  150.23    4.18 
   0 -12   0  149.81    4.06 
 -12   0   0  146.45    4.36 
   0  12   0  147.56    4.18 
  12   0   0  155.06    4.32 
 -12   0   0  151.69    4.40 
   0 -12   0  150.78    4.27 
  -2 -12   0   16.80    1.04 
  12  -2   0   17.68    1.09 
 -12   2   0   18.10    1.46 
 -12   2   0   16.30    1.25 
  -2 -12   0   17.98    0.99 
  12  -2   0   17.26    1.12 
  -4 -12   0   22.87    1.28 
  12  -4   0   23.01    1.30 
 -12   4   0   23.43    1.65 
   4  12   0   22.28    1.42 
 -12   4   0   21.55    1.37 
  -4 -12   0   23.00    1.14 
  -6 -12   0  177.06    5.09 
 -12   6   0  185.60    5.42 
  -6 -12   0  182.00    5.01 
  12  -6   0  182.16    5.17 
 -12   6   0  165.41    5.22 
 -12   6   0  185.67    5.05 
   6  12   0  174.99    5.17 
  12  -6   0  176.06    5.17 
  12  -8   0   16.39    1.55 
  -8 -12   0   16.17    1.25 
  -8 -12   0   16.88    1.62 
 -12   8   0   19.42    2.06 
  -7  13   0   40.28    2.50 
   7 -13   0   40.24    2.13 
  -5  13   0    2.69    0.68 
   5 -13   0    4.49    0.82 
 -13  -5   0    2.25    1.04 
   5 -13   0    2.72    0.76 
  -5  13   0    2.57    0.94 
 -13  -5   0    3.97    0.92 
  -3  13   0    7.04    0.95 
   3 -13   0    6.51    0.75 
 -13  -3   0    7.08    0.90 
   3 -13   0    6.72    0.79 
 -13  -3   0    7.64    1.07 
  -3  13   0    8.85    1.02 
 -13  -1   0    0.57    0.85 
  -1  13   0    0.57    0.53 
 -13  -1   0    1.15    0.78 
  13   1   0    1.57    0.63 
   1 -13   0    0.36    0.46 
  -1  13   0   -0.25    0.67 
  13   1   0    0.29    0.55 
   1 -13   0    0.05    0.49 
 -13  -1   0    1.29    0.88 
 -13   1   0   -0.32    0.91 
  -1 -13   0   -0.37    0.45 
 -13   1   0   -1.19    0.79 
   1  13   0   -1.04    0.56 
 -13   1   0   -0.12    0.79 
  13  -1   0   -0.03    0.58 
  13  -1   0   -0.16    0.59 
  -1 -13   0    0.15    0.38 
 -13   3   0    5.21    0.98 
  -3 -13   0    7.19    0.72 
   3  13   0    4.84    0.89 
 -13   3   0    7.23    0.92 
 -13   3   0    4.66    1.09 
  13  -3   0    8.96    1.08 
  13  -3   0    5.74    1.07 
   5  13   0    3.23    0.91 
  -5 -13   0    2.97    0.62 
  -5 -13   0    2.34    0.81 
 -13   5   0    2.76    1.07 
  13  -5   0    3.10    0.86 
  13  -5   0    4.13    0.77 
 -13   5   0    4.03    1.14 
  13  -7   0   47.29    2.61 
 -13   7   0   47.09    2.67 
  -7 -13   0   44.96    1.92 
  -7 -13   0   44.22    2.18 
  -6  14   0    3.16    1.33 
 -14  -4   0   30.06    2.24 
   4 -14   0   29.79    1.75 
   4 -14   0   34.07    1.81 
  -4  14   0   36.72    2.06 
   2 -14   0   11.87    1.19 
  -2  14   0   12.73    1.20 
 -14  -2   0   11.79    1.42 
  -2  14   0   11.33    1.19 
   2 -14   0   11.50    1.12 
 -14  -2   0   11.48    1.33 
  14   2   0   13.70    1.09 
  14   0   0  114.21    3.54 
  14   0   0  109.85    3.34 
   0 -14   0  106.47    3.43 
   0  14   0  112.77    3.52 
   0 -14   0  110.72    3.20 
 -14   0   0  113.55    3.74 
 -14   0   0  112.40    3.67 
  -2 -14   0   13.06    1.12 
  14  -2   0   12.99    1.34 
 -14   2   0   10.89    1.15 
  14  -2   0   10.33    0.98 
 -14   2   0   13.49    1.41 
  14  -4   0   35.80    1.97 
  -4 -14   0   34.68    1.82 
 -14   4   0   37.00    1.90 
 -14   4   0   39.41    2.33 
  -4 -14   0   32.66    1.65 
   4  14   0   33.59    2.05 
 -14   6   0    3.78    1.16 
  -6 -14   0    3.38    1.07 
 -14   6   0    3.04    1.89 
 -14   6   0    2.42    1.09 
  -6 -14   0    2.53    0.85 
  -3  15   0   40.38    2.41 
   3 -15   0   39.58    2.00 
  -1  15   0   19.17    1.83 
 -15  -1   0   21.17    2.17 
   1 -15   0   18.94    1.31 
  15   1   0   16.61    1.44 
   1 -15   0   17.33    1.58 
 -15  -1   0   21.58    2.30 
 -15   1   0   22.59    2.18 
 -15   1   0   16.41    1.71 
  -1 -15   0   19.58    1.48 
  15  -1   0   16.79    1.60 
 -15   3   0   35.68    2.80 
 -15   3   0   38.99    2.35 
  -3 -15   0   36.76    1.89 
  -1   0  -1   -0.50    0.04 
   0   1  -1   -0.52    0.07 
  -1   0  -1   -0.38    0.08 
   0  -1  -1   -0.51    0.06 
   0   1  -1   -0.54    0.04 
   1   0   1   -0.54    0.06 
   0   1   1   -0.39    0.07 
   0  -1   1   -0.54    0.07 
   1   0   1   -0.50    0.07 
   0  -1   1   -0.56    0.04 
   1   0   1   -0.51    0.05 
  -1   0   1   -0.44    0.06 
  -1   0   1   -0.55    0.04 
  -2  -1  -1   27.04    0.74 
  -1   2  -1   24.11    0.77 
  -2  -1  -1   26.94    0.72 
   1  -2  -1   22.64    0.70 
   1  -2  -1   24.50    0.70 
  -2  -1  -1   23.86    0.68 
   1  -2  -1   23.72    0.71 
  -1   2  -1   23.77    0.71 
  -2  -1   1   22.99    0.70 
   2   1   1   26.40    0.72 
  -1   2   1   23.95    0.71 
   2   1   1   23.89    0.67 
  -2  -1   1   23.09    0.67 
   1  -2   1   24.39    0.77 
  -1   2   1   24.03    0.69 
  -1   2   1   23.75    0.71 
   1  -2   1   23.25    0.71 
   2   1   1   26.49    0.73 
   1   2  -1   23.29    0.67 
  -1  -2  -1   23.09    0.70 
   2  -1  -1   22.53    0.68 
  -1  -2  -1   23.41    0.62 
   2  -1  -1   24.12    0.68 
  -2   1  -1   23.64    0.69 
  -2   1  -1   23.63    0.75 
  -2   1   1   23.69    0.69 
  -2   1   1   23.71    0.69 
  -2   1   1   22.24    0.68 
  -1  -2   1   23.17    0.68 
   2  -1   1   23.48    0.75 
   2  -1   1   23.28    0.70 
   1   2   1   23.70    0.70 
  -1  -2   1   23.29    0.68 
   2  -3  -1  120.07    3.13 
  -2   3  -1  119.57    3.25 
   2  -3  -1  119.97    3.15 
  -3  -2  -1  119.32    3.10 
  -2   3  -1  121.62    3.16 
   2  -3  -1  122.30    3.16 
  -3  -2  -1  120.60    3.10 
  -3  -2  -1  119.88    3.18 
  -3  -2   1  118.59    3.17 
  -3  -2   1  120.31    3.06 
   3   2   1  120.37    3.12 
  -3  -2   1  121.94    3.15 
   3   2   1  120.01    3.17 
   2  -3   1  117.48    3.23 
  -2   3   1  120.70    3.14 
  -2   3   1  122.56    3.15 
   2  -3   1  121.41    3.17 
  -2   3   1  119.64    3.15 
   0  -3  -1    0.01    0.07 
   0  -3  -1    0.03    0.10 
  -3   0  -1    0.13    0.13 
   3   0  -1    0.17    0.08 
   0   3  -1    0.13    0.11 
   0   3  -1   -0.05    0.07 
  -3   0  -1   -0.02    0.09 
   3   0  -1    0.11    0.08 
   0  -3  -1    0.12    0.07 
  -3   0  -1    0.01    0.11 
   3   0   1   -0.02    0.11 
   0  -3   1    0.00    0.11 
  -3   0   1    0.13    0.10 
   3   0   1    0.03    0.12 
   3   0   1    0.12    0.09 
   0   3   1    0.00    0.05 
  -3   0   1    0.00    0.07 
   0   3   1   -0.06    0.10 
   0   3   1   -0.05    0.07 
   0  -3   1    0.04    0.08 
   3  -2  -1  118.86    3.13 
   2   3  -1  119.71    3.13 
  -3   2  -1  118.34    3.16 
   3  -2  -1  123.58    3.15 
  -3   2  -1  118.98    3.24 
  -2  -3  -1  118.56    3.14 
   3  -2   1  114.54    3.21 
  -2  -3   1  122.21    3.08 
   3  -2   1  118.62    3.16 
  -3   2   1  119.33    3.14 
  -2  -3   1  121.38    3.13 
   2   3   1  119.39    3.15 
  -3   2   1  118.47    3.12 
  -3   2   1  121.58    3.15 
   3  -4  -1    1.31    0.19 
  -4  -3  -1    1.02    0.15 
   3  -4  -1    1.17    0.18 
  -3   4  -1    1.28    0.27 
  -4  -3  -1    0.93    0.23 
   4   3  -1    1.53    0.27 
  -3   4   1    1.19    0.19 
  -4  -3   1    0.91    0.23 
   4   3   1    1.03    0.15 
  -3   4   1    1.07    0.19 
  -3   4   1    0.80    0.18 
   3  -4   1    1.13    0.18 
  -4  -1  -1  460.78   11.39 
  -4  -1  -1  441.47   11.34 
   4   1  -1  448.20   11.29 
   1  -4  -1  445.55   11.33 
   1  -4  -1  447.76   11.34 
  -1   4  -1  446.68   11.36 
  -1   4  -1  450.22   11.43 
   1  -4  -1  458.14   11.34 
  -4  -1  -1  453.21   11.37 
   4   1  -1  450.55   11.36 
   4   1   1  450.63   11.34 
  -4  -1   1  447.83   11.39 
  -4  -1   1  448.34   11.30 
   1  -4   1  448.59   11.42 
   4   1   1  441.85   11.37 
  -1   4   1  453.08   11.35 
   1  -4   1  454.55   11.37 
   4   1   1  461.82   11.38 
  -1   4   1  456.24   11.35 
  -4  -1   1  451.12   11.36 
  -1   4   1  455.56   11.32 
   4  -1  -1  445.49   11.24 
   1   4  -1  443.63   11.19 
  -1  -4  -1  447.50   11.16 
  -4   1  -1  435.66   11.25 
   4  -1  -1  449.54   11.21 
  -4   1  -1  442.36   11.32 
  -1  -4  -1  434.32   11.22 
   4  -1   1  448.52   11.24 
  -4   1   1  452.07   11.22 
   4  -1   1  430.70   11.30 
   1   4   1  453.38   11.24 
  -4   1   1  449.70   11.25 
  -1  -4   1  453.08   11.21 
  -1  -4   1  446.35   11.22 
   1   4   1  451.27   11.16 
   4  -3  -1    1.34    0.22 
  -4   3  -1    1.13    0.23 
  -4   3  -1    0.85    0.24 
  -3  -4  -1    1.26    0.23 
   3   4  -1    1.27    0.24 
  -4   3   1    1.11    0.22 
  -3  -4   1    1.24    0.22 
   4  -3   1    1.05    0.19 
  -4   3   1    0.99    0.19 
  -4   3   1    1.20    0.19 
   4  -5  -1    1.43    0.26 
  -5  -4  -1    2.31    0.33 
  -4   5  -1    1.47    0.28 
   5   4  -1    1.21    0.32 
  -4   5  -1    0.97    0.30 
   4  -5  -1    1.29    0.24 
  -4   5   1    1.36    0.26 
  -5  -4   1    1.80    0.24 
  -4   5   1    1.57    0.25 
   4  -5   1    1.47    0.25 
  -5  -4   1    1.97    0.32 
   5   4   1    1.63    0.31 
  -4   5   1    0.96    0.23 
   4  -5   1    1.30    0.31 
   5   2  -1  103.11    2.66 
  -5  -2  -1  100.38    2.82 
  -5  -2  -1  101.99    2.74 
   2  -5  -1  105.94    2.79 
   2  -5  -1  103.56    2.74 
  -2   5  -1  100.43    2.88 
  -5  -2  -1  100.52    2.75 
  -2   5  -1  103.46    2.79 
  -5  -2   1  102.52    2.83 
  -5  -2   1  102.52    2.78 
   5   2   1  103.47    2.74 
  -2   5   1  104.99    2.76 
   2  -5   1  104.29    2.81 
  -2   5   1  104.00    2.75 
   5   2   1  105.21    2.90 
   5   2   1  103.90    2.76 
  -5  -2   1  101.27    2.68 
  -2   5   1  105.30    2.80 
   2  -5   1  103.87    2.90 
   0  -5  -1    0.13    0.11 
   5   0  -1   -0.11    0.11 
   0   5  -1    0.16    0.17 
   0  -5  -1    0.12    0.14 
   5   0  -1   -0.04    0.11 
  -5   0  -1    0.58    0.18 
  -5   0  -1   -0.26    0.18 
   0  -5  -1    0.03    0.11 
  -5   0  -1    0.23    0.19 
  -5   0   1    0.46    0.24 
  -5   0   1    0.19    0.13 
   0   5   1   -0.02    0.10 
   0  -5   1   -0.12    0.10 
   5   0   1    0.03    0.12 
   0   5   1   -0.13    0.12 
   5   0   1   -0.14    0.17 
   0  -5   1    0.12    0.17 
   5   0   1    0.11    0.17 
   0   5   1    0.02    0.16 
   5  -2  -1  102.40    2.79 
  -2  -5  -1   99.62    2.75 
  -2  -5  -1  101.25    2.68 
  -5   2  -1  100.66    2.88 
   2   5  -1  103.35    2.74 
  -2  -5   1  104.71    2.75 
   5  -2   1  100.95    2.79 
  -5   2   1   97.93    2.76 
  -5   2   1  108.81    2.95 
   2   5   1  102.37    2.79 
   2   5   1  102.19    2.64 
   5  -2   1  100.78    2.87 
  -5   4  -1    1.64    0.30 
  -4  -5  -1    1.19    0.19 
   5  -4  -1    1.38    0.24 
   5  -4  -1    1.36    0.25 
  -5   4  -1    1.11    0.29 
   4   5  -1    1.56    0.31 
  -4  -5  -1    1.28    0.28 
  -5   4   1    1.12    0.26 
  -5   4   1    1.41    0.23 
   5  -4   1    1.17    0.24 
   5  -4   1    1.60    0.32 
  -4  -5   1    1.60    0.32 
   4   5   1    1.72    0.33 
  -5   4   1    1.94    0.30 
  -6  -5  -1   23.28    0.85 
   5  -6  -1   22.81    0.94 
   5  -6  -1   24.85    0.97 
  -6  -5  -1   23.85    1.01 
  -5   6  -1   24.43    0.98 
  -5   6  -1   23.82    1.08 
   6   5  -1   22.33    1.05 
   5  -6   1   25.33    1.00 
  -5   6   1   23.67    0.88 
  -6  -5   1   24.31    0.90 
  -5   6   1   25.61    1.02 
  -5   6   1   25.10    0.97 
   5  -6   1   22.98    1.06 
   6   5   1   24.39    1.01 
  -6  -5   1   24.42    1.04 
   3  -6  -1   79.13    2.19 
  -6  -3  -1   75.46    2.06 
  -3   6  -1   72.78    2.16 
   6   3  -1   83.34    2.22 
  -3   6  -1   72.61    2.27 
  -6  -3  -1   74.66    2.22 
   3  -6  -1   74.85    2.09 
  -6  -3  -1   73.48    2.11 
  -6  -3   1   76.71    2.23 
   6   3   1   77.63    2.08 
  -6  -3   1   73.46    2.14 
   6   3   1   73.67    2.20 
  -3   6   1   75.45    2.14 
   3  -6   1   75.75    2.25 
  -3   6   1   74.36    2.18 
  -3   6   1   78.10    2.13 
   3  -6   1   75.20    2.19 
  -1   6  -1    0.01    0.23 
  -6  -1  -1   -0.23    0.15 
  -6  -1  -1   -0.08    0.24 
   1  -6  -1   -0.06    0.14 
   6   1  -1   -0.02    0.16 
  -6  -1  -1   -0.25    0.20 
  -1   6  -1   -0.08    0.14 
   6   1  -1   -0.17    0.12 
   1  -6  -1   -0.25    0.15 
   6   1   1   -0.10    0.22 
   1  -6   1   -0.22    0.14 
   1  -6   1   -0.28    0.20 
  -1   6   1   -0.20    0.22 
  -6  -1   1   -0.04    0.18 
  -1   6   1   -0.17    0.15 
   6   1   1   -0.13    0.20 
   6   1   1   -0.43    0.14 
  -6  -1   1   -0.09    0.14 
  -1   6   1   -0.18    0.13 
  -6  -1   1    0.04    0.24 
   1   6  -1    0.16    0.20 
  -6   1  -1   -0.30    0.17 
  -6   1  -1   -0.15    0.23 
   1   6  -1   -0.17    0.14 
   6  -1  -1   -0.23    0.15 
  -1  -6  -1   -0.17    0.17 
  -1  -6  -1   -0.03    0.13 
  -6   1  -1   -0.30    0.24 
  -1  -6  -1   -0.21    0.11 
   6  -1  -1   -0.41    0.14 
   6  -1   1    0.22    0.19 
  -6   1   1   -0.41    0.27 
  -1  -6   1    0.02    0.15 
   1   6   1   -0.11    0.13 
   6  -1   1    0.01    0.24 
  -1  -6   1   -0.28    0.16 
   1   6   1   -0.02    0.14 
   1   6   1   -0.13    0.19 
   6  -1   1    0.03    0.25 
  -6   1   1   -0.34    0.19 
  -6   1   1   -0.01    0.17 
   6  -3  -1   72.05    2.12 
  -6   3  -1   73.15    2.19 
   6  -3  -1   76.28    2.17 
  -6   3  -1   70.29    2.24 
   3   6  -1   73.50    2.12 
  -3  -6  -1   74.92    2.04 
  -3  -6  -1   74.35    2.13 
  -6   3   1   74.03    2.18 
  -6   3   1   75.16    2.17 
   3   6   1   74.76    2.15 
  -3  -6   1   77.03    2.10 
  -3  -6   1   74.75    2.10 
   6  -3   1   74.77    2.17 
   6  -3   1   73.56    2.23 
   5   6  -1   23.67    1.03 
   6  -5  -1   25.31    0.98 
  -5  -6  -1   23.71    0.84 
  -5  -6  -1   24.99    1.00 
  -6   5  -1   22.95    0.99 
  -6   5   1   23.70    0.89 
  -6   5   1   23.90    1.01 
   6  -5   1   24.00    1.07 
   5   6   1   24.55    1.03 
  -5  -6   1   24.70    0.99 
   6  -5   1   25.03    0.99 
  -6   5   1   24.06    0.99 
   7   6  -1    6.16    0.71 
  -7  -6  -1    5.58    0.65 
   6  -7  -1    5.20    0.60 
   6  -7  -1    4.63    0.58 
  -6   7  -1    5.95    0.62 
  -6   7  -1    5.03    0.61 
  -7  -6  -1    5.42    0.48 
  -6   7   1    4.69    0.57 
   6  -7   1    4.59    0.53 
   7   6   1    4.71    0.57 
  -6   7   1    4.55    0.66 
  -7  -6   1    6.35    0.70 
  -7  -6   1    4.32    0.49 
   6  -7   1    6.60    0.72 
   4  -7  -1   28.09    1.07 
  -7  -4  -1   27.09    0.99 
   7   4  -1   28.11    1.19 
  -4   7  -1   29.99    1.21 
  -7  -4  -1   28.02    1.16 
   4  -7  -1   28.09    1.05 
  -4   7  -1   27.59    1.06 
  -4   7   1   27.01    1.01 
   4  -7   1   29.08    1.09 
  -7  -4   1   29.86    1.17 
   7   4   1   27.57    1.13 
   4  -7   1   28.29    1.15 
  -7  -4   1   28.80    1.04 
  -4   7   1   28.11    1.04 
  -4   7   1   27.53    1.11 
  -7  -2  -1   42.56    1.45 
  -7  -2  -1   43.15    1.36 
   7   2  -1   42.72    1.23 
   2  -7  -1   44.13    1.32 
   2  -7  -1   44.13    1.37 
  -2   7  -1   44.29    1.38 
   2  -7  -1   43.87    1.35 
  -7  -2  -1   41.58    1.36 
  -2   7  -1   43.71    1.50 
   2  -7   1   42.80    1.44 
  -2   7   1   43.18    1.45 
  -2   7   1   42.45    1.35 
  -7  -2   1   42.22    1.46 
   7   2   1   44.09    1.44 
   2  -7   1   42.61    1.39 
   7   2   1   44.07    1.35 
  -7  -2   1   43.13    1.30 
  -2   7   1   44.88    1.34 
  -7  -2   1   42.41    1.38 
   7   2   1   43.64    1.34 
   0   7  -1    0.27    0.17 
   0  -7  -1    0.70    0.22 
   0   7  -1    0.26    0.24 
  -7   0  -1   -0.04    0.20 
   0  -7  -1    0.10    0.15 
  -7   0  -1   -0.02    0.26 
   7   0  -1    0.53    0.18 
   0  -7  -1    0.81    0.21 
  -7   0  -1    0.33    0.26 
   7   0  -1   -0.14    0.16 
   7   0   1   -0.14    0.24 
   0   7   1    0.14    0.15 
   7   0   1    0.14    0.20 
   7   0   1   -0.03    0.28 
   0  -7   1    0.02    0.15 
   0  -7   1   -0.13    0.20 
  -7   0   1    0.03    0.21 
  -7   0   1   -0.50    0.27 
   0   7   1    0.27    0.25 
  -7   0   1    0.00    0.19 
   0   7   1   -0.02    0.19 
  -7   2  -1   42.13    1.43 
  -2  -7  -1   43.22    1.28 
   7  -2  -1   41.14    1.34 
   7  -2  -1   42.92    1.39 
  -2  -7  -1   42.94    1.35 
  -7   2  -1   40.65    1.34 
  -7   2  -1   40.10    1.47 
   7  -2   1   43.56    1.39 
  -7   2   1   43.00    1.40 
   2   7   1   44.11    1.39 
  -2  -7   1   43.24    1.34 
   2   7   1   42.93    1.23 
  -7   2   1   41.43    1.39 
   7  -2   1   42.43    1.45 
  -7   2   1   41.02    1.41 
  -7   4  -1   28.83    1.20 
  -4  -7  -1   27.65    0.93 
  -7   4  -1   29.24    1.13 
   4   7  -1   27.48    1.07 
   7  -4  -1   26.36    1.06 
   7  -4  -1   28.02    1.05 
  -4  -7  -1   26.85    1.06 
  -4  -7   1   27.77    0.99 
  -7   4   1   26.66    1.11 
   7  -4   1   28.07    1.17 
  -7   4   1   27.87    1.11 
  -7   4   1   26.57    1.00 
   7  -4   1   28.12    1.08 
   4   7   1   25.35    1.10 
  -4  -7   1   27.64    1.05 
  -6  -7  -1    4.75    0.60 
  -6  -7  -1    4.75    0.42 
   6   7  -1    6.10    0.63 
   7  -6  -1    5.31    0.59 
  -6  -7  -1    4.80    0.45 
  -7   6  -1    3.67    0.48 
   7  -6  -1    4.55    0.58 
  -7   6  -1    3.93    0.61 
  -6  -7   1    4.50    0.48 
  -6  -7   1    5.91    0.71 
  -6  -7   1    4.56    0.47 
  -7   6   1    4.52    0.63 
  -7   6   1    4.31    0.56 
  -7   6   1    4.80    0.54 
   6   7   1    4.64    0.56 
   7  -6   1    4.30    0.51 
   7  -6   1    5.30    0.61 
   8   7  -1   48.52    1.87 
  -8  -7  -1   45.92    1.57 
  -8  -7  -1   48.07    1.84 
  -7   8  -1   55.37    2.25 
   7  -8  -1   47.92    1.73 
  -7   8  -1   46.40    1.95 
  -8  -7   1   43.25    1.93 
  -8  -7   1   47.16    1.62 
   8   7   1   46.24    1.76 
   7  -8   1   46.72    1.80 
  -7   8   1   46.91    1.73 
  -7   8   1   47.91    1.86 
   7  -8   1   48.50    1.77 
  -8  -5  -1   96.11    2.76 
   5  -8  -1   96.25    2.83 
  -5   8  -1   96.08    3.02 
   5  -8  -1   96.89    2.86 
  -5   8  -1   94.95    2.84 
   8   5  -1   92.94    2.91 
  -8  -5  -1   98.19    2.96 
  -8  -5   1   95.05    2.79 
   5  -8   1   93.68    2.91 
  -5   8   1   98.00    2.75 
  -8  -5   1  102.57    2.97 
  -5   8   1   96.60    2.94 
   8   5   1   98.42    2.91 
   5  -8   1   98.70    2.91 
   3  -8  -1   76.17    2.23 
  -3   8  -1   75.18    2.23 
  -8  -3  -1   73.54    2.30 
  -8  -3  -1   73.22    2.20 
  -8  -3  -1   74.70    2.12 
   3  -8  -1   74.50    2.11 
   3  -8  -1   74.65    2.19 
  -3   8  -1   73.96    2.37 
  -3   8   1   75.28    2.18 
  -8  -3   1   73.68    2.32 
  -3   8   1   73.66    2.16 
   3  -8   1   74.43    2.25 
  -8  -3   1   75.39    2.23 
  -3   8   1   76.14    2.28 
   8   3   1   75.63    2.10 
   3  -8   1   72.57    2.28 
   8   3   1   73.94    2.28 
   8   1  -1   81.44    2.28 
   8   1  -1   83.40    2.42 
   1  -8  -1   83.55    2.34 
   1  -8  -1   81.82    2.37 
  -8  -1  -1   81.76    2.42 
   1  -8  -1   83.86    2.33 
  -1   8  -1   83.38    2.39 
  -8  -1  -1   84.54    2.45 
  -8  -1  -1   83.58    2.48 
  -1   8  -1   86.79    2.50 
  -1   8   1   84.18    2.38 
   8   1   1   84.39    2.40 
   8   1   1   83.11    2.40 
  -8  -1   1   80.53    2.49 
  -1   8   1   83.66    2.34 
  -1   8   1   84.74    2.41 
  -8  -1   1   82.74    2.37 
   1  -8   1   81.14    2.41 
  -8  -1   1   80.92    2.44 
   8   1   1   86.26    2.47 
   1  -8   1   82.49    2.40 
  -8   1  -1   81.02    2.45 
   8  -1  -1   82.88    2.42 
  -8   1  -1   82.09    2.52 
  -1  -8  -1   82.65    2.25 
  -1  -8  -1   83.34    2.35 
   8  -1  -1   78.43    2.33 
  -8   1  -1   80.47    2.40 
  -1  -8  -1   85.09    2.33 
   1   8  -1   82.93    2.34 
   8  -1   1   82.38    2.41 
  -8   1   1   80.68    2.45 
  -1  -8   1   83.70    2.29 
  -8   1   1   80.59    2.45 
  -1  -8   1   84.76    2.38 
   1   8   1   84.31    2.40 
   1   8   1   85.55    2.32 
   8  -1   1   81.37    2.44 
  -8   1   1   84.55    2.43 
  -8   3  -1   74.27    2.38 
   3   8  -1   71.73    2.17 
   8  -3  -1   73.22    2.23 
  -3  -8  -1   75.12    2.10 
  -8   3  -1   72.60    2.28 
  -3  -8  -1   72.77    2.19 
   8  -3  -1   72.53    2.19 
   8  -3   1   73.61    2.23 
   8  -3   1   73.56    2.29 
  -8   3   1   72.52    2.28 
   3   8   1   75.76    2.25 
  -8   3   1   75.61    2.28 
  -8   3   1   72.35    2.22 
  -5  -8  -1   94.92    2.83 
  -8   5  -1   96.14    2.88 
  -5  -8  -1   95.92    2.69 
   8  -5  -1   97.46    2.86 
  -8   5  -1   95.43    3.01 
   5   8  -1   95.45    2.84 
   8  -5  -1   92.64    2.82 
  -8   5   1   92.65    2.88 
  -8   5   1   97.38    2.92 
  -5  -8   1   98.78    2.77 
   8  -5   1   94.55    2.85 
   5   8   1   95.90    2.86 
  -8   5   1   96.50    2.74 
  -5  -8   1   97.35    2.81 
   8  -5   1   94.40    2.91 
  -8   7  -1   49.69    1.83 
  -7  -8  -1   46.67    1.57 
   7   8  -1   47.24    1.87 
  -8   7  -1   50.02    2.00 
  -7  -8  -1   48.64    1.59 
   8  -7  -1   49.57    1.77 
  -7  -8  -1   48.48    1.84 
   8  -7  -1   52.16    2.32 
  -8   7   1   48.07    1.78 
  -7  -8   1   48.74    1.64 
  -7  -8   1   48.44    1.66 
  -8   7   1   47.42    1.89 
   7   8   1   49.39    1.78 
  -7  -8   1   45.01    1.97 
   8  -7   1   48.26    1.83 
  -8   9  -1   18.05    1.49 
  -9  -8  -1   17.81    1.34 
   8  -9  -1   16.91    1.11 
   8  -9  -1   16.94    1.12 
  -9  -8  -1   18.45    0.97 
  -8   9   1   18.14    1.18 
  -9  -8   1   18.47    1.36 
   8  -9   1   18.89    1.25 
  -8   9   1   17.72    1.34 
   8  -9   1   18.33    1.16 
  -6   9  -1   18.25    1.33 
   6  -9  -1   17.02    0.98 
   6  -9  -1   15.76    1.15 
  -9  -6  -1   17.45    1.25 
   9   6  -1   16.25    1.21 
  -9  -6  -1   17.27    0.89 
   6  -9   1   19.19    1.07 
  -6   9   1   15.66    1.14 
  -6   9   1   16.28    0.97 
  -9  -6   1   17.73    0.90 
  -9  -6   1   18.73    1.36 
   6  -9   1   16.65    1.10 
   4  -9  -1   25.45    0.98 
  -9  -4  -1   26.44    1.30 
  -9  -4  -1   23.97    1.19 
  -4   9  -1   26.31    1.33 
   4  -9  -1   25.30    1.08 
   4  -9  -1   25.92    1.14 
  -4   9  -1   25.56    1.09 
  -9  -4   1   24.97    1.07 
  -4   9   1   25.37    1.07 
   4  -9   1   26.26    1.16 
  -9  -4   1   27.49    1.30 
  -4   9   1   28.16    1.24 
   4  -9   1   25.81    1.19 
   9   4   1   26.63    1.24 
  -4   9   1   24.45    1.06 
   9   2  -1    1.54    0.25 
   2  -9  -1    1.53    0.32 
  -2   9  -1    2.65    0.51 
   2  -9  -1    1.43    0.32 
  -9  -2  -1    1.42    0.49 
   2  -9  -1    1.76    0.34 
  -9  -2  -1    1.67    0.38 
  -9  -2  -1    1.33    0.40 
  -2   9  -1    1.90    0.35 
   9   2  -1    1.63    0.35 
  -9  -2   1    1.85    0.38 
   2  -9   1    1.51    0.38 
   9   2   1    1.47    0.37 
   9   2   1    2.24    0.36 
   2  -9   1    1.33    0.32 
  -2   9   1    2.76    0.42 
  -2   9   1    1.56    0.42 
  -2   9   1    1.84    0.32 
  -9  -2   1    2.07    0.53 
  -9  -2   1    1.70    0.40 
   9   0  -1   -0.20    0.24 
  -9   0  -1    0.37    0.33 
  -9   0  -1    0.73    0.41 
  -9   0  -1    0.22    0.40 
   9   0  -1    0.13    0.34 
   0  -9  -1    0.41    0.22 
   0   9  -1   -0.02    0.33 
   0   9  -1    0.26    0.24 
   0  -9  -1   -0.02    0.24 
   0  -9  -1    0.23    0.28 
   0   9   1   -0.30    0.33 
   9   0   1    0.18    0.41 
  -9   0   1    0.41    0.41 
  -9   0   1    0.34    0.34 
   0  -9   1    0.10    0.27 
   0  -9   1    0.08    0.23 
   0   9   1    0.34    0.23 
   9   0   1   -0.19    0.33 
  -9   0   1    0.16    0.31 
   9   0   1    0.46    0.31 
   0   9   1    0.40    0.29 
  -9   2  -1    1.75    0.43 
  -2  -9  -1    1.67    0.30 
  -9   2  -1    1.56    0.51 
  -2  -9  -1    1.15    0.36 
   9  -2  -1    1.64    0.39 
   9  -2  -1    1.47    0.35 
  -9   2  -1    1.70    0.40 
   9  -2   1    1.36    0.36 
  -9   2   1    2.52    0.46 
   2   9   1    2.39    0.47 
  -9   2   1    1.43    0.41 
  -2  -9   1    1.97    0.34 
   2   9   1    1.28    0.29 
  -9   2   1    1.73    0.50 
   9  -2   1    1.66    0.43 
  -4  -9  -1   25.54    1.13 
   9  -4  -1   25.30    1.14 
  -9   4  -1   25.09    1.21 
  -4  -9  -1   25.76    0.97 
   9  -4  -1   25.52    1.12 
  -9   4  -1   25.49    1.37 
   4   9  -1   26.32    1.16 
   9  -4   1   25.46    1.19 
  -9   4   1   25.23    1.21 
  -4  -9   1   25.86    1.08 
   4   9   1   25.83    1.22 
  -9   4   1   26.05    1.24 
  -9   4   1   27.33    1.26 
   9  -4   1   24.81    1.13 
  -4  -9   1   26.23    1.06 
   6   9  -1   15.92    1.18 
  -6  -9  -1   18.28    0.84 
  -9   6  -1   18.00    1.06 
   9  -6  -1   16.98    1.00 
  -9   6  -1   17.50    1.30 
  -6  -9  -1   18.36    1.48 
  -6  -9  -1   15.94    0.83 
   9  -6  -1   18.36    1.05 
   9  -6   1   18.01    1.11 
  -9   6   1   18.98    1.00 
   6   9   1   16.91    1.05 
  -6  -9   1   17.53    1.08 
  -9   6   1   17.29    1.09 
   9  -6   1   18.10    1.04 
  -9   6   1   16.91    0.94 
  -6  -9   1   18.11    0.92 
  -9   6   1   16.35    1.15 
  -8  -9  -1   19.76    1.32 
  -8  -9  -1   17.15    0.95 
   8   9  -1   18.58    1.57 
  -8  -9  -1   17.70    0.95 
  -9   8  -1   18.56    1.49 
   9  -8  -1   17.00    1.13 
  -9   8   1   17.99    1.05 
  -8  -9   1   16.85    1.03 
  -9   8   1   19.29    1.37 
  -9   8   1   16.63    1.17 
   9  -8   1   18.02    1.18 
  -8  -9   1   18.79    1.35 
   9 -10  -1   30.47    1.71 
 -10  -9  -1   31.01    1.38 
  -9  10  -1   29.39    1.97 
  10   9  -1   33.48    2.08 
 -10  -9  -1   34.26    2.08 
   9 -10  -1   33.29    1.59 
 -10  -9  -1   31.49    1.68 
 -10  -9   1   31.48    1.54 
   9 -10   1   30.22    1.60 
   9 -10   1   32.47    1.80 
  -9  10   1   34.39    1.89 
  -9  10   1   31.34    1.71 
 -10  -9   1   32.74    1.48 
 -10  -9   1   33.47    1.93 
  10   9   1   31.19    1.93 
   7 -10  -1   21.03    1.21 
 -10  -7  -1   22.65    1.14 
 -10  -7  -1   22.35    1.50 
  -7  10  -1   22.94    1.63 
   7 -10  -1   24.10    1.26 
 -10  -7   1   20.84    1.50 
   7 -10   1   21.96    1.32 
   7 -10   1   21.70    1.28 
  -7  10   1   23.03    1.25 
  -7  10   1   22.27    1.48 
   5 -10  -1   98.29    2.99 
  -5  10  -1   96.60    3.05 
 -10  -5  -1  101.37    2.99 
 -10  -5  -1   98.95    3.18 
   5 -10  -1  104.04    3.07 
  -5  10  -1  100.29    3.28 
 -10  -5   1  102.43    3.20 
  -5  10   1  102.16    3.18 
   5 -10   1  103.21    3.11 
  -5  10   1  101.11    2.99 
 -10  -5   1   98.17    2.99 
  10   5   1  100.70    3.11 
   5 -10   1   98.19    3.09 
   3 -10  -1    0.56    0.36 
   3 -10  -1    0.51    0.36 
 -10  -3  -1    0.23    0.43 
  -3  10  -1    0.43    0.34 
   3 -10  -1    0.39    0.39 
 -10  -3  -1    0.32    0.41 
  -3  10  -1    0.37    0.54 
  -3  10   1    0.77    0.35 
 -10  -3   1    0.33    0.39 
  -3  10   1    0.29    0.43 
   3 -10   1    0.19    0.38 
 -10  -3   1   -0.61    0.35 
  -3  10   1   -0.86    0.42 
  10   3   1    0.43    0.61 
 -10  -3   1    0.58    0.58 
   3 -10   1    0.25    0.44 
   1 -10  -1    5.16    0.58 
  -1  10  -1    4.95    0.56 
 -10  -1  -1    4.03    0.67 
  -1  10  -1    6.18    0.64 
 -10  -1  -1    4.94    0.63 
   1 -10  -1    4.71    0.51 
 -10  -1  -1    5.62    0.69 
  10   1  -1    4.61    0.51 
   1 -10  -1    6.02    0.57 
   1 -10   1    5.26    0.53 
 -10  -1   1    5.12    0.58 
 -10  -1   1    4.97    0.72 
  -1  10   1    4.40    0.54 
   1 -10   1    4.86    0.60 
  10   1   1    5.21    0.63 
  10   1   1    4.99    0.64 
 -10  -1   1    5.33    0.68 
  10   1   1    5.35    0.69 
  -1  10   1    5.12    0.54 
 -10   1  -1    4.77    0.60 
 -10   1  -1    4.73    0.61 
   1  10  -1    5.50    0.61 
  10  -1  -1    4.78    0.59 
 -10   1  -1    4.61    0.68 
  -1 -10  -1    4.94    0.51 
  -1 -10  -1    5.09    0.61 
  -1 -10  -1    4.41    0.44 
  -1 -10   1    5.68    0.58 
  10  -1   1    4.92    0.55 
   1  10   1    4.88    0.58 
 -10   1   1    5.25    0.61 
  -1 -10   1    4.90    0.48 
  10  -1   1    5.61    0.59 
 -10   1   1    6.21    0.72 
 -10   1   1    4.73    0.59 
  10  -3  -1    0.53    0.40 
  -3 -10  -1    0.03    0.29 
 -10   3  -1    0.26    0.45 
  -3 -10  -1    0.42    0.42 
  10  -3  -1    0.15    0.41 
 -10   3  -1    0.39    0.45 
 -10   3  -1    1.09    0.61 
 -10   3   1    0.31    0.47 
  -3 -10   1    0.86    0.38 
  -3 -10   1    0.23    0.31 
 -10   3   1    0.63    0.60 
  10  -3   1    0.51    0.44 
  10  -3   1   -0.01    0.41 
   3  10   1    0.33    0.52 
 -10   3   1   -0.20    0.50 
  10  -5  -1   99.13    3.02 
 -10   5  -1   96.21    3.08 
  -5 -10  -1  101.04    3.03 
  10  -5  -1  100.28    3.07 
 -10   5  -1  105.11    3.31 
   5  10  -1   96.32    3.02 
  -5 -10  -1  101.71    2.89 
   5  10   1   96.31    3.05 
  -5 -10   1  101.82    2.99 
 -10   5   1   99.82    3.02 
 -10   5   1   98.64    3.16 
 -10   5   1   99.15    3.11 
  -5 -10   1  101.42    2.96 
  10  -5   1   99.81    3.10 
 -10   5   1   96.79    2.94 
  10  -5   1  100.88    3.06 
 -10   7  -1   20.61    1.57 
  -7 -10  -1   23.15    1.40 
  10  -7  -1   22.08    1.28 
  -7 -10  -1   22.31    1.08 
  -7 -10  -1   22.02    1.05 
   7  10  -1   21.91    1.54 
 -10   7   1   20.83    1.44 
  -7 -10   1   22.38    1.15 
  -7 -10   1   22.44    1.40 
  10  -7   1   23.40    1.26 
 -10   7   1   20.88    1.16 
 -10   7   1   21.59    1.31 
 -10   7   1   30.71    2.17 
  -9 -10  -1   31.81    1.75 
  10  -9  -1   32.63    1.60 
 -10   9  -1   32.18    2.01 
   9  10  -1   30.90    2.10 
  -9 -10  -1   30.04    1.37 
  10  -9  -1   34.73    2.01 
  -9 -10  -1   24.47    1.83 
 -10   9  -1   32.17    1.89 
  10  -9   1   32.14    1.61 
  -9 -10   1   34.19    1.57 
 -10   9   1   30.09    1.74 
  -9 -10   1   33.40    1.81 
 -10   9   1   30.25    1.84 
  10  -9   1   31.78    1.89 
   9  10   1   31.91    1.82 
  -9 -10   1   32.61    1.52 
  10 -11  -1   16.70    1.70 
 -11 -10  -1   18.09    1.34 
 -11 -10   1   20.94    2.17 
 -11 -10   1   22.29    1.91 
 -11  -8  -1    1.20    0.88 
   8 -11  -1    1.09    0.75 
   8 -11  -1   -0.80    0.58 
 -11  -8  -1    0.20    0.62 
  -8  11  -1    0.80    0.99 
  11   8  -1   -0.71    1.05 
  -8  11   1   -0.73    0.83 
 -11  -8   1   -1.24    0.87 
  -8  11   1   -0.23    0.76 
   8 -11   1    0.38    0.71 
   8 -11   1   -0.26    0.78 
 -11  -8   1    0.65    0.66 
 -11  -6  -1   16.45    1.24 
  -6  11  -1   15.23    1.47 
   6 -11  -1   14.63    1.08 
  -6  11  -1   12.81    1.10 
 -11  -6  -1   14.45    1.44 
   6 -11  -1   16.04    1.11 
   6 -11   1   14.00    1.23 
   6 -11   1   17.64    1.20 
 -11  -6   1   15.27    1.42 
  11   6   1   13.63    1.43 
  -6  11   1   15.39    1.34 
  -6  11   1   14.97    1.10 
 -11  -6   1   14.18    1.02 
 -11  -4  -1   30.70    1.38 
 -11  -4  -1   31.79    1.66 
   4 -11  -1   31.26    1.33 
   4 -11  -1   32.00    1.38 
  -4  11  -1   29.40    1.33 
  -4  11  -1   34.10    1.65 
  -4  11   1   31.80    1.32 
   4 -11   1   31.32    1.44 
 -11  -4   1   29.25    1.64 
  11   4   1   28.02    1.58 
  -4  11   1   32.71    1.51 
   4 -11   1   30.99    1.42 
 -11  -2  -1  140.54    4.02 
   2 -11  -1  136.21    3.74 
   2 -11  -1  135.90    3.76 
 -11  -2  -1  132.32    3.89 
 -11  -2  -1  134.65    3.85 
  -2  11  -1  133.64    3.83 
   2 -11  -1  122.08    4.41 
  -2  11  -1  135.49    4.01 
  11   2  -1  138.92    3.65 
  11   2   1  138.79    3.95 
  -2  11   1  138.11    3.93 
 -11  -2   1  134.29    4.01 
 -11  -2   1  134.42    3.80 
  -2  11   1  134.89    3.78 
  11   2   1  136.22    3.86 
   2 -11   1  138.81    3.85 
  11   2   1  131.73    3.72 
   2 -11   1  133.75    3.90 
   0  11  -1    0.64    0.35 
   0  11  -1    0.40    0.44 
 -11   0  -1    0.15    0.67 
   0 -11  -1   -0.15    0.30 
   0 -11  -1   -0.53    0.39 
 -11   0  -1   -0.31    0.45 
 -11   0  -1   -0.34    0.61 
  11   0  -1    1.03    0.48 
  11   0  -1    0.51    0.36 
   0 -11  -1   -0.24    0.31 
   0 -11   1    0.47    0.37 
  11   0   1    0.07    0.41 
   0  11   1   -0.33    0.40 
   0  11   1    0.30    0.35 
   0  11   1   -0.29    0.48 
   0 -11   1   -0.15    0.37 
 -11   0   1   -0.08    0.60 
 -11   0   1    0.94    0.55 
  11  -2  -1  140.64    3.97 
 -11   2  -1  133.38    3.99 
  -2 -11  -1  135.94    3.81 
 -11   2  -1  138.24    4.20 
  -2 -11  -1  134.23    3.87 
  11  -2  -1  133.58    3.84 
 -11   2  -1  136.75    3.92 
 -11   2   1  136.07    4.03 
  -2 -11   1  135.15    3.86 
  11  -2   1  135.73    3.93 
 -11   2   1  136.15    3.98 
   2  11   1  142.43    3.95 
  11  -2   1  132.55    3.92 
 -11   4  -1   33.33    1.74 
  -4 -11  -1   30.78    1.39 
  11  -4  -1   31.89    1.43 
  11  -4  -1   29.66    1.36 
 -11   4  -1   30.19    1.35 
  11  -4   1   29.10    1.41 
 -11   4   1   31.20    1.51 
  -4 -11   1   30.21    1.33 
 -11   4   1   31.06    1.61 
 -11   4   1   32.73    1.55 
  11  -4   1   30.11    1.47 
   4  11   1   31.91    1.50 
  -4 -11   1   31.70    1.30 
  11  -6  -1   14.03    1.14 
  11  -6  -1   15.28    1.12 
  -6 -11  -1   15.02    0.94 
  -6 -11  -1   15.16    1.24 
  -6 -11  -1   16.85    0.96 
 -11   6  -1   15.11    1.51 
   6  11  -1   15.86    1.41 
 -11   6   1   15.61    1.09 
  11  -6   1   14.10    1.24 
  11  -6   1   16.24    1.15 
 -11   6   1   15.72    1.35 
  -6 -11   1   15.94    1.02 
 -11   6   1   13.78    1.36 
 -11   6   1   14.17    1.26 
  -6 -11   1   15.25    1.23 
  -8 -11  -1    0.47    0.51 
  -8 -11  -1   -0.72    0.79 
  11  -8  -1   -0.17    0.66 
  -8 -11  -1   -0.10    0.56 
   8  11  -1    0.49    1.06 
 -11   8  -1    0.28    1.02 
  -8 -11   1   -0.72    0.52 
 -11   8   1    0.54    1.03 
 -11   8   1   -0.35    0.75 
  -8 -11   1   -0.02    0.60 
  -8 -11   1   -0.12    0.80 
   8  11   1   -0.69    0.86 
 -11   8   1   -1.12    0.90 
 -11   8   1    0.26    0.83 
  11  -8   1    0.76    0.65 
 -10 -11  -1   20.00    1.34 
  11 -10  -1   21.39    1.81 
 -10 -11   1   17.66    2.08 
 -10 -11   1   21.21    1.64 
   9 -12  -1    0.64    0.93 
 -12  -7  -1    1.06    0.81 
 -12  -7  -1   -0.02    1.03 
   7 -12  -1   -0.50    0.68 
  -7  12  -1    0.65    0.99 
   7 -12  -1    1.03    0.97 
 -12  -7   1    0.06    1.05 
   7 -12   1    1.12    0.90 
  -7  12   1   -0.19    0.70 
  -7  12   1    0.34    0.89 
   7 -12   1    0.43    0.68 
   5 -12  -1    2.52    0.62 
 -12  -5  -1    2.75    0.96 
 -12  -5  -1    0.15    0.89 
   5 -12  -1    1.36    0.55 
  -5  12  -1    2.28    0.89 
  -5  12  -1    1.71    0.56 
  -5  12   1    2.19    0.60 
   5 -12   1    2.26    0.63 
  -5  12   1    2.09    0.75 
   5 -12   1    1.00    0.70 
 -12  -5   1    1.90    0.91 
  12   5   1    1.47    1.02 
 -12  -5   1    1.14    0.64 
  -3  12  -1   16.54    1.03 
   3 -12  -1   15.41    0.98 
 -12  -3  -1   14.41    1.08 
   3 -12  -1   14.54    1.00 
 -12  -3  -1   17.10    1.36 
  -3  12  -1   14.97    1.37 
   3 -12  -1   16.20    1.03 
  -3  12   1   13.04    0.96 
   3 -12   1   16.01    1.11 
   3 -12   1   16.25    1.09 
  12   3   1   15.23    1.35 
  12   3   1   14.36    0.89 
  -3  12   1   16.17    1.24 
 -12  -3   1   14.20    1.38 
 -12  -1  -1   -0.64    0.71 
   1 -12  -1    0.21    0.39 
   1 -12  -1    0.24    0.42 
 -12  -1  -1    0.73    0.72 
   1 -12  -1    0.20    0.50 
  -1  12  -1    0.08    0.41 
  12   1  -1    0.42    0.48 
  12   1  -1    1.05    0.54 
  -1  12  -1   -0.05    0.59 
  12   1   1    0.78    0.52 
  -1  12   1    0.75    0.40 
 -12  -1   1   -0.41    0.64 
   1 -12   1    0.32    0.49 
   1 -12   1   -0.65    0.45 
 -12  -1   1    1.12    0.78 
  12   1   1    0.67    0.60 
  -1  12   1    0.29    0.53 
  -1  12   1    0.00    0.57 
  -1 -12  -1   -0.12    0.50 
 -12   1  -1   -1.07    1.17 
 -12   1  -1    1.25    0.74 
  12  -1  -1    0.75    0.50 
  12  -1  -1    1.00    0.47 
  -1 -12  -1    0.29    0.32 
  -1 -12  -1   -0.63    0.40 
   1  12  -1   -0.07    0.45 
 -12   1   1    1.01    1.16 
   1  12   1    0.60    0.46 
  -1 -12   1    0.25    0.34 
  -1 -12   1    0.03    0.39 
   1  12   1    0.91    0.62 
  12  -1   1   -0.75    0.49 
 -12   1   1    0.33    0.72 
  12  -1   1    0.95    0.54 
  12  -3  -1   13.93    1.06 
  -3 -12  -1   13.77    0.92 
  12  -3  -1   14.32    1.08 
 -12   3  -1   15.17    1.51 
  -3 -12  -1   15.35    1.12 
  12  -3   1   14.54    1.09 
  12  -3   1   14.87    1.20 
 -12   3   1   13.60    1.27 
   3  12   1   14.26    1.29 
 -12   3   1   16.46    1.41 
  -3 -12   1   14.34    0.99 
 -12   5  -1    2.00    0.85 
  12  -5  -1    1.79    0.67 
  -5 -12  -1    2.42    0.74 
 -12   5  -1    2.70    0.96 
  -5 -12  -1    2.07    0.51 
   5  12  -1    2.78    0.88 
  12  -5  -1    2.47    0.75 
  12  -5   1    1.45    0.68 
  12  -5   1    0.99    0.72 
 -12   5   1    1.48    0.81 
 -12   5   1    3.00    0.88 
 -12   5   1    1.27    0.87 
  -5 -12   1    1.46    0.50 
   5  12   1    1.38    0.73 
  -5 -12   1    2.57    0.71 
   7  12  -1    0.22    1.06 
 -12   7  -1   -0.10    1.07 
  -7 -12  -1    0.55    0.59 
  -7 -12  -1    1.00    0.53 
  -7 -12  -1    0.72    0.81 
  12  -7  -1    1.07    1.04 
  -7 -12   1   -0.21    0.59 
  -7 -12   1    0.40    0.85 
 -12   7   1    1.34    0.97 
   7  12   1    0.46    1.06 
 -12   7   1    1.68    0.96 
  12  -7   1    0.92    0.76 
  -9 -12  -1    0.37    0.75 
  -9 -12   1   -0.02    1.22 
  -6  13  -1    1.34    1.10 
 -13  -6  -1   -0.19    1.20 
   6 -13  -1   -1.14    0.68 
 -13  -6  -1    0.05    0.95 
  -6  13   1   -0.30    0.97 
 -13  -6   1   -1.55    1.15 
   6 -13   1   -0.16    0.83 
 -13  -4  -1   -0.85    1.01 
  -4  13  -1    0.02    0.88 
   4 -13  -1    0.67    0.65 
   4 -13  -1   -1.09    0.60 
 -13  -4  -1    0.06    0.81 
  -4  13  -1    0.00    0.71 
  13   4   1    1.11    0.90 
 -13  -4   1    0.30    0.95 
   4 -13   1   -0.57    0.67 
  -4  13   1    0.48    0.79 
   4 -13   1    1.33    0.73 
  -4  13   1    1.10    0.61 
 -13  -2  -1   47.93    2.02 
  13   2  -1   47.84    1.79 
 -13  -2  -1   50.59    2.04 
 -13  -2  -1   49.00    2.11 
   2 -13  -1   47.96    1.76 
  -2  13  -1   49.98    2.10 
   2 -13  -1   50.48    1.91 
  -2  13  -1   46.43    1.87 
  -2  13   1   50.78    2.04 
   2 -13   1   52.25    1.97 
   2 -13   1   47.60    1.84 
  -2  13   1   51.88    1.80 
 -13  -2   1   47.78    2.16 
 -13  -2   1   47.75    2.00 
  13   2   1   46.84    1.79 
 -13  -2   1   48.93    2.08 
  13   2   1   51.06    1.97 
   0 -13  -1    0.37    0.61 
 -13   0  -1    0.96    0.81 
   0  13  -1    0.39    0.64 
  13   0  -1    0.04    0.52 
   0 -13  -1    0.52    0.52 
 -13   0  -1    0.28    0.73 
 -13   0  -1   -0.58    0.91 
   0 -13  -1    0.36    0.44 
  13   0  -1   -0.26    0.57 
   0  13   1    1.98    0.63 
   0 -13   1   -0.35    0.52 
   0  13   1    0.67    0.75 
 -13   0   1    0.27    0.84 
  13   0   1    0.58    0.93 
 -13   0   1   -0.40    1.07 
  13   0   1   -0.04    0.61 
 -13   0   1   -0.63    0.77 
   0 -13   1    0.26    0.48 
 -13   2  -1   42.09    2.35 
  -2 -13  -1   50.79    1.82 
 -13   2  -1   46.70    2.11 
 -13   2  -1   47.53    2.33 
  13  -2  -1   51.11    1.97 
  -2 -13  -1   51.75    1.90 
  -2 -13   1   49.39    1.89 
 -13   2   1   49.65    2.11 
  13  -2   1   51.67    1.97 
 -13   2   1   46.29    2.33 
 -13   2   1   52.51    2.27 
  13  -4  -1    0.65    0.74 
 -13   4  -1    0.74    1.03 
 -13   4  -1   -0.21    0.85 
 -13   4  -1   -0.20    0.91 
  13  -4  -1    1.04    0.71 
  -4 -13  -1   -0.55    0.72 
  -4 -13  -1   -0.13    0.49 
  -4 -13   1   -0.03    0.71 
 -13   4   1   -1.31    0.97 
   4  13   1   -1.99    0.83 
  13  -4   1    0.87    0.80 
 -13   4   1    0.37    0.89 
  -4 -13   1    0.64    0.52 
  13  -4   1    0.69    0.70 
   6  13  -1    1.67    1.33 
  13  -6  -1   -0.31    0.86 
 -13   6  -1    0.54    1.20 
  -6 -13  -1    0.88    0.59 
  -6 -13  -1    0.04    0.89 
  -6 -13   1    0.01    0.87 
 -13   6   1   -0.14    0.92 
  -6 -13   1    1.58    0.68 
 -13   6   1    0.46    1.11 
 -13   6   1   -2.19    1.01 
  13  -6   1   -0.30    0.82 
  -8 -13   1    2.31    1.31 
   5 -14  -1   30.87    1.87 
  -5  14  -1   39.51    2.35 
  -5  14   1   37.94    2.23 
 -14  -3  -1    3.60    1.18 
   3 -14  -1    3.08    0.76 
  -3  14  -1    4.45    1.03 
   3 -14  -1    3.99    0.79 
  -3  14   1    5.29    0.96 
   3 -14   1    3.68    0.85 
 -14  -3   1    1.27    1.23 
   3 -14   1    2.78    0.82 
  -3  14   1    3.71    0.77 
   1 -14  -1   14.57    1.41 
  14   1  -1   10.60    1.08 
 -14  -1  -1   12.15    1.31 
   1 -14  -1   13.01    1.22 
  -1  14  -1   13.26    1.50 
 -14  -1  -1   12.95    1.26 
   1 -14  -1   13.88    1.05 
  14   1   1   13.24    1.29 
  -1  14   1   11.30    1.13 
 -14  -1   1   12.49    1.32 
   1 -14   1   12.71    1.22 
   1 -14   1   12.27    1.18 
  14   1   1   10.03    1.19 
 -14  -1   1   13.82    1.66 
  14  -1  -1   13.44    1.37 
 -14   1  -1   13.35    1.66 
 -14   1  -1   12.00    1.17 
  -1 -14  -1   11.89    1.05 
  -1 -14  -1   15.38    1.30 
 -14   1   1   14.79    1.62 
 -14   1   1   12.96    1.38 
  14  -1   1   13.77    1.43 
  -1 -14   1   11.19    1.15 
  -1 -14   1   12.98    0.98 
   1  14   1   13.22    1.29 
  -3 -14  -1    2.51    0.88 
 -14   3  -1    0.63    1.21 
  14  -3  -1    2.05    0.89 
  14  -3  -1    2.53    0.89 
  -3 -14  -1    2.88    0.64 
 -14   3  -1    2.33    1.04 
  14  -3   1    1.44    0.92 
  14  -3   1    2.37    0.89 
   3  14   1    1.82    1.06 
 -14   3   1    1.41    1.01 
 -14   3   1    1.64    1.20 
  -3 -14   1    2.50    0.73 
  -5 -14  -1   33.20    1.97 
 -14   5  -1   28.29    2.66 
  -5 -14  -1   33.68    1.62 
  -5 -14   1   32.82    1.79 
 -14   5   1   30.40    2.04 
 -14   5   1   32.99    2.56 
   2 -15  -1    0.98    0.86 
  -2  15  -1   -0.24    1.13 
 -15  -2  -1    0.15    1.14 
   2 -15  -1    2.15    0.88 
 -15  -2  -1   -1.06    1.59 
 -15  -2   1   -0.48    1.37 
   2 -15   1   -1.75    0.90 
  -2  15   1   -0.39    1.07 
 -15   0  -1    2.57    1.42 
   0 -15  -1   -1.00    0.74 
   0 -15  -1    1.47    0.63 
 -15   0  -1    0.45    1.28 
   0 -15  -1    0.52    0.93 
  15   0  -1    1.09    0.95 
   0  15  -1    1.42    0.94 
   0  15   1   -0.74    0.97 
  15   0   1   -0.36    1.16 
 -15   0   1    0.52    1.36 
   0 -15   1   -1.68    1.05 
  15   0   1    0.40    0.91 
 -15   2  -1   -0.01    1.43 
 -15   2  -1    0.25    1.26 
  -2 -15  -1    0.36    0.78 
  -2 -15  -1    1.23    0.94 
  15  -2  -1    0.34    1.04 
 -15   2   1    0.58    1.34 
 -15   2   1   -3.39    1.33 
   0   0  -2  483.18   12.11 
   0   0   2  478.13   12.07 
  -1  -1  -2    1.48    0.19 
   1  -1  -2    1.57    0.18 
  -1   1  -2    1.53    0.19 
  -1   1  -2    1.20    0.13 
   1  -1   2    1.39    0.13 
  -1   1   2    1.47    0.18 
  -1  -1   2    1.32    0.16 
   1  -1   2    1.21    0.18 
   1   1   2    1.29    0.17 
   1   1   2    1.52    0.18 
  -1   1   2    1.38    0.12 
   0  -2  -2  389.89    9.73 
  -2   0  -2  390.69    9.77 
   0   2  -2  382.18    9.69 
   0   2  -2  385.81    9.75 
  -2   0  -2  394.34    9.65 
   0  -2   2  379.28    9.77 
  -2   0   2  385.04    9.72 
   2   0   2  384.03    9.66 
  -2   0   2  402.17    9.69 
   0   2   2  389.97    9.74 
   0  -2   2  384.65    9.69 
  -2   0   2  386.64    9.71 
   2   0   2  362.03    9.77 
   2   0   2  383.49    9.69 
   2  -2  -2  295.68    7.12 
   2  -2  -2  283.66    7.19 
  -2   2  -2  275.98    7.27 
  -2   2  -2  282.15    7.15 
  -2  -2  -2  274.76    7.19 
   2  -2   2  284.59    7.17 
  -2  -2   2  284.77    7.18 
  -2   2   2  277.86    7.17 
   2   2   2  280.71    7.19 
   2  -2   2  281.41    7.28 
  -2   2   2  287.06    7.19 
  -2   2   2  287.75    7.14 
   2   2   2  275.06    7.19 
  -1   3  -2    0.74    0.14 
   1  -3  -2    0.58    0.12 
   1  -3  -2    0.60    0.16 
  -3  -1  -2    0.64    0.17 
  -1   3  -2    0.77    0.19 
  -3  -1  -2    0.49    0.12 
  -3  -1  -2    0.64    0.16 
   1  -3   2    0.59    0.21 
   3   1   2    0.58    0.16 
   3   1   2    0.49    0.11 
  -3  -1   2    0.42    0.12 
   1  -3   2    0.44    0.12 
  -1   3   2    0.77    0.18 
   3   1   2    0.74    0.18 
  -3  -1   2    0.38    0.11 
  -1   3   2    0.50    0.10 
  -1   3   2    0.46    0.13 
  -3   1  -2    0.55    0.17 
  -1  -3  -2    0.58    0.17 
  -3   1  -2    0.57    0.14 
   3  -1  -2    0.40    0.12 
  -1  -3   2    0.43    0.12 
  -3   1   2    0.51    0.14 
  -3   1   2    0.37    0.13 
  -1  -3   2    0.83    0.18 
   1   3   2    0.42    0.18 
   3  -1   2    0.78    0.21 
  -3   1   2    0.59    0.17 
   3  -1   2    0.63    0.14 
  -3   3  -2  204.07    5.46 
  -3  -3  -2  202.68    5.35 
  -3   3  -2  208.80    5.33 
   3  -3  -2  213.09    5.30 
   3  -3  -2  209.55    5.32 
  -3  -3   2  207.79    5.29 
  -3  -3   2  206.73    5.33 
   3  -3   2  200.98    5.45 
  -3   3   2  202.50    5.32 
   3   3   2  201.96    5.30 
  -3   3   2  211.21    5.31 
  -3   3   2  203.77    5.33 
   3  -3   2  204.52    5.34 
   3   3   2  201.74    5.34 
  -2   4  -2    0.70    0.19 
   2  -4  -2    0.58    0.16 
  -4  -2  -2    0.67    0.14 
   2  -4  -2    0.72    0.18 
  -4  -2  -2    0.37    0.20 
  -2   4  -2    0.37    0.23 
   2  -4  -2    1.30    0.19 
  -2   4   2    0.53    0.19 
   4   2   2    0.61    0.20 
   4   2   2    0.57    0.33 
   4   2   2    0.61    0.12 
  -4  -2   2    1.04    0.27 
   2  -4   2    0.58    0.17 
  -2   4   2    0.63    0.15 
  -4  -2   2    0.60    0.13 
  -4  -2   2    0.55    0.16 
   2  -4   2    1.09    0.25 
  -2   4   2    0.69    0.17 
   4   0  -2  199.07    5.09 
   0   4  -2  197.67    5.18 
  -4   0  -2  194.11    5.09 
  -4   0  -2  193.85    5.18 
   0   4  -2  196.87    5.14 
   0  -4  -2  202.59    5.13 
  -4   0  -2  192.99    5.09 
   0  -4   2  200.30    5.18 
   4   0   2  196.76    5.20 
   0   4   2  199.48    5.08 
   0  -4   2  196.86    5.10 
  -4   0   2  199.24    5.08 
   4   0   2  189.27    5.08 
   0   4   2  199.86    5.13 
   0   4   2  202.74    4.99 
   4   0   2  196.88    5.07 
  -4   0   2  203.75    5.11 
  -4   2  -2    0.20    0.22 
  -4   2  -2    0.86    0.19 
   4  -2  -2    0.62    0.16 
  -2  -4  -2    0.92    0.22 
   4  -2  -2    0.57    0.16 
  -4   2   2    0.92    0.17 
   4  -2   2    0.55    0.17 
   4  -2   2    0.97    0.26 
   2   4   2    0.94    0.25 
  -2  -4   2    0.63    0.15 
  -4   2   2    0.76    0.21 
   2   4   2    0.70    0.14 
  -2  -4   2    0.86    0.21 
  -4   2   2    0.66    0.18 
  -4   4  -2   65.01    2.03 
  -4  -4  -2   62.48    1.73 
  -4  -4  -2   63.50    1.89 
   4  -4  -2   64.16    1.84 
   4  -4  -2   62.16    1.85 
  -4   4  -2   63.95    1.87 
  -4  -4   2   65.11    1.89 
   4   4   2   64.88    1.80 
   4  -4   2   64.25    2.01 
  -4  -4   2   65.22    1.72 
   4  -4   2   62.89    1.88 
  -4   4   2   63.80    1.86 
  -4  -4   2   66.43    1.78 
  -4   4   2   63.91    1.87 
   4   4   2   62.64    1.89 
  -5  -3  -2   57.33    1.76 
   3  -5  -2   58.02    1.70 
  -5  -3  -2   58.85    1.64 
   3  -5  -2   58.72    1.70 
   3  -5  -2   57.97    1.70 
  -3   5  -2   58.55    1.73 
  -3   5  -2   59.35    1.88 
  -5  -3   2   59.62    1.71 
  -5  -3   2   57.31    1.59 
  -5  -3   2   58.63    1.79 
  -3   5   2   58.59    1.72 
   3  -5   2   56.59    1.86 
  -3   5   2   58.58    1.68 
  -3   5   2   59.81    1.73 
   3  -5   2   58.43    1.74 
   5   3   2   58.61    1.76 
   5   3   2   58.17    1.70 
  -5  -1  -2    2.14    0.30 
   1  -5  -2    3.03    0.27 
  -5  -1  -2    2.45    0.29 
  -1   5  -2    2.59    0.34 
   1  -5  -2    2.88    0.26 
  -5  -1  -2    3.05    0.35 
   1  -5  -2    2.40    0.30 
  -1   5  -2    2.50    0.28 
  -5  -1   2    2.88    0.36 
  -5  -1   2    2.40    0.24 
   1  -5   2    2.54    0.34 
   1  -5   2    2.54    0.27 
  -5  -1   2    2.51    0.28 
  -1   5   2    2.50    0.27 
  -1   5   2    2.51    0.21 
  -1   5   2    2.81    0.37 
   5   1   2    2.19    0.25 
  -5   1  -2    2.50    0.33 
   5  -1  -2    2.21    0.27 
   5  -1  -2    1.88    0.26 
  -1  -5  -2    2.66    0.21 
  -5   1  -2    2.57    0.35 
  -1  -5  -2    3.14    0.34 
   1   5  -2    2.58    0.29 
   5  -1   2    2.90    0.30 
  -5   1   2    2.91    0.31 
  -5   1   2    2.28    0.27 
  -1  -5   2    2.61    0.26 
  -1  -5   2    3.18    0.34 
   5  -1   2    2.22    0.33 
   1   5   2    2.45    0.25 
   1   5   2    3.12    0.38 
   5  -3  -2   57.77    1.72 
  -3  -5  -2   58.45    1.77 
   5  -3  -2   57.96    1.72 
  -5   3  -2   60.17    1.77 
  -3  -5  -2   58.77    1.59 
  -5   3  -2   59.27    1.90 
  -3  -5  -2   58.13    1.59 
  -5   3   2   57.67    1.75 
   3   5   2   59.77    1.62 
  -5   3   2   57.72    1.73 
   3   5   2   58.03    1.77 
   5  -3   2   59.38    1.76 
  -5   3   2   58.80    1.74 
  -3  -5   2   61.69    1.69 
  -3  -5   2   58.78    1.71 
   5  -5  -2  129.16    3.53 
  -5  -5  -2  128.18    3.58 
  -5   5  -2  126.00    3.55 
  -5  -5  -2  129.09    3.42 
   5  -5  -2  129.34    3.54 
  -5   5  -2  130.50    3.75 
  -5   5   2  128.70    3.56 
   5  -5   2  128.75    3.69 
  -5  -5   2  128.33    3.56 
  -5   5   2  130.24    3.54 
   5   5   2  128.73    3.42 
  -5   5   2  128.96    3.52 
   5   5   2  130.27    3.58 
   5  -5   2  130.10    3.59 
   4  -6  -2  281.49    7.29 
   4  -6  -2  278.64    7.28 
  -6  -4  -2  280.42    7.36 
  -6  -4  -2  272.41    7.19 
  -4   6  -2  280.65    7.31 
  -4   6  -2  289.02    7.51 
   6   4   2  286.66    7.35 
  -4   6   2  283.46    7.28 
   4  -6   2  279.19    7.34 
  -6  -4   2  275.33    7.27 
  -6  -4   2  282.31    7.36 
  -4   6   2  279.05    7.31 
   4  -6   2  277.55    7.45 
   6   4   2  281.10    7.22 
  -4   6   2  282.28    7.26 
   2  -6  -2   56.53    1.69 
  -2   6  -2   57.49    1.85 
   2  -6  -2   56.04    1.68 
  -6  -2  -2   67.30    1.80 
  -2   6  -2   56.37    1.71 
  -6  -2   2   54.18    1.60 
  -2   6   2   56.38    1.72 
  -2   6   2   56.68    1.63 
  -2   6   2   56.13    1.70 
   6   2   2   64.16    1.76 
  -6  -2   2   54.84    1.78 
   2  -6   2   55.67    1.72 
   6   2   2   60.42    1.65 
   2  -6   2   54.33    1.83 
  -6  -2   2   55.14    1.70 
  -6   0  -2   40.04    1.29 
   0   6  -2   40.04    1.27 
  -6   0  -2   40.43    1.37 
   0  -6  -2   40.72    1.28 
   6   0  -2   39.72    1.22 
  -6   0  -2   43.38    1.36 
   0  -6  -2   40.98    1.20 
   6   0  -2   40.86    1.27 
   0   6  -2   40.03    1.33 
   0   6   2   41.43    1.24 
   6   0   2   39.46    1.25 
   0   6   2   40.87    1.16 
   6   0   2   40.25    1.29 
   0  -6   2   40.28    1.38 
  -6   0   2   40.69    1.30 
   0  -6   2   40.37    1.28 
   6   0   2   39.34    1.37 
   0   6   2   40.17    1.30 
  -6   0   2   40.48    1.24 
   2   6  -2   55.14    1.58 
  -2  -6  -2   56.84    1.69 
  -6   2  -2   55.03    1.70 
  -2  -6  -2   55.50    1.54 
  -6   2  -2   56.97    1.84 
   6  -2  -2   54.92    1.66 
   6  -2  -2   54.58    1.64 
   6  -2   2   55.08    1.80 
   6  -2   2   54.02    1.67 
   2   6   2   55.21    1.71 
  -6   2   2   53.30    1.69 
  -6   2   2   55.74    1.67 
   2   6   2   56.35    1.56 
  -2  -6   2   54.93    1.64 
  -2  -6   2   56.28    1.66 
   6  -4  -2  274.90    7.26 
  -4  -6  -2  275.93    7.12 
  -6   4  -2  284.19    7.49 
  -6   4  -2  280.51    7.32 
  -4  -6  -2  282.33    7.31 
  -4  -6  -2  281.17    7.12 
   6  -4  -2  279.85    7.28 
   4   6   2  280.62    7.14 
  -4  -6   2  281.11    7.25 
  -6   4   2  278.92    7.26 
   6  -4   2  275.59    7.43 
  -4  -6   2  270.49    7.25 
   6  -4   2  279.89    7.32 
   4   6   2  289.81    7.10 
  -6   4   2  281.95    7.31 
   4   6   2  282.51    7.31 
  -6   4   2  274.80    7.31 
  -6   6  -2   20.62    0.97 
  -6  -6  -2   20.02    1.05 
  -6   6  -2   21.12    1.22 
   6  -6  -2   20.31    0.92 
  -6  -6  -2   20.47    0.79 
   6  -6  -2   21.58    0.95 
  -6  -6   2   21.37    1.03 
   6  -6   2   21.29    1.14 
   6  -6   2   21.37    0.99 
   6   6   2   21.58    1.05 
  -6   6   2   20.83    0.96 
  -6  -6   2   20.96    0.89 
  -6   6   2   20.19    0.93 
  -6   6   2   20.61    0.99 
  -7  -5  -2   15.59    0.69 
  -5   7  -2   14.99    0.81 
   5  -7  -2   14.88    0.79 
  -5   7  -2   15.56    1.09 
   5  -7  -2   16.66    0.81 
  -7  -5  -2   15.17    0.96 
   5  -7   2   14.65    0.84 
  -7  -5   2   14.45    0.76 
  -5   7   2   15.73    0.82 
  -5   7   2   15.37    0.80 
  -7  -5   2   15.86    0.96 
   7   5   2   15.72    0.90 
  -5   7   2   16.46    0.88 
   5  -7   2   14.15    0.98 
  -7  -3  -2   65.14    2.10 
   3  -7  -2   70.12    2.02 
  -7  -3  -2   68.89    1.98 
  -7  -3  -2   69.47    1.98 
  -3   7  -2   68.81    2.21 
   3  -7  -2   67.10    1.99 
  -3   7  -2   68.10    2.04 
  -3   7   2   67.86    2.05 
   7   3   2   68.03    2.06 
   7   3   2   66.51    2.08 
   3  -7   2   67.23    2.06 
   3  -7   2   68.48    2.19 
  -3   7   2   68.29    2.04 
  -7  -3   2   67.15    1.89 
  -3   7   2   69.94    1.97 
  -7  -3   2   67.31    2.14 
  -7  -3   2   65.85    2.02 
  -7  -1  -2  128.51    3.64 
  -1   7  -2  134.42    3.62 
  -7  -1  -2  130.57    3.67 
   7   1  -2  131.67    3.51 
   7   1  -2  134.54    3.63 
   1  -7  -2  134.49    3.56 
   1  -7  -2  132.32    3.60 
  -7  -1  -2  132.43    3.61 
  -1   7  -2  134.83    3.71 
   1  -7  -2  137.01    3.57 
  -1   7   2  137.41    3.60 
   7   1   2  131.89    3.57 
   7   1   2  131.20    3.63 
   7   1   2  133.94    3.68 
  -7  -1   2  133.05    3.55 
   1  -7   2  133.09    3.64 
   1  -7   2  130.88    3.71 
  -1   7   2  134.24    3.63 
  -7  -1   2  131.07    3.70 
  -7  -1   2  132.65    3.63 
   7  -1  -2  143.40    3.72 
  -1  -7  -2  135.54    3.59 
   7  -1  -2  145.05    3.67 
   1   7  -2  132.35    3.65 
  -1  -7  -2  134.62    3.71 
  -7   1  -2  133.42    3.84 
  -7   1  -2  133.63    3.67 
  -7   1  -2  127.74    3.72 
   7  -1   2  134.96    3.71 
  -1  -7   2  131.13    3.69 
   7  -1   2  136.39    3.66 
   1   7   2  136.63    3.74 
   7  -1   2  130.67    3.80 
   1   7   2  135.05    3.61 
  -7   1   2  147.35    3.77 
  -7   1   2  144.66    3.70 
   7  -3  -2   69.25    2.05 
  -7   3  -2   67.02    2.23 
  -3  -7  -2   67.63    2.05 
  -7   3  -2   66.67    2.09 
  -3  -7  -2   67.13    1.88 
   7  -3  -2   66.26    2.01 
   7  -3   2   68.56    2.19 
  -7   3   2   66.77    2.04 
  -7   3   2   68.76    2.06 
  -3  -7   2   69.18    2.02 
   7  -3   2   67.29    2.06 
  -7   3   2   68.62    2.10 
   3   7   2   66.07    2.07 
   3   7   2   68.20    1.87 
  -5  -7  -2   14.79    0.65 
  -7   5  -2   15.73    0.89 
  -5  -7  -2   16.05    0.64 
   7  -5  -2   15.92    0.82 
  -7   5  -2   15.58    1.10 
  -5  -7  -2   17.09    0.92 
   7  -5  -2   16.00    0.83 
  -5  -7   2   16.07    0.78 
   7  -5   2   15.07    0.99 
  -7   5   2   16.37    0.88 
   5   7   2   15.43    0.94 
  -5  -7   2   15.85    0.89 
   7  -5   2   14.98    0.85 
  -7   5   2   16.62    0.90 
  -7   7  -2   43.39    1.94 
  -7   7  -2   44.61    1.65 
  -7  -7  -2   45.05    1.46 
  -7  -7  -2   43.14    1.72 
   7  -7  -2   46.84    1.65 
   7  -7  -2   45.30    1.60 
  -7  -7   2   44.52    1.76 
   7   7   2   45.34    1.69 
   7  -7   2   45.58    1.69 
  -7   7   2   44.24    1.71 
  -7  -7   2   46.24    1.57 
   7  -7   2   44.70    1.78 
  -7   7   2   44.69    1.59 
  -7   7   2   44.04    1.66 
  -8  -6  -2   42.86    1.45 
  -6   8  -2   43.86    1.91 
   6  -8  -2   43.76    1.58 
   6  -8  -2   43.16    1.55 
  -8  -6  -2   43.57    1.75 
  -6   8   2   44.51    1.68 
  -6   8   2   43.75    1.58 
  -8  -6   2   45.73    1.61 
   6  -8   2   43.60    1.67 
   6  -8   2   39.84    1.71 
   8   6   2   41.45    1.65 
  -6   8   2   43.07    1.55 
   4  -8  -2   51.27    1.64 
   4  -8  -2   51.14    1.68 
  -8  -4  -2   49.99    1.61 
   4  -8  -2   51.55    1.66 
  -8  -4  -2   49.72    1.82 
  -4   8  -2   53.55    1.96 
  -4   8  -2   51.28    1.70 
   8   4   2   50.32    1.77 
   4  -8   2   53.54    1.76 
  -4   8   2   47.14    1.71 
   8   4   2   49.73    1.70 
  -4   8   2   53.06    1.64 
  -8  -4   2   49.31    1.67 
   4  -8   2   50.76    1.84 
  -4   8   2   51.31    1.74 
  -8  -4   2   51.41    1.84 
  -2   8  -2    4.00    0.55 
  -2   8  -2    3.71    0.46 
   2  -8  -2    3.82    0.43 
   2  -8  -2    3.76    0.44 
  -8  -2  -2    3.92    0.48 
  -8  -2  -2    4.35    0.55 
  -8  -2  -2    3.76    0.42 
   2  -8  -2    3.59    0.46 
   2  -8   2    3.38    0.52 
   8   2   2    3.37    0.43 
  -8  -2   2    4.88    0.60 
   8   2   2    4.18    0.53 
  -2   8   2    4.45    0.53 
  -8  -2   2    3.78    0.43 
   2  -8   2    3.63    0.44 
  -8  -2   2    3.58    0.50 
  -2   8   2    3.41    0.42 
   8   2   2    3.73    0.48 
  -2   8   2    3.87    0.41 
  -8   0  -2  278.48    7.31 
  -8   0  -2  272.47    7.32 
   0  -8  -2  278.32    7.28 
  -8   0  -2  279.95    7.41 
   0  -8  -2  284.60    7.22 
   0   8  -2  283.07    7.32 
   8   0  -2  280.37    7.31 
   0  -8  -2  279.48    7.19 
   8   0  -2  277.24    7.21 
  -8   0   2  275.00    7.33 
   8   0   2  286.29    7.29 
   0  -8   2  273.66    7.33 
   8   0   2  283.35    7.29 
  -8   0   2  273.84    7.37 
   0   8   2  281.63    7.32 
   0   8   2  282.50    7.16 
   0   8   2  291.29    7.26 
   0  -8   2  275.62    7.31 
   8   0   2  277.71    7.37 
  -8   0   2  280.76    7.26 
  -2  -8  -2    4.01    0.47 
  -8   2  -2    4.52    0.63 
   8  -2  -2    3.67    0.41 
  -8   2  -2    4.08    0.51 
   2   8  -2    3.65    0.40 
   8  -2  -2    3.84    0.46 
  -2  -8  -2    4.14    0.36 
   8  -2   2    4.22    0.52 
   2   8   2    3.87    0.37 
   8  -2   2    3.87    0.54 
  -8   2   2    3.69    0.48 
  -8   2   2    4.37    0.54 
  -8   2   2    3.41    0.50 
  -2  -8   2    4.33    0.44 
  -2  -8   2    3.75    0.44 
   8  -4  -2   50.65    1.68 
  -4  -8  -2   52.68    1.53 
  -4  -8  -2   50.88    1.74 
  -8   4  -2   53.23    1.99 
  -8   4  -2   49.68    1.75 
   8  -4  -2   50.82    1.72 
   8  -4   2   51.80    1.87 
  -8   4   2   50.73    1.75 
  -4  -8   2   51.35    1.67 
   4   8   2   50.17    1.77 
  -8   4   2   50.18    1.78 
   8  -4   2   50.79    1.74 
  -4  -8   2   52.67    1.68 
  -8   4   2   50.99    1.70 
  -6  -8  -2   42.76    1.41 
   8  -6  -2   41.71    1.57 
  -8   6  -2   48.75    1.97 
  -8   6  -2   46.68    1.66 
   8  -6  -2   43.29    1.64 
  -6  -8  -2   42.20    1.67 
  -6  -8  -2   43.22    1.40 
  -8   6   2   43.01    1.69 
   6   8   2   40.47    1.66 
  -6  -8   2   45.24    1.56 
  -6  -8   2   42.82    1.66 
   8  -6   2   46.24    1.78 
  -8   6   2   42.82    1.57 
   8  -6   2   48.94    1.70 
  -8   6   2   41.91    1.68 
   8  -8  -2    8.91    0.84 
  -8  -8  -2    7.77    0.70 
  -8  -8  -2    9.58    1.10 
  -8  -8  -2    8.71    0.73 
  -8   8  -2    7.77    1.04 
  -8   8   2    6.57    0.71 
  -8  -8   2    6.55    0.75 
  -8   8   2    8.06    0.96 
   8  -8   2    7.62    0.92 
  -8  -8   2    9.99    1.05 
  -8   8   2    6.82    0.82 
  -7   9  -2    2.42    0.84 
   7  -9  -2    2.81    0.55 
  -9  -7  -2    2.21    0.48 
  -9  -7  -2    2.73    0.77 
   7  -9  -2    3.20    0.57 
   7  -9   2    2.93    0.65 
   7  -9   2    2.23    0.69 
  -7   9   2    2.61    0.62 
  -7   9   2    2.92    0.64 
  -7   9   2    2.60    0.69 
  -9  -7   2    3.86    0.84 
  -5   9  -2    8.88    0.76 
   5  -9  -2    7.13    0.87 
  -5   9  -2    9.72    1.15 
   5  -9  -2    8.42    0.75 
  -9  -5  -2    8.30    1.04 
  -5   9   2    7.88    0.90 
   9   5   2    8.89    0.90 
   5  -9   2    8.09    0.85 
   5  -9   2    7.00    0.82 
  -5   9   2    7.56    0.75 
  -5   9   2    8.77    0.82 
  -9  -5   2    9.47    0.92 
  -9  -3  -2   44.53    1.70 
  -9  -3  -2   42.35    1.53 
  -9  -3  -2   44.99    1.52 
   3  -9  -2   43.19    1.50 
  -3   9  -2   45.19    1.79 
   3  -9  -2   45.47    1.53 
   3  -9  -2   43.68    1.50 
  -3   9  -2   44.98    1.56 
   9   3   2   45.79    1.51 
   3  -9   2   43.80    1.70 
   9   3   2   44.29    1.52 
  -9  -3   2   44.33    1.57 
   9   3   2   47.29    1.68 
  -3   9   2   44.23    1.57 
  -3   9   2   45.09    1.47 
  -9  -3   2   46.03    1.43 
  -3   9   2   44.68    1.61 
   1  -9  -2   57.61    1.77 
  -9  -1  -2   60.66    1.96 
   1  -9  -2   60.90    1.80 
  -9  -1  -2   57.87    1.94 
   1  -9  -2   57.92    1.83 
  -1   9  -2   59.20    1.95 
   9   1  -2   58.06    1.88 
   9   1  -2   57.84    1.73 
  -9  -1  -2   56.62    1.88 
  -1   9  -2   56.57    1.84 
   9   1   2   57.38    1.82 
   1  -9   2   59.04    1.89 
  -9  -1   2   56.56    1.81 
   9   1   2   61.44    1.94 
  -1   9   2   57.64    1.72 
   9   1   2   59.78    1.92 
   1  -9   2   56.14    1.93 
  -9  -1   2   56.07    2.01 
  -1   9   2   53.25    1.90 
  -9  -1   2   57.97    1.91 
  -1   9   2   59.79    1.83 
  -1  -9  -2   59.29    1.90 
   1   9  -2   59.72    1.83 
   9  -1  -2   64.22    1.95 
  -9   1  -2   58.36    1.89 
  -1  -9  -2   58.68    1.78 
   9  -1  -2   65.17    1.86 
  -9   1  -2   48.27    2.34 
  -9   1  -2   59.20    2.11 
  -1  -9   2   56.38    1.88 
   1   9   2   56.50    1.94 
  -1  -9   2   56.84    1.86 
  -9   1   2   63.35    2.00 
  -9   1   2   66.34    2.10 
   9  -1   2   57.91    1.90 
   9  -1   2   60.36    2.03 
  -9   1   2   64.66    1.93 
   1   9   2   58.05    1.80 
  -3  -9  -2   46.81    1.42 
  -9   3  -2   43.88    1.64 
   9  -3  -2   43.80    1.54 
   9  -3  -2   44.97    1.60 
  -9   3  -2   44.93    1.84 
  -3  -9  -2   44.80    1.59 
  -9   3   2   44.64    1.64 
   9  -3   2   42.81    1.71 
  -9   3   2   43.09    1.57 
   3   9   2   44.53    1.64 
  -9   3   2   44.50    1.66 
   9  -3   2   44.96    1.61 
   9  -5  -2    7.42    0.72 
  -5  -9  -2    8.60    0.58 
  -5  -9  -2    7.93    0.57 
   9  -5  -2    7.04    0.79 
  -9   5  -2    8.57    0.85 
  -9   5  -2    7.88    0.92 
  -5  -9  -2    7.02    0.88 
  -9   5   2    8.01    0.79 
  -5  -9   2    7.64    0.67 
   9  -5   2    9.11    0.85 
   5   9   2    8.60    0.96 
  -9   5   2    8.33    0.90 
   9  -5   2    7.78    0.94 
  -9   5   2    9.03    0.93 
  -9   7  -2    3.12    0.87 
  -7  -9  -2    2.21    0.44 
   7   9  -2    2.51    0.67 
  -7  -9  -2    3.70    0.69 
   9  -7  -2    2.81    0.57 
  -7  -9  -2    1.61    0.40 
  -9   7   2    2.87    0.63 
  -9   7   2    2.88    0.69 
   9  -7   2    3.02    0.63 
  -7  -9   2    2.56    0.50 
  -7  -9   2    3.06    0.77 
  -9   7   2    2.83    0.72 
  -9  -9  -2   93.45    2.81 
  -9  -9  -2   95.54    2.78 
  -9   9  -2   94.22    3.40 
  -9  -9  -2   94.42    3.14 
  -9   9  -2   87.31    3.05 
   9  -9  -2   94.22    2.98 
  -9  -9   2   92.48    2.95 
  -9   9   2   91.18    3.03 
   9  -9   2   90.61    3.20 
  -9  -9   2   95.29    2.94 
  -9   9   2   93.27    3.19 
   9   9   2   83.13    3.09 
  -9  -9   2   94.42    3.16 
   9  -9   2   90.01    3.06 
   8 -10  -2   26.78    1.46 
  -8  10  -2   24.23    1.50 
   8 -10  -2   25.13    1.38 
  -8  10  -2   24.20    1.90 
 -10  -8  -2   25.03    1.69 
 -10  -8  -2   25.57    1.31 
 -10  -8   2   25.42    1.73 
  -8  10   2   24.83    1.44 
  -8  10   2   21.57    2.04 
  -8  10   2   26.43    1.67 
  10   8   2   24.07    2.41 
   8 -10   2   23.81    1.44 
 -10  -8   2   25.19    1.38 
   8 -10   2   24.83    1.71 
 -10  -6  -2  161.16    4.48 
   6 -10  -2  156.41    4.54 
   6 -10  -2  164.15    4.59 
  -6  10  -2  162.27    4.91 
 -10  -6  -2  165.94    4.76 
  10   6   2  154.41    4.64 
 -10  -6   2  164.49    4.77 
   6 -10   2  161.56    4.69 
   6 -10   2  154.96    4.70 
  -6  10   2  167.14    4.75 
  -6  10   2  157.24    4.51 
  -6  10   2  164.86    4.54 
   4 -10  -2   11.64    0.87 
   4 -10  -2   11.67    0.88 
 -10  -4  -2   11.31    1.18 
   4 -10  -2   12.06    0.87 
  -4  10  -2   12.09    1.23 
 -10  -4  -2   10.93    0.86 
   4 -10   2   11.14    1.06 
  10   4   2   11.45    0.84 
  -4  10   2   11.46    0.81 
  -4  10   2   12.44    1.01 
 -10  -4   2   11.87    1.17 
  10   4   2   12.91    1.05 
  -4  10   2   11.10    0.94 
   4 -10   2   10.71    0.93 
 -10  -2  -2    3.14    0.70 
   2 -10  -2    2.65    0.46 
   2 -10  -2    3.44    0.53 
 -10  -2  -2    3.80    0.61 
 -10  -2  -2    2.78    0.52 
   2 -10  -2    4.49    0.51 
  -2  10  -2    4.22    0.66 
  -2  10   2    3.32    0.52 
 -10  -2   2    3.41    0.71 
  10   2   2    2.80    0.52 
   2 -10   2    3.71    0.54 
 -10  -2   2    3.27    0.53 
  -2  10   2    4.01    0.45 
  10   2   2    4.67    0.68 
  -2  10   2    3.33    0.57 
  10   2   2    3.55    0.56 
 -10  -2   2    3.30    0.49 
   2 -10   2    3.00    0.58 
 -10   0  -2   57.49    2.10 
   0  10  -2   61.03    1.95 
   0 -10  -2   59.97    1.78 
   0 -10  -2   57.55    1.83 
   0  10  -2   61.00    1.96 
   0 -10  -2   59.48    1.91 
  10   0  -2   59.02    1.82 
 -10   0  -2   59.95    2.00 
 -10   0  -2   57.07    1.98 
  10   0  -2   58.32    1.97 
   0 -10   2   58.30    1.93 
   0  10   2   59.17    2.00 
 -10   0   2   60.03    2.13 
   0  10   2   56.92    1.87 
  10   0   2   59.91    1.94 
  10   0   2   58.08    2.04 
 -10   0   2   56.06    1.98 
   0  10   2   58.28    1.77 
   0 -10   2   57.20    1.92 
 -10   0   2   60.33    1.95 
  10  -2  -2    4.12    0.50 
  10  -2  -2    4.31    0.61 
 -10   2  -2    3.51    0.57 
  -2 -10  -2    3.83    0.70 
  -2 -10  -2    3.74    0.43 
 -10   2  -2    3.84    0.78 
 -10   2   2    3.22    0.76 
  -2 -10   2    3.54    0.50 
   2  10   2    3.25    0.40 
   2  10   2    2.98    0.57 
 -10   2   2    3.48    0.62 
  -2 -10   2    3.74    0.43 
  10  -2   2    3.67    0.72 
  10  -2   2    3.84    0.64 
 -10   2   2    2.47    0.55 
  10  -4  -2   11.08    0.85 
 -10   4  -2   12.36    1.32 
  -4 -10  -2   11.78    0.69 
 -10   4  -2   12.24    0.97 
  10  -4  -2   11.46    0.92 
  -4 -10  -2   12.49    0.96 
   4  10   2   10.12    1.03 
  10  -4   2   10.75    0.93 
 -10   4   2    9.98    1.02 
 -10   4   2   12.84    1.23 
 -10   4   2   11.14    1.00 
  10  -4   2   12.30    1.07 
 -10   4   2   11.26    0.94 
  -4 -10   2   12.03    0.80 
  -6 -10  -2  158.08    4.66 
   6  10  -2  166.11    4.61 
 -10   6  -2  164.23    4.95 
  -6 -10  -2  160.67    4.40 
  -6 -10  -2  163.38    4.41 
  10  -6  -2  166.13    4.66 
 -10   6   2  160.41    4.75 
  -6 -10   2  163.54    4.72 
 -10   6   2  158.51    4.56 
  -6 -10   2  164.64    4.57 
 -10   6   2  155.98    4.70 
  10  -6   2  161.30    4.65 
  -8 -10  -2   25.28    1.17 
 -10   8  -2   25.04    1.89 
 -10   8  -2   26.13    1.59 
  -8 -10  -2   27.26    1.62 
  10  -8  -2   25.11    1.50 
  10  -8  -2   27.56    1.42 
  -8 -10  -2   25.74    1.22 
  10  -8   2   24.88    1.45 
  -8 -10   2   25.28    1.31 
  10  -8   2   24.34    1.68 
 -10   8   2   26.68    1.58 
   8  10   2   23.89    1.65 
 -10   8   2   26.31    1.65 
  -8 -10   2   25.02    1.37 
  -8 -10   2   26.55    1.71 
 -10 -10  -2    0.62    0.65 
 -10 -10  -2    1.62    0.75 
 -10 -10  -2    1.55    1.21 
  10 -10  -2    3.19    0.90 
 -10  10  -2    1.29    1.46 
  10 -10   2    3.54    1.08 
 -10  10   2    1.94    1.05 
 -10 -10   2    3.87    1.32 
 -10  10   2    2.55    1.30 
 -10 -10   2    2.13    0.83 
   9 -11  -2   14.71    1.40 
 -11  -9  -2   13.09    1.84 
 -11  -9  -2   12.96    1.13 
 -11  -9  -2   12.67    1.38 
  -9  11  -2   11.02    1.76 
  -9  11   2   15.31    1.91 
 -11  -9   2   13.53    1.39 
 -11  -9   2   13.53    1.52 
   9 -11   2   16.35    1.66 
 -11  -7  -2    3.44    0.86 
 -11  -7  -2    3.12    1.00 
   7 -11  -2    3.14    0.71 
  -7  11  -2    1.43    0.93 
  -7  11  -2    3.32    1.04 
   7 -11  -2    1.55    0.64 
   7 -11   2    1.17    0.92 
 -11  -7   2    1.84    0.85 
  11   7   2    1.24    0.98 
 -11  -7   2    1.90    0.99 
  -7  11   2    0.27    0.93 
   7 -11   2    1.91    0.74 
  -7  11   2    2.59    0.72 
 -11  -5  -2    9.95    1.08 
  -5  11  -2    8.87    1.05 
   5 -11  -2    7.64    0.89 
 -11  -5  -2    7.41    0.93 
   5 -11  -2    8.49    0.90 
  -5  11   2    9.58    0.90 
  -5  11   2    8.10    0.86 
   5 -11   2    7.39    0.86 
   5 -11   2    7.33    0.90 
  11   5   2    8.15    0.90 
 -11  -5   2    8.18    1.01 
  -5  11   2   10.18    1.12 
  -3  11  -2    0.28    0.69 
   3 -11  -2    0.57    0.47 
   3 -11  -2    0.07    0.41 
 -11  -3  -2    0.35    0.56 
 -11  -3  -2    1.14    0.55 
   3 -11  -2    0.01    0.50 
 -11  -3  -2   -0.19    0.71 
   3 -11   2   -0.49    0.55 
  -3  11   2   -0.27    0.54 
  11   3   2    0.04    0.53 
 -11  -3   2    0.60    0.77 
  11   3   2    0.01    0.66 
   3 -11   2    0.13    0.50 
  -3  11   2    0.35    0.56 
 -11  -3   2   -0.71    0.46 
  -3  11   2   -0.21    0.39 
  11   1  -2   13.14    0.77 
   1 -11  -2   12.53    0.94 
  -1  11  -2   15.11    1.08 
 -11  -1  -2   13.41    1.13 
   1 -11  -2   12.16    0.79 
 -11  -1  -2   14.11    1.02 
 -11  -1  -2   11.48    1.15 
   1 -11  -2   12.96    0.84 
  11   1   2   13.49    1.21 
 -11  -1   2   12.52    1.01 
  11   1   2   13.92    1.00 
 -11  -1   2   12.87    1.02 
  -1  11   2   14.09    1.12 
   1 -11   2   15.45    0.99 
  -1  11   2   13.38    0.97 
  -1  11   2   14.24    0.79 
 -11  -1   2   12.52    1.24 
  11   1   2   12.34    0.96 
   1 -11   2   12.83    0.92 
   1  11  -2   14.22    0.84 
 -11   1  -2   13.63    1.05 
  -1 -11  -2   14.48    0.80 
 -11   1  -2   13.93    1.13 
  11  -1  -2   13.44    0.88 
  -1 -11  -2   13.63    0.94 
  11  -1  -2   13.34    0.99 
  -1 -11   2   12.95    0.84 
  11  -1   2   13.72    0.99 
 -11   1   2   13.31    1.13 
   1  11   2   12.79    1.11 
   1  11   2   12.55    0.82 
 -11   1   2   12.51    1.30 
  11  -1   2   11.16    1.04 
 -11   1   2   15.71    1.04 
  -1 -11   2   13.21    0.91 
  11  -3  -2    0.66    0.45 
  -3 -11  -2   -0.13    0.34 
 -11   3  -2    0.37    0.58 
  11  -3  -2   -0.12    0.52 
 -11   3  -2   -0.26    0.77 
  -3 -11  -2    0.90    0.59 
 -11   3   2    0.10    0.77 
   3  11   2    0.73    0.72 
 -11   3   2    0.58    0.54 
 -11   3   2   -0.52    0.61 
  11  -3   2    0.29    0.49 
  11  -3   2    0.60    0.63 
  -3 -11   2    0.15    0.40 
 -11   5  -2   10.58    1.17 
  -5 -11  -2    8.55    0.91 
  -5 -11  -2    6.55    0.72 
  11  -5  -2    8.82    0.93 
 -11   5   2    8.82    1.01 
 -11   5   2    9.34    1.08 
 -11   5   2    7.87    0.95 
  -5 -11   2    6.39    0.80 
  11  -5   2    7.63    1.00 
   5  11   2    7.26    0.94 
  11  -5   2    7.47    0.86 
 -11   7  -2    1.30    1.01 
  -7 -11  -2    2.01    0.57 
  -7 -11  -2    1.04    0.81 
  11  -7  -2    1.57    0.71 
  -7 -11  -2    1.53    0.50 
  11  -7  -2    2.12    0.72 
 -11   7  -2    2.28    0.81 
  -7 -11   2    1.44    0.56 
  11  -7   2    1.51    0.69 
 -11   7   2    1.52    0.85 
 -11   7   2    1.54    0.80 
  -7 -11   2    1.70    0.60 
   7  11   2    1.65    0.84 
 -11   7   2    3.36    0.92 
 -11   7   2    0.81    0.74 
  11  -7   2    0.13    0.81 
  -7 -11   2    1.69    0.85 
 -11   9  -2   12.77    2.04 
  -9 -11  -2   17.14    1.19 
  -9 -11  -2   12.96    1.22 
  -9 -11  -2   14.43    1.82 
  11  -9  -2   17.18    1.49 
 -11   9   2   15.18    1.81 
 -11   9   2   18.47    1.64 
  -9 -11   2   17.61    1.72 
  -9 -11   2   15.64    1.40 
  -8  12  -2   13.68    1.90 
   8 -12  -2   15.61    1.43 
 -12  -8  -2   19.32    1.61 
 -12  -8   2   15.30    1.72 
  -8  12   2   17.11    1.80 
  -8  12   2   18.87    2.37 
   6 -12  -2   16.47    1.27 
  -6  12  -2   16.42    1.81 
   6 -12  -2   16.68    1.19 
 -12  -6  -2   16.62    1.40 
 -12  -6  -2   20.10    1.77 
  -6  12   2   16.23    1.26 
  -6  12   2   13.18    1.47 
 -12  -6   2   17.93    1.74 
   6 -12   2   17.72    1.62 
   6 -12   2   15.10    1.40 
   4 -12  -2   22.17    1.25 
 -12  -4  -2   23.80    1.64 
  -4  12  -2   18.98    1.63 
   4 -12  -2   22.98    1.47 
  -4  12  -2   17.91    1.25 
   4 -12  -2   20.30    1.22 
  -4  12   2   21.95    1.41 
 -12  -4   2   22.96    1.60 
  12   4   2   23.09    1.68 
 -12  -4   2   18.68    1.36 
  -4  12   2   18.82    1.14 
   4 -12   2   21.28    1.33 
   4 -12   2   20.03    1.42 
  -4  12   2   22.23    1.43 
 -12  -2  -2  188.13    5.22 
   2 -12  -2  190.02    5.08 
   2 -12  -2  186.40    5.09 
   2 -12  -2  187.67    5.16 
 -12  -2  -2  183.07    5.23 
  -2  12  -2  192.66    5.35 
 -12  -2  -2  187.35    5.30 
  -2  12   2  185.06    5.04 
   2 -12   2  188.07    5.26 
 -12  -2   2  174.49    5.42 
   2 -12   2  184.73    5.20 
  -2  12   2  189.41    5.25 
 -12  -2   2  185.28    5.13 
  12   2   2  188.38    5.11 
 -12  -2   2  183.57    5.38 
  12   2   2  185.25    5.27 
  -2  12   2  167.59    5.18 
  12   2   2  188.87    5.17 
   0  12  -2    3.30    0.59 
  12   0  -2    2.53    0.55 
  12   0  -2    4.02    0.66 
 -12   0  -2    3.29    0.82 
 -12   0  -2    3.46    0.92 
   0 -12  -2    3.27    0.66 
   0  12   2    2.66    0.71 
  12   0   2    3.03    0.70 
 -12   0   2    3.20    0.67 
   0 -12   2    2.32    0.70 
 -12   0   2    3.47    0.86 
   0  12   2    2.57    0.59 
  12   0   2    2.86    0.62 
 -12   0   2    3.19    0.83 
   0 -12   2    3.30    0.58 
 -12   2  -2  192.79    5.54 
  -2 -12  -2  186.18    5.18 
  -2 -12  -2  175.42    5.25 
  12  -2  -2  185.13    5.25 
  12  -2  -2  186.34    5.14 
 -12   2   2  181.62    5.32 
  12  -2   2  186.45    5.22 
  12  -2   2  188.40    5.32 
 -12   2   2  186.91    5.33 
  -2 -12   2  183.87    5.19 
 -12   2   2  184.89    5.34 
   2  12   2  187.49    5.04 
 -12   4  -2   23.98    1.79 
  12  -4  -2   21.46    1.33 
  12  -4  -2   19.30    1.28 
  -4 -12  -2   22.24    1.09 
 -12   4  -2   22.28    1.49 
  -4 -12  -2   22.29    1.36 
 -12   4   2   19.81    1.41 
  -4 -12   2   22.71    1.22 
 -12   4   2   20.32    1.58 
  12  -4   2   21.55    1.48 
 -12   4   2   21.19    1.62 
 -12   4   2   19.08    1.53 
  12  -4   2   23.51    1.33 
   4  12   2   18.81    1.63 
  -6 -12  -2   14.50    1.38 
  -6 -12  -2   15.46    1.03 
  -6 -12  -2   17.72    1.06 
 -12   6  -2   14.10    1.79 
  12  -6  -2   17.23    1.30 
 -12   6   2   16.54    1.82 
  12  -6   2   16.86    1.35 
 -12   6   2   13.38    1.54 
  -6 -12   2   17.18    1.20 
 -12   6   2   14.17    1.45 
 -12   6   2   13.77    1.70 
  -8 -12  -2   14.05    1.19 
  -8 -12  -2   16.43    1.29 
  12  -8  -2   12.89    1.60 
 -12   8   2   19.31    1.99 
  -8 -12   2   15.51    1.79 
  -7  13  -2   56.47    4.01 
   7 -13  -2   52.62    2.30 
  -7  13   2   48.15    2.50 
 -13  -5  -2   -0.55    1.12 
  -5  13  -2    0.54    1.05 
 -13  -5  -2    0.45    0.93 
   5 -13  -2    2.01    0.96 
   5 -13  -2    1.00    0.68 
  -5  13   2    0.91    0.78 
 -13  -5   2    2.87    1.30 
   5 -13   2    0.52    0.91 
  -5  13   2    0.38    0.92 
  -5  13   2   -0.25    0.88 
   5 -13   2    1.12    0.93 
   3 -13  -2    2.38    0.75 
 -13  -3  -2    1.52    0.89 
   3 -13  -2    3.08    0.68 
   3 -13  -2    0.84    0.63 
  -3  13  -2    1.88    0.90 
 -13  -3  -2    1.10    0.92 
 -13  -3  -2    1.57    0.83 
 -13  -3   2    2.49    1.03 
  13   3   2    1.03    0.69 
   3 -13   2    3.03    0.75 
  -3  13   2    1.85    1.09 
  13   3   2    1.20    1.10 
  -3  13   2    1.76    0.78 
   3 -13   2    2.53    0.78 
  -3  13   2    2.33    0.64 
  -1  13  -2    2.08    0.64 
 -13  -1  -2    0.38    0.79 
   1 -13  -2    1.53    0.55 
   1 -13  -2    0.53    0.68 
 -13  -1  -2    0.72    0.89 
  -1  13  -2    3.00    0.77 
   1 -13  -2    1.59    0.56 
 -13  -1  -2    1.84    0.98 
  13   1  -2    0.91    0.54 
  -1  13   2    1.68    0.99 
  13   1   2    1.00    0.71 
 -13  -1   2    1.27    0.91 
   1 -13   2    1.23    0.64 
  13   1   2    0.52    0.84 
 -13  -1   2    1.78    0.81 
  -1  13   2    2.05    0.69 
   1 -13   2    0.99    0.58 
  13   1   2    1.62    0.74 
  13  -1  -2    0.88    0.63 
 -13   1  -2    2.19    0.88 
 -13   1  -2    1.62    0.94 
  13  -1  -2    0.61    0.65 
 -13   1  -2    1.74    1.04 
  -1 -13  -2    2.35    0.74 
   1  13  -2    1.29    0.56 
  -1 -13  -2    0.66    0.52 
  13  -1   2    2.06    0.69 
 -13   1   2    0.64    0.78 
  -1 -13   2    2.55    0.59 
 -13   1   2    1.89    0.92 
 -13   1   2    1.09    0.89 
   1  13   2    2.30    0.68 
   1  13   2   -0.14    0.84 
  -1 -13   2    2.62    0.61 
 -13   3  -2    1.28    1.15 
  -3 -13  -2    2.94    0.81 
  -3 -13  -2    2.49    0.58 
 -13   3  -2    0.16    0.86 
  13  -3  -2    2.50    0.76 
  13  -3  -2    1.08    0.70 
  -3 -13   2    2.89    0.64 
   3  13   2    3.76    1.14 
 -13   3   2    2.56    1.01 
 -13   3   2    5.09    1.07 
  13  -3   2    3.82    0.90 
  13  -3   2    2.38    0.74 
  -5 -13  -2    1.96    0.64 
  13  -5  -2    0.73    0.80 
 -13   5  -2   -0.47    1.26 
  -5 -13  -2   -0.03    0.90 
  13  -5   2    2.04    0.84 
 -13   5   2    1.18    1.14 
 -13   5   2    1.99    1.09 
  -5 -13   2    0.74    0.68 
   7  13  -2   60.06    2.56 
  -7 -13  -2   47.50    1.98 
  -7 -13  -2   48.58    2.00 
  -7 -13   2   49.33    2.37 
 -13   7   2   51.44    2.75 
  -4  14  -2    4.61    1.26 
   4 -14  -2    6.73    0.93 
 -14  -4  -2    4.18    1.48 
  -4  14   2    3.07    0.80 
  -4  14   2    5.25    1.10 
   4 -14   2    3.91    1.14 
  -4  14   2    1.19    1.11 
 -14  -2  -2   19.94    1.90 
 -14  -2  -2   19.94    1.96 
  -2  14  -2   22.22    1.72 
   2 -14  -2   21.47    1.47 
   2 -14  -2   20.67    1.37 
   2 -14  -2   21.13    1.39 
   2 -14   2   22.90    1.58 
 -14  -2   2   21.32    2.17 
   2 -14   2   21.04    1.64 
 -14  -2   2   19.57    2.35 
  -2  14   2   22.69    1.65 
  -2  14   2   22.00    1.36 
  -2  14   2   15.37    1.86 
  14   2   2   22.09    1.57 
  14   2   2   19.73    1.45 
 -14   0  -2    4.40    1.23 
 -14   0  -2    4.59    1.08 
   0 -14  -2    4.30    0.91 
   0  14  -2    4.39    0.89 
   0 -14  -2    3.57    0.73 
   0  14   2    3.68    1.11 
  14   0   2    2.09    1.00 
   0 -14   2    1.05    0.78 
 -14   0   2    1.89    1.23 
  14   0   2    3.61    0.86 
 -14   0   2    3.54    1.14 
   0  14   2    4.43    0.93 
   0 -14   2    3.32    0.78 
  14  -2  -2   19.83    1.69 
  -2 -14  -2   18.96    1.29 
  14  -2  -2   16.27    1.48 
 -14   2  -2   23.25    2.16 
 -14   2  -2   23.99    1.79 
  -2 -14  -2   20.12    1.48 
 -14   2   2   20.70    2.10 
  -2 -14   2   19.07    1.52 
  14  -2   2   22.26    1.62 
  14  -2   2   19.33    1.74 
 -14   2   2   21.49    2.06 
  -4 -14  -2    5.40    1.19 
  -4 -14  -2    5.36    0.80 
 -14   4  -2    4.49    1.62 
  14  -4   2    2.75    1.02 
 -14   4   2    7.60    1.47 
 -14   4   2    3.33    1.35 
   0  -1  -3   -0.09    0.14 
  -1   0  -3    0.01    0.15 
  -1   0   3   -0.09    0.16 
   0  -1   3    0.02    0.16 
  -1   0   3    0.01    0.09 
   1   0   3    0.20    0.18 
   1   0   3   -0.19    0.15 
   0  -1   3   -0.12    0.09 
  -1   2  -3   13.48    0.49 
   1  -2  -3   14.06    0.57 
  -2  -1  -3   14.96    0.57 
  -1   2   3   13.18    0.58 
   1  -2   3   13.89    0.51 
  -2  -1   3   13.96    0.50 
   2   1   3   14.37    0.80 
  -1   2   3   13.58    0.56 
   2   1   3   13.38    0.63 
   1  -2   3   13.82    0.66 
  -2   1  -3   13.70    0.64 
  -2   1  -3   13.22    0.47 
  -1  -2  -3   14.16    0.58 
  -1  -2   3   13.84    0.62 
   1   2   3   14.45    0.60 
  -1  -2   3   13.08    0.50 
  -2   1   3   13.36    0.55 
  -2   1   3   13.43    0.57 
   2  -1   3   14.29    0.50 
  -2   1   3   14.49    0.49 
   2  -3  -3   71.60    2.04 
  -3  -2  -3   70.56    2.03 
  -2   3  -3   70.62    2.13 
  -2   3  -3   71.88    2.06 
   2  -3   3   72.66    2.17 
   3   2   3   70.81    2.08 
  -2   3   3   69.24    2.04 
   2  -3   3   71.84    2.00 
   3   2   3   72.02    2.04 
  -2   3   3   72.80    2.03 
  -3  -2   3   71.92    1.99 
  -3   0  -3    0.19    0.11 
   0  -3  -3    0.08    0.17 
   0   3   3    0.06    0.14 
   0  -3   3   -0.08    0.11 
  -3   0   3    0.05    0.13 
   0   3   3    0.04    0.22 
   3   0   3    0.28    0.26 
  -3   0   3   -0.02    0.13 
  -3   0   3    0.12    0.18 
   3  -2  -3   72.59    1.94 
  -3   2  -3   72.60    1.98 
  -2  -3  -3   73.05    2.07 
  -3   2  -3   71.60    2.16 
  -3   2   3   72.55    1.99 
  -3   2   3   72.09    2.06 
   3  -2   3   71.96    2.01 
   2   3   3   70.27    2.06 
  -2  -3   3   71.24    2.08 
   2   3   3   71.64    2.07 
  -3   2   3   72.04    2.04 
  -2  -3   3   73.02    2.00 
   3  -2   3   71.47    2.18 
  -3   4  -3    0.77    0.32 
   3  -4  -3    0.24    0.22 
   3  -4  -3    0.80    0.18 
  -3   4  -3    1.75    0.26 
  -4  -3  -3    0.76    0.27 
  -4  -3   3    0.70    0.36 
  -4  -3   3    1.41    0.21 
  -4  -3   3    1.24    0.24 
  -3   4   3    0.59    0.19 
   4   3   3    0.69    0.26 
   3  -4   3    0.11    0.35 
  -3   4   3    0.53    0.27 
  -3   4   3    1.02    0.24 
  -4  -3   3    0.98    0.25 
   4   3   3    1.15    0.32 
   3  -4   3    0.73    0.22 
  -4  -1  -3  277.38    7.07 
  -4  -1  -3  273.87    7.17 
  -1   4  -3  275.25    7.15 
   1  -4  -3  281.31    7.21 
  -1   4  -3  281.78    7.27 
  -1   4   3  280.71    7.22 
  -4  -1   3  281.85    7.15 
   1  -4   3  276.96    7.31 
   4   1   3  272.77    7.16 
   4   1   3  278.92    7.06 
  -4  -1   3  286.73    7.16 
  -1   4   3  288.71    7.19 
   4   1   3  275.73    7.27 
   1  -4   3  276.43    7.16 
  -4   1  -3  272.71    7.31 
  -4   1  -3  284.54    7.13 
  -1  -4  -3  278.22    7.22 
   1   4   3  283.55    7.17 
  -1  -4   3  282.99    7.18 
  -4   1   3  287.27    7.18 
  -1  -4   3  281.06    7.27 
   4  -1   3  278.83    7.14 
   1   4   3  275.80    7.22 
  -4   1   3  273.97    7.21 
   4  -1   3  275.69    7.33 
  -4   1   3  280.14    7.19 
  -4   3  -3    0.73    0.21 
   4  -3  -3    0.85    0.19 
  -4   3  -3    0.51    0.32 
  -3  -4  -3    1.26    0.28 
  -4   3   3    0.66    0.28 
   3   4   3    0.45    0.22 
  -4   3   3    1.02    0.24 
  -3  -4   3    1.06    0.27 
  -4   3   3    0.70    0.22 
  -3  -4   3    0.72    0.20 
   3   4   3    0.63    0.29 
   4  -3   3    0.09    0.34 
   4  -3   3    0.67    0.23 
   4  -5  -3    1.61    0.26 
  -5  -4  -3    0.96    0.20 
  -4   5  -3    0.29    0.36 
  -4   5  -3    1.15    0.28 
  -5  -4  -3    0.96    0.35 
   4  -5  -3    0.70    0.26 
  -4   5   3    0.79    0.27 
  -5  -4   3    0.55    0.28 
  -5  -4   3    1.25    0.29 
   5   4   3    1.33    0.32 
  -5  -4   3    1.06    0.22 
  -4   5   3    0.79    0.33 
   5   4   3    1.50    0.39 
  -4   5   3    1.20    0.28 
   4  -5   3    1.17    0.29 
  -5  -4   3    1.27    0.42 
   4  -5   3    0.70    0.43 
  -5  -2  -3   66.96    2.01 
  -2   5  -3   67.75    1.97 
   2  -5  -3   68.12    1.87 
  -2   5  -3   68.21    2.12 
  -5  -2  -3   67.46    1.89 
   2  -5  -3   66.91    2.00 
  -2   5   3   69.34    1.85 
   2  -5   3   68.18    2.15 
  -2   5   3   68.25    1.99 
   5   2   3   68.68    2.07 
   5   2   3   68.46    1.85 
  -5  -2   3   68.77    1.92 
   2  -5   3   68.31    1.99 
  -2   5   3   67.89    2.04 
   5   2   3   68.99    2.02 
  -5  -2   3   67.81    1.97 
   0  -5  -3    0.16    0.24 
   0   5  -3   -0.04    0.23 
  -5   0  -3    0.13    0.19 
  -5   0  -3    0.60    0.27 
   5   0   3    0.24    0.19 
   0   5   3    0.49    0.28 
   5   0   3    0.62    0.28 
  -5   0   3    0.19    0.19 
   0   5   3    0.38    0.20 
   0  -5   3    0.23    0.19 
  -5   0   3   -0.06    0.22 
   0  -5   3    0.09    0.29 
  -5   0   3    0.03    0.17 
   5   0   3    0.64    0.33 
  -5   2  -3   70.58    2.27 
  -5   2  -3   69.21    2.08 
  -2  -5  -3   66.84    2.13 
   5  -2  -3   80.45    2.07 
   2   5   3   69.86    2.04 
  -5   2   3   78.98    2.13 
  -5   2   3   81.63    2.17 
   5  -2   3   69.10    2.08 
  -2  -5   3   68.35    2.07 
  -5   2   3   82.97    2.14 
   2   5   3   69.33    2.16 
  -2  -5   3   69.14    2.15 
  -5   4  -3    1.07    0.29 
  -4  -5  -3    0.89    0.35 
   5  -4  -3    1.05    0.25 
   5  -4  -3    0.80    0.27 
  -5   4  -3    0.51    0.38 
   4   5   3    1.31    0.31 
  -5   4   3    0.41    0.27 
  -5   4   3    0.79    0.33 
   4   5   3    0.85    0.37 
  -4  -5   3    1.15    0.27 
  -4  -5   3    1.05    0.30 
  -5   4   3    1.14    0.32 
  -4  -5   3    1.22    0.38 
   5  -4   3    1.82    0.33 
   5  -4   3    1.11    0.42 
   5  -6  -3   17.20    0.79 
  -6  -5  -3   16.97    0.71 
  -5   6  -3   17.39    0.90 
   5  -6  -3   17.33    0.84 
  -5   6  -3   19.37    1.21 
  -6  -5  -3   16.23    0.99 
  -5   6   3   17.33    0.83 
  -5   6   3   18.12    0.91 
  -6  -5   3   17.72    0.84 
   5  -6   3   17.69    0.92 
   6   5   3   19.01    1.03 
   5  -6   3   17.82    1.11 
  -6  -5   3   18.46    0.80 
   6   5   3   18.90    0.89 
  -5   6   3   17.11    0.90 
  -6  -5   3   17.58    0.67 
  -6  -5   3   18.20    1.06 
   3  -6  -3   52.02    1.56 
  -3   6  -3   51.98    1.65 
  -3   6  -3   50.64    1.81 
  -6  -3  -3   52.81    1.54 
   3  -6  -3   50.80    1.63 
  -6  -3  -3   55.29    1.72 
  -3   6   3   45.71    2.02 
   6   3   3   54.72    1.73 
  -6  -3   3   51.99    1.78 
   6   3   3   53.13    1.70 
   3  -6   3   51.99    1.67 
  -3   6   3   51.58    1.65 
  -6  -3   3   52.91    1.64 
   3  -6   3   53.02    1.85 
  -6  -3   3   52.05    1.53 
  -1   6  -3   -0.02    0.28 
  -1   6  -3    0.31    0.22 
   1  -6  -3   -0.14    0.25 
   1  -6  -3    0.42    0.18 
  -6  -1  -3   -0.22    0.28 
  -6  -1  -3    0.09    0.30 
  -6  -1  -3   -0.44    0.22 
   1  -6   3    0.38    0.22 
   6   1   3   -0.02    0.35 
  -1   6   3    0.20    0.31 
   6   1   3    0.23    0.34 
  -6  -1   3    0.33    0.20 
   6   1   3    0.21    0.20 
  -1   6   3    0.12    0.13 
   1  -6   3    0.35    0.37 
  -6  -1   3    0.51    0.34 
  -1   6   3    0.17    0.21 
  -6   1  -3    0.31    0.24 
  -6   1  -3    0.33    0.35 
  -1  -6  -3    0.27    0.26 
   1   6  -3    0.44    0.26 
   1   6   3    0.08    0.31 
  -1  -6   3    0.31    0.20 
   6  -1   3    0.07    0.23 
   6  -1   3   -0.35    0.34 
  -1  -6   3    0.22    0.34 
  -6   1   3    0.17    0.25 
   1   6   3    0.03    0.20 
  -6   1   3    0.03    0.22 
  -6   1   3    0.04    0.28 
  -6   3  -3   52.91    1.66 
  -6   3  -3   52.17    1.86 
   6  -3  -3   50.56    1.64 
  -3  -6  -3   50.56    1.69 
   6  -3  -3   52.58    1.60 
  -6   3   3   51.99    1.67 
   6  -3   3   52.43    1.66 
  -3  -6   3   53.66    1.67 
  -6   3   3   51.10    1.65 
  -3  -6   3   52.74    1.63 
   3   6   3   51.28    1.53 
  -5  -6  -3   17.62    0.62 
  -6   5  -3   14.56    1.29 
   6  -5  -3   17.47    0.80 
  -5  -6  -3   17.91    0.96 
   6  -5  -3   16.84    0.83 
  -6   5  -3   17.79    1.18 
  -5  -6  -3   16.33    0.64 
  -5  -6   3   18.70    0.83 
  -6   5   3   16.92    0.90 
   6  -5   3   15.86    1.08 
  -5  -6   3   16.86    0.95 
  -6   5   3   17.36    0.90 
   5   6   3   17.67    0.82 
   5   6   3   16.60    0.73 
  -5  -6   3   17.66    0.65 
  -6   5   3   17.11    0.90 
   5   6   3   16.63    0.98 
   6  -5   3   18.65    0.92 
  -6   7  -3    2.86    0.53 
  -7  -6  -3    3.22    0.40 
   6  -7  -3    2.90    0.47 
   6  -7  -3    3.87    0.51 
  -7  -6  -3    3.01    0.66 
  -6   7  -3    4.51    0.80 
  -6   7   3    3.94    0.58 
   7   6   3    4.15    0.54 
  -7  -6   3    3.68    0.69 
  -6   7   3    4.11    0.63 
   6  -7   3    3.82    0.66 
  -6   7   3    3.60    0.54 
   7   6   3    5.28    0.71 
   6  -7   3    3.62    0.59 
  -7  -6   3    3.46    0.49 
   4  -7  -3   19.81    0.95 
  -7  -4  -3   19.87    0.82 
   4  -7  -3   20.98    0.91 
   4  -7  -3   19.82    0.86 
  -7  -4  -3   19.78    1.09 
  -4   7  -3   20.33    1.27 
  -4   7  -3   20.21    0.93 
  -7  -4   3   19.90    0.92 
   4  -7   3   19.63    1.18 
   7   4   3   19.76    1.08 
  -4   7   3   20.49    1.01 
  -4   7   3   19.75    0.98 
  -7  -4   3   19.60    0.76 
  -4   7   3   20.80    0.86 
  -7  -4   3   22.30    1.22 
   7   4   3   21.31    1.00 
   4  -7   3   20.50    1.01 
   2  -7  -3   29.49    1.02 
  -7  -2  -3   29.31    1.07 
  -2   7  -3   31.30    1.28 
   2  -7  -3   31.19    1.14 
  -7  -2  -3   30.29    1.20 
  -7  -2  -3   29.91    1.18 
  -7  -2   3   28.35    1.21 
   7   2   3   30.95    1.24 
   7   2   3   30.41    1.02 
   7   2   3   29.28    1.18 
  -7  -2   3   27.71    1.33 
  -7  -2   3   30.41    1.03 
  -2   7   3   31.08    1.18 
   2  -7   3   30.83    1.15 
   2  -7   3   29.02    1.32 
  -2   7   3   30.42    1.13 
   0   7  -3    0.33    0.31 
  -7   0  -3    0.11    0.36 
   0  -7  -3   -0.36    0.28 
  -7   0  -3   -0.25    0.30 
   7   0   3    0.43    0.35 
   7   0   3    1.20    0.42 
  -7   0   3    0.14    0.27 
  -7   0   3   -0.10    0.36 
   0   7   3    0.23    0.35 
  -7   0   3    0.16    0.24 
   0  -7   3    0.17    0.24 
   7   0   3    0.13    0.25 
   0   7   3   -0.16    0.23 
   0  -7   3    0.28    0.39 
  -2  -7  -3   30.34    1.20 
   7  -2  -3   31.11    1.10 
   7  -2  -3   31.07    1.33 
  -7   2  -3   31.13    1.37 
  -7   2  -3   30.00    1.16 
   7  -2   3   30.31    1.13 
  -7   2   3   30.95    1.19 
  -7   2   3   31.35    1.19 
   2   7   3   30.29    1.04 
   7  -2   3   27.87    1.35 
  -2  -7   3   32.71    1.24 
   2   7   3   28.75    1.23 
  -7   2   3   33.04    1.17 
  -2  -7   3   29.66    1.11 
  -4  -7  -3   20.22    1.03 
  -4  -7  -3   20.01    0.70 
   7  -4  -3   20.58    0.92 
  -7   4  -3   18.06    1.10 
   7  -4  -3   20.43    0.90 
  -7   4  -3   20.18    1.28 
   4   7   3   21.00    0.78 
   4   7   3   20.45    0.86 
  -4  -7   3   20.01    0.93 
  -7   4   3   20.69    0.99 
   7  -4   3   18.85    0.97 
   4   7   3   19.74    1.04 
  -7   4   3   19.48    0.97 
  -7   4   3   21.27    1.03 
   7  -4   3   20.64    1.18 
  -4  -7   3   20.51    0.91 
   7  -6  -3    3.89    0.50 
  -6  -7  -3    3.40    0.37 
  -6  -7  -3    3.49    0.37 
  -7   6  -3    3.07    0.78 
  -6  -7  -3    4.14    0.67 
  -7   6  -3    3.37    0.51 
  -7   6   3    5.12    0.63 
  -6  -7   3    3.98    0.49 
  -6  -7   3    4.66    0.54 
  -7   6   3    3.14    0.55 
   6   7   3    4.00    0.51 
   6   7   3    4.59    0.70 
   6   7   3    3.09    0.39 
  -7   6   3    3.64    0.59 
  -6  -7   3    4.60    1.03 
  -8  -7  -3   35.09    1.33 
   7  -8  -3   32.03    1.96 
  -8  -7  -3   35.02    1.68 
  -7   8  -3   38.22    1.94 
  -8  -7  -3   35.62    1.21 
   8   7   3   31.14    1.56 
  -8  -7   3   35.23    1.43 
  -7   8   3   34.49    1.57 
  -8  -7   3   36.46    1.43 
  -7   8   3   37.75    1.51 
  -7   8   3   37.13    1.60 
   7  -8   3   36.51    1.75 
  -8  -7   3   32.97    1.77 
   7  -8   3   36.04    1.58 
   5  -8  -3   73.47    2.29 
  -5   8  -3   71.36    2.31 
  -8  -5  -3   71.47    2.46 
  -5   8  -3   74.56    2.65 
   5  -8  -3   71.75    2.25 
  -8  -5  -3   70.06    2.17 
   5  -8   3   74.36    2.41 
  -5   8   3   74.90    2.24 
  -5   8   3   73.93    2.37 
   8   5   3   74.00    2.28 
  -8  -5   3   74.90    2.55 
   5  -8   3   72.02    2.56 
  -5   8   3   70.97    2.38 
  -8  -5   3   72.07    2.30 
   8   5   3   84.20    3.08 
   3  -8  -3   55.44    1.84 
  -3   8  -3   56.42    2.06 
   3  -8  -3   55.73    1.79 
   3  -8  -3   55.92    1.76 
  -3   8  -3   52.80    1.81 
   3  -8   3   56.05    1.89 
  -3   8   3   55.43    1.88 
  -8  -3   3   54.00    1.83 
   8   3   3   64.20    1.97 
  -3   8   3   55.94    1.87 
  -8  -3   3   55.30    1.69 
  -3   8   3   55.70    1.69 
   3  -8   3   55.49    2.06 
  -8  -3   3   52.10    2.09 
   8   3   3   64.26    1.93 
  -8  -1  -3   59.98    1.92 
  -8  -1  -3   58.47    1.99 
  -1   8  -3   59.54    1.97 
  -8  -1  -3   58.16    1.87 
   1  -8  -3   58.72    1.90 
   1  -8  -3   61.62    1.78 
  -1   8  -3   58.21    1.86 
  -8  -1   3   59.08    1.91 
  -1   8   3   59.39    1.86 
   8   1   3   59.43    1.93 
  -1   8   3   58.25    1.69 
   8   1   3   58.93    2.01 
   1  -8   3   60.93    2.07 
  -8  -1   3   59.58    1.82 
  -8  -1   3   59.41    2.09 
  -1   8   3   59.23    1.94 
   8   1   3   59.75    1.81 
   1  -8   3   59.58    1.91 
  -8   1  -3   58.87    1.91 
  -8   1  -3   61.02    2.11 
  -1  -8  -3   58.99    1.92 
   8  -1  -3   60.53    1.88 
   1   8  -3   59.88    1.86 
   1   8   3   58.75    1.81 
   1   8   3   60.33    1.99 
  -1  -8   3   60.66    1.99 
  -8   1   3   60.41    1.98 
   8  -1   3   59.45    1.87 
   8  -1   3   59.09    2.05 
  -1  -8   3   59.79    1.90 
  -8   1   3   59.66    1.89 
  -8   3  -3   45.38    2.26 
   8  -3  -3   54.05    1.78 
  -3  -8  -3   49.68    2.09 
   8  -3  -3   56.01    1.78 
  -3  -8  -3   56.99    1.59 
  -8   3  -3   56.60    2.19 
   8  -3   3   56.39    1.83 
   3   8   3   56.32    1.90 
  -3  -8   3   53.12    1.79 
  -8   3   3   53.84    1.88 
  -8   3   3   56.55    1.85 
   3   8   3   57.13    1.66 
   8  -3   3   56.60    2.01 
  -8   3   3   54.62    1.84 
  -5  -8  -3   71.59    2.03 
   8  -5  -3   72.31    2.27 
  -8   5  -3   74.51    2.36 
  -5  -8  -3   70.93    2.02 
   8  -5  -3   73.05    2.27 
  -8   5  -3   68.64    2.60 
  -5  -8  -3   70.19    2.36 
   5   8   3   72.93    2.04 
  -5  -8   3   73.33    2.27 
  -8   5   3   72.96    2.36 
  -8   5   3   69.36    2.36 
   5   8   3   73.52    2.15 
  -8   5   3   71.77    2.32 
  -7  -8  -3   36.53    1.20 
  -8   7  -3   34.89    1.83 
   8  -7  -3   36.71    1.50 
  -8   7  -3   36.33    1.95 
  -7  -8  -3   35.35    1.68 
  -7  -8  -3   34.96    1.27 
   8  -7   3   35.88    1.58 
  -8   7   3   34.71    1.56 
  -8   7   3   37.43    1.62 
  -7  -8   3   34.95    1.44 
  -7  -8   3   33.24    1.73 
  -7  -8   3   35.99    1.44 
   8  -9  -3   12.82    1.18 
  -8   9  -3   13.47    1.29 
  -9  -8  -3   13.40    1.05 
  -8   9  -3   16.19    1.76 
   8  -9  -3   15.04    1.08 
  -9  -8  -3   13.39    1.42 
  -9  -8  -3   15.41    0.88 
  -8   9   3   14.17    1.30 
   8  -9   3   13.72    1.23 
  -8   9   3   15.01    1.22 
  -9  -8   3   13.28    1.31 
   8  -9   3   12.99    1.56 
  -9  -8   3   14.05    1.08 
  -8   9   3   13.88    1.30 
  -9  -8   3   13.07    1.14 
   9   8   3   12.67    1.44 
  -9  -6  -3   12.85    0.91 
  -9  -6  -3   13.25    1.31 
  -6   9  -3   15.91    1.53 
   6  -9  -3   14.92    0.97 
   6  -9  -3   13.95    0.94 
  -9  -6   3   12.95    0.94 
  -6   9   3   13.37    0.98 
  -6   9   3   13.16    1.54 
  -6   9   3   12.82    1.11 
   9   6   3   14.80    1.19 
  -9  -6   3   13.40    1.34 
   6  -9   3   13.88    1.10 
   6  -9   3   13.21    1.25 
  -4   9  -3   19.93    1.02 
   4  -9  -3   19.11    0.96 
   4  -9  -3   19.86    1.00 
  -9  -4  -3   21.48    1.31 
  -9  -4  -3   19.43    0.99 
  -4   9  -3   19.96    1.43 
   4  -9  -3   20.30    1.07 
   4  -9   3   19.72    1.14 
   4  -9   3   18.71    1.31 
  -9  -4   3   20.61    1.43 
  -4   9   3   19.36    1.13 
  -4   9   3   23.08    1.17 
   9   4   3   21.19    1.20 
  -4   9   3   20.10    0.94 
   9   4   3   19.69    1.13 
  -9  -4   3   19.15    1.02 
  -2   9  -3    1.14    0.35 
  -2   9  -3    1.47    0.56 
  -9  -2  -3    1.95    0.58 
   2  -9  -3    0.76    0.44 
  -9  -2  -3    1.00    0.54 
  -9  -2  -3    1.19    0.46 
   2  -9  -3    1.17    0.34 
   2  -9   3    0.60    0.58 
  -9  -2   3    0.81    0.36 
  -2   9   3    1.08    0.42 
  -9  -2   3    1.06    0.70 
   2  -9   3    1.17    0.45 
  -9  -2   3    0.50    0.54 
   9   2   3    1.67    0.53 
  -2   9   3    1.61    0.55 
   9   2   3    1.14    0.40 
  -2   9   3    1.76    0.31 
   9   2   3    0.54    0.58 
   0  -9  -3   -0.35    0.25 
  -9   0  -3    0.26    0.45 
   0   9  -3    0.06    0.38 
  -9   0  -3    0.00    0.54 
   0  -9  -3    0.23    0.42 
  -9   0  -3   -0.95    0.46 
   9   0   3   -0.30    0.51 
  -9   0   3    0.30    0.40 
   0  -9   3    0.19    0.41 
   0   9   3   -0.66    0.46 
  -9   0   3    0.14    0.35 
   0  -9   3    0.49    0.52 
  -9   0   3    0.19    0.76 
   0   9   3    0.44    0.37 
   9   0   3    0.35    0.51 
   9   0   3   -0.48    0.36 
  -2  -9  -3    0.94    0.49 
   9  -2  -3    1.47    0.38 
  -9   2  -3    1.26    0.97 
  -2  -9  -3    1.00    0.26 
   9  -2  -3    1.07    0.49 
  -9   2  -3    1.54    0.49 
  -9   2   3    0.71    0.50 
  -9   2   3    1.20    0.48 
   2   9   3    0.52    0.50 
  -9   2   3    0.92    0.59 
  -2  -9   3    0.96    0.38 
   2   9   3    1.16    0.34 
  -9   2   3    0.67    0.51 
   9  -2   3    0.87    0.48 
   9  -2   3    0.52    0.57 
  -2  -9   3    2.17    0.52 
  -4  -9  -3   20.76    1.15 
   9  -4  -3   18.01    1.04 
  -9   4  -3   20.90    1.15 
  -4  -9  -3   19.88    0.79 
  -4  -9  -3   19.38    0.77 
  -9   4  -3   22.17    1.47 
   9  -4  -3   19.70    1.02 
  -4  -9   3   19.46    1.01 
  -9   4   3   18.96    1.18 
  -9   4   3   18.64    1.06 
   4   9   3   19.69    0.92 
   4   9   3   19.49    0.85 
   9  -4   3   18.93    1.13 
   9  -4   3   20.75    1.25 
  -9   4   3   19.80    1.16 
  -6  -9  -3   15.21    0.79 
   9  -6  -3   13.62    1.01 
  -9   6  -3   14.20    1.45 
  -6  -9  -3   14.06    0.70 
  -6  -9  -3   10.64    1.16 
  -9   6   3   12.48    1.14 
  -9   6   3   14.99    1.13 
   9  -6   3   13.26    1.09 
  -6  -9   3   14.51    0.93 
  -6  -9   3   14.13    1.21 
   9  -8  -3   15.10    1.20 
  -8  -9  -3   15.04    1.42 
  -8  -9  -3   15.29    0.87 
  -9   8  -3   12.59    1.34 
  -9   8  -3   12.25    1.30 
   9  -8  -3   14.91    1.10 
  -8  -9  -3   14.43    0.96 
  -8  -9   3   15.52    1.09 
  -8  -9   3   15.29    1.57 
  -8  -9   3   13.10    1.13 
   8   9   3   14.48    1.47 
   9  -8   3   13.28    1.24 
  -9   8   3   14.46    1.30 
   9  -8   3   10.10    1.18 
  -9   8   3   16.07    1.36 
  -9   8   3   12.62    1.27 
   9 -10  -3   26.33    1.52 
 -10  -9  -3   27.82    1.47 
 -10  -9  -3   26.95    1.31 
  -9  10  -3   24.40    2.49 
 -10  -9  -3   23.25    2.29 
 -10  -9   3   25.33    2.13 
 -10  -9   3   25.09    1.63 
  -9  10   3   26.78    1.84 
   9 -10   3   28.36    1.82 
  -9  10   3   28.53    2.14 
  -7  10  -3   16.31    1.32 
   7 -10  -3   17.69    1.61 
 -10  -7  -3   17.26    1.16 
  -7  10  -3   17.09    1.78 
   7 -10  -3   18.64    1.14 
 -10  -7  -3   19.47    1.63 
 -10  -7   3   17.78    1.71 
  -7  10   3   19.10    1.45 
  10   7   3   18.84    2.19 
 -10  -7   3   18.12    1.20 
  -7  10   3   16.24    1.20 
   7 -10   3   15.67    1.29 
  -7  10   3   14.86    1.39 
   7 -10   3   15.65    1.62 
 -10  -5  -3   77.89    2.72 
 -10  -5  -3   75.48    2.42 
  -5  10  -3   75.15    2.51 
  -5  10  -3   77.32    2.85 
   5 -10  -3   76.55    2.47 
   5 -10  -3   78.33    2.46 
  10   5   3   76.15    2.43 
  10   5   3   77.42    2.63 
   5 -10   3   75.42    2.74 
   5 -10   3   76.69    2.75 
 -10  -5   3   77.60    2.79 
 -10  -5   3   72.99    2.50 
  -5  10   3   77.43    2.39 
  -5  10   3   79.34    2.63 
 -10  -3  -3    0.66    0.66 
  -3  10  -3   -0.06    0.64 
   3 -10  -3    0.41    0.41 
 -10  -3  -3    0.10    0.51 
   3 -10  -3    0.43    0.41 
   3 -10  -3   -0.07    0.50 
 -10  -3   3    0.19    0.43 
  10   3   3    0.21    0.70 
  -3  10   3    0.49    0.48 
  -3  10   3    0.90    0.58 
 -10  -3   3    0.45    0.44 
 -10  -3   3   -0.50    0.68 
   3 -10   3   -0.55    0.63 
  -3  10   3    1.19    0.38 
   3 -10   3    1.06    0.49 
   1 -10  -3    4.84    0.64 
  -1  10  -3    4.19    0.67 
   1 -10  -3    3.34    0.46 
 -10  -1  -3    3.83    0.72 
 -10  -1  -3    5.50    0.66 
 -10  -1  -3    4.55    0.81 
  -1  10  -3    5.13    0.66 
   1 -10   3    4.77    0.75 
 -10  -1   3    4.54    0.57 
  10   1   3    4.21    0.75 
 -10  -1   3    5.54    0.88 
   1 -10   3    3.59    0.54 
  10   1   3    3.89    0.56 
  -1  10   3    4.97    0.63 
 -10  -1   3    3.76    0.59 
  -1  10   3    4.35    0.42 
  10   1   3    4.21    0.73 
  -1  10   3    4.15    0.65 
   1  10  -3    5.04    0.56 
  -1 -10  -3    4.76    0.52 
  10  -1  -3    3.74    0.55 
  -1 -10  -3    3.67    0.62 
 -10   1  -3    3.14    0.61 
 -10   1  -3    4.12    0.81 
  10  -1  -3    4.68    0.51 
  10  -1   3    4.44    0.63 
  -1 -10   3    4.79    0.61 
 -10   1   3    4.86    0.68 
  -1 -10   3    3.73    0.64 
 -10   1   3    5.05    0.96 
  10  -1   3    4.31    0.73 
   1  10   3    5.30    0.54 
   1  10   3    4.50    0.69 
 -10   3  -3    0.50    0.79 
  -3 -10  -3   -0.01    0.29 
  10  -3  -3    0.38    0.46 
  -3 -10  -3    1.19    0.58 
  10  -3  -3   -0.10    0.43 
 -10   3  -3    1.82    0.56 
  -3 -10   3    0.68    0.49 
   3  10   3    0.34    0.41 
  10  -3   3    0.16    0.68 
 -10   3   3    0.78    0.54 
  -3 -10   3    0.29    0.38 
 -10   3   3    0.77    0.59 
  10  -3   3    0.65    0.56 
 -10   3   3   -0.08    0.77 
  -5 -10  -3   76.22    2.60 
  -5 -10  -3   76.41    2.22 
  -5 -10  -3   76.95    2.22 
  10  -5  -3   78.53    2.51 
  10  -5  -3   70.98    2.46 
 -10   5  -3   75.69    3.03 
  10  -5   3   79.86    2.74 
   5  10   3   63.61    2.58 
 -10   5   3   73.77    2.63 
 -10   5   3   76.31    2.62 
  -5 -10   3   78.33    2.50 
  10  -5   3   84.90    2.61 
 -10   7  -3   14.73    1.76 
  10  -7  -3   16.00    1.25 
  -7 -10  -3   18.87    1.43 
  -7 -10  -3   18.33    1.02 
 -10   7  -3   16.31    1.41 
  -7 -10  -3   17.36    0.95 
  10  -7  -3   17.68    1.24 
 -10   7   3   15.94    1.46 
  -7 -10   3   17.39    1.12 
   7  10   3   18.69    2.01 
  10  -7   3   19.05    1.33 
  -7 -10   3   16.40    1.52 
  -7 -10   3   14.96    1.19 
  10  -7   3   14.82    1.58 
 -10   7   3   17.47    1.44 
 -10   7   3   17.73    1.40 
  -9 -10  -3   26.18    2.39 
  -9 -10  -3   24.06    1.40 
  -9 -10  -3   27.64    1.31 
 -10   9  -3   25.34    2.58 
  10  -9  -3   23.63    1.54 
  -9 -10   3   24.25    1.62 
 -10   9   3   25.17    1.79 
  10  -9   3   25.17    1.84 
  -9 -10   3   25.01    2.00 
 -10   9   3   27.79    2.13 
 -11  -8  -3   -1.37    0.89 
   8 -11  -3   -0.67    0.73 
  -8  11  -3   -1.47    1.45 
   8 -11   3   -0.29    0.88 
  -8  11   3    0.89    0.98 
 -11  -8   3    0.54    1.34 
  -8  11   3    0.61    1.18 
   6 -11  -3   11.06    1.17 
 -11  -6  -3   12.60    1.30 
 -11  -6  -3   12.81    1.21 
  -6  11  -3   15.52    1.71 
   6 -11  -3   14.60    1.09 
 -11  -6   3   14.35    1.64 
  11   6   3   11.30    1.34 
   6 -11   3   15.17    1.30 
  -6  11   3   11.41    1.16 
  -6  11   3   13.41    1.40 
   6 -11   3   10.71    1.23 
  -6  11   3    8.94    1.09 
   4 -11  -3   25.08    1.33 
   4 -11  -3   22.31    1.24 
   4 -11  -3   25.61    1.85 
  -4  11  -3   25.03    1.35 
 -11  -4  -3   23.48    1.56 
 -11  -4  -3   23.65    1.34 
  -4  11  -3   22.24    1.64 
   4 -11   3   24.74    1.40 
  -4  11   3   23.05    1.37 
  -4  11   3   23.78    1.15 
 -11  -4   3   27.58    1.71 
  11   4   3   25.24    1.61 
 -11  -4   3   24.44    1.39 
   4 -11   3   21.52    1.56 
 -11  -2  -3  100.85    3.12 
  -2  11  -3  102.24    3.27 
  -2  11  -3  100.45    3.11 
 -11  -2  -3  107.86    3.25 
   2 -11  -3  101.89    3.02 
   2 -11  -3  102.66    3.10 
 -11  -2  -3  102.40    3.26 
 -11  -2   3  104.93    3.07 
   2 -11   3  106.03    3.20 
  11   2   3  105.53    3.20 
   2 -11   3  101.68    3.26 
  -2  11   3   91.21    3.00 
 -11  -2   3  104.09    3.40 
  -2  11   3  106.39    3.16 
  11   2   3  105.55    3.23 
  11   2   3   94.14    3.70 
 -11  -2   3  101.47    3.18 
 -11   0  -3    0.11    0.81 
   0 -11  -3    0.07    0.55 
 -11   0  -3   -0.24    0.58 
   0 -11  -3   -0.40    0.37 
   0  11  -3   -0.04    0.52 
 -11   0   3    0.07    0.54 
 -11   0   3   -0.10    0.84 
  11   0   3    0.67    0.80 
 -11   0   3    0.07    0.68 
  11   0   3    0.27    0.54 
  11   0   3    0.66    0.67 
   0 -11   3    1.32    0.64 
   0 -11   3    0.21    0.43 
  11  -2  -3  101.88    3.08 
  -2 -11  -3  103.26    3.18 
 -11   2  -3  103.40    3.21 
  -2 -11  -3  103.85    2.95 
 -11   2  -3  105.28    3.47 
  11  -2  -3  104.66    3.18 
 -11   2   3   99.23    3.22 
 -11   2   3  101.35    3.40 
 -11   2   3  102.39    3.23 
  11  -2   3  106.74    3.19 
  -2 -11   3  106.06    3.18 
   2  11   3  108.01    3.03 
  -2 -11   3  103.93    3.07 
 -11   2   3   98.51    3.27 
  -4 -11  -3   24.90    1.03 
  -4 -11  -3   23.94    1.42 
  -4 -11  -3   24.79    1.05 
  11  -4  -3   25.01    1.30 
  11  -4  -3   21.30    1.31 
 -11   4  -3   23.92    1.79 
  11  -4   3   23.89    1.42 
 -11   4   3   25.83    1.51 
   4  11   3   23.08    1.52 
  11  -4   3   21.98    1.59 
 -11   4   3   26.36    1.49 
   4  11   3   22.36    1.62 
  -4 -11   3   24.15    1.23 
 -11   4   3   24.37    1.53 
 -11   4   3   24.13    1.72 
  -6 -11  -3   11.95    0.91 
  -6 -11  -3   11.67    0.92 
  11  -6  -3   12.34    1.19 
  -6 -11  -3   13.87    1.41 
 -11   6  -3   14.00    1.48 
 -11   6  -3   11.10    1.33 
 -11   6   3   14.57    1.41 
 -11   6   3   12.81    1.46 
  -6 -11   3   12.11    1.10 
  11  -6   3   11.07    1.26 
 -11   6   3   11.49    1.25 
  -8 -11  -3    1.10    0.62 
  -8 -11  -3    0.41    0.69 
 -11   8  -3    2.06    2.19 
  11  -8  -3   -0.05    0.84 
  11  -8   3   -0.34    0.95 
 -11   8   3    1.04    1.36 
  -8 -11   3    0.28    1.25 
   7 -12  -3    0.07    0.75 
  -7  12  -3    3.33    1.59 
 -12  -7  -3    0.98    1.08 
  -7  12   3    0.55    0.90 
  -5  12  -3    3.05    1.12 
 -12  -5  -3    2.35    1.02 
 -12  -5  -3    1.64    1.06 
   5 -12  -3    2.31    0.68 
   5 -12   3    1.29    0.94 
  -5  12   3    0.43    0.63 
  -5  12   3    1.74    0.86 
 -12  -5   3    0.46    1.08 
   5 -12   3    0.87    0.82 
  -5  12   3    1.59    0.98 
   3 -12  -3    9.73    1.05 
   3 -12  -3   14.07    1.05 
 -12  -3  -3   11.93    1.20 
  -3  12  -3   15.03    1.40 
   3 -12  -3   10.24    1.14 
 -12  -3  -3    9.98    1.26 
  -3  12   3    9.80    1.08 
   3 -12   3   10.83    1.39 
  -3  12   3   13.19    1.21 
   3 -12   3   13.80    1.45 
  -3  12   3   11.08    0.93 
 -12  -3   3   10.37    1.22 
  12   3   3   12.13    1.22 
  12   3   3   12.30    1.30 
 -12  -3   3   13.48    2.01 
 -12  -3   3   13.11    1.27 
 -12  -1  -3    0.73    0.75 
  -1  12  -3   -0.71    0.65 
   1 -12  -3    0.54    0.54 
 -12  -1  -3   -0.62    0.80 
 -12  -1  -3    0.73    0.93 
   1 -12  -3   -0.60    0.67 
  -1  12   3   -0.46    0.56 
  12   1   3   -0.41    0.66 
 -12  -1   3    1.00    0.74 
  12   1   3   -0.12    0.93 
 -12  -1   3    0.10    0.75 
   1 -12   3    0.74    0.52 
 -12  -1   3    2.11    0.95 
  -1  12   3    2.57    0.84 
  12   1   3    1.88    0.80 
   1 -12   3   -0.71    0.70 
  -1 -12  -3   -0.15    0.64 
  12  -1  -3    0.02    0.59 
  -1 -12  -3    0.47    0.50 
 -12   1  -3    1.11    0.96 
  12  -1  -3    1.41    0.89 
   1  12  -3    0.27    0.56 
  12  -1   3    0.25    0.77 
   1  12   3   -0.26    0.88 
  -1 -12   3    0.36    0.51 
 -12   1   3    0.19    0.96 
 -12   1   3   -0.19    0.74 
  12  -1   3   -0.84    0.65 
  -1 -12   3   -0.94    0.61 
 -12   1   3    0.79    0.74 
 -12   3  -3   10.60    1.32 
  -3 -12  -3   12.76    0.93 
  12  -3  -3   11.31    1.13 
 -12   3  -3    9.59    1.28 
  12  -3  -3   13.09    1.17 
  -3 -12  -3   11.12    1.18 
  12  -3   3   11.67    1.26 
   3  12   3   12.99    0.97 
  12  -3   3   10.18    1.20 
 -12   3   3   11.47    1.43 
 -12   3   3   15.59    1.78 
 -12   3   3   11.87    1.25 
   3  12   3   11.85    1.24 
 -12   3   3   11.93    1.34 
  -3 -12   3   11.56    1.04 
 -12   5  -3    2.23    1.01 
  -5 -12  -3    2.43    0.94 
  -5 -12  -3    1.68    0.57 
 -12   5  -3    4.23    1.25 
  -5 -12  -3    1.60    0.57 
  12  -5  -3    2.37    0.79 
  12  -5   3    2.12    0.87 
 -12   5   3    0.45    1.23 
 -12   5   3    1.05    0.91 
 -12   5   3    2.99    1.19 
  -5 -12   3    0.87    0.65 
  12  -7  -3    1.09    0.93 
  -7 -12  -3    0.49    0.66 
 -12   7   3    3.94    1.49 
  12  -7   3    2.29    0.99 
  -4  13  -3    2.71    1.07 
 -13  -4  -3    1.14    2.18 
   4 -13  -3   -1.26    0.85 
 -13  -4  -3    1.33    0.97 
   4 -13  -3    0.09    0.74 
  -4  13   3    0.21    0.67 
  13   4   3    2.17    0.88 
  -4  13   3   -0.39    0.88 
   4 -13   3    2.85    1.52 
   4 -13   3   -0.74    1.03 
 -13  -2  -3   37.22    2.11 
 -13  -2  -3   35.97    1.93 
 -13  -2  -3   36.85    2.04 
   2 -13  -3   36.89    1.77 
  -2  13  -3   41.18    2.00 
   2 -13  -3   38.02    1.72 
  -2  13   3   39.67    1.57 
   2 -13   3   37.83    1.93 
  13   2   3   44.48    2.37 
  -2  13   3   40.46    1.85 
  13   2   3   38.31    1.86 
  13   2   3   40.61    1.91 
 -13  -2   3   39.20    2.50 
 -13  -2   3   39.40    2.02 
   2 -13   3   43.01    2.10 
 -13   0  -3    0.26    0.95 
   0  13  -3    0.15    0.73 
   0 -13  -3   -0.61    0.63 
   0 -13  -3    0.56    0.77 
 -13   0  -3    0.25    1.17 
 -13   0  -3   -0.60    0.91 
 -13   0   3    0.05    0.98 
   0 -13   3    0.41    0.76 
   0 -13   3    0.75    0.75 
  13   0   3    0.63    0.89 
 -13   0   3    0.33    1.16 
  13   0   3   -1.12    0.79 
   0  13   3   -0.65    0.73 
  13   0   3   -0.50    1.02 
 -13   2  -3   37.39    2.02 
  -2 -13  -3   35.59    1.83 
 -13   2  -3   41.45    2.35 
  -2 -13  -3   35.36    1.77 
  13  -2  -3   37.60    1.82 
  13  -2  -3   40.61    1.87 
  13  -2   3   36.46    2.06 
  13  -2   3   39.60    1.88 
 -13   2   3   39.60    2.13 
 -13   2   3   38.24    2.48 
  -2 -13   3   39.76    1.86 
  -4 -13  -3   -0.62    1.02 
  -4 -13  -3    1.45    0.63 
  13  -4  -3    1.99    0.97 
 -13   4  -3   -0.39    1.42 
  -4 -13  -3   -1.02    0.63 
 -13   4   3   -2.95    1.45 
 -13   4   3    0.15    1.16 
  13  -4   3    0.13    0.98 
   1 -14  -3   12.59    1.37 
 -14  -1  -3    8.61    1.37 
  -1  14  -3   14.83    1.61 
 -14  -1  -3    8.02    1.53 
   1 -14  -3   10.94    1.28 
  -1  14   3    9.88    1.15 
  14   1   3    9.80    1.17 
   1 -14   3   13.72    1.73 
  14   1   3    9.75    1.19 
 -14  -1   3    9.29    1.41 
   1  14  -3   12.52    1.49 
  -1 -14  -3    9.81    1.86 
 -14   1  -3    9.20    1.59 
  -1 -14  -3   11.53    1.31 
 -14   1  -3    8.65    1.27 
   1  14   3    8.15    1.02 
 -14   1   3   10.77    1.46 
  14  -1   3    8.97    1.19 
   0   0  -4  990.70   24.81 
   0   0   4  980.42   24.94 
   0   0   4 1000.00   24.82 
  -1  -1  -4    1.09    0.25 
   1  -1  -4    0.98    0.26 
   1   1   4    0.83    0.29 
  -1  -1   4    0.60    0.25 
   1   1   4    1.26    0.31 
  -1  -1   4    0.60    0.28 
  -1  -1   4    0.64    0.16 
   1  -1   4    0.96    0.32 
   1  -1   4    0.62    0.17 
  -1   1   4    0.71    0.27 
   0  -2  -4    1.77    0.31 
  -2   0  -4    1.39    0.26 
  -2   0   4    1.80    0.22 
  -2   0   4    1.66    0.31 
   2   0   4    1.69    0.29 
   0   2   4    1.36    0.34 
   0  -2   4    1.45    0.21 
  -2   0   4    1.21    0.18 
   0  -2   4    1.85    0.36 
   2   0   4    1.34    0.34 
  -2   2  -4    7.20    0.39 
  -2  -2  -4    7.35    0.53 
   2  -2   4    7.31    0.67 
   2   2   4    8.23    0.61 
   2  -2   4    7.58    0.44 
   2   2   4    6.61    0.56 
  -2  -2   4    7.15    0.41 
  -2   2   4    6.94    0.55 
  -2  -2   4    6.80    0.58 
  -2   2   4    7.10    0.50 
  -2  -2   4    6.83    0.50 
   1  -3  -4    4.90    0.48 
  -3  -1  -4    4.48    0.46 
   1  -3   4    4.59    0.52 
  -1   3   4    5.75    0.56 
   3   1   4    4.61    0.52 
   1  -3   4    4.36    0.37 
  -3  -1   4    4.68    0.38 
   3   1   4    5.73    0.60 
  -3  -1   4    5.51    0.43 
  -3  -1   4    4.66    0.48 
  -1   3   4    5.04    0.45 
  -1  -3  -4    4.38    0.49 
  -3   1  -4    4.43    0.31 
  -3   1   4    4.45    0.51 
   3  -1   4    4.60    0.55 
  -1  -3   4    4.77    0.56 
  -3   1   4    4.50    0.43 
   1   3   4    4.69    0.54 
   3  -1   4    5.33    0.38 
  -1  -3   4    5.18    0.38 
  -3   1   4    4.99    0.38 
  -3   3  -4   83.53    2.32 
  -3  -3  -4   83.98    2.44 
  -3   3  -4   84.70    2.58 
  -3  -3   4   84.22    2.36 
  -3  -3   4   83.81    2.35 
   3   3   4   84.98    2.51 
   3  -3   4   82.91    2.37 
   3   3   4   84.02    2.47 
  -3  -3   4   82.52    2.48 
  -2   4  -4  175.10    4.68 
  -4  -2  -4  181.51    4.78 
   2  -4  -4  181.10    4.79 
  -2   4  -4  177.94    4.89 
  -4  -2   4  181.30    4.71 
  -4  -2   4  181.28    4.72 
   2  -4   4  181.13    4.73 
   4   2   4  185.62    4.78 
  -2   4   4  154.98    5.04 
   4   2   4  177.03    4.87 
  -2   4   4  180.68    4.77 
  -4  -2   4  179.97    4.74 
   0  -4  -4   14.15    0.73 
   0  -4   4   13.44    0.63 
   0   4   4   14.85    0.78 
  -4   0   4   15.19    0.75 
   0  -4   4   14.53    0.87 
   4   0   4   13.49    0.85 
  -4   0   4   14.17    0.64 
  -4   0   4   14.60    0.68 
   0   4   4   14.82    0.70 
  -2  -4  -4  177.86    4.83 
  -4   2  -4  181.47    4.96 
  -4   2  -4  175.38    4.67 
  -2  -4   4  184.94    4.75 
   2   4   4  180.48    4.85 
   2   4   4  182.35    4.86 
  -4   2   4  181.32    4.81 
   4  -2   4  179.47    4.72 
   4  -2   4  173.13    5.01 
  -2  -4   4  179.22    4.88 
   4  -4  -4   47.78    1.41 
  -4   4  -4   47.85    1.52 
  -4  -4  -4   49.66    1.68 
  -4   4  -4   49.96    1.82 
   4  -4   4   47.75    1.83 
  -4  -4   4   48.57    1.65 
  -4  -4   4   46.93    1.55 
  -4  -4   4   48.12    1.53 
  -4   4   4   47.64    1.60 
   4  -4   4   48.42    1.58 
   4   4   4   48.91    1.66 
   4   4   4   49.00    1.67 
  -4   4   4   47.76    1.63 
  -3   5  -4   51.98    1.65 
  -3   5  -4   50.72    1.89 
   3  -5  -4   56.19    1.77 
  -5  -3  -4   53.94    1.77 
   5   3   4   54.29    1.82 
  -5  -3   4   53.23    1.75 
  -5  -3   4   53.93    1.68 
   3  -5   4   50.03    1.92 
  -3   5   4   52.54    1.78 
  -5  -3   4   54.04    1.63 
  -5  -3   4   53.42    1.87 
   3  -5   4   51.35    1.69 
  -3   5   4   54.35    1.73 
  -1   5  -4    7.29    0.70 
   1  -5  -4    7.28    0.63 
  -5  -1  -4    7.42    0.59 
   5   1   4    7.48    0.67 
   1  -5   4    7.02    0.99 
   5   1   4    5.88    0.77 
  -1   5   4    8.03    0.69 
  -5  -1   4    6.34    0.52 
  -5  -1   4    7.51    0.65 
   1  -5   4    6.91    0.52 
  -1   5   4    6.70    0.56 
  -5  -1   4    7.01    0.53 
  -5   1  -4    7.30    0.77 
  -1  -5  -4    7.85    0.65 
  -5   1   4    7.82    0.65 
   5  -1   4    7.34    0.59 
   1   5   4    7.85    0.55 
  -1  -5   4    7.03    0.51 
  -5   1   4    7.70    0.55 
   5  -1   4    6.52    0.50 
  -1  -5   4    6.77    0.73 
   1   5   4    7.02    0.69 
   5  -1   4    6.56    0.79 
  -5   1   4    6.88    0.55 
  -5   3  -4   53.08    1.94 
  -5   3  -4   52.31    1.63 
  -3  -5  -4   51.76    1.76 
   5  -3  -4   51.61    1.57 
   5  -3   4   54.88    1.77 
  -5   3   4   52.67    1.71 
   3   5   4   52.43    1.64 
   3   5   4   53.66    1.74 
  -3  -5   4   52.86    1.80 
  -3  -5   4   53.95    1.67 
  -5   3   4   50.55    1.66 
  -5   3   4   53.35    1.77 
   3   5   4   52.40    1.80 
   5  -5  -4   58.25    1.73 
  -5   5  -4   58.94    2.19 
  -5  -5   4   56.95    2.01 
  -5  -5   4   56.83    1.85 
  -5   5   4   57.53    1.94 
   5   5   4   57.61    1.93 
  -5  -5   4   58.85    1.87 
  -5  -5   4   61.29    1.93 
   5   5   4   58.01    2.00 
  -5  -5   4   59.49    1.75 
   5  -5   4   56.96    2.15 
  -5   5   4   58.91    1.93 
   5  -5   4   59.67    1.93 
  -5   5   4   58.71    1.82 
  -6  -4  -4    0.97    0.55 
  -4   6  -4    1.84    0.64 
  -4   6  -4    1.50    0.37 
   4  -6  -4    1.76    0.28 
  -6  -4   4    0.88    0.42 
   6   4   4    1.23    0.59 
  -6  -4   4    1.23    0.33 
   4  -6   4    0.92    0.44 
  -6  -4   4    1.58    0.40 
  -4   6   4    0.53    0.45 
  -4   6   4    0.84    0.40 
   4  -6   4    1.81    0.60 
   6   4   4    1.41    0.56 
  -6  -4   4    1.25    0.67 
  -4   6   4    1.80    0.33 
  -2   6  -4   42.40    1.78 
  -2   6  -4   47.42    1.74 
  -6  -2  -4   46.73    1.59 
   2  -6  -4   44.78    1.71 
  -6  -2   4   48.38    1.60 
   6   2   4   40.10    1.82 
  -2   6   4   47.81    1.58 
   6   2   4   48.36    1.64 
  -6  -2   4   46.59    1.54 
  -2   6   4   45.53    1.63 
  -6  -2   4   45.97    1.49 
   2  -6   4   47.08    1.56 
   2  -6   4   47.57    1.81 
  -6   0  -4   63.03    2.12 
  -6   0  -4   61.34    1.96 
   0  -6  -4   65.25    2.02 
   6   0   4   61.36    1.81 
  -6   0   4   64.47    1.94 
  -6   0   4   63.16    2.00 
   6   0   4   63.43    2.15 
  -6   0   4   62.96    1.93 
   0   6   4   63.22    1.93 
   0   6   4   60.19    2.02 
   0  -6   4   58.50    2.35 
   0  -6   4   65.07    1.94 
  -6   2  -4   46.57    1.79 
  -6   2  -4   47.13    1.50 
  -2  -6  -4   46.38    1.65 
  -6   2   4   46.71    1.63 
   2   6   4   46.67    1.67 
  -6   2   4   45.83    1.57 
  -2  -6   4   46.74    1.54 
   2   6   4   47.25    1.50 
  -6   2   4   45.51    1.56 
   6  -2   4   46.17    1.78 
  -2  -6   4   49.27    1.71 
   6  -2   4   44.65    1.51 
   6  -4  -4    1.62    0.31 
  -6   4  -4    0.90    0.40 
  -4  -6  -4    1.59    0.57 
  -6   4  -4    0.72    0.62 
  -6   4   4    1.09    0.48 
   6  -4   4    0.71    0.42 
  -6   4   4    1.34    0.46 
  -4  -6   4    1.49    0.39 
   4   6   4    1.00    0.45 
   4   6   4    1.09    0.32 
  -6   4   4    1.58    0.42 
  -4  -6   4    1.78    0.50 
   4   6   4    0.78    0.50 
   6  -4   4    1.04    0.59 
  -6   6  -4  214.55    6.15 
  -6  -6  -4  214.48    5.95 
  -6   6  -4  214.20    5.83 
   6  -6  -4  213.95    5.70 
  -6   6   4  213.61    5.91 
  -6  -6   4  213.92    5.80 
   6   6   4  214.86    6.06 
  -6  -6   4  215.79    5.63 
  -6  -6   4  214.38    5.83 
  -6   6   4  221.73    5.91 
  -6   6   4  215.21    5.77 
   6   6   4  217.95    5.93 
  -6  -6   4  221.49    5.84 
   5  -7  -4    4.41    0.54 
  -5   7  -4    5.34    0.87 
  -5   7  -4    3.77    0.55 
  -7  -5  -4    3.47    0.72 
  -7  -5   4    7.04    0.93 
  -5   7   4    4.56    0.50 
   5  -7   4    3.39    0.76 
   7   5   4    3.89    0.73 
  -7  -5   4    4.28    0.45 
   7   5   4    4.53    0.77 
  -7  -5   4    4.09    0.54 
  -5   7   4    4.48    0.62 
  -7  -5   4    3.79    0.58 
   5  -7   4    4.43    0.67 
  -5   7   4    5.09    0.76 
  -7  -3  -4   61.91    2.05 
   3  -7  -4   61.07    2.02 
  -3   7  -4   58.62    1.94 
  -3   7  -4   62.25    2.21 
  -7  -3   4   58.89    1.96 
  -3   7   4   60.47    2.05 
   3  -7   4   60.58    2.23 
  -7  -3   4   61.15    1.87 
   7   3   4   62.20    2.10 
  -3   7   4   61.50    2.00 
   7   3   4   59.52    2.09 
   3  -7   4   60.39    2.01 
  -1   7  -4   61.52    2.07 
   1  -7  -4   61.44    1.99 
  -7  -1  -4   60.91    1.94 
  -7  -1  -4   58.85    1.80 
   7   1   4   58.94    1.97 
   1  -7   4   62.20    1.96 
  -7  -1   4   59.21    1.98 
   1  -7   4   58.76    2.18 
  -1   7   4   60.38    2.02 
   7   1   4   61.12    1.78 
  -7  -1   4   60.80    1.94 
   7   1   4   60.62    2.13 
  -1   7   4   62.98    1.94 
  -7  -1   4   58.71    1.88 
  -1  -7  -4   60.69    1.98 
  -7   1  -4   54.71    2.43 
  -7   1  -4   60.16    1.85 
   1   7   4   58.87    1.85 
   7  -1   4   58.22    2.13 
   7  -1   4   62.91    1.85 
  -7   1   4   59.48    1.96 
  -1  -7   4   60.17    1.90 
  -1  -7   4   57.82    2.25 
   1   7   4   57.35    1.98 
  -7   1   4   59.09    1.93 
  -7   1   4   59.16    1.90 
   7  -3  -4   59.07    1.84 
  -7   3  -4   61.17    1.93 
  -3  -7  -4   60.03    2.03 
  -7   3  -4   60.22    2.25 
  -7   3   4   64.07    2.17 
  -3  -7   4   60.22    2.06 
   3   7   4   61.67    1.86 
   7  -3   4   57.96    2.17 
  -3  -7   4   58.78    2.26 
  -7   3   4   60.58    2.00 
   7  -3   4   60.95    1.94 
   3   7   4   61.71    2.08 
   3   7   4   49.68    2.06 
   7  -5  -4    3.80    0.46 
  -7   5  -4    4.31    0.59 
  -5  -7  -4    4.12    0.73 
  -7   5  -4    3.95    0.84 
   7  -5   4    3.29    0.65 
   5   7   4    5.32    0.74 
   5   7   4    3.59    0.45 
  -7   5   4    4.49    0.59 
   5   7   4    3.90    0.66 
  -5  -7   4    4.67    0.59 
  -5  -7   4    4.08    0.64 
  -7   7  -4   41.47    2.11 
   7  -7  -4   42.78    1.56 
  -7   7  -4   49.02    2.42 
  -7  -7  -4   43.30    1.89 
  -7  -7   4   45.68    1.40 
  -7   7   4   40.56    1.74 
   7   7   4   40.37    1.91 
   7   7   4   36.68    2.51 
  -7  -7   4   40.46    1.93 
   7  -7   4   44.05    2.19 
  -7   7   4   43.91    1.69 
  -7  -7   4   41.93    1.64 
  -7   7   4   43.15    1.78 
   7  -7   4   43.65    1.81 
   7   7   4   43.32    1.43 
  -7  -7   4   40.91    1.65 
  -7  -7   4   45.66    1.67 
  -6   8  -4   18.42    1.64 
   6  -8  -4   18.89    0.99 
  -8  -6  -4   17.71    1.39 
  -6   8   4   19.04    1.23 
  -6   8   4   18.25    1.07 
  -8  -6   4   19.76    1.14 
  -8  -6   4   18.29    1.80 
  -8  -6   4   18.70    1.07 
  -8  -6   4   21.21    1.14 
  -8  -6   4   18.99    0.89 
   8   6   4   21.58    1.36 
   8   6   4   17.18    1.41 
  -6   8   4   21.76    1.35 
   6  -8   4   17.93    1.31 
   6  -8   4   18.74    1.51 
  -8  -4  -4   22.73    1.32 
   4  -8  -4   23.08    0.92 
  -8  -4  -4   23.16    1.01 
  -4   8  -4   23.83    1.51 
  -4   8  -4   21.54    1.13 
  -8  -4   4   23.68    1.14 
  -8  -4   4   24.51    1.62 
   4  -8   4   24.56    1.49 
  -8  -4   4   22.54    1.13 
   8   4   4   24.64    1.39 
   8   4   4   22.83    1.32 
  -4   8   4   25.07    0.95 
  -4   8   4   22.71    1.19 
   4  -8   4   21.45    1.25 
  -8  -4   4   22.73    1.00 
  -8  -2  -4   91.85    2.83 
  -2   8  -4   92.64    2.75 
  -8  -2  -4   92.37    2.65 
  -2   8  -4   91.86    2.94 
   2  -8  -4   90.72    2.79 
  -2   8   4   90.26    2.85 
   8   2   4   91.16    2.92 
  -8  -2   4   94.90    2.80 
  -8  -2   4   91.86    3.03 
  -2   8   4   93.78    2.79 
   8   2   4   92.45    2.59 
   2  -8   4   89.22    3.01 
   8   2   4   90.67    2.82 
   2  -8   4   95.37    2.83 
  -8  -2   4   94.25    2.70 
  -8   0  -4    4.64    0.83 
   0  -8  -4    3.37    0.58 
   0   8  -4    3.77    0.58 
  -8   0  -4    4.11    0.51 
  -8   0   4    3.25    0.56 
   8   0   4    4.45    0.68 
   0   8   4    4.40    0.57 
  -8   0   4    4.59    0.74 
   8   0   4    3.56    0.46 
   0  -8   4    3.25    0.70 
  -8   0   4    3.07    0.52 
  -8   0   4    3.78    0.56 
   0  -8   4    3.75    0.53 
  -2  -8  -4   94.70    2.88 
  -8   2  -4   90.80    3.08 
  -8   2  -4   91.01    2.78 
   8  -2   4   92.68    3.04 
  -8   2   4   96.35    2.84 
  -8   2   4   95.80    2.87 
  -2  -8   4   92.58    2.79 
  -2  -8   4   92.59    2.99 
   8  -2   4   93.86    2.77 
   2   8   4   95.29    2.73 
  -8   4  -4   25.17    1.59 
  -8   4  -4   20.83    1.17 
  -4  -8  -4   23.13    1.30 
   8  -4  -4   23.95    1.08 
  -8   4   4   24.57    1.24 
   4   8   4   25.04    1.17 
  -4  -8   4   22.49    1.28 
   8  -4   4   22.43    1.23 
   4   8   4   22.92    0.98 
  -4  -8   4   25.34    1.16 
  -8   4   4   22.36    1.26 
  -6  -8  -4   21.19    1.39 
  -8   6  -4   16.88    1.61 
  -8   6  -4   18.35    1.19 
   8  -6  -4   19.63    1.56 
   6   8   4   18.69    0.89 
  -8   6   4   20.41    1.28 
  -8   6   4   18.18    1.30 
  -6  -8   4   17.43    1.10 
   8  -6   4   20.80    1.31 
  -6  -8   4   19.38    1.11 
  -8   6   4   18.95    1.22 
   6   8   4   20.96    1.45 
  -8   8  -4   45.37    2.35 
  -8  -8  -4   42.92    2.18 
  -8   8  -4   41.84    1.92 
   8  -8  -4   44.18    1.72 
  -8   8   4   44.47    1.82 
   8   8   4   44.78    1.49 
  -8  -8   4   46.59    2.10 
  -8  -8   4   43.71    1.78 
   8  -8   4   42.94    1.96 
  -8   8   4   42.47    1.99 
   8   8   4   41.13    2.06 
  -8   8   4   44.60    1.98 
  -8  -8   4   38.91    2.19 
  -9  -7  -4    5.49    0.64 
  -7   9  -4    4.88    0.87 
  -7   9  -4    7.44    1.27 
   7  -9  -4    5.86    0.71 
  -9  -7  -4    3.07    0.96 
  -9  -7  -4    3.95    0.66 
   9   7   4    4.55    0.53 
  -9  -7   4    3.51    0.92 
  -7   9   4    5.32    0.75 
   9   7   4    4.93    1.70 
   9   7   4    6.54    0.95 
   7  -9   4    5.62    0.96 
  -7   9   4    4.67    0.86 
  -7   9   4    5.44    1.05 
  -9  -7   4    5.48    1.08 
  -9  -7   4    4.68    0.69 
  -5   9  -4    1.45    0.57 
  -9  -5  -4    1.71    0.78 
  -5   9  -4    2.81    0.91 
  -9  -5  -4    1.94    0.56 
   5  -9  -4    1.57    0.49 
  -9  -5   4    1.91    0.56 
   5  -9   4    2.08    0.67 
  -9  -5   4    2.29    0.96 
  -9  -5   4    2.72    0.47 
  -5   9   4    1.40    0.57 
  -9  -5   4    2.95    0.61 
  -5   9   4    1.70    0.74 
   5  -9   4    2.69    0.86 
  -5   9   4    1.78    0.66 
   9   5   4    1.72    0.82 
   9   5   4    1.70    0.76 
  -9  -3  -4   18.52    1.31 
  -9  -3  -4   18.08    1.04 
   3  -9  -4   17.56    1.16 
  -3   9  -4   19.00    1.34 
   3  -9  -4   18.47    0.84 
   3  -9   4   20.47    1.46 
   9   3   4   20.16    1.34 
  -3   9   4   18.69    1.12 
  -9  -3   4   13.05    1.53 
  -9  -3   4   19.86    1.11 
   3  -9   4   17.97    1.16 
   9   3   4   20.04    1.29 
  -9  -3   4   19.37    1.01 
  -3   9   4   17.92    0.80 
  -9  -1  -4   52.42    1.80 
  -9  -1  -4   52.46    1.91 
  -1   9  -4   51.08    1.95 
   1  -9  -4   52.81    1.89 
  -9  -1  -4   54.80    2.09 
  -9  -1   4   51.91    2.20 
  -9  -1   4   53.54    1.84 
   9   1   4   52.49    1.94 
   1  -9   4   52.24    2.12 
   9   1   4   51.85    1.72 
  -9  -1   4   52.39    1.91 
   9   1   4   50.33    2.02 
   1  -9   4   52.48    1.87 
  -1   9   4   52.66    1.82 
  -1  -9  -4   52.77    1.91 
  -9   1  -4   52.37    2.13 
  -9   1  -4   48.04    1.93 
  -1  -9   4   53.45    2.18 
  -9   1   4   51.30    1.92 
  -9   1   4   54.32    1.90 
  -1  -9   4   53.03    1.86 
   9  -1   4   53.86    1.81 
   9  -1   4   52.24    2.07 
   9  -3  -4   18.38    1.04 
  -9   3  -4   21.01    1.56 
  -3  -9  -4   21.12    1.23 
  -9   3  -4   18.08    1.14 
  -9   3   4   20.47    1.21 
  -3  -9   4   18.93    1.07 
   3   9   4   20.03    0.96 
  -3  -9   4   19.42    1.26 
  -9   3   4   21.42    1.60 
   9  -5  -4    1.82    0.52 
  -9   5  -4    2.59    0.69 
  -5  -9  -4    2.59    0.78 
  -9   5  -4    3.22    0.94 
  -9   5   4    1.77    0.78 
   9  -5   4    1.27    0.66 
   5   9   4    2.57    0.64 
   9  -5   4    2.00    0.86 
  -5  -9   4    1.72    0.66 
  -5  -9   4    1.98    0.53 
  -9   5   4    1.71    0.73 
  -9   5   4    1.14    0.65 
   5   9   4    2.50    0.43 
  -7  -9  -4    5.11    1.02 
  -9   7  -4    3.63    1.14 
  -9   7  -4    4.62    0.88 
   9  -7  -4    4.43    0.72 
  -9   7   4    5.70    1.56 
   9  -7   4    5.86    0.92 
  -9   7   4    5.45    0.89 
  -7  -9   4    5.74    0.76 
   7   9   4    4.65    0.54 
   7   9   4    5.70    0.94 
  -9   7   4    6.56    0.91 
   9  -9  -4   49.94    2.04 
   9  -9   4   52.12    2.47 
  -9  -9   4   52.46    2.71 
  -9   9   4   46.79    2.36 
   8 -10  -4   11.25    1.25 
  -8  10   4   11.54    1.52 
   8 -10   4   10.12    1.34 
 -10  -8   4   11.97    1.60 
   6 -10  -4    3.94    0.67 
 -10  -6  -4    4.52    1.03 
  -6  10  -4    3.78    1.30 
  -6  10  -4    4.06    1.11 
 -10  -6  -4    3.49    0.87 
 -10  -6   4    3.63    1.15 
  -6  10   4    3.67    0.87 
  -6  10   4    4.44    0.72 
  10   6   4    5.84    0.95 
   6 -10   4    3.37    0.87 
  -4  10  -4   39.94    2.02 
   4 -10  -4   39.74    1.71 
 -10  -4  -4   48.04    1.67 
  -4  10  -4   38.17    1.71 
   4 -10  -4   38.46    1.50 
   4 -10   4   38.40    2.08 
  -4  10   4   35.33    1.43 
 -10  -4   4   39.16    2.09 
  10   4   4   44.93    1.99 
  -4  10   4   40.15    1.75 
   4 -10   4   40.40    1.81 
 -10  -4   4   39.54    1.74 
  10   4   4   45.57    1.92 
  -4  10   4   42.62    1.94 
 -10  -4   4   39.78    1.55 
 -10  -2  -4   72.17    2.91 
   2 -10  -4   63.70    2.00 
 -10  -2  -4   69.37    2.39 
  -2  10  -4   62.88    2.21 
   2 -10  -4   67.35    2.28 
  -2  10  -4   70.55    2.79 
  10   2   4   68.11    2.42 
 -10  -2   4   64.48    2.32 
 -10  -2   4   60.22    2.46 
   2 -10   4   66.07    2.30 
  -2  10   4   70.10    2.29 
   2 -10   4   63.71    2.51 
  10   2   4   68.77    2.12 
  10   2   4   66.83    2.42 
  -2  10   4   66.58    2.39 
 -10  -2   4   63.95    2.63 
   0  10  -4   12.59    1.05 
 -10   0  -4   11.91    1.08 
   0 -10  -4   12.13    1.05 
 -10   0  -4   13.31    1.47 
 -10   0   4   12.87    1.58 
 -10   0   4   13.57    1.11 
  10   0   4   15.13    1.07 
   0  10   4   12.97    0.96 
 -10   0   4   12.38    1.39 
 -10   0   4   11.94    1.10 
  10   0   4   14.51    1.33 
   0 -10   4   12.07    1.00 
   0 -10   4   13.14    1.31 
   0  10   4   14.39    1.26 
 -10   2  -4   68.32    2.62 
 -10   2  -4   63.56    2.25 
  -2 -10  -4   67.12    2.30 
 -10   2   4   65.23    2.31 
  -2 -10   4   68.84    2.41 
  10  -2   4   65.27    2.24 
   2  10   4   66.60    2.16 
 -10   2   4   64.23    2.37 
  -2 -10   4   68.31    2.26 
   2  10   4   60.01    2.44 
 -10   4  -4   45.04    2.17 
  -4 -10  -4   41.51    1.82 
  10  -4  -4   42.02    1.64 
  -4 -10   4   41.70    1.67 
   4  10   4   33.99    1.93 
 -10   4   4   41.23    1.91 
   4  10   4   40.98    1.63 
 -10   4   4   38.02    1.86 
  10  -4   4   40.84    2.11 
   4  10   4   42.59    1.51 
  -4 -10   4   43.55    2.19 
 -10   4   4   39.42    1.81 
  10  -4   4   40.69    1.80 
 -10   6  -4    1.35    1.17 
  10  -6  -4    3.50    0.68 
 -10   6  -4    2.09    0.85 
  -6 -10  -4    4.01    1.05 
  10  -6   4    2.43    0.89 
 -10   6   4    3.98    0.87 
  -6 -10   4    4.15    0.76 
   6  10   4    4.20    0.55 
 -10   6   4    5.18    0.98 
   6  10   4    2.06    0.98 
  10  -8  -4   13.01    1.36 
 -10   8   4   11.59    1.47 
  10  -8   4   11.80    1.39 
  -8 -10   4   12.94    1.45 
   7 -11  -4    0.92    0.78 
 -11  -7   4   -0.65    1.74 
  -7  11   4    0.72    0.86 
  -5  11  -4    9.37    1.21 
   5 -11  -4    8.67    1.08 
 -11  -5  -4   10.86    1.32 
 -11  -5  -4   11.07    1.26 
  11   5   4   11.32    1.43 
 -11  -5   4   12.12    1.49 
   5 -11   4   11.21    1.44 
  -5  11   4   11.90    1.06 
  -5  11   4    9.47    1.07 
  -3  11  -4   -0.64    0.82 
   3 -11  -4   -0.24    0.71 
  -3  11  -4   -0.47    0.73 
 -11  -3  -4    1.23    0.89 
   3 -11  -4    0.63    0.54 
 -11  -3  -4   -0.76    0.74 
  11   3   4   -0.36    1.11 
  -3  11   4   -0.41    0.89 
  -3  11   4    0.09    0.58 
   3 -11   4    1.18    1.12 
   3 -11   4    0.36    0.68 
  11   3   4   -0.30    0.86 
 -11  -3   4    0.62    0.76 
  -3  11   4   -0.65    0.67 
 -11  -3   4   -1.08    1.00 
 -11  -1  -4    3.97    1.02 
 -11  -1  -4    6.16    0.86 
 -11  -1  -4    4.10    0.79 
   1 -11  -4    5.57    0.84 
  -1  11  -4    4.92    0.81 
  -1  11   4    5.59    1.00 
   1 -11   4    4.34    0.97 
  11   1   4    6.10    0.98 
 -11  -1   4    4.65    0.84 
  11   1   4    5.19    0.88 
 -11  -1   4    6.54    1.16 
 -11  -1   4    4.01    0.83 
   1 -11   4    5.16    0.71 
  -1  11   4    4.87    0.70 
 -11   1  -4    4.60    1.08 
  -1 -11  -4    5.32    0.79 
 -11   1  -4    4.30    0.78 
 -11   1   4    5.13    1.01 
 -11   1   4    5.70    1.16 
 -11   1   4    5.33    0.83 
  11  -1   4    3.35    0.93 
   1  11   4    4.81    0.66 
  -1 -11   4    5.04    0.92 
  -1 -11   4    5.67    0.73 
   1  11   4    4.47    0.95 
  11  -1   4    5.02    0.81 
 -11   1   4    6.20    0.97 
 -11   3  -4   -0.49    1.04 
  11  -3  -4    0.19    0.60 
  -3 -11  -4    0.52    0.76 
  11  -3   4    1.30    0.78 
 -11   3   4   -0.57    0.70 
 -11   3   4    0.01    0.84 
 -11   3   4   -0.08    1.17 
  -3 -11   4    2.00    0.84 
  -3 -11   4   -0.29    0.54 
  11  -3   4    0.61    1.04 
   3  11   4    1.48    0.59 
 -11   5  -4    6.55    1.03 
  -5 -11  -4   12.31    1.73 
  11  -5  -4    9.00    1.17 
 -11   5  -4    9.85    1.44 
 -11   5   4   10.08    1.09 
   5  11   4   12.42    1.27 
  -5 -11   4    9.34    1.19 
 -11   5   4   10.33    1.26 
  11  -5   4   11.88    1.45 
   5  11   4    9.90    1.00 
  11  -7  -4   -1.43    0.82 
  11  -7   4    1.45    1.24 
 -12  -4  -4   17.97    1.93 
   4 -12  -4   16.31    1.25 
 -12  -4  -4   15.58    1.55 
  -4  12  -4   14.54    1.43 
  -4  12   4   12.96    1.03 
  -4  12   4   13.43    1.61 
  12   4   4   17.26    1.73 
 -12  -4   4   13.52    1.46 
   4 -12   4   15.24    1.69 
 -12  -4   4   15.80    1.85 
   2 -12  -4    9.98    1.10 
  -2  12  -4   12.88    1.17 
 -12  -2  -4    9.85    1.05 
   2 -12  -4    9.11    1.06 
 -12  -2  -4    9.26    1.11 
 -12  -2   4   14.07    1.43 
  12   2   4    7.77    1.31 
 -12  -2   4   10.55    1.43 
   2 -12   4    7.53    1.27 
  -2  12   4   10.73    1.29 
  12   2   4   10.26    1.39 
   2 -12   4    8.78    1.01 
 -12   0  -4   91.45    3.39 
   0 -12  -4   95.94    3.13 
   0  12  -4   99.28    3.07 
  12   0   4   93.53    3.13 
  12   0   4   90.47    3.33 
   0  12   4   95.00    3.02 
 -12   0   4   97.74    3.18 
   0 -12   4   91.68    3.23 
   0 -12   4   93.92    3.14 
 -12   0   4   91.95    3.66 
  -2 -12  -4    8.50    1.12 
 -12   2  -4   10.34    1.38 
 -12   2  -4   12.58    1.45 
  -2 -12   4    9.69    1.13 
  12  -2   4   10.95    1.39 
 -12   2   4    9.61    1.09 
   2  12   4    9.36    0.90 
  -2 -12   4    8.21    0.97 
 -12   2   4   11.88    1.63 
  12  -4  -4   15.93    1.40 
 -12   4  -4   10.26    1.22 
 -12   4  -4   18.43    1.86 
   4  12   4   15.81    1.41 
 -12   4   4   13.66    1.41 
   4  12   4   14.56    1.24 
  12  -4   4   17.65    1.58 
 -13  -1  -4   -0.13    1.07 
 -13  -1  -4    1.50    1.14 
 -13  -1  -4   -0.74    1.31 
  -1  13  -4    1.62    1.00 
  13   1   4    0.32    0.97 
 -13  -1   4    1.36    1.12 
  13   1   4    0.17    1.48 
  13   1   4   -0.22    1.17 
  -1  13   4   -0.88    0.88 
   1 -13   4   -0.97    1.20 
 -13   1  -4   -1.19    1.07 
 -13   1  -4    1.23    1.47 
  -1 -13   4    0.18    0.89 
   1  13   4   -0.39    0.82 
 -13   1   4    1.62    1.12 
  13  -1   4   -0.38    0.96 
  -1   0  -5   -0.29    0.32 
   0  -1  -5    0.18    0.36 
   0   1   5   -0.39    0.41 
   1   0   5    0.29    0.39 
  -1   0   5    0.01    0.38 
   0   1   5    0.35    0.38 
   0  -1   5    0.49    0.44 
   1   0   5    0.19    0.41 
  -1   0   5    0.69    0.42 
  -2  -1  -5    6.83    0.60 
   1  -2  -5    6.29    0.69 
  -1   2   5    8.84    0.75 
   1  -2   5    6.63    0.48 
  -2  -1   5    7.02    0.47 
   2   1   5    6.41    0.79 
  -2  -1   5    7.31    0.68 
   2   1   5    6.51    0.72 
  -1   2   5    6.19    0.78 
   1  -2   5    6.60    0.82 
  -2  -1   5    6.69    0.45 
  -2  -1   5    7.17    0.76 
  -1  -2  -5    6.81    0.67 
  -1  -2   5    6.64    0.81 
   2  -1   5    7.57    0.84 
   1   2   5    6.70    0.76 
  -2   1   5    8.76    0.66 
   1   2   5    6.91    0.96 
  -2   1   5    9.60    0.74 
  -1  -2   5    7.29    0.47 
  -3  -2  -5   36.81    1.36 
  -3  -2   5   37.36    1.35 
  -3  -2   5   35.83    1.49 
  -3  -2   5   37.09    1.23 
   2  -3   5   36.88    1.24 
  -2   3   5   37.88    1.36 
   3   2   5   31.62    1.52 
  -2   3   5   38.09    1.45 
  -3  -2   5   36.75    1.20 
   2  -3   5   37.43    1.60 
   3   2   5   36.26    1.51 
   0  -3  -5   -0.14    0.41 
   3   0   5   -0.24    0.44 
  -3   0   5   -0.08    0.21 
   0  -3   5   -0.43    0.24 
   0   3   5    0.29    0.38 
  -3   0   5   -0.03    0.38 
   0  -3   5    0.27    0.46 
   3   0   5   -0.09    0.45 
  -3   0   5   -0.31    0.39 
   0   3   5    0.25    0.46 
  -3   0   5    0.07    0.26 
  -2  -3  -5   37.28    1.41 
   2   3   5   37.62    1.50 
  -3   2   5   37.97    1.42 
  -2  -3   5   37.85    1.23 
   2   3   5   36.98    1.44 
   3  -2   5   35.66    1.58 
  -3   2   5   36.61    1.36 
  -2  -3   5   35.93    1.53 
   3  -2   5   37.08    1.23 
  -4  -3  -5    0.11    0.44 
  -3   4  -5    0.12    0.32 
  -4  -3   5    0.85    0.33 
  -4  -3   5    0.44    0.37 
   4   3   5    1.31    0.59 
  -4  -3   5    0.36    0.43 
  -3   4   5    0.67    0.49 
   4   3   5    0.78    0.51 
  -4  -3   5   -0.72    0.49 
   3  -4   5    0.14    0.38 
   3  -4   5   -0.20    0.58 
  -4  -3   5    0.64    0.36 
  -4  -3   5   -0.53    0.50 
  -3   4   5    0.41    0.39 
   1  -4  -5  151.57    4.26 
  -4  -1  -5  145.89    4.04 
   1  -4   5  144.15    3.98 
   1  -4   5  142.17    4.29 
  -4  -1   5  145.85    4.20 
  -4  -1   5  145.09    3.97 
   4   1   5  139.97    4.24 
  -1   4   5  162.60    4.17 
  -1   4   5  162.28    4.12 
  -4  -1   5  143.99    4.08 
  -4  -1   5  142.19    4.17 
  -4  -1   5  146.19    3.94 
   4   1   5  144.29    4.06 
   1   4   5  162.99    4.19 
  -4   1   5  141.23    3.97 
  -4   1   5  144.39    4.13 
  -1  -4   5  143.16    4.00 
   4  -1   5  140.22    4.30 
  -1  -4   5  140.35    4.28 
   1   4   5  160.95    4.21 
  -4   1   5  143.46    4.10 
   1   4   5  161.96    4.26 
  -4   3  -5    0.54    0.31 
  -3  -4  -5    0.78    0.60 
   3   4   5    0.66    0.56 
  -3  -4   5    0.43    0.34 
   4  -3   5    0.79    0.37 
   3   4   5    0.22    0.51 
  -4   3   5    0.73    0.47 
  -3  -4   5    0.34    0.52 
  -4   3   5    0.60    0.38 
  -4   5  -5   -0.13    0.39 
  -4   5  -5    1.40    0.65 
  -5  -4  -5    0.20    0.54 
  -5  -4   5    0.56    0.43 
   5   4   5    0.75    0.57 
  -5  -4   5    0.35    0.50 
   4  -5   5    0.50    0.50 
  -5  -4   5    1.17    0.42 
   5   4   5   -0.06    0.62 
   4  -5   5    0.38    0.66 
  -5  -4   5    0.50    0.44 
  -5  -4   5    0.69    0.57 
  -5  -4   5    0.29    0.82 
  -4   5   5    1.43    0.46 
  -5  -2  -5   36.80    1.42 
   2  -5  -5   38.28    1.49 
  -5  -2   5   36.36    1.51 
   5   2   5   34.79    1.56 
  -5  -2   5   35.57    1.35 
   2  -5   5   36.33    1.35 
  -5  -2   5   35.33    1.43 
  -2   5   5   36.14    1.47 
   2  -5   5   34.23    1.66 
  -5  -2   5   36.51    1.27 
   5   2   5   36.22    1.48 
  -2   5   5   36.81    1.40 
  -5  -2   5   33.18    1.58 
   0  -5  -5   -0.15    0.46 
   0  -5   5    0.02    0.34 
  -5   0   5   -0.05    0.48 
   0  -5   5   -0.47    0.54 
   5   0   5   -0.07    0.54 
   0   5   5    0.17    0.40 
  -5   0   5    0.25    0.36 
   0   5   5   -0.45    0.47 
  -5   0   5   -0.19    0.38 
  -2  -5  -5   36.73    1.48 
  -5   2  -5   36.73    1.21 
   2   5   5   38.53    1.61 
   5  -2   5   35.80    1.27 
   2   5   5   36.33    1.37 
  -5   2   5   34.10    1.30 
  -5   2   5   37.01    1.47 
   2   5   5   35.09    1.45 
  -2  -5   5   36.72    1.32 
  -2  -5   5   35.77    1.60 
   5  -2   5   35.95    1.65 
  -5   2   5   35.26    1.38 
  -5   4  -5    0.59    0.40 
  -5   4  -5    0.53    0.67 
  -4  -5  -5    0.93    0.59 
   4   5   5    0.73    0.63 
  -5   4   5    1.14    0.55 
   4   5   5    0.07    0.54 
  -4  -5   5    0.63    0.60 
  -5   4   5    0.34    0.41 
  -4  -5   5    0.57    0.56 
  -5   4   5    0.00    0.43 
   5  -4   5    0.81    0.50 
  -4  -5   5    0.10    0.42 
  -5   6  -5   10.42    1.12 
  -6  -5  -5    8.99    1.12 
  -5   6  -5    8.30    0.87 
  -5   6   5   10.03    0.97 
  -5   6   5   11.70    0.75 
  -6  -5   5    9.84    0.98 
   5  -6   5   12.06    1.38 
   6   5   5   10.72    1.23 
  -6  -5   5   11.51    1.15 
   6   5   5   11.02    1.18 
  -6  -5   5   11.77    0.92 
  -6  -5   5    9.34    0.89 
  -6  -5   5   11.10    0.86 
  -6  -5   5   12.24    1.15 
   5  -6   5   10.70    1.09 
  -3   6  -5   28.58    1.55 
  -6  -3  -5   29.49    1.38 
  -3   6  -5   27.14    1.22 
   6   3   5   28.98    1.52 
  -3   6   5   30.82    1.31 
  -6  -3   5   29.08    1.24 
  -6  -3   5   28.92    1.41 
  -6  -3   5   30.07    1.35 
  -6  -3   5   30.77    1.29 
   6   3   5   28.03    1.44 
  -6  -3   5   26.18    1.73 
   3  -6   5   29.15    1.61 
   3  -6   5   29.96    1.33 
   1  -6  -5   -0.01    0.49 
  -1   6   5   -0.52    0.42 
  -1   6   5    1.22    0.56 
   1  -6   5   -0.19    0.42 
  -6  -1   5    0.30    0.47 
  -6  -1   5   -1.07    0.84 
   6   1   5    0.45    0.60 
   1  -6   5   -0.84    0.61 
  -6  -1   5   -0.07    0.41 
   6   1   5   -0.20    0.60 
  -6   1  -5   -0.29    0.32 
  -1  -6  -5    0.43    0.52 
  -1  -6   5    0.27    0.39 
  -6   1   5    0.43    0.53 
   6  -1   5   -0.10    0.64 
  -1  -6   5    0.85    0.63 
  -6   1   5   -0.12    0.42 
   1   6   5   -0.61    0.53 
  -6   1   5   -0.62    0.43 
   1   6   5    0.36    0.42 
   6  -1   5   -0.39    0.35 
  -6   3  -5   31.49    1.22 
  -3  -6  -5   31.09    1.44 
  -6   3  -5   30.13    1.62 
  -3  -6   5   30.22    1.26 
  -3  -6   5   29.61    1.53 
  -6   3   5   29.00    1.29 
   3   6   5   31.45    1.25 
   6  -3   5   28.94    1.26 
  -6   3   5   31.48    1.44 
  -6   3   5   30.60    1.32 
   3   6   5   28.03    1.46 
   3   6   5   30.72    1.39 
  -5  -6  -5   11.46    1.12 
  -6   5  -5    8.75    0.89 
  -6   5  -5    9.50    1.07 
   5   6   5   11.42    0.82 
  -5  -6   5   11.98    0.89 
   6  -5   5   11.05    1.17 
   5   6   5   12.33    1.05 
  -6   5   5   10.40    0.92 
  -5  -6   5   10.07    0.83 
  -6   5   5    9.90    0.95 
   5   6   5    9.30    1.16 
  -5  -6   5   10.02    0.98 
  -5  -6   5    9.74    0.89 
  -6   7  -5    1.79    0.99 
  -7  -6  -5    2.36    0.90 
   6  -7  -5    1.63    0.45 
   7   6   5    2.45    0.83 
  -7  -6   5    2.49    0.58 
   7   6   5    2.39    1.04 
  -7  -6   5    2.22    0.63 
  -7  -6   5    3.47    0.64 
   6  -7   5    2.44    0.99 
  -6   7   5    1.78    0.68 
   6  -7   5    1.75    0.77 
  -7  -6   5    3.02    1.09 
  -7  -6   5    2.08    0.78 
  -6   7   5    0.92    0.56 
  -6   7   5    2.71    0.92 
  -4   7  -5    9.60    0.91 
  -4   7  -5   12.22    1.38 
  -7  -4  -5   11.80    1.21 
  -7  -4   5   12.64    0.93 
   7   4   5   11.46    1.33 
  -4   7   5   11.08    0.99 
  -7  -4   5   14.53    1.65 
  -7  -4   5   10.25    1.07 
   7   4   5   10.56    1.02 
   4  -7   5    9.66    1.12 
  -7  -4   5   10.44    1.12 
   4  -7   5    9.78    1.08 
  -7  -4   5   12.40    0.94 
  -7  -2  -5   16.14    1.49 
   2  -7  -5   15.82    1.15 
  -7  -2   5   17.93    1.16 
   2  -7   5   17.02    1.42 
   2  -7   5   18.37    1.11 
  -7  -2   5   16.94    1.03 
  -2   7   5   17.39    1.04 
   7   2   5   16.44    1.34 
  -7  -2   5   16.91    1.01 
   7   2   5   17.42    1.31 
  -7  -2   5   14.49    1.57 
  -7   0  -5    0.42    0.36 
   0  -7  -5   -0.02    0.55 
  -7   0   5   -0.05    0.48 
   0  -7   5   -0.04    0.50 
  -7   0   5    0.58    0.57 
  -7   0   5   -0.01    0.47 
   0   7   5   -0.64    0.76 
   7   0   5    0.83    1.09 
   7   0   5    0.25    0.35 
   0   7   5    0.03    0.44 
   0  -7   5   -1.21    0.72 
  -7   2  -5   17.94    0.95 
  -7   2  -5   14.66    1.39 
  -2  -7  -5   16.84    1.16 
  -7   2   5   17.16    1.06 
   2   7   5   17.15    1.00 
  -7   2   5   17.00    1.16 
   2   7   5   18.05    1.10 
  -2  -7   5   16.83    1.33 
  -2  -7   5   16.79    1.00 
  -7   2   5   16.34    1.13 
   2   7   5   15.93    1.24 
   7  -2   5   18.31    0.98 
  -7   4  -5   11.37    0.97 
  -4  -7  -5   11.08    1.16 
  -7   4  -5   10.37    1.15 
   4   7   5   10.73    0.83 
  -4  -7   5   11.54    1.25 
  -7   4   5   11.90    0.98 
   7  -4   5   10.00    1.08 
  -4  -7   5   13.33    0.94 
   4   7   5   13.07    1.11 
   4   7   5    9.93    1.21 
  -7   6  -5    2.05    0.66 
  -6  -7  -5    2.19    0.90 
   7  -6  -5    1.77    0.50 
  -7   6  -5    4.52    0.99 
   6   7   5    1.62    0.51 
   6   7   5    2.27    0.75 
  -7   6   5    2.19    0.70 
  -7   6   5    2.00    0.84 
   7  -6   5    1.87    0.78 
  -6  -7   5    2.02    0.84 
   6   7   5    1.87    1.00 
  -7   6   5    2.89    0.69 
  -6  -7   5    2.67    0.68 
   7  -6   5    1.61    0.94 
  -6  -7   5    2.60    0.56 
  -6  -7   5    1.49    0.92 
  -7   8  -5   20.46    1.54 
   7  -8  -5   22.60    1.37 
  -8  -7  -5   21.96    1.88 
  -7   8  -5   18.13    2.23 
  -8  -7   5   21.60    1.27 
  -7   8   5   23.73    1.75 
   7  -8   5   22.39    1.69 
  -8  -7   5   23.26    1.75 
  -8  -7   5   22.52    1.42 
  -8  -7   5   17.75    1.63 
   8   7   5   21.32    1.18 
  -7   8   5   20.79    1.39 
   8   7   5   23.82    1.79 
  -8  -5  -5   42.83    1.96 
  -5   8  -5   43.33    1.74 
  -5   8  -5   39.69    2.22 
   8   5   5   41.89    2.03 
  -8  -5   5   43.30    1.73 
  -5   8   5   44.14    1.45 
  -8  -5   5   43.41    1.78 
  -5   8   5   41.88    1.80 
   5  -8   5   41.29    1.91 
   5  -8   5   39.60    2.20 
  -5   8   5   47.32    2.94 
  -8  -5   5   34.85    2.24 
   8   5   5   42.75    2.16 
  -8  -5   5   39.59    2.31 
  -8  -5   5   40.79    1.88 
  -8  -3  -5   33.48    1.65 
   3  -8  -5   32.23    1.55 
  -3   8  -5   34.51    1.73 
  -3   8   5   32.96    1.50 
   3  -8   5   30.07    1.85 
  -8  -3   5   32.91    1.46 
  -8  -3   5   32.65    1.41 
   3  -8   5   32.90    1.59 
   8   3   5   33.51    1.76 
   8   3   5   33.36    1.74 
  -8  -3   5   32.62    2.07 
  -8  -3   5   33.76    1.59 
  -8  -3   5   32.32    1.56 
   1  -8  -5   34.43    1.54 
  -8  -1   5   29.45    1.89 
  -1   8   5   34.09    1.44 
  -8  -1   5   34.25    1.58 
  -8  -1   5   34.88    1.51 
   1  -8   5   35.92    1.56 
   8   1   5   33.70    1.59 
   1  -8   5   31.45    1.77 
  -8  -1   5   34.23    1.45 
  -1  -8  -5   33.24    1.57 
  -8   1  -5   34.29    1.35 
  -8   1   5   35.17    1.54 
  -8   1   5   33.52    1.61 
  -1  -8   5   34.65    1.48 
   8  -1   5   36.90    1.36 
   1   8   5   34.74    1.42 
  -1  -8   5   32.92    1.79 
   8  -1   5   30.63    1.78 
  -8   1   5   34.43    1.50 
  -8   3  -5   33.11    1.44 
  -3  -8  -5   33.88    1.60 
  -8   3  -5   32.49    1.85 
   8  -3   5   34.19    1.93 
  -3  -8   5   31.26    1.76 
   8  -3   5   33.72    1.50 
   3   8   5   34.61    1.39 
  -3  -8   5   33.87    1.44 
   3   8   5   30.47    1.77 
  -8   3   5   33.20    1.73 
   3   8   5   32.02    1.51 
  -8   3   5   30.51    1.59 
  -8   3   5   32.32    1.50 
  -5  -8  -5   42.25    1.97 
  -8   5  -5   43.52    2.24 
  -8   5  -5   41.35    1.77 
   5   8   5   44.57    1.87 
  -5  -8   5   42.52    2.04 
   5   8   5   45.23    2.30 
  -8   5   5   45.03    1.87 
   8  -5   5   43.89    1.91 
   5   8   5   42.28    1.61 
  -5  -8   5   41.32    1.75 
  -5  -8   5   42.29    1.79 
  -8   5   5   41.77    1.93 
  -5  -8   5   45.78    1.59 
  -7  -8  -5   25.23    2.03 
  -8   7  -5   21.42    1.64 
   8  -7  -5   22.48    1.25 
  -8   7  -5   20.34    2.34 
  -7  -8   5   19.99    1.76 
   8  -7   5   21.98    1.69 
  -8   7   5   21.13    1.58 
  -7  -8   5   23.88    1.27 
   7   8   5   23.62    1.21 
  -7  -8   5   21.55    1.40 
  -8   7   5   25.51    1.72 
   7   8   5   22.97    1.73 
  -9  -6  -5    7.67    1.25 
  -6   9  -5    8.49    1.51 
   6  -9  -5    9.82    0.95 
  -6   9   5    6.68    1.09 
  -9  -6   5    7.63    1.12 
  -9  -6   5    7.65    1.03 
  -9  -6   5    7.80    0.94 
   6  -9   5    6.73    1.09 
  -9  -6   5    7.37    1.37 
  -6   9   5    8.50    0.99 
  -4   9  -5   10.38    1.20 
  -9  -4  -5   13.39    1.43 
  -4   9  -5   13.09    1.55 
  -4   9   5   12.12    1.18 
  -9  -4   5   11.64    1.09 
   4  -9   5    9.93    1.22 
   9   4   5   11.31    1.36 
  -9  -4   5   10.83    1.04 
  -9  -4   5   13.30    1.37 
  -9  -4   5   11.88    1.20 
  -9  -4   5   12.19    1.25 
   4  -9   5   11.28    1.35 
  -2   9  -5    0.21    0.76 
   2  -9  -5    0.76    0.70 
  -9  -2  -5    1.58    0.77 
   2  -9   5    1.57    0.94 
   2  -9   5    0.45    0.71 
  -2   9   5    1.65    0.60 
  -9  -2   5   -0.64    1.00 
  -9  -2   5    0.83    0.76 
  -9  -2   5   -0.30    0.60 
  -2   9   5   -0.03    0.87 
   9   2   5    2.52    0.90 
  -9  -2   5    1.04    0.68 
  -9   0  -5   -0.42    0.57 
   0  -9  -5    0.09    0.65 
  -9   0   5   -0.01    0.65 
   0   9   5   -0.66    0.79 
  -9   0   5   -0.15    0.59 
  -9   0   5   -0.14    0.76 
   9   0   5   -0.47    0.89 
   0  -9   5    0.64    0.89 
   0  -9   5    0.24    0.60 
   0   9   5   -0.13    0.54 
   9   0   5    0.10    0.54 
  -9   0   5   -0.31    1.00 
  -9   2  -5    0.26    0.64 
  -2  -9  -5    1.02    0.70 
  -9   2  -5    1.19    0.92 
   9  -2   5    1.25    0.67 
  -2  -9   5    0.88    0.62 
  -9   2   5    1.53    0.82 
   2   9   5    0.95    0.53 
  -2  -9   5    0.96    0.89 
  -9   2   5    0.82    0.74 
   9  -2   5    1.03    1.02 
  -9   2   5    0.67    0.64 
   2   9   5    0.34    0.92 
  -4  -9  -5   12.68    1.38 
  -9   4  -5   14.19    1.72 
  -9   4  -5   12.21    1.23 
  -4  -9   5   12.54    1.24 
   4   9   5   12.52    1.00 
  -9   4   5   11.41    1.35 
  -4  -9   5   12.63    1.10 
   9  -4   5   13.05    1.33 
  -9   4   5   15.83    1.27 
   4   9   5   11.74    1.30 
  -9   6  -5    5.37    1.02 
   9  -6  -5    8.49    0.84 
  -9   6  -5    7.21    1.51 
  -6  -9  -5    6.48    1.20 
  -6  -9   5    7.66    1.18 
  -9   6   5    8.25    1.08 
   6   9   5    9.40    1.01 
  -9   6   5    7.82    1.11 
  -6  -9   5    8.74    0.82 
   6   9   5    7.94    1.04 
  -6  -9   5    8.85    0.98 
   9  -6   5    7.62    1.12 
  -5  10  -5   44.34    2.69 
 -10  -5  -5   45.32    2.43 
 -10  -5   5   48.73    1.99 
 -10  -5   5   43.92    2.06 
  -5  10   5   52.73    2.45 
  10   5   5   42.27    2.91 
   5 -10   5   47.98    2.35 
 -10  -5   5   49.32    2.91 
   3 -10  -5    0.00    0.88 
  -3  10  -5   -1.33    0.91 
 -10  -3  -5    1.04    0.96 
   3 -10   5   -0.72    0.84 
   3 -10   5    0.68    1.13 
 -10  -3   5    0.35    0.75 
  10   3   5    0.37    1.06 
  -3  10   5   -0.53    0.71 
 -10  -3   5    0.97    1.23 
 -10  -3   5   -2.28    0.85 
  10   3   5    1.53    1.18 
   1 -10  -5    2.26    0.86 
 -10  -1   5    2.41    0.81 
 -10  -1   5    3.07    1.21 
 -10  -1   5    1.58    0.84 
  10   1   5    3.19    0.68 
   1 -10   5    1.75    0.81 
  -1  10   5    2.48    0.70 
   1 -10   5    2.71    1.10 
  10   1   5    5.17    1.16 
 -10   1  -5    2.88    1.04 
  -1 -10  -5    2.17    0.88 
 -10   1  -5    2.05    0.77 
  10  -1   5    3.62    1.08 
  10  -1   5    3.59    1.17 
 -10   1   5    3.57    0.84 
  -1 -10   5    2.73    0.74 
 -10   1   5    3.12    0.89 
   1  10   5    3.19    0.65 
  -1 -10   5    4.01    1.05 
 -10   1   5    2.73    1.33 
  -3 -10  -5   -0.41    0.94 
 -10   3  -5   -0.30    0.83 
 -10   3  -5   -0.22    1.12 
   3  10   5    0.25    0.61 
  -3 -10   5    1.58    1.03 
  10  -3   5    0.63    0.81 
 -10   3   5   -0.72    0.90 
 -10   3   5    0.75    0.81 
  -3 -10   5    0.23    0.69 
 -10   5  -5   44.88    2.18 
 -10   5   5   49.93    2.36 
  -5 -10   5   49.11    2.11 
  10  -5   5   49.61    2.21 
  -5 -10   5   47.65    2.18 
  -5 -10   5   46.80    2.03 
 -10   5   5   46.57    2.35 
   5  10   5   49.95    1.91 
 -11  -4  -5   12.63    1.48 
  -4  11  -5   13.25    1.54 
 -11  -4   5   14.54    1.60 
 -11  -4   5   14.80    1.52 
  11   4   5   13.24    1.52 
   4 -11   5   14.26    1.63 
  -2  11  -5   67.09    2.63 
 -11  -2  -5   67.36    2.62 
  -2  11   5   67.30    2.55 
 -11  -2   5   67.33    3.71 
   2 -11   5   65.17    2.69 
  11   2   5   62.31    2.93 
 -11  -2   5   67.11    2.51 
  11   2   5   61.34    2.84 
   0 -11  -5   -0.77    1.06 
 -11   0  -5    1.54    0.83 
  11   0   5   -1.63    0.83 
   0 -11   5    0.23    1.15 
 -11   0   5   -1.20    1.72 
   0  11   5    0.19    0.71 
 -11   0   5    0.92    0.95 
   0 -11   5   -0.21    0.89 
 -11   0   5    0.36    1.04 
 -11   2  -5   62.70    3.08 
   2  11   5   65.42    2.34 
 -11   2   5   55.98    2.68 
  -2 -11   5   65.00    2.52 
 -11   2   5   65.72    2.66 
  -2 -11   5   68.48    3.44 
  11  -2   5   67.63    2.48 
 -11   4  -5   17.60    1.76 
   4  11   5   13.77    1.65 
  11  -4   5   14.75    1.74 
   4  11   5   14.97    1.36 
 -11   4   5   17.23    1.94 
   0   0   6  104.97    3.09 
  -1   1   6   -0.43    0.58 
  -1  -1   6    0.16    0.58 
  -1  -1   6    0.96    0.64 
  -1   1   6    0.13    0.43 
   1   1   6    0.59    0.59 
   0  -2  -6  100.82    3.01 
   0  -2   6   98.47    2.75 
  -2   0   6   95.82    3.15 
  -2   0   6   99.61    2.99 
   0  -2   6  102.19    2.74 
   0   2   6  101.06    3.03 
  -2   0   6  102.39    3.01 
   0  -2   6   96.56    3.20 
   0   2   6   99.25    2.99 
  -2  -2  -6   78.08    2.45 
  -2   2   6   78.17    2.47 
  -2   2   6   76.17    2.49 
  -2  -2   6   77.84    2.21 
  -2  -2   6   75.82    2.23 
   2   2   6   72.96    2.47 
  -2  -2   6   76.97    2.66 
  -3  -1   6   -0.20    0.45 
  -1   3   6    0.65    0.64 
  -3  -1   6    0.85    0.42 
   1  -3   6   -0.01    0.65 
   1  -3   6    0.04    0.39 
  -1   3   6   -0.61    0.45 
  -3  -1   6    0.55    0.68 
  -3  -1   6    0.17    0.31 
   3   1   6   -0.60    0.65 
  -1  -3  -6    0.20    0.59 
  -1  -3   6    0.10    0.40 
  -3   1   6    0.33    0.60 
   1   3   6    0.53    0.65 
  -1  -3   6    0.51    0.39 
   1   3   6    0.63    0.50 
  -3   1   6    0.14    0.49 
  -3   1   6   -0.28    0.58 
  -1  -3   6   -0.09    0.66 
  -3  -3  -6   54.12    1.95 
  -3   3   6   53.40    1.93 
  -3  -3   6   52.67    2.14 
   3  -3   6   52.77    1.74 
  -3   3   6   53.29    2.02 
   3   3   6   52.94    2.03 
  -3  -3   6   53.02    1.88 
  -3  -3   6   53.91    1.74 
  -4  -2  -6   -0.12    0.61 
   2  -4   6    0.02    0.48 
  -4  -2   6    0.17    0.69 
  -4  -2   6    1.17    0.52 
  -4  -2   6    0.94    0.62 
  -4  -2   6    1.08    0.42 
   2  -4   6    0.68    0.82 
  -2   4   6    0.30    0.66 
   4   2   6    0.05    0.71 
  -2   4   6   -0.44    0.49 
  -4  -2   6    0.52    0.55 
   4   2   6    1.22    0.75 
   0  -4  -6   58.45    2.05 
  -4   0   6   55.88    1.96 
   0   4   6   56.59    2.09 
   0  -4   6   59.04    2.28 
  -4   0   6   56.97    2.13 
  -4   0   6   55.50    2.02 
   0   4   6   51.42    2.06 
   4   0   6   54.54    2.27 
   0   4   6   55.91    1.97 
  -4   0   6   55.32    1.79 
  -4   0   6   57.57    1.70 
   0  -4   6   57.56    1.84 
  -2  -4  -6    1.40    0.64 
  -4   2   6    1.18    0.66 
  -2  -4   6    0.47    0.46 
   2   4   6   -0.46    0.66 
  -2  -4   6    0.81    0.80 
  -2  -4   6   -1.05    0.47 
   2   4   6    0.70    0.50 
  -4   2   6    1.46    0.55 
   2   4   6   -0.28    0.71 
  -4  -4  -6   24.11    1.36 
  -4   4   6   21.51    1.27 
  -4  -4   6   21.43    1.53 
  -4   4   6   21.22    1.49 
  -4  -4   6   21.42    1.25 
   4  -4   6   22.23    1.21 
   4  -4   6   21.56    1.80 
  -4  -4   6   22.89    1.22 
  -4  -4   6   22.05    1.18 
   4   4   6   24.28    1.51 
   4   4   6   22.91    1.52 
  -5  -3  -6   19.58    1.26 
   5   3   6   20.26    1.55 
  -5  -3   6   19.23    1.43 
  -3   5   6   18.01    1.18 
   3  -5   6   16.89    1.73 
   3  -5   6   20.85    1.24 
  -3   5   6   16.89    1.42 
  -5  -3   6   20.04    1.18 
  -5  -3   6   17.41    1.29 
   5   3   6   19.08    1.44 
  -5  -3   6   18.74    1.14 
   1  -5  -6    1.12    0.70 
  -5  -1   6    1.28    0.45 
  -1   5   6    1.32    0.56 
   1  -5   6    1.15    0.58 
   1  -5   6    1.10    0.86 
  -1   5   6   -0.44    0.73 
  -5  -1   6    0.97    0.72 
  -5  -1   6    0.73    0.72 
  -5  -1   6    0.55    0.51 
   5   1   6    2.00    0.83 
  -1  -5  -6    0.26    0.66 
  -5   1   6    1.28    0.56 
  -5   1   6    0.82    0.53 
   1   5   6    1.25    0.55 
  -5   1   6    2.19    0.72 
   1   5   6    0.86    0.76 
  -1  -5   6   -0.61    0.78 
  -1  -5   6    1.48    0.56 
   1   5   6    1.05    0.67 
   5  -1   6    2.24    0.91 
  -5   1   6    0.49    0.38 
  -3  -5  -6   22.95    1.34 
  -5   3   6   17.72    1.46 
   3   5   6   20.95    1.43 
  -5   3   6   19.32    1.23 
   3   5   6   21.63    1.16 
  -3  -5   6   18.32    1.14 
   3   5   6   19.39    1.52 
  -3  -5   6   18.48    1.13 
  -3  -5   6   19.00    1.54 
   5  -3   6   19.77    1.10 
  -5   5  -6   37.96    1.58 
  -5  -5  -6   39.23    1.86 
   5   5   6   40.83    1.63 
   5   5   6   40.44    2.07 
  -5  -5   6   41.20    1.68 
  -5  -5   6   43.05    1.69 
  -5   5   6   40.18    1.75 
   5   5   6   39.47    2.05 
  -5  -5   6   39.47    2.02 
   5  -5   6   38.84    2.52 
  -5  -5   6   38.43    1.68 
  -6  -4  -6   93.53    3.09 
  -6  -4   6   95.51    3.08 
  -6  -4   6   93.44    2.99 
  -6  -4   6   97.01    2.98 
  -4   6   6   99.28    3.11 
  -6  -4   6   93.36    3.45 
   6   4   6   92.59    3.36 
   4  -6   6   97.68    3.09 
   6   4   6  105.92    4.36 
  -6  -4   6   91.14    3.25 
  -6  -4   6   97.56    2.97 
  -6  -2  -6   18.31    1.28 
   2  -6  -6   19.26    1.35 
   6   2   6   18.86    1.51 
  -6  -2   6   17.60    1.45 
   6   2   6   16.79    1.65 
  -6  -2   6   17.90    1.37 
  -6  -2   6   18.00    1.10 
  -6  -2   6   18.30    1.18 
  -2   6   6   21.24    1.58 
   2  -6   6   18.83    1.30 
   2  -6   6   21.42    1.82 
  -6  -2   6   18.30    1.20 
  -2   6   6   20.33    1.25 
   0  -6  -6   15.61    1.23 
  -6   0   6   14.74    1.36 
   6   0   6   17.39    1.68 
   0   6   6   15.34    1.39 
   0  -6   6   16.16    1.17 
   0   6   6   15.84    1.09 
  -6   0   6   15.95    1.12 
  -6   0   6   14.04    1.11 
   0  -6   6   12.84    1.33 
   0   6   6   14.56    1.33 
  -2  -6  -6   18.54    1.34 
   2   6   6   18.87    1.16 
   6  -2   6   18.08    1.78 
  -6   2   6   18.51    1.28 
  -6   2   6   19.10    1.22 
   2   6   6   20.42    1.62 
  -6   2   6   22.30    1.50 
  -2  -6   6   19.49    1.23 
   2   6   6   19.20    1.45 
  -2  -6   6   19.63    1.59 
  -6   4  -6   90.28    2.79 
  -4  -6  -6   96.81    3.10 
   6  -4   6   96.69    2.94 
   4   6   6   92.67    3.33 
  -6   4   6   95.69    3.05 
  -4  -6   6   91.52    3.27 
   4   6   6   94.77    2.93 
  -4  -6   6   93.15    2.95 
  -4  -6   6   98.76    2.96 
   4   6   6   86.43    3.18 
  -6  -6  -6    5.39    1.11 
   6   6   6    5.27    0.75 
  -6   6   6    7.06    1.07 
  -6  -6   6    7.59    0.87 
   6  -6   6    5.07    1.01 
  -6  -6   6    8.81    0.92 
  -6  -6   6    6.77    1.17 
  -6  -6   6    7.35    1.03 
   6   6   6    3.84    1.23 
  -6  -6   6    6.04    0.94 
  -7  -5  -6    5.13    1.04 
  -5   7  -6    4.62    0.81 
  -7  -5   6    2.19    1.08 
  -7  -5   6    5.31    0.88 
  -5   7   6    5.76    0.99 
  -7  -5   6    2.76    0.88 
   7   5   6    1.87    1.20 
  -7  -5   6    3.56    1.27 
   5  -7   6    5.59    1.08 
  -7  -5   6    6.50    1.49 
  -7  -5   6    4.57    0.82 
  -7  -3  -6   24.59    1.51 
   3  -7   6   22.92    1.57 
   7   3   6   21.89    1.94 
  -7  -3   6   23.96    1.70 
  -7  -3   6   21.36    1.70 
   7   3   6   22.55    1.91 
  -7  -3   6   25.01    1.43 
  -7  -3   6   24.21    1.35 
  -7  -3   6   24.93    1.40 
  -7  -3   6   20.57    2.13 
  -3   7   6   21.84    1.49 
   1  -7  -6   41.10    1.89 
  -7  -1   6   41.75    1.76 
   7   1   6   43.40    2.28 
  -1   7   6   40.00    1.75 
  -7  -1   6   40.32    2.01 
  -7  -1   6   39.19    2.02 
   1  -7   6   39.72    2.31 
   1  -7   6   44.85    1.84 
  -7  -1   6   43.41    1.76 
  -1  -7  -6   39.70    1.83 
   1   7   6   41.71    1.72 
  -7   1   6   42.43    1.82 
  -1  -7   6   39.95    2.22 
   7  -1   6   39.33    2.54 
  -1  -7   6   41.94    1.75 
  -7   1   6   39.27    1.97 
  -7   1   6   42.43    1.76 
   1   7   6   44.05    1.97 
  -7   3  -6   20.35    1.21 
  -3  -7  -6   24.81    1.60 
  -3  -7   6   25.68    1.42 
   7  -3   6   21.90    1.75 
   3   7   6   23.77    1.73 
  -7   3   6   23.96    1.57 
  -3  -7   6   21.92    1.90 
   3   7   6   21.73    1.30 
  -7   3   6   23.83    1.44 
  -7   5  -6    4.22    0.82 
  -5  -7  -6    5.53    1.15 
   7  -5   6    4.82    0.99 
  -5  -7   6    4.29    0.81 
   5   7   6    4.60    1.12 
  -5  -7   6    5.11    0.87 
  -5  -7   6    3.45    1.15 
   5   7   6    5.75    0.74 
  -7   5   6    4.74    0.95 
  -5  -7   6    3.63    0.77 
  -8  -4  -6   19.08    1.68 
  -8  -4   6   20.69    1.46 
  -4   8   6   24.07    2.01 
  -8  -4   6   20.09    1.78 
   8   4   6   18.68    2.44 
   8   4   6   18.63    2.13 
  -8  -4   6   19.85    1.77 
  -8  -4   6   20.63    1.85 
  -8  -4   6   19.24    1.66 
   4  -8   6   20.24    1.90 
   2  -8  -6    1.74    1.02 
  -8  -2  -6    0.48    0.88 
  -8  -2   6    1.72    0.76 
  -8  -2   6    2.65    1.35 
   2  -8   6    0.76    0.87 
   8   2   6    2.01    1.12 
   8   2   6    1.58    1.81 
  -8  -2   6    2.07    0.84 
  -2   8   6    2.26    0.75 
  -8  -2   6    2.26    1.00 
   0  -8  -6  100.59    3.36 
   0   8   6  100.30    3.19 
   0  -8   6  102.42    3.26 
  -8   0   6  106.04    3.25 
  -8   0   6   99.22    3.23 
   0  -8   6  100.28    3.73 
  -2  -8  -6    1.48    1.01 
  -2  -8   6    3.99    0.80 
   2   8   6    1.29    0.87 
  -2  -8   6    1.18    1.19 
   2   8   6    2.01    0.66 
  -8   2   6    1.93    0.81 
  -8   2   6    1.65    0.91 
   8  -2   6    2.05    0.77 
  -8   4  -6   22.67    1.42 
  -4  -8  -6   23.25    2.21 
  -4  -8   6   21.35    1.49 
   4   8   6   17.80    1.79 
  -8   4   6   21.44    1.65 
   4   8   6   20.06    1.33 
   8  -4   6   23.38    1.70 
  -4  -8   6   19.86    2.12 
  -8   4   6   19.71    1.58 
  -9  -3  -6   19.30    1.76 
   9   3   6   18.08    2.04 
  -9  -3   6   15.92    1.94 
  -9  -3   6   15.96    1.52 
  -9  -3   6   13.94    1.91 
  -9  -3   6   15.75    1.96 
  -9  -3   6   14.57    1.41 
   3  -9   6   14.05    1.79 
  -1   9   6   22.87    1.59 
  -9  -1   6   20.80    2.03 
  -9  -1   6   22.89    1.60 
  -9  -1   6   16.97    1.75 
   1  -9   6   23.94    1.72 
  -1  -9   6   23.80    2.23 
  -9   1   6   21.91    1.72 
  -9   1   6   23.79    1.86 
   1   9   6   23.00    1.48 
  -1  -9   6   22.39    1.64 
   3   9   6   16.60    1.38 
  -3  -9   6   12.64    1.70 
  -9   3   6   13.32    1.43 
   9  -3   6   15.36    1.50 
  -3  -9   6   12.56    1.66 
   0   1   7    0.74    0.64 
   0   1   7    0.39    0.88 
  -1   0   7    1.04    0.63 
  -1   0   7    0.20    0.92 
   2   1   7    3.75    1.00 
  -1   2   7    1.91    1.16 
  -2  -1   7    3.23    0.71 
  -2  -1   7   -0.05    0.92 
  -1   2   7    3.23    0.76 
   1   2   7    3.68    1.00 
   2  -1   7    3.28    0.92 
   1   2   7    2.44    0.71 
  -2   1   7    3.49    0.78 
  -2   1   7    3.64    1.01 
  -3  -2  -7   19.05    1.56 
  -3  -2   7   16.75    1.33 
  -2   3   7   16.40    1.41 
  -2   3   7   17.96    2.20 
   3   2   7   17.93    1.72 
  -3  -2   7   17.85    1.11 
  -3  -2   7   18.03    1.55 
  -3  -2   7   15.01    1.39 
   0  -3   7    0.15    0.57 
  -3   0   7   -0.77    0.98 
   0   3   7    1.46    0.76 
  -3   0   7   -0.30    0.70 
   0   3   7   -0.70    1.03 
  -2  -3  -7   18.39    1.45 
   2   3   7   17.29    1.38 
   2   3   7   14.56    1.82 
  -3   2   7   13.89    1.63 
  -3   2   7   17.14    1.43 
  -2  -3   7   17.18    1.19 
  -2  -3   7   18.82    1.80 
  -4  -3  -7    1.05    0.91 
  -4  -3   7    1.83    0.74 
   3  -4   7   -0.05    0.76 
  -4  -3   7    0.49    0.78 
   4   3   7   -0.31    1.27 
  -3   4   7   -1.17    0.94 
  -4  -3   7    1.80    1.00 
  -4  -3   7    0.52    0.85 
  -4  -1  -7   66.35    2.39 
  -1   4   7   67.28    2.52 
  -4  -1   7   67.63    2.43 
  -4  -1   7   66.93    2.60 
   1  -4   7   65.56    2.31 
  -4  -1   7   67.62    2.09 
  -4  -1   7   65.02    2.20 
  -1  -4  -7   68.72    2.56 
  -1  -4   7   68.61    2.34 
  -4   1   7   66.57    2.50 
  -4   1   7   67.89    2.66 
   1   4   7   67.93    2.52 
  -1  -4   7   67.03    2.28 
  -3  -4  -7    0.82    0.90 
  -3  -4   7    1.44    0.78 
  -3  -4   7   -0.07    0.74 
   3   4   7    0.65    0.82 
  -4   3   7    0.98    0.95 
  -3  -4   7   -0.21    0.75 
  -5  -4  -7    1.46    1.15 
  -5  -4   7    0.94    0.90 
   4  -5   7    1.90    0.87 
  -5  -4   7    0.17    0.95 
  -5  -4   7    0.16    0.85 
  -5  -2  -7   17.09    1.54 
  -5  -2   7   17.27    1.35 
  -5  -2   7   19.25    2.06 
   2  -5   7   16.85    2.00 
   5   2   7   20.72    2.51 
  -5  -2   7   14.03    1.46 
  -5  -2   7   16.69    1.53 
   0  -5  -7   -0.35    0.97 
   0  -5   7    0.38    0.84 
  -5   0   7   -0.27    0.79 
   0   5   7    1.55    0.93 
  -2  -5  -7   16.87    1.96 
   2   5   7   18.02    1.57 
  -2  -5   7   15.94    1.46 
  -2  -5   7   19.01    1.41 
  -5   2   7   22.20    1.81 
  -4  -5  -7    1.56    1.19 
   4   5   7    1.61    0.92 
  -4  -5   7   -0.13    1.03 
  -4  -5   7   -0.52    0.85 
  -4  -5   7   -1.37    0.93 
   1  -6   7   -0.55    0.99 
   6   1   7   -0.76    1.35 
  -6  -1   7   -0.31    0.90 
  -6  -1   7   -0.28    0.70 
  -1  -6  -7    0.77    1.29 
  -1  -6   7   -0.29    0.96 
   0   0   0    0.00    0.00 
;
_shelx_hkl_checksum              57134
loop_
_space_group_symop_operation_xyz
'x, y, z'
'-x, -y, z'
'-y, x, z'
'y, -x, z'
'-x, y, -z+1/2'
'x, -y, -z+1/2'
'y, x, -z+1/2'
'-y, -x, -z+1/2'
'x+1/2, y+1/2, z+1/2'
'-x+1/2, -y+1/2, z+1/2'
'-y+1/2, x+1/2, z+1/2'
'y+1/2, -x+1/2, z+1/2'
'-x+1/2, y+1/2, -z+1'
'x+1/2, -y+1/2, -z+1'
'y+1/2, x+1/2, -z+1'
'-y+1/2, -x+1/2, -z+1'
'-x, -y, -z'
'x, y, -z'
'y, -x, -z'
'-y, x, -z'
'x, -y, z-1/2'
'-x, y, z-1/2'
'-y, -x, z-1/2'
'y, x, z-1/2'
'-x+1/2, -y+1/2, -z+1/2'
'x+1/2, y+1/2, -z+1/2'
'y+1/2, -x+1/2, -z+1/2'
'-y+1/2, x+1/2, -z+1/2'
'x+1/2, -y+1/2, z'
'-x+1/2, y+1/2, z'
'-y+1/2, -x+1/2, z'
'y+1/2, x+1/2, z'
loop_
_atom_site_label
_atom_site_type_symbol
_atom_site_fract_x
_atom_site_fract_y
_atom_site_fract_z
_atom_site_U_iso_or_equiv
_atom_site_adp_type
_atom_site_occupancy
_atom_site_site_symmetry_order
_atom_site_calc_flag
_atom_site_refinement_flags_posn
_atom_site_refinement_flags_adp
_atom_site_refinement_flags_occupancy
_atom_site_disorder_assembly
_atom_site_disorder_group
Sb1 Sb 0.33683(2) 0.16317(2) 0.5000 0.00794(8) Uani 1 4 d S T P . .
Ru2 Ru 0.0000 0.0000 0.2500 0.01061(15) Uani 0.642(13) 8 d S T P . .
Sb2 Sb 0.0000 0.0000 0.2500 0.01061(15) Uani 0.358(13) 8 d S T P . .
Zr3 Zr 0.07604(3) 0.21414(3) 0.5000 0.00845(8) Uani 1 2 d S T P . .
Zr4 Zr 0.5000 0.0000 0.2500 0.00787(12) Uani 1 8 d S T P . .
loop_
_atom_site_aniso_label
_atom_site_aniso_U_11
_atom_site_aniso_U_22
_atom_site_aniso_U_33
_atom_site_aniso_U_23
_atom_site_aniso_U_13
_atom_site_aniso_U_12
Sb1 0.00633(10) 0.00633(10) 0.01115(14) 0.000 0.000 0.00041(10)
Ru2 0.01116(18) 0.01116(18) 0.0095(2) 0.000 0.000 0.000
Sb2 0.01116(18) 0.01116(18) 0.0095(2) 0.000 0.000 0.000
Zr3 0.00655(14) 0.00952(15) 0.00928(15) 0.000 0.000 0.00062(10)
Zr4 0.00916(17) 0.00916(17) 0.0053(3) 0.000 0.000 0.000
loop_
_atom_type_symbol
_atom_type_description
_atom_type_scat_dispersion_real
_atom_type_scat_dispersion_imag
_atom_type_scat_source
Zr Zr -2.9673 0.5597 'International Tables Vol C Tables 4.2.6.8 and 6.1.1.4'
Ru Ru -1.2594 0.8363 'International Tables Vol C Tables 4.2.6.8 and 6.1.1.4'
Sb Sb -0.5866 1.5461 'International Tables Vol C Tables 4.2.6.8 and 6.1.1.4'
loop_
_geom_angle_atom_site_label_1
_geom_angle_atom_site_label_2
_geom_angle_atom_site_label_3
_geom_angle
_geom_angle_site_symmetry_1
_geom_angle_site_symmetry_3
Zr4 Sb1 Zr4 57.18(2) 17_656 .
Zr4 Sb1 Zr3 136.757(8) 17_656 31
Zr4 Sb1 Zr3 136.757(8) . 31
Zr4 Sb1 Zr3 136.757(8) 17_656 .
Zr4 Sb1 Zr3 136.757(8) . .
Zr3 Sb1 Zr3 67.882(13) 31 .
Zr4 Sb1 Zr3 74.389(7) 17_656 29
Zr4 Sb1 Zr3 74.389(7) . 29
Zr3 Sb1 Zr3 73.907(12) 31 29
Zr3 Sb1 Zr3 141.788(8) . 29
Zr4 Sb1 Zr3 74.389(7) 17_656 19_556
Zr4 Sb1 Zr3 74.389(7) . 19_556
Zr3 Sb1 Zr3 141.787(8) 31 19_556
Zr3 Sb1 Zr3 73.906(12) . 19_556
Zr3 Sb1 Zr3 144.306(16) 29 19_556
Zr4 Sb1 Zr3 70.407(14) 17_656 25_556
Zr4 Sb1 Zr3 119.078(13) . 25_556
Zr3 Sb1 Zr3 69.280(10) 31 25_556
Zr3 Sb1 Zr3 102.207(9) . 25_556
Zr3 Sb1 Zr3 62.901(11) 29 25_556
Zr3 Sb1 Zr3 120.538(12) 19_556 25_556
Zr4 Sb1 Zr3 119.078(13) 17_656 7
Zr4 Sb1 Zr3 70.407(14) . 7
Zr3 Sb1 Zr3 102.207(9) 31 7
Zr3 Sb1 Zr3 69.280(10) . 7
Zr3 Sb1 Zr3 120.538(12) 29 7
Zr3 Sb1 Zr3 62.901(11) 19_556 7
Zr3 Sb1 Zr3 170.156(15) 25_556 7
Zr4 Sb1 Zr3 70.407(14) 17_656 7_556
Zr4 Sb1 Zr3 119.078(13) . 7_556
Zr3 Sb1 Zr3 102.207(9) 31 7_556
Zr3 Sb1 Zr3 69.280(10) . 7_556
Zr3 Sb1 Zr3 120.538(12) 29 7_556
Zr3 Sb1 Zr3 62.901(11) 19_556 7_556
Zr3 Sb1 Zr3 60.82(2) 25_556 7_556
Zr3 Sb1 Zr3 118.22(2) 7 7_556
Zr4 Sb1 Zr3 119.078(13) 17_656 25
Zr4 Sb1 Zr3 70.407(14) . 25
Zr3 Sb1 Zr3 69.280(10) 31 25
Zr3 Sb1 Zr3 102.207(9) . 25
Zr3 Sb1 Zr3 62.901(11) 29 25
Zr3 Sb1 Zr3 120.538(12) 19_556 25
Zr3 Sb1 Zr3 118.22(2) 25_556 25
Zr3 Sb1 Zr3 60.82(2) 7 25
Zr3 Sb1 Zr3 170.156(15) 7_556 25
Sb2 Ru2 Sb2 180.0 17_556 17
Sb2 Ru2 Ru2 180.0 17_556 17
Sb2 Ru2 Ru2 0.0 17 17
Sb2 Ru2 Ru2 0.0 17_556 17_556
Sb2 Ru2 Ru2 180.0 17 17_556
Ru2 Ru2 Ru2 180.0 17 17_556
Sb2 Ru2 Zr3 61.038(11) 17_556 .
Sb2 Ru2 Zr3 118.962(11) 17 .
Ru2 Ru2 Zr3 118.962(11) 17 .
Ru2 Ru2 Zr3 61.038(11) 17_556 .
Sb2 Ru2 Zr3 118.961(11) 17_556 23
Sb2 Ru2 Zr3 61.039(11) 17 23
Ru2 Ru2 Zr3 61.039(11) 17 23
Ru2 Ru2 Zr3 118.961(11) 17_556 23
Zr3 Ru2 Zr3 135.830(12) . 23
Sb2 Ru2 Zr3 61.039(11) 17_556 19_556
Sb2 Ru2 Zr3 118.961(11) 17 19_556
Ru2 Ru2 Zr3 118.961(11) 17 19_556
Ru2 Ru2 Zr3 61.039(11) 17_556 19_556
Zr3 Ru2 Zr3 76.439(9) . 19_556
Zr3 Ru2 Zr3 145.951(12) 23 19_556
Sb2 Ru2 Zr3 118.961(11) 17_556 21
Sb2 Ru2 Zr3 61.039(11) 17 21
Ru2 Ru2 Zr3 61.039(11) 17 21
Ru2 Ru2 Zr3 118.961(11) 17_556 21
Zr3 Ru2 Zr3 145.951(12) . 21
Zr3 Ru2 Zr3 76.440(9) 23 21
Zr3 Ru2 Zr3 75.621(17) 19_556 21
Sb2 Ru2 Zr3 61.039(10) 17_556 17_556
Sb2 Ru2 Zr3 118.961(10) 17 17_556
Ru2 Ru2 Zr3 118.961(10) 17 17_556
Ru2 Ru2 Zr3 61.039(10) 17_556 17_556
Zr3 Ru2 Zr3 122.08(2) . 17_556
Zr3 Ru2 Zr3 75.621(18) 23 17_556
Zr3 Ru2 Zr3 76.440(9) 19_556 17_556
Zr3 Ru2 Zr3 68.923(18) 21 17_556
Sb2 Ru2 Zr3 118.961(10) 17_556 7
Sb2 Ru2 Zr3 61.039(10) 17 7
Ru2 Ru2 Zr3 61.039(10) 17 7
Ru2 Ru2 Zr3 118.961(10) 17_556 7
Zr3 Ru2 Zr3 75.621(18) . 7
Zr3 Ru2 Zr3 122.08(2) 23 7
Zr3 Ru2 Zr3 68.923(18) 19_556 7
Zr3 Ru2 Zr3 76.440(9) 21 7
Zr3 Ru2 Zr3 135.830(12) 17_556 7
Sb2 Ru2 Zr3 118.961(11) 17_556 5
Sb2 Ru2 Zr3 61.039(10) 17 5
Ru2 Ru2 Zr3 61.039(10) 17 5
Ru2 Ru2 Zr3 118.961(11) 17_556 5
Zr3 Ru2 Zr3 68.924(18) . 5
Zr3 Ru2 Zr3 76.440(9) 23 5
Zr3 Ru2 Zr3 135.830(12) 19_556 5
Zr3 Ru2 Zr3 122.08(2) 21 5
Zr3 Ru2 Zr3 145.951(12) 17_556 5
Zr3 Ru2 Zr3 76.440(9) 7 5
Sb2 Ru2 Zr3 61.039(10) 17_556 3
Sb2 Ru2 Zr3 118.961(11) 17 3
Ru2 Ru2 Zr3 118.961(11) 17 3
Ru2 Ru2 Zr3 61.039(10) 17_556 3
Zr3 Ru2 Zr3 76.440(9) . 3
Zr3 Ru2 Zr3 68.923(18) 23 3
Zr3 Ru2 Zr3 122.08(2) 19_556 3
Zr3 Ru2 Zr3 135.830(12) 21 3
Zr3 Ru2 Zr3 76.440(9) 17_556 3
Zr3 Ru2 Zr3 145.951(12) 7 3
Zr3 Ru2 Zr3 75.621(18) 5 3
Ru2 Zr3 Sb2 57.92(2) . 17_556
Ru2 Zr3 Ru2 57.92(2) . 17_556
Sb2 Zr3 Ru2 0.0 17_556 17_556
Ru2 Zr3 Sb1 97.423(8) . .
Sb2 Zr3 Sb1 97.423(8) 17_556 .
Ru2 Zr3 Sb1 97.423(8) 17_556 .
Ru2 Zr3 Sb1 96.648(9) . 3
Sb2 Zr3 Sb1 96.648(9) 17_556 3
Ru2 Zr3 Sb1 96.648(9) 17_556 3
Sb1 Zr3 Sb1 163.905(12) . 3
Ru2 Zr3 Sb1 147.963(8) . 25_556
Sb2 Zr3 Sb1 90.95(2) 17_556 25_556
Ru2 Zr3 Sb1 90.95(2) 17_556 25_556
Sb1 Zr3 Sb1 77.792(9) . 25_556
Sb1 Zr3 Sb1 94.213(10) 3 25_556
Ru2 Zr3 Sb1 90.95(2) . 25
Sb2 Zr3 Sb1 147.963(8) 17_556 25
Ru2 Zr3 Sb1 147.963(8) 17_556 25
Sb1 Zr3 Sb1 77.793(9) . 25
Sb1 Zr3 Sb1 94.213(10) 3 25
Sb1 Zr3 Sb1 118.22(2) 25_556 25
Ru2 Zr3 Zr3 55.539(9) . 5
Sb2 Zr3 Zr3 105.242(17) 17_556 5
Ru2 Zr3 Zr3 105.242(17) 17_556 5
Sb1 Zr3 Zr3 120.518(14) . 5
Sb1 Zr3 Zr3 62.587(12) 3 5
Sb1 Zr3 Zr3 152.641(12) 25_556 5
Sb1 Zr3 Zr3 54.511(18) 25 5
Ru2 Zr3 Zr3 105.242(16) . 5_556
Sb2 Zr3 Zr3 55.539(9) 17_556 5_556
Ru2 Zr3 Zr3 55.539(9) 17_556 5_556
Sb1 Zr3 Zr3 120.518(13) . 5_556
Sb1 Zr3 Zr3 62.587(12) 3 5_556
Sb1 Zr3 Zr3 54.511(18) 25_556 5_556
Sb1 Zr3 Zr3 152.641(13) 25 5_556
Zr3 Zr3 Zr3 117.68(3) 5 5_556
Ru2 Zr3 Zr3 142.189(9) . 31
Sb2 Zr3 Zr3 142.189(8) 17_556 31
Ru2 Zr3 Zr3 142.189(8) 17_556 31
Sb1 Zr3 Zr3 56.059(6) . 31
Sb1 Zr3 Zr3 107.846(8) 3 31
Sb1 Zr3 Zr3 59.590(11) 25_556 31
Sb1 Zr3 Zr3 59.590(12) 25 31
Zr3 Zr3 Zr3 111.460(9) 5 31
Zr3 Zr3 Zr3 111.460(9) 5_556 31
Ru2 Zr3 Zr3 98.736(17) . 7_556
Sb2 Zr3 Zr3 52.190(9) 17_556 7_556
Ru2 Zr3 Zr3 52.190(9) 17_556 7_556
Sb1 Zr3 Zr3 59.416(11) . 7_556
Sb1 Zr3 Zr3 125.717(12) 3 7_556
Sb1 Zr3 Zr3 51.303(17) 25_556 7_556
Sb1 Zr3 Zr3 136.922(16) 25 7_556
Zr3 Zr3 Zr3 154.197(8) 5 7_556
Zr3 Zr3 Zr3 63.16(2) 5_556 7_556
Zr3 Zr3 Zr3 90.0 31 7_556
Zr4 Zr4 Zr4 180.0 17_656 17_655
Zr4 Zr4 Sb1 61.409(11) 17_656 .
Zr4 Zr4 Sb1 118.591(11) 17_655 .
Zr4 Zr4 Sb1 118.590(11) 17_656 11_544
Zr4 Zr4 Sb1 61.410(10) 17_655 11_544
Sb1 Zr4 Sb1 103.239(9) . 11_544
Zr4 Zr4 Sb1 118.590(11) 17_656 27
Zr4 Zr4 Sb1 61.410(11) 17_655 27
Sb1 Zr4 Sb1 103.239(9) . 27
Sb1 Zr4 Sb1 122.82(2) 11_544 27
Zr4 Zr4 Sb1 61.410(11) 17_656 17_656
Zr4 Zr4 Sb1 118.590(11) 17_655 17_656
Sb1 Zr4 Sb1 122.82(2) . 17_656
Sb1 Zr4 Sb1 103.238(9) 11_544 17_656
Sb1 Zr4 Sb1 103.238(9) 27 17_656
Zr4 Zr4 Zr3 66.967(9) 17_656 29
Zr4 Zr4 Zr3 113.033(9) 17_655 29
Sb1 Zr4 Zr3 53.663(6) . 29
Sb1 Zr4 Zr3 152.413(5) 11_544 29
Sb1 Zr4 Zr3 59.214(16) 27 29
Sb1 Zr4 Zr3 102.595(12) 17_656 29
Zr4 Zr4 Zr3 66.967(9) 17_656 3_655
Zr4 Zr4 Zr3 113.033(9) 17_655 3_655
Sb1 Zr4 Zr3 102.595(12) . 3_655
Sb1 Zr4 Zr3 152.413(5) 11_544 3_655
Sb1 Zr4 Zr3 59.214(17) 27 3_655
Sb1 Zr4 Zr3 53.663(6) 17_656 3_655
Zr3 Zr4 Zr3 54.978(10) 29 3_655
Zr4 Zr4 Zr3 113.033(9) 17_656 9_544
Zr4 Zr4 Zr3 66.967(9) 17_655 9_544
Sb1 Zr4 Zr3 152.413(5) . 9_544
Sb1 Zr4 Zr3 53.663(7) 11_544 9_544
Sb1 Zr4 Zr3 102.595(12) 27 9_544
Sb1 Zr4 Zr3 59.214(16) 17_656 9_544
Zr3 Zr4 Zr3 152.631(10) 29 9_544
Zr3 Zr4 Zr3 98.806(6) 3_655 9_544
Zr4 Zr4 Zr3 113.033(9) 17_656 7
Zr4 Zr4 Zr3 66.967(9) 17_655 7
Sb1 Zr4 Zr3 59.214(16) . 7
Sb1 Zr4 Zr3 53.663(7) 11_544 7
Sb1 Zr4 Zr3 102.595(12) 27 7
Sb1 Zr4 Zr3 152.413(5) 17_656 7
Zr3 Zr4 Zr3 98.806(6) 29 7
Zr3 Zr4 Zr3 152.631(10) 3_655 7
Zr3 Zr4 Zr3 105.528(13) 9_544 7
Zr4 Zr4 Zr3 66.967(8) 17_656 13_545
Zr4 Zr4 Zr3 113.033(8) 17_655 13_545
Sb1 Zr4 Zr3 102.595(12) . 13_545
Sb1 Zr4 Zr3 59.214(17) 11_544 13_545
Sb1 Zr4 Zr3 152.413(5) 27 13_545
Sb1 Zr4 Zr3 53.663(6) 17_656 13_545
Zr3 Zr4 Zr3 133.933(18) 29 13_545
Zr3 Zr4 Zr3 105.528(13) 3_655 13_545
Zr3 Zr4 Zr3 54.417(16) 9_544 13_545
Zr3 Zr4 Zr3 98.806(6) 7 13_545
Zr4 Zr4 Zr3 66.967(8) 17_656 19_556
Zr4 Zr4 Zr3 113.033(8) 17_655 19_556
Sb1 Zr4 Zr3 53.663(6) . 19_556
Sb1 Zr4 Zr3 59.214(16) 11_544 19_556
Sb1 Zr4 Zr3 152.413(5) 27 19_556
Sb1 Zr4 Zr3 102.595(12) 17_656 19_556
Zr3 Zr4 Zr3 105.528(13) 29 19_556
Zr3 Zr4 Zr3 133.933(18) 3_655 19_556
Zr3 Zr4 Zr3 98.806(6) 9_544 19_556
Zr3 Zr4 Zr3 54.417(15) 7 19_556
Zr3 Zr4 Zr3 54.978(10) 13_545 19_556
loop_
_geom_bond_atom_site_label_1
_geom_bond_atom_site_label_2
_geom_bond_distance
_geom_bond_site_symmetry_2
Sb1 Zr4 2.9126(7) 17_656
Sb1 Zr4 2.9126(7) .
Sb1 Zr3 2.9450(9) 31
Sb1 Zr3 2.9450(9) .
Sb1 Zr3 2.9795(9) 29
Sb1 Zr3 2.9795(9) 19_556
Sb1 Zr3 3.2484(8) 25_556
Sb1 Zr3 3.2484(8) 7
Sb1 Zr3 3.2484(8) 7_556
Sb1 Zr3 3.2484(8) 25
Ru2 Sb2 2.7876(9) 17_556
Ru2 Sb2 2.7876(9) 17
Ru2 Ru2 2.7876(9) 17
Ru2 Ru2 2.7876(9) 17_556
Ru2 Zr3 2.8784(7) .
Ru2 Zr3 2.8784(7) 23
Ru2 Zr3 2.8784(7) 19_556
Ru2 Zr3 2.8784(7) 21
Ru2 Zr3 2.8784(7) 17_556
Ru2 Zr3 2.8784(7) 7
Ru2 Zr3 2.8784(7) 5
Ru2 Zr3 2.8784(7) 3
Zr3 Sb2 2.8784(7) 17_556
Zr3 Ru2 2.8784(7) 17_556
Zr3 Sb1 2.9795(9) 3
Zr3 Sb1 3.2484(8) 25_556
Zr3 Sb1 3.2484(8) 25
Zr3 Zr3 3.2576(8) 5
Zr3 Zr3 3.2576(8) 5_556
Zr3 Zr3 3.2886(11) 31
Zr3 Zr3 3.5293(9) 7_556
Zr4 Zr4 2.7876(9) 17_656
Zr4 Zr4 2.7876(9) 17_655
Zr4 Sb1 2.9126(7) 11_544
Zr4 Sb1 2.9126(7) 27
Zr4 Sb1 2.9126(7) 17_656
Zr4 Zr3 3.5623(9) 29
Zr4 Zr3 3.5623(9) 3_655
Zr4 Zr3 3.5623(9) 9_544
Zr4 Zr3 3.5623(9) 7
Zr4 Zr3 3.5623(9) 13_545
Zr4 Zr3 3.5623(9) 19_556
