#------------------------------------------------------------------------------
#$Date: 2019-10-03 12:32:45 +0300 (Thu, 03 Oct 2019) $
#$Revision: 219067 $
#$URL: file:///home/coder/svn-repositories/cod/cif/7/23/43/7234348.cif $
#------------------------------------------------------------------------------
#
# This file is available in the Crystallography Open Database (COD),
# http://www.crystallography.net/
#
# All data on this site have been placed in the public domain by the
# contributors.
#
data_7234348
loop_
_publ_author_name
'Ryo Ohtani'
'Kodai Shimayama'
'Akio Mishima'
'Masaaki Ohba'
'Ryuta Ishikawa'
'Satoshi Kawata'
'Masaaki Nakamura'
'Leonard F. Lindoy'
'Shinya Hayami'
_publ_section_title
;
 The impact of halogen ions on the guest dependent spin crossover
 behaviour and porosity of Co(ii) one-dimensional coordination polymers
 [CoX2(4'-(4-pyridyl)-2,2':6',2''-terpyridine)] (X = Cl and Br)
;
_journal_name_full               'Journal of Materials Chemistry C'
_journal_page_first              7865
_journal_page_last               7869
_journal_paper_doi               10.1039/C5TC00864F
_journal_volume                  3
_journal_year                    2015
_chemical_formula_moiety         'C20 H16 Cl2 Co N4 O2'
_chemical_formula_sum            'C20 H16 Cl2 Co N4 O2'
_chemical_formula_weight         474.21
_space_group_crystal_system      monoclinic
_space_group_IT_number           13
_space_group_name_Hall           '-P 2yac'
_space_group_name_H-M_alt        'P 1 2/n 1'
_atom_sites_solution_hydrogens   geom
_atom_sites_solution_primary     direct
_atom_sites_solution_secondary   difmap
_cell_angle_alpha                90.0000
_cell_angle_beta                 112.828(9)
_cell_angle_gamma                90.0000
_cell_formula_units_Z            2
_cell_length_a                   8.8298(6)
_cell_length_b                   11.2957(8)
_cell_length_c                   10.6572(7)
_cell_measurement_reflns_used    10557
_cell_measurement_temperature    100
_cell_measurement_theta_max      27.50
_cell_measurement_theta_min      1.80
_cell_volume                     979.68(13)
_computing_cell_refinement       'CrystalClear-SM Expert 2.1 b32'
_computing_data_collection
'CrystalClear-SM Expert 2.1 b32 (Rigaku, 2014)'
_computing_data_reduction        'CrystalClear-SM Expert 2.1 b32'
_computing_molecular_graphics    'CrystalStructure 4.1'
_computing_publication_material  'CrystalStructure 4.1 (Rigaku, 2014)'
_computing_structure_refinement  'SHELXL2013 (Sheldrick, 2008)'
_computing_structure_solution    'SIR2004 (Burla, et al., 2005)'
_diffrn_ambient_temperature      100
_diffrn_detector_area_resol_mean 5.814
_diffrn_measured_fraction_theta_full 0.997
_diffrn_measured_fraction_theta_max 0.997
_diffrn_measurement_device_type  'Rigaku XtaLAB P200'
_diffrn_measurement_method       \w
_diffrn_radiation_type           'Mo K\a'
_diffrn_radiation_wavelength     0.71075
_diffrn_reflns_av_R_equivalents  0.0395
_diffrn_reflns_Laue_measured_fraction_full 0.997
_diffrn_reflns_Laue_measured_fraction_max 0.997
_diffrn_reflns_limit_h_max       11
_diffrn_reflns_limit_h_min       -11
_diffrn_reflns_limit_k_max       14
_diffrn_reflns_limit_k_min       -14
_diffrn_reflns_limit_l_max       13
_diffrn_reflns_limit_l_min       -13
_diffrn_reflns_number            10587
_diffrn_reflns_point_group_measured_fraction_full 0.997
_diffrn_reflns_point_group_measured_fraction_max 0.997
_diffrn_reflns_theta_full        25.242
_diffrn_reflns_theta_max         27.473
_diffrn_reflns_theta_min         1.803
_diffrn_standards_interval_count .
_diffrn_standards_number         0
_exptl_absorpt_coefficient_mu    1.174
_exptl_absorpt_correction_T_max  0.977
_exptl_absorpt_correction_T_min  0.839
_exptl_absorpt_correction_type   multi-scan
_exptl_absorpt_process_details   'REQAB (Rigaku, 1998)'
_exptl_crystal_colour            yellow
_exptl_crystal_density_diffrn    1.607
_exptl_crystal_density_method    'not measured'
_exptl_crystal_description       platelet
_exptl_crystal_F_000             482.00
_exptl_crystal_size_max          0.080
_exptl_crystal_size_mid          0.040
_exptl_crystal_size_min          0.020
_refine_diff_density_max         0.73
_refine_diff_density_min         -0.28
_refine_ls_extinction_method     none
_refine_ls_goodness_of_fit_ref   1.053
_refine_ls_hydrogen_treatment    constr
_refine_ls_number_parameters     152
_refine_ls_number_reflns         2252
_refine_ls_number_restraints     0
_refine_ls_R_factor_all          0.0515
_refine_ls_R_factor_gt           0.0344
_refine_ls_shift/su_max          0.000
_refine_ls_structure_factor_coef Fsqd
_refine_ls_weighting_details
'w = 1/[\s^2^(Fo^2^)+(0.0844P)^2^+0.0000P] where P=(Fo^2^+2Fc^2^)/3'
_refine_ls_weighting_scheme      calc
_refine_ls_wR_factor_gt          0.1103
_refine_ls_wR_factor_ref         0.1274
_reflns_number_gt                1648
_reflns_number_total             2252
_reflns_threshold_expression     F^2^>2.0\s(F^2^)
_cod_data_source_file            J-Mater-Chem-C-2015-3-7865.cif
_cod_data_source_block           SX437b-01
_cod_database_code               7234348
_shelxl_res_file
;

    shelxl.res created by SHELXL-2014/7

TITL SX437b-01
CELL  0.71075 8.82980 11.29570 10.65720 90.00000 112.82800 90.00000
ZERR  2 0.00060 0.00080 0.00070 0.00000 0.00900 0.00000
LATT 1
SYMM .50-X,    +Y, .50-Z
SFAC H CO N O CL C
UNIT 32 2 8 4 4 40
L.S. 10
FMAP 2
PLAN -50
WPDB -2
HTAB
BOND $H
CONF
LIST 4
TEMP -173.0
ACTA
SIZE 0.080 0.040 0.020
WGHT    0.084400
FVAR       0.22790
CO1   2    0.750000    0.250191    0.250000    10.50000    0.01353    0.00863 =
         0.02554    0.00000    0.00416    0.00000
CL1   5    0.729326    0.247673    0.472838    11.00000    0.02206    0.01637 =
         0.02689   -0.00501    0.00773   -0.00187
O1    4    0.659841    0.023622    0.606881    11.00000    0.05109    0.02877 =
         0.06211    0.00232    0.03075    0.00026
N1    3    1.008711    0.297292    0.341216    11.00000    0.01566    0.01210 =
         0.02673   -0.00027    0.00503    0.00000
N2    3    0.750000    0.434211    0.250000    10.50000    0.01496    0.00986 =
         0.02076    0.00000    0.00549    0.00000
N3    3    0.750000    1.060593    0.250000    10.50000    0.01509    0.01199 =
         0.02112    0.00000    0.00529    0.00000
C1    6    1.138023    0.222681    0.381326    11.00000    0.01963    0.01362 =
         0.03283    0.00099    0.00621    0.00202
AFIX  43
H1    1    1.117009    0.140015    0.377984    11.00000   -1.20000
AFIX   0
C2    6    1.299037    0.259967    0.426906    11.00000    0.01678    0.01676 =
         0.02321   -0.00042    0.00391    0.00317
AFIX  43
H2    1    1.386566    0.204371    0.452529    11.00000   -1.20000
AFIX   0
C3    6    1.330177    0.380724    0.434456    11.00000    0.01343    0.01873 =
         0.02542   -0.00160    0.00478   -0.00119
AFIX  43
H3    1    1.439875    0.409241    0.465793    11.00000   -1.20000
AFIX   0
C4    6    1.199362    0.459274    0.395741    11.00000    0.01983    0.01402 =
         0.02382   -0.00168    0.00598   -0.00154
AFIX  43
H4    1    1.218308    0.542262    0.401770    11.00000   -1.20000
AFIX   0
C5    6    1.040507    0.415050    0.348104    11.00000    0.01566    0.01342 =
         0.01727   -0.00006    0.00458    0.00062
C6    6    0.750000    0.679193    0.250000    10.50000    0.01889    0.01105 =
         0.01648    0.00000    0.00751    0.00000
C7    6    0.898037    0.616004    0.301161    11.00000    0.01492    0.01368 =
         0.01875   -0.00139    0.00525   -0.00270
AFIX  43
H7    1    1.000226    0.656565    0.336952    11.00000   -1.20000
AFIX   0
C8    6    0.892993    0.492647    0.298711    11.00000    0.01377    0.01553 =
         0.01513   -0.00014    0.00318   -0.00031
C9    6    0.750000    0.810660    0.250000    10.50000    0.01492    0.01446 =
         0.01389    0.00000    0.00300    0.00000
C10   6    0.870282    0.875138    0.225044    10.80000    0.01517    0.01261 =
         0.01703    0.00099    0.00412   -0.00081
C11   6    0.869893    0.875668    0.352275    10.20000    0.02051    0.02050 =
         0.02216   -0.00004    0.00594   -0.00169
C12   6    0.863295    0.997730    0.221804    10.80000    0.01934    0.01156 =
         0.01983   -0.00109    0.00710    0.00110
C13   6    0.861235    1.000001    0.351534    10.20000    0.02320    0.01413 =
         0.02859   -0.00583    0.01092    0.00095
HKLF 4
 
REM  SX437b-01
REM R1 =  0.0344 for    1648 Fo > 4sig(Fo)  and  0.0515 for all    2252 data
REM    152 parameters refined using      0 restraints
 
END  
     
WGHT      0.0844      0.0000 

REM Instructions for potential hydrogen bonds
EQIV $1 x+1, y, z
HTAB C2 Cl1_$1
EQIV $2 -x+2, -y, -z+1
HTAB C2 O1_$2
EQIV $3 -x+2, -y+1, -z+1
HTAB C4 Cl1_$3
HTAB C7 Cl1_$3

REM Highest difference peak  0.731,  deepest hole -0.280,  1-sigma level  0.098
Q1    1   0.9358  1.0439  0.1963  11.00000  0.05    0.73
Q2    1   0.7500  0.0429  0.7500  10.50000  0.05    0.70
Q3    1   0.9493  0.8400  0.2066  11.00000  0.05    0.68
Q4    1   0.7000  0.0949  0.5798  11.00000  0.05    0.55
Q5    1   0.5531  0.0011  0.5212  11.00000  0.05    0.47
Q6    1   0.8133  1.0267  0.2256  11.00000  0.05    0.36
Q7    1   0.8238  0.8451  0.2456  11.00000  0.05    0.35
Q8    1   0.7500  0.7480  0.2500  10.50000  0.05    0.34
Q9    1   1.0917  0.9408  0.1512  11.00000  0.05    0.31
Q10   1   0.8113  0.6565  0.2495  11.00000  0.05    0.30
Q11   1   0.8600  0.9347  0.1961  11.00000  0.05    0.30
Q12   1   0.7131  0.1961  0.5245  11.00000  0.05    0.26
Q13   1   0.9194  1.0627  0.4223  11.00000  0.05    0.26
Q14   1   0.7693  0.1616  0.4863  11.00000  0.05    0.26
Q15   1   1.0857  0.2581  0.3517  11.00000  0.05    0.25
Q16   1   0.7917  0.2442  0.1804  11.00000  0.05    0.25
Q17   1   0.7500  0.1463  0.2500  10.50000  0.05    0.24
Q18   1   0.8279  0.2508  0.5322  11.00000  0.05    0.24
Q19   1   1.2212  0.2457  0.3689  11.00000  0.05    0.23
Q20   1   0.7901  0.2449  0.3990  11.00000  0.05    0.23
Q21   1   0.8169  0.4674  0.2710  11.00000  0.05    0.23
Q22   1   0.7984  1.0373  0.4051  11.00000  0.05    0.22
Q23   1   0.9776  0.8528  0.4342  11.00000  0.05    0.21
Q24   1   1.2577  0.4227  0.3854  11.00000  0.05    0.21
Q25   1   0.0835  0.9027  0.9407  11.00000  0.05    0.21
Q26   1   1.3122  0.3191  0.4178  11.00000  0.05    0.20
Q27   1   0.8912  0.5682  0.2648  11.00000  0.05    0.20
Q28   1   1.0427  0.3593  0.3755  11.00000  0.05    0.20
Q29   1   0.7373  0.9632 -0.0016  11.00000  0.05    0.19
Q30   1   0.9689  0.4519  0.3231  11.00000  0.05    0.19
Q31   1   0.8930  0.5573  0.3324  11.00000  0.05    0.18
Q32   1   0.7198  0.9618 -0.0789  11.00000  0.05    0.18
Q33   1   0.8634  1.1143  0.4661  11.00000  0.05    0.18
Q34   1   0.9400  0.2647  0.3198  11.00000  0.05    0.18
Q35   1   0.7500  0.3701  0.2500  10.50000  0.05    0.18
Q36   1   0.7816  0.1021  0.3155  11.00000  0.05    0.17
Q37   1   0.6110  0.9891 -0.0735  11.00000  0.05    0.17
Q38   1   0.7436  0.9240  0.0833  11.00000  0.05    0.17
Q39   1   0.0692  0.1179  0.1118  11.00000  0.05    0.17
Q40   1   1.1370  0.1022  0.4596  11.00000  0.05    0.17
Q41   1   0.6203  1.0270 -0.1642  11.00000  0.05    0.17
Q42   1   1.0198  0.1387  0.4419  11.00000  0.05    0.17
Q43   1   0.8128  0.1746  0.5971  11.00000  0.05    0.17
Q44   1   1.0434  0.8464  0.1010  11.00000  0.05    0.16
Q45   1   1.0110  0.8747  0.1430  11.00000  0.05    0.16
Q46   1   0.8432  1.0216  0.4854  11.00000  0.05    0.16
Q47   1   0.6530 -0.0420  0.6805  11.00000  0.05    0.16
Q48   1   0.5635  1.0786 -0.2419  11.00000  0.05    0.16
Q49   1   0.8249  0.2633  0.3603  11.00000  0.05    0.16
Q50   1   0.8506  0.1650  0.3935  11.00000  0.05    0.15
;
_shelxl_hkl_file
;
   0   0   3   -2.02    1.01
   0   0   3   -1.54    1.26
   0   0   3   -1.95    1.08
   0   0   4  176.24    2.21
   0   0   4  174.73    2.37
   0   0   4  179.47    2.24
   0   0   5   -0.36    0.76
   0   0   5   -0.36    0.87
   0   0   5    0.02    0.69
   0   0   6  109.61    2.46
   0   0   6  104.78    2.45
   0   0   6  107.14    2.41
   0   0   7    2.83    0.74
   0   0   7    3.74    0.97
   0   0   7    3.06    0.79
   0   0   8   54.98    1.51
   0   0   8   57.63    1.70
   0   0   8   57.23    1.63
   0   0   9    0.14    0.60
   0   0   9   -0.30    0.87
   0   0   9   -0.12    0.67
   0   0  10   23.96    1.22
   0   0  10   21.35    1.24
   0   0  11   -0.25    0.73
   0   0  12    4.90    0.87
   0   0  12    4.99    1.29
   0  -1   0   -4.24    1.28
   0   1   1  353.57    3.70
   0  -1  -1  372.10    3.98
   0   1   2   -2.69    1.70
   0  -1   2    1.38    1.11
   0   1  -2    1.42    1.18
   0  -1  -2    8.11    1.71
   0  -1   3  133.00    2.08
   0   1   3  139.58    2.25
   0  -1   3  132.69    2.20
   0  -1  -3  134.53    2.11
   0  -1   4    6.82    0.96
   0   1   4    6.66    1.05
   0  -1   4    7.79    1.07
   0   1   4    7.15    1.00
   0  -1  -4    7.17    0.90
   0   1   5  109.81    1.68
   0  -1   5  110.36    1.73
   0   1   5  104.85    1.88
   0  -1   5  111.14    1.97
   0   1   5  109.64    1.84
   0  -1   5  107.48    1.75
   0   1   6    9.13    0.72
   0  -1   6    9.15    0.79
   0   1   6    9.02    0.87
   0  -1   6    9.80    0.86
   0   1   6    9.22    0.80
   0  -1   6    9.92    0.84
   0  -1   6    9.92    0.84
   0   1   7    0.39    0.55
   0  -1   7    0.98    0.61
   0   1   7    0.24    0.68
   0  -1   7   -0.06    0.82
   0   1   7    0.74    0.63
   0  -1   7    0.37    0.75
   0   1   8   12.92    0.72
   0  -1   8   14.19    0.83
   0   1   8   13.96    0.93
   0  -1   8   12.68    0.96
   0   1   8   13.25    0.84
   0  -1   8   13.07    0.96
   0   1   9   70.23    2.17
   0  -1   9   71.91    2.22
   0   1   9   68.52    2.25
   0  -1   9   68.46    2.27
   0   1   9   69.84    2.18
   0  -1   9   69.26    2.24
   0   1  10    0.10    0.49
   0  -1  10    0.10    0.60
   0   1  10    0.16    0.66
   0  -1  10    0.66    0.85
   0   1  10    1.03    1.35
   0   1  11    1.06    0.75
   0  -1  11    2.08    0.89
   0   1  11    1.66    1.34
   0  -1  12   -0.59    0.73
   0   1  12    0.42    1.39
   0  -2   0  214.96    2.58
   0   2   1   90.72    2.06
   0  -2   1   92.77    1.79
   0   2  -1   86.79    1.66
   0  -2  -1   83.64    1.85
   0   2   2   72.03    2.06
   0  -2   2   74.55    1.93
   0   2  -2   70.11    1.73
   0  -2  -2   75.04    1.97
   0   2   3   29.56    1.88
   0  -2   3   31.85    1.18
   0  -2   3   25.70    1.38
   0  -2  -3   37.78    1.81
   0   2  -3   32.84    1.25
   0  -2   4  199.68    2.44
   0   2   4  202.04    2.56
   0  -2  -4  205.78    2.55
   0  -2   5   -0.55    0.77
   0   2   5    0.18    0.67
   0   2   5   -0.01    0.98
   0  -2   5    0.53    0.83
   0   2   5    0.64    0.88
   0  -2  -5    0.28    0.63
   0   2   6    1.32    0.60
   0  -2   6    1.28    0.69
   0   2   6    1.07    0.70
   0  -2   6    1.61    1.02
   0   2   6    1.48    0.98
   0   2   6    1.19    0.82
   0   2   7    0.61    0.59
   0  -2   7    0.29    0.66
   0   2   7    0.56    0.71
   0  -2   7    0.18    0.81
   0   2   7    0.55    1.19
   0   2   7    0.44    0.73
   0  -2   7    0.18    0.72
   0   2   8   25.27    1.00
   0  -2   8   25.05    1.03
   0   2   8   24.09    1.04
   0  -2   8   24.59    1.18
   0   2   8   27.71    1.49
   0   2   8   24.59    1.04
   0  -2   8   24.27    0.92
   0   2   9    1.06    0.61
   0  -2   9    1.40    0.64
   0   2   9    1.21    0.64
   0  -2   9    0.98    0.89
   0   2   9    1.49    1.21
   0   2   9    1.83    0.59
   0   2  10   38.35    2.09
   0  -2  10   39.95    2.16
   0   2  10   38.97    2.18
   0  -2  10   40.02    2.26
   0   2  10   39.05    2.43
   0  -2  11    5.94    0.76
   0   2  11    6.29    0.83
   0  -2  11    7.70    1.02
   0   2  11    7.16    1.12
   0  -2  12    6.06    1.02
   0   2  12    5.82    1.45
   0   3   0   45.62    1.58
   0  -3   0   46.29    1.55
   0   3   0   44.41    1.43
   0  -3   1  211.29    2.70
   0   3   1  220.70    2.73
   0  -3   1  215.08    2.63
   0   3  -1  211.43    2.59
   0  -3  -1  214.40    2.60
   0   3   2   -1.04    1.01
   0  -3   2   -0.19    1.20
   0   3  -2    1.02    1.04
   0  -3  -2   -0.89    1.02
   0   3   3    1.89    0.82
   0  -3   3    2.45    1.17
   0  -3   3    0.54    1.11
   0  -3   3    3.05    1.06
   0  -3  -3    3.21    0.90
   0   3  -3    2.85    1.01
   0   3  -3    2.86    1.00
   0   3   4    3.70    0.71
   0  -3   4    3.04    0.83
   0  -3   4    3.97    0.98
   0  -3  -4    4.40    0.76
   0   3  -4    4.08    0.84
   0  -3   5   95.27    2.20
   0   3   5   93.95    2.20
   0  -3   5   90.02    2.14
   0  -3  -5   96.61    2.28
   0  -3   6   -0.20    0.74
   0   3   6    0.21    0.64
   0   3   6    0.22    1.01
   0  -3   6   -0.33    0.87
   0   3   6   -0.14    0.79
   0  -3  -6    0.02    0.53
   0   3   7    2.06    0.59
   0  -3   7    2.53    0.70
   0   3   7    2.12    0.63
   0  -3   7    2.67    0.86
   0   3   7    1.28    0.82
   0   3   7    1.53    0.75
   0   3   8    1.33    0.55
   0  -3   8    1.02    0.71
   0   3   8    1.46    0.70
   0  -3   8    2.13    0.91
   0   3   8    2.29    0.89
   0   3   8    1.32    0.67
   0   3   9   30.80    1.21
   0  -3   9   31.51    1.27
   0   3   9   31.00    1.29
   0  -3   9   33.06    1.52
   0   3   9   32.32    1.72
   0   3   9   30.51    1.28
   0  -3  10    2.72    0.73
   0   3  10    3.15    0.73
   0  -3  10    4.16    1.04
   0   3  10    4.95    1.28
   0  -3  11    5.93    0.93
   0   3  11    7.70    1.44
   0  -3  12    1.04    0.84
   0   3  12    0.97    1.47
   0  -4   0  830.95    6.80
   0  -4   0  828.21    7.07
   0   4   0  819.11    6.77
   0  -4   1   13.52    1.27
   0   4   1   14.99    1.28
   0   4   1   14.38    1.40
   0  -4   1   14.47    1.04
   0  -4  -1   14.08    1.11
   0   4  -1   14.18    1.03
   0   4  -1   14.22    1.13
   0   4   2    3.20    0.75
   0   4   2    2.30    1.32
   0  -4   2    3.49    1.06
   0   4  -2    6.68    1.22
   0   4  -2    3.57    0.84
   0  -4  -2    3.12    0.89
   0  -4   3   35.58    1.16
   0   4   3   33.48    1.09
   0   4  -3   30.97    1.18
   0   4  -3   35.33    1.16
   0  -4  -3   34.25    1.10
   0   4   4   74.64    1.44
   0  -4   4   79.58    1.62
   0  -4   4   75.03    1.66
   0  -4   4   81.16    1.55
   0  -4  -4   81.53    1.57
   0   4  -4   81.12    1.56
   0   4  -4   81.39    1.56
   0  -4   5   -0.29    0.56
   0  -4   5   -0.13    0.76
   0   4   5    0.16    0.56
   0  -4   5    0.70    0.68
   0  -4  -5    0.66    0.63
   0  -4  -5    0.66    0.63
   0   4  -5    0.78    0.73
   0   4  -5    0.16    0.75
   0  -4   6   21.79    0.95
   0   4   6   20.20    0.84
   0  -4   6   22.32    0.94
   0  -4   6   24.03    1.13
   0  -4   6   22.83    1.02
   0   4   6   23.94    0.98
   0  -4  -6   21.75    0.92
   0  -4   7    8.04    0.82
   0   4   7    6.98    0.71
   0  -4   7    7.68    1.04
   0   4   7    8.42    0.78
   0   4   7    8.20    1.11
   0  -4   7    7.19    0.81
   0  -4  -7    7.41    0.71
   0   4   8   44.39    1.57
   0  -4   8   44.75    1.62
   0   4   8   44.34    1.63
   0  -4   8   47.52    1.85
   0   4   8   48.64    2.07
   0   4   8   47.50    1.70
   0   4   9    0.36    0.55
   0  -4   9   -0.30    0.71
   0   4   9    0.10    0.61
   0  -4   9    0.44    0.95
   0   4   9    0.65    1.30
   0   4   9   -0.51    0.69
   0   4  10    1.68    0.68
   0  -4  10    2.09    0.90
   0   4  10    2.81    1.38
   0  -4  11    2.33    1.00
   0   4  11    1.65    1.44
   0  -4  12    0.62    1.05
   0   4  12    0.81    1.42
   0   5   0   55.67    1.41
   0  -5   0   55.93    1.38
   0  -5   0   55.39    1.69
   0   5   0   53.27    1.33
   0  -5   1  514.30    4.57
   0   5   1  517.68    4.83
   0   5   1  526.97    4.93
   0  -5   1  522.79    4.81
   0   5  -1  515.94    5.10
   0  -5  -1  513.40    5.22
   0   5  -1  516.88    4.88
   0  -5  -1  514.47    4.98
   0  -5   2    6.73    0.85
   0   5   2    6.50    0.81
   0   5   2    7.74    1.02
   0  -5   2    6.83    0.88
   0   5  -2    7.16    0.75
   0   5  -2    6.38    0.83
   0  -5  -2    6.74    0.82
   0   5   3   63.08    1.40
   0  -5   3   64.13    1.41
   0   5  -3   63.50    1.45
   0  -5  -3   60.17    1.31
   0  -5   4    0.66    0.72
   0  -5   4    0.33    0.70
   0   5   4    0.64    0.64
   0  -5  -4    0.97    0.61
   0   5  -4    1.02    0.72
   0   5  -4    1.18    0.70
   0  -5   5  194.01    4.09
   0  -5   5  190.91    4.04
   0  -5   5  181.22    4.01
   0  -5  -5  193.98    4.18
   0   5  -5  191.58    4.10
   0   5  -5  194.48    4.15
   0  -5   6    1.34    0.67
   0   5   6    1.83    0.58
   0  -5   6    1.83    0.56
   0  -5   6    2.65    0.75
   0  -5  -6    2.37    0.62
   0   5  -6    1.87    0.87
   0  -5   7    7.44    0.86
   0   5   7    5.87    0.64
   0  -5   7    7.47    0.68
   0  -5   7    7.32    1.05
   0  -5   7    6.62    0.70
   0   5   7    6.11    1.26
   0   5   7    7.22    0.77
   0  -5  -7    5.97    0.65
   0   5   8    1.61    0.57
   0  -5   8    1.50    0.79
   0   5   8    1.25    0.59
   0  -5   8    2.32    1.08
   0  -5   8    1.80    0.65
   0   5   8    2.03    1.28
   0   5   8    1.55    0.74
   0   5   9   65.78    2.58
   0   5   9   57.94    2.30
   0  -5   9   77.28    3.10
   0  -5   9   69.27    2.66
   0   5   9   72.67    3.06
   0   5   9   69.18    2.70
   0  -5  10   -0.37    1.06
   0  -5  10    0.11    0.58
   0   5  10    0.55    1.29
   0   5  10   -0.21    0.64
   0  -5  11   -0.91    1.06
   0   5  11    0.40    1.40
   0   6   0  287.35    3.22
   0  -6   0  264.14    3.30
   0  -6   0  283.32    3.54
   0   6   0  269.44    3.87
   0  -6   1   21.04    1.20
   0   6   1   21.14    1.11
   0  -6   1   20.68    1.02
   0   6   1   19.95    0.88
   0   6   1   20.91    1.24
   0  -6  -1   21.10    1.04
   0  -6  -1   21.04    1.27
   0   6  -1   20.81    1.05
   0   6  -1   20.93    0.97
   0  -6  -1   21.04    1.27
   0   6   2   14.33    1.14
   0   6   2   12.47    0.83
   0  -6   2   13.94    1.09
   0  -6   2   14.48    1.00
   0   6  -2   13.70    0.80
   0   6  -2   13.54    1.07
   0  -6  -2   13.48    1.16
   0   6  -2   13.43    0.85
   0  -6  -2   13.72    0.89
   0  -6   3    0.26    0.81
   0   6   3    1.02    0.70
   0   6   3    2.08    0.91
   0  -6   3    1.50    0.75
   0  -6  -3    1.29    0.66
   0   6  -3    0.97    0.80
   0   6   4   90.90    2.25
   0  -6   4   95.65    2.30
   0   6  -4   96.15    2.35
   0  -6  -4   92.47    2.28
   0  -6   5   12.55    0.82
   0  -6   5   11.04    0.86
   0   6   5   10.91    0.71
   0  -6  -5   11.86    0.82
   0   6  -5   12.88    0.91
   0   6  -5   12.87    1.00
   0   6   6    6.09    0.66
   0  -6   6    6.34    0.65
   0  -6   6    6.31    0.83
   0  -6  -6    6.94    0.67
   0   6  -6    6.55    0.96
   0   6  -6    7.04    0.90
   0  -6  -6    6.94    0.67
   0  -6   7   -0.15    0.78
   0   6   7    0.04    0.53
   0   6   7   -0.52    0.62
   0  -6   7   -0.68    1.07
   0  -6   7   -0.67    0.71
   0  -6  -7    0.18    0.56
   0   6   8   17.21    0.99
   0  -6   8   21.74    1.49
   0   6   8   19.98    1.57
   0  -6   8   20.59    1.33
   0   6   8   19.90    1.14
   0  -6  -8   18.01    1.02
   0   6   9    2.43    0.57
   0  -6   9    3.87    1.16
   0  -6   9    2.97    0.60
   0   6   9    3.30    0.97
   0   6   9    2.33    0.66
   0  -6  10   27.25    1.66
   0   6  10   28.90    1.91
   0  -6  11    1.00    1.08
   0  -6  11    0.85    1.08
   0   6  11    0.15    0.99
   0   7   0   17.00    0.98
   0  -7   0   16.38    0.92
   0  -7   0   16.29    1.07
   0   7   0   15.98    0.93
   0  -7   1   82.52    2.01
   0   7   1   76.17    2.04
   0  -7   1   77.86    2.02
   0   7   1   72.38    1.99
   0   7  -1   79.02    2.00
   0  -7  -1   81.15    1.98
   0   7  -1   68.69    1.75
   0  -7  -1   75.84    2.05
   0  -7   2    5.83    0.94
   0   7   2    5.67    0.76
   0  -7   2    5.93    0.78
   0   7   2    5.96    1.10
   0  -7  -2    5.19    0.67
   0   7  -2    5.33    0.65
   0   7  -2    5.63    0.89
   0  -7  -2    5.17    0.99
   0   7  -2    5.89    0.68
   0   7  -2    5.33    0.65
   0   7   3    2.40    0.64
   0  -7   3    2.98    0.82
   0  -7   3    2.66    0.75
   0  -7   3    2.66    0.75
   0   7   3    1.89    0.90
   0  -7  -3    2.92    0.91
   0   7  -3    2.87    0.76
   0  -7  -3    2.64    0.60
   0   7  -3    2.52    0.54
   0   7   4    6.07    0.77
   0   7   4    4.77    1.00
   0  -7   4    5.91    0.76
   0  -7  -4    6.15    0.73
   0   7  -4    6.10    0.79
   0  -7   5  131.48    2.90
   0   7   5  133.57    3.60
   0   7  -5  137.93    3.26
   0   7  -5  146.04    3.06
   0  -7  -5  138.16    3.61
   0  -7   6   -0.02    0.74
   0  -7   6   -0.01    0.69
   0   7   6   -0.09    0.61
   0  -7  -6   -0.05    0.56
   0   7  -6    0.35    0.81
   0   7  -6    0.43    0.66
   0   7   7    1.99    0.58
   0   7   7    2.59    0.63
   0  -7   7    1.69    1.05
   0  -7  -7    2.57    0.62
   0   7   8    0.41    0.54
   0  -7   8    1.43    1.12
   0   7   8    0.90    0.63
   0  -7   9   67.17    3.23
   0   7   9   65.68    3.29
   0  -7  10    6.15    1.06
   0   7  10    5.91    1.11
   0   7  10    6.07    1.09
   0  -7  11    5.11    0.89
   0   7  11    6.32    1.13
   0   8   0  302.67    4.97
   0  -8   0  292.75    4.92
   0  -8   0  294.72    4.83
   0  -8   1    0.91    0.65
   0   8   1    1.19    0.72
   0  -8   1    0.29    0.89
   0   8   1    0.36    0.60
   0   8  -1    0.64    0.79
   0  -8  -1   -0.03    0.65
   0   8  -1    0.52    0.63
   0  -8  -1    0.48    0.87
   0  -8   2    0.26    0.84
   0   8   2    0.48    0.68
   0  -8   2    0.84    0.65
   0   8   2    0.20    0.56
   0   8   2    0.55    1.00
   0  -8  -2    0.76    0.58
   0   8  -2    0.20    0.83
   0  -8  -2    0.94    0.97
   0   8  -2    0.48    0.63
   0   8  -2    0.99    0.56
   0   8   3    3.74    1.05
   0   8   3    3.04    0.69
   0  -8   3    4.00    0.86
   0  -8   3    3.12    0.69
   0   8  -3    4.13    0.60
   0   8  -3    3.58    0.83
   0  -8  -3    4.27    0.97
   0   8  -3    3.85    0.74
   0  -8  -3    3.56    0.70
   0   8   4   98.42    2.61
   0  -8   4   96.63    2.35
   0   8   4  103.20    2.64
   0  -8   4   97.99    2.35
   0   8  -4   97.86    2.46
   0  -8  -4   95.32    2.51
   0   8   5   -0.07    0.63
   0   8   5    0.58    1.10
   0  -8   5    0.13    0.73
   0  -8  -5    0.03    0.58
   0   8  -5   -0.67    0.87
   0  -8   6    7.09    0.85
   0   8   6    6.41    0.74
   0   8  -6    6.79    1.03
   0   8  -6    5.68    0.92
   0  -8  -6    6.37    0.71
   0   8   7    3.85    0.63
   0   8   7    4.04    0.63
   0  -8   7    5.30    1.02
   0  -8  -7    4.91    0.63
   0  -8   8    0.72    1.07
   0  -8   9    1.37    1.15
   0  -8  10    0.32    1.01
   0   8  10    0.89    1.13
   0   9   0    1.55    0.80
   0  -9   0    0.72    0.63
   0  -9   0    0.38    0.85
   0   9   0    0.47    0.67
   0  -9   1   19.30    0.96
   0   9   1   21.29    1.11
   0  -9   1   18.43    1.08
   0   9   1   18.30    0.92
   0   9  -1   20.59    1.08
   0  -9  -1   17.70    0.85
   0   9  -1   20.46    1.00
   0  -9  -1   18.42    1.14
   0  -9   2   -0.29    0.93
   0   9   2    0.20    0.78
   0  -9   2    0.47    0.71
   0   9   2    0.46    0.58
   0   9  -2   -0.04    0.57
   0   9  -2    0.12    0.78
   0  -9  -2    0.12    0.92
   0   9  -2    0.67    0.65
   0  -9  -2    0.39    0.66
   0  -9   3    4.23    0.69
   0   9   3    4.65    0.82
   0  -9   3    4.32    0.60
   0  -9   3    3.92    0.99
   0   9   3    3.78    0.61
   0   9   3    5.57    1.12
   0  -9  -3    4.65    0.65
   0  -9  -3    4.15    1.03
   0   9  -3    4.90    0.79
   0   9  -3    4.60    0.58
   0   9  -3    4.95    0.86
   0  -9   4    0.47    0.80
   0   9   4   -0.35    0.67
   0   9   4   -0.81    0.82
   0  -9   4   -0.35    0.67
   0   9  -4    0.11    0.87
   0  -9  -4    0.05    0.55
   0   9  -4   -0.08    0.83
   0  -9  -4   -0.47    0.94
   0   9   5  151.44    4.66
   0   9   5  133.05    3.69
   0  -9   5  150.15    3.97
   0  -9  -5  144.08    4.40
   0   9  -5  149.79    4.06
   0   9   6    1.04    0.70
   0   9   6    1.03    1.10
   0   9  -6    1.60    0.93
   0  -9  -6    1.11    0.60
   0   9  -6    1.15    0.91
   0   9   7    0.02    0.60
   0  -9   7    1.03    1.01
   0  -9   8   24.85    1.54
   0  -9   9   18.03    1.26
   0  -9  10    0.56    1.14
   0   9  10    0.02    1.28
   0  10   0   65.31    2.44
   0 -10   0   64.08    2.13
   0 -10   0   58.76    2.09
   0  10   0   60.71    2.08
   0 -10   1    2.47    0.67
   0  10   1    2.20    0.86
   0 -10   1    1.53    0.90
   0  10   1    1.80    0.65
   0  10  -1    2.16    0.83
   0 -10  -1    2.46    0.65
   0  10  -1    1.82    0.78
   0 -10  -1    1.24    0.93
   0 -10   2    7.27    0.94
   0  10   2    8.64    0.93
   0 -10   2    7.58    0.86
   0  10   2    6.46    0.69
   0  10  -2    7.77    0.68
   0  10  -2    7.78    1.02
   0 -10  -2    7.58    1.07
   0  10  -2    8.10    0.75
   0 -10  -2    8.18    0.74
   0 -10   3    1.68    0.99
   0  10   3    0.84    0.77
   0  10   3    0.97    0.56
   0  10   3    1.05    1.06
   0  10  -3    1.67    0.58
   0  10  -3    2.01    0.94
   0  10  -3    1.64    0.72
   0 -10  -3    1.98    0.58
   0  10   4   56.16    2.47
   0  10   4   70.99    2.97
   0 -10   4   68.53    2.79
   0  10   4   67.74    2.95
   0 -10  -4   54.82    2.34
   0  10  -4   67.65    2.86
   0  10  -4   67.97    2.88
   0  10   5    6.71    0.81
   0  10   5    6.76    0.93
   0 -10   5    6.38    0.75
   0 -10  -5    5.40    0.62
   0  10  -5    6.49    0.93
   0  10   6   22.87    1.26
   0  10   6   20.24    1.28
   0  10  -6   25.11    1.31
   0 -10   7    1.79    1.02
   0  10   7    2.56    1.21
   0 -10   8   22.76    1.63
   0 -10   9    0.77    1.09
   0  11   0    4.17    0.85
   0 -11   0    4.82    0.72
   0  11   0    2.74    0.66
   0 -11   1   68.27    2.80
   0  11   1   73.32    3.07
   0  11   1   59.37    2.73
   0  11  -1   54.19    2.39
   0 -11  -1   67.50    2.77
   0 -11  -1   67.52    2.77
   0  11  -1   68.82    2.87
   0  11  -1   67.47    2.74
   0  11   2    0.31    0.58
   0  11   2    1.34    0.93
   0 -11  -2    0.87    0.54
   0  11  -2    0.82    0.50
   0  11  -2    1.16    0.69
   0  11  -2    0.92    0.91
   0  11   3   12.86    0.87
   0  11   3   16.78    1.07
   0  11  -3   17.81    1.21
   0  11  -3   16.91    1.07
   0 -11  -3   15.83    0.95
   0  11   4   -0.22    0.58
   0  11   4   -0.38    0.80
   0  11   4    1.26    1.25
   0 -11  -4    0.67    0.54
   0  11  -4    0.08    0.76
   0  11  -4    0.05    0.95
   0  11   5   72.98    3.76
   0  11   5   70.41    3.44
   0  11  -5   75.29    3.53
   0  11  -5   88.16    4.01
   0  11   6    7.04    0.98
   0  11   7    3.94    1.27
   0 -11   8    2.95    1.17
   0  11   8    1.59    1.27
   0  12   0   61.60    2.38
   0  12   0   50.38    2.02
   0  12   1    3.06    0.66
   0  12   1    3.85    0.79
   0  12  -1    5.11    0.90
   0  12  -1    3.11    0.64
   0 -12  -1    4.03    0.66
   0  12   2    0.33    0.57
   0  12   2    0.85    0.91
   0  12  -2    1.61    0.73
   0  12  -2    1.15    0.70
   0 -12  -2    0.63    0.61
   0  12   3    2.35    0.79
   0  12  -3    2.19    0.90
   0  12  -3    2.45    0.75
   0  12   4   69.50    3.06
   0  12  -4   79.74    3.26
   0  12  -4   74.76    3.03
   0  12   5    1.50    1.27
   0  12   5    0.07    0.64
   0  12  -5    1.59    0.80
   0  12  -5    0.21    0.75
   0  12   6    1.47    1.25
   0  12  -6    2.66    1.08
   0  12   7    0.33    1.21
   0  13   0    9.39    1.10
   0  13   0    6.21    0.80
   0  13   1   11.58    1.07
   0  13  -1   11.50    1.06
   0  13  -1   10.48    0.93
   0  13   2    2.35    0.85
   0  13  -2    1.62    0.97
   0  13  -2    1.40    0.71
   0  13   3    3.47    0.84
   0  13  -3    4.16    0.99
   0  13  -3    3.29    0.82
   0  13   4    0.81    0.79
   0  13  -4   -0.42    0.77
   0  13  -4    0.34    0.73
   0  13  -5   30.44    1.91
   0  14   0   47.65    2.67
   0  14   1    0.28    0.88
   0  14  -1   -0.37    0.94
   0  14   2    3.53    0.82
   0  14  -2    2.55    0.77
   0  14   3    0.20    0.73
   0  14  -3    0.55    1.03
  -1   0  13   13.81    1.27
  -1   0  12   -0.32    0.62
  -1   0  12   -0.01    1.17
  -1   0  11    0.25    0.63
  -1   0  11    0.17    1.22
  -1   0  10   -0.35    0.51
  -1   0  10   -0.07    0.69
  -1   0   9  104.16    3.09
  -1   0   9  103.81    3.14
  -1   0   9  105.83    3.16
  -1   0   8   -0.43    0.48
  -1   0   8   -0.39    0.62
  -1   0   8   -0.06    0.64
  -1   0   7   26.45    1.02
  -1   0   7   26.50    1.16
  -1   0   7   25.55    1.02
  -1   0   6   -0.43    0.61
  -1   0   6   -0.71    0.71
  -1   0   6   -0.46    0.58
   1   0  -5  541.95   10.03
  -1   0   5  539.11    5.11
  -1   0   5  532.90    4.91
  -1   0   5  545.70   10.06
   1   0  -4   -0.20    0.71
   1   0  -4    0.33    0.94
  -1   0   4   -1.15    0.80
  -1   0   4   -1.24    0.88
   1   0  -3 3123.19   23.27
  -1   0   3 3090.21   23.04
  -1   0   3 3055.65   21.62
   1   0  -2    1.46    1.38
   1   0  -2    0.86    0.89
  -1   0   2    1.01    1.31
  -1   0   2   -1.84    1.35
  -1   0   0   -9.44    3.29
  -1   0  -1  374.50    3.85
   1   0   2    0.24    1.21
  -1   0  -2   -0.71    1.34
   1   0   3  365.83    3.81
  -1   0  -3  368.06    3.76
   1   0   4   -0.07    0.99
  -1   0  -4   -0.23    0.91
   1   0   5  271.49    5.39
   1   0   5  278.45    5.42
  -1   0  -5  256.16    5.08
   1   0   6   -0.13    0.60
   1   0   6   -0.33    0.72
   1   0   6   -0.13    0.70
   1   0   7   16.56    0.91
   1   0   7   15.97    1.02
   1   0   7   17.16    1.00
   1   0   8   -0.23    0.59
   1   0   8   -0.29    0.79
   1   0   8   -0.62    0.74
   1   0   9  156.76    6.00
   1   0   9  154.34    5.96
   1   0  10    0.25    0.65
   1   0  10    0.23    0.89
   1   0  11    0.76    0.87
   1   0  12   -0.50    1.22
   1   0  12   -0.59    1.25
  -1   1  13    0.35    1.23
  -1  -1  13    1.07    1.10
  -1  -1  12    2.16    0.86
  -1   1  12    0.70    0.97
  -1  -1  11    1.24    0.55
  -1   1  11    0.97    0.69
  -1  -1  11    1.35    0.85
  -1   1  11    0.23    1.13
  -1   1  10   14.65    0.98
  -1  -1  10   15.07    1.03
  -1   1  10   13.83    0.96
  -1  -1  10   14.80    1.15
  -1   1  10   16.29    1.46
  -1   1  10   15.28    1.00
  -1   1   9    0.94    0.62
  -1  -1   9    0.56    0.68
  -1   1   9    0.47    0.69
  -1  -1   9    0.59    0.75
  -1   1   9    1.14    1.14
  -1   1   9    0.39    0.69
  -1  -1   9    1.18    0.71
  -1   1   8   31.03    1.13
  -1  -1   8   29.85    1.11
  -1   1   8   33.05    1.26
  -1  -1   8   31.85    1.28
  -1   1   8   34.60    1.55
  -1   1   8   32.62    1.23
  -1  -1   8   33.29    1.24
  -1   1   7    1.04    0.58
  -1  -1   7    0.83    0.56
  -1   1   7    0.62    0.57
  -1  -1   7    0.08    0.71
  -1  -1   7    0.08    0.71
  -1   1   7    0.50    1.08
  -1   1   7    1.36    0.74
  -1  -1   7    0.25    0.66
   1   1  -6   29.76    1.12
  -1  -1   6   28.67    1.07
  -1   1   6   30.12    1.08
  -1  -1   6   30.83    1.29
  -1   1   6   32.04    1.50
  -1   1   6   29.63    1.07
  -1   1   6   32.22    1.19
  -1  -1   6   29.51    1.11
   1   1  -5    4.51    0.85
   1   1  -5    4.50    0.97
  -1  -1   5    4.85    0.84
  -1   1   5    4.02    0.79
  -1   1   5    3.92    1.41
  -1   1   5    4.99    0.86
  -1   1   5    3.83    0.97
  -1  -1   5    4.00    0.81
   1   1  -4  541.54    4.84
   1   1  -4  564.30    4.97
  -1   1   4  549.98    5.27
  -1   1   4  563.07    5.30
  -1  -1   4  562.60    4.95
  -1   1   4  571.53    5.00
  -1  -1   4  538.94    4.79
   1   1  -3  196.66    2.51
   1  -1  -3  198.55    2.46
  -1  -1   3  194.23    2.56
  -1   1   3  189.20    2.93
  -1   1   3  197.78    2.45
  -1   1   3  198.94    2.48
   1   1  -2   16.32    1.07
   1  -1  -2   14.68    1.72
   1  -1  -2   15.75    0.81
   1  -1  -2   19.17    1.58
  -1  -1   2   14.83    1.30
  -1   1   2   16.63    0.87
  -1  -1   2   14.76    1.34
  -1   1   2   14.47    1.29
  -1   1   2   13.34    1.53
   1  -1  -1   34.35    1.78
   1  -1  -1   34.99    2.48
   1   1  -1   41.20    2.49
  -1   1   1   36.25    1.63
   1  -1   0   37.08    3.43
   1  -1   0   50.91    1.78
  -1   1   0   44.62    2.22
   1   1   1   76.76    1.74
  -1  -1  -1   78.21    1.87
   1   1   2   50.19    1.54
   1  -1   2   42.57    1.58
  -1  -1  -2   52.31    1.68
  -1   1  -2   51.69    1.76
   1   1   3   87.39    1.74
   1  -1   3   87.67    1.85
  -1  -1  -3   89.95    1.74
  -1   1  -3   89.33    1.84
   1  -1   4  134.05    2.01
   1   1   4  136.12    2.10
   1  -1   4  126.56    2.05
  -1  -1  -4  132.57    1.99
   1  -1   5   34.47    1.20
   1   1   5   35.31    1.38
   1  -1   5   36.25    1.36
  -1  -1  -5   35.02    1.31
   1  -1   6   11.64    0.93
   1   1   6   10.65    0.85
   1  -1   6   10.61    0.91
   1  -1   6   11.29    0.83
   1   1   6   11.43    0.86
  -1  -1  -6   10.52    0.79
   1   1   7    5.86    0.66
   1  -1   7    5.84    0.71
   1   1   7    5.50    0.86
   1  -1   7    4.90    1.01
   1   1   7    6.70    0.80
   1  -1   7    6.11    0.84
   1   1   8   46.94    1.66
   1  -1   8   45.93    1.63
   1   1   8   41.83    1.58
   1  -1   8   43.64    1.70
   1   1   8   45.81    1.57
   1  -1   8   45.55    1.66
   1   1   9    6.16    0.80
   1  -1   9    6.28    0.71
   1   1   9    5.62    0.84
   1  -1   9    6.02    0.87
   1   1  10    6.27    0.71
   1  -1  10    6.91    0.75
   1   1  10    6.37    0.80
   1  -1  10    7.27    0.99
   1   1  11    2.14    0.76
   1  -1  11    1.97    0.89
   1   1  11    1.75    0.98
   1  -1  12   -0.68    0.82
   1   1  12   -0.82    1.22
  -1   2  13   33.91    1.82
  -1  -2  12   -0.75    0.79
  -1   2  12   -0.23    0.97
  -1  -2  11    0.75    0.68
  -1   2  11    0.43    0.60
  -1  -2  11    0.42    0.81
  -1   2  11   -0.93    1.29
  -1  -2  10   -0.34    0.57
  -1   2  10   -0.22    0.55
  -1   2  10    0.03    0.60
  -1  -2  10   -0.14    0.78
  -1   2  10    0.52    1.24
  -1   2  10    0.10    0.73
  -1   2   9   97.37    2.87
  -1  -2   9   99.07    2.89
  -1   2   9   98.79    2.92
  -1  -2   9   98.03    2.94
  -1   2   9  110.43    3.48
  -1   2   9  100.69    2.92
  -1  -2   9  101.33    2.92
  -1   2   8    3.62    0.59
  -1  -2   8    3.68    0.67
  -1   2   8    2.95    0.63
  -1  -2   8    3.38    0.89
  -1   2   8    3.26    1.13
  -1   2   8    3.37    0.70
  -1  -2   8    3.41    0.80
   1   2  -7    0.48    0.84
  -1  -2   7    0.18    0.63
  -1   2   7    0.31    0.58
  -1  -2   7    0.22    0.89
  -1   2   7    0.22    0.95
  -1   2   7    0.39    0.56
  -1   2   7    0.67    0.70
  -1  -2   7    0.22    0.68
   1   2  -6   23.29    1.01
   1   2  -6   23.73    1.14
  -1  -2   6   22.10    0.97
  -1   2   6   21.05    0.87
  -1   2   6   23.94    1.28
  -1   2   6   23.47    0.95
  -1   2   6   21.62    0.97
  -1  -2   6   21.91    1.05
   1   2  -5   76.92    1.49
   1   2  -5   73.69    1.49
  -1  -2   5   74.11    1.44
  -1   2   5   75.47    1.75
  -1   2   5   79.19    1.68
  -1   2   5   74.71    1.50
   1   2  -4   15.97    0.90
  -1   2   4   13.78    0.80
  -1  -2   4   14.31    1.10
  -1   2   4   14.02    0.80
  -1   2   4   15.58    1.30
  -1   2   4   15.59    0.95
   1   2  -3    8.26    1.01
   1  -2  -3    7.14    1.59
   1  -2  -3    7.14    1.59
  -1  -2   3    7.61    1.25
  -1  -2   3    7.30    1.03
  -1   2   3    8.63    1.15
  -1   2   3    5.48    1.00
   1   2  -2   17.30    1.37
   1  -2  -2   15.55    1.08
   1   2  -2   15.47    1.30
   1  -2  -2   16.11    1.82
  -1  -2   2   13.67    1.35
  -1   2   2   12.67    1.38
  -1   2   2   14.17    1.16
  -1  -2   2   10.31    1.47
   1  -2  -1  100.63    2.36
   1   2  -1   97.97    1.85
  -1  -2   1   96.62    1.81
   1  -2   0   57.59    1.58
   1   2   0   58.10    1.66
   1  -2   0   57.16    1.61
  -1  -2   0   56.08    1.62
  -1  -2   0   55.08    1.88
   1   2   1   53.12    1.58
   1   2   1   53.74    1.89
   1  -2   1   52.21    1.55
  -1   2  -1   53.54    1.42
  -1  -2  -1   50.13    1.91
  -1  -2  -1   53.11    1.66
   1   2   2   15.84    1.33
   1  -2   2   15.02    1.27
   1   2   2   16.19    1.45
  -1  -2  -2   15.67    1.34
   1  -2   3   14.61    1.13
   1   2   3   15.01    1.10
   1   2   3   10.35    1.46
   1  -2   3   15.59    1.19
   1  -2   3   15.25    1.19
  -1  -2  -3   14.69    1.05
   1  -2   4   -0.28    0.94
   1   2   4    0.22    0.83
   1  -2   4   -0.40    0.85
   1  -2   4    0.34    1.14
  -1  -2  -4    0.39    0.70
   1  -2   5  155.81    3.25
   1   2   5  152.69    3.32
   1  -2   5  159.25    3.46
  -1  -2  -5  155.42    3.28
   1  -2   6    6.98    0.74
   1   2   6    7.16    0.77
   1  -2   6    8.37    1.07
  -1  -2  -6    7.74    0.83
   1  -2   7    8.94    0.78
   1  -2   7    8.90    0.77
   1   2   7    7.53    0.77
   1  -2   7    8.18    0.95
   1   2   7    9.11    0.75
   1   2   7    7.53    1.21
  -1  -2  -7    8.74    0.81
   1   2   8   24.84    1.11
   1  -2   8   23.82    1.11
   1   2   8   22.97    1.13
   1  -2   8   25.42    1.28
   1   2   8   27.67    1.62
   1   2   8   26.10    1.15
   1  -2   8   26.66    1.28
   1   2   9   62.27    2.57
   1  -2   9   58.41    2.44
   1   2   9   63.39    2.69
   1  -2   9   65.02    2.81
   1   2   9   70.32    3.14
   1  -2  10    1.18    0.77
   1   2  10    1.21    0.82
   1  -2  10    1.24    0.86
   1   2  10    2.19    1.34
   1   2  11    1.03    0.74
   1  -2  11    0.97    0.95
   1   2  11    2.10    1.23
   1  -2  12    1.20    0.95
   1   2  12   -0.61    1.17
   1   2  12   -0.51    1.13
  -1  -3  12    0.70    0.93
  -1   3  12    0.16    1.18
  -1  -3  11   -0.38    0.66
  -1  -3  11   -0.35    0.88
  -1   3  11   -0.54    0.93
  -1  -3  10    3.18    0.79
  -1   3  10    2.35    0.56
  -1   3  10    2.18    0.63
  -1  -3  10    3.00    0.92
  -1   3  10    2.23    1.23
  -1   3  10    2.33    0.71
  -1   3   9    1.72    0.59
  -1   3   9    1.45    0.60
  -1  -3   9    1.99    0.93
  -1   3   9    1.60    0.92
  -1   3   8   12.38    0.75
  -1   3   8   12.38    0.75
  -1  -3   8   13.07    0.90
  -1   3   8   13.38    0.83
  -1  -3   8   13.50    1.09
  -1   3   8   13.94    1.18
  -1   3   8   13.21    0.87
  -1  -3   8   13.74    0.90
   1   3  -7    1.65    0.69
   1   3  -7    2.41    0.80
  -1  -3   7    1.65    0.65
  -1   3   7    1.31    0.58
  -1   3   7    1.45    0.95
  -1   3   7    1.14    0.61
  -1   3   7    1.27    0.64
   1   3  -6    1.06    0.64
  -1   3   6   -0.56    0.81
  -1  -3   6    0.85    0.69
  -1   3   6   -0.16    0.83
  -1   3   6    0.62    1.00
  -1   3   6    0.44    0.69
   1   3  -5    2.37    0.82
  -1   3   5    1.19    0.58
  -1  -3   5    1.63    0.74
  -1   3   5    1.94    0.52
  -1  -3   5    1.64    0.73
  -1   3   5    1.83    1.05
  -1   3   5    1.80    0.73
   1   3  -4  256.22    2.92
   1  -3  -4  252.80    3.13
  -1  -3   4  254.96    2.91
  -1   3   4  260.72    3.24
  -1  -3   4  252.56    2.92
  -1   3   4  254.92    3.07
   1  -3  -3    8.68    1.35
   1   3  -3    9.60    0.97
  -1   3   3    7.64    0.86
  -1  -3   3    8.54    1.18
  -1  -3   3    8.54    1.18
  -1   3   3    7.80    1.28
  -1  -3   3    7.22    0.91
  -1  -3   3    8.46    1.04
   1  -3  -2    6.47    1.73
   1  -3  -2   10.50    1.55
   1   3  -2    8.24    1.05
   1   3  -2    8.00    1.11
   1  -3  -2    6.47    1.73
  -1   3   2    3.93    1.56
  -1   3   2    5.35    0.71
  -1  -3   2    7.29    1.13
  -1  -3   2    8.05    1.32
   1   3  -1   17.82    1.30
   1  -3  -1   17.98    1.18
   1   3  -1   17.40    1.21
  -1  -3   1   15.48    1.43
  -1  -3   1   16.21    1.67
  -1   3   1   16.74    1.21
   1   3   0  292.81    3.16
   1  -3   0  301.16    3.23
   1   3   0  298.82    3.50
   1  -3   0  304.16    3.40
  -1  -3   0  304.68    3.28
  -1  -3   0  304.36    3.54
  -1   3   0  307.28    3.26
   1  -3   1    4.53    1.24
   1   3   1    5.43    1.09
   1   3   1    5.25    1.21
   1  -3   1    5.04    1.20
  -1  -3  -1    5.15    1.14
  -1  -3  -1    4.56    1.55
   1   3   2    5.84    0.92
   1   3   2    6.21    1.14
   1  -3   2    5.68    0.93
  -1  -3  -2    6.20    1.06
  -1  -3  -2    6.24    1.19
   1  -3   3    0.16    1.00
   1   3   3   -0.13    0.82
   1  -3   3    0.49    0.90
   1   3   3    0.27    1.22
  -1  -3  -3    0.48    0.83
   1  -3   4  118.97    1.90
   1  -3   4  118.97    1.90
   1   3   4  113.31    1.87
   1  -3   4  117.19    1.86
   1  -3   4  115.91    1.95
  -1  -3  -4  119.62    1.91
   1  -3   5   11.39    0.85
   1   3   5   11.14    0.81
   1  -3   5   11.92    0.90
   1  -3   5   11.51    1.06
  -1  -3  -5   11.41    0.80
   1  -3   6    0.51    0.72
   1   3   6    0.97    0.78
   1  -3   6    0.90    0.72
   1  -3   6    0.50    0.85
  -1  -3  -6    0.35    0.66
   1  -3   7   10.36    0.84
   1   3   7    9.02    0.79
   1  -3   7   10.37    0.98
   1   3   7   10.94    0.89
  -1  -3  -7    8.64    0.80
   1  -3   8    7.39    0.79
   1   3   8    6.79    0.80
   1  -3   8    7.76    1.03
   1   3   8    6.19    1.03
   1   3   8    7.83    0.83
   1   3   9    5.32    0.70
   1  -3   9    5.07    0.78
   1   3   9    4.64    0.75
   1   3   9    4.64    0.75
   1  -3   9    5.52    1.04
   1   3   9    6.27    1.37
   1   3   9    5.95    0.81
   1   3  10    7.87    0.88
   1  -3  10    8.88    1.14
   1   3  10    8.01    1.15
   1  -3  11    0.60    0.96
   1   3  11   -0.48    1.37
  -1  -4  12   -0.05    0.86
  -1   4  12    0.03    1.16
  -1  -4  11    0.76    0.98
  -1  -4  11    0.25    0.69
  -1   4  11   -0.28    1.32
  -1  -4  10    1.90    0.73
  -1   4  10    0.95    0.51
  -1   4  10    0.32    0.22
  -1  -4  10    2.78    1.03
  -1  -4  10    1.34    0.65
  -1   4  10    1.30    0.93
  -1   4  10    1.08    0.69
  -1  -4   9   71.83    2.09
  -1   4   9   69.86    2.13
  -1   4   9   74.58    2.23
  -1  -4   9   79.46    2.55
  -1  -4   9   76.60    2.30
  -1   4   9   79.36    2.65
  -1   4   9   75.09    2.24
  -1  -4   8    0.70    0.69
  -1   4   8    0.33    0.60
  -1  -4   8    0.47    1.00
  -1  -4   8    0.92    0.59
  -1   4   8    0.19    1.14
  -1   4   8   -0.01    0.66
   1   4  -7    5.89    0.83
  -1   4   7    4.83    0.58
  -1  -4   7    6.12    0.74
  -1  -4   7    6.05    0.65
  -1   4   7    6.40    1.00
  -1   4   7    6.14    0.70
   1   4  -6    7.28    0.81
  -1   4   6    2.38    0.45
  -1  -4   6    7.14    0.75
  -1  -4   6    7.49    0.71
  -1   4   6    7.84    1.03
  -1   4   6    7.16    0.67
  -1  -4   6    7.58    0.79
   1   4  -5  169.97    3.56
   1  -4  -5  168.16    3.67
  -1  -4   5  170.37    3.55
  -1  -4   5  170.85    3.54
  -1   4   5  169.28    3.72
  -1  -4   5  170.37    3.55
  -1   4   5  158.68    3.28
  -1  -4   5  171.25    3.54
   1   4  -4   23.19    1.16
   1  -4  -4   21.86    1.30
   1   4  -4   22.13    1.08
  -1   4   4   18.84    1.10
  -1   4   4   19.79    1.13
  -1  -4   4   21.07    0.91
  -1   4   4   21.20    0.94
  -1  -4   4   22.49    1.17
  -1  -4   4   21.54    0.97
   1  -4  -3   87.18    1.95
   1   4  -3   83.85    1.66
   1  -4  -3   83.73    1.44
   1   4  -3   83.92    1.51
   1   4  -3   86.82    1.66
  -1  -4   3   87.85    1.58
  -1   4   3   83.60    1.71
  -1  -4   3   85.85    1.56
   1   4  -2    0.22    0.75
   1  -4  -2   -0.17    0.69
   1   4  -2    0.25    0.96
   1  -4  -2   -2.76    1.39
  -1   4   2    0.27    0.78
  -1  -4   2   -0.32    1.01
   1   4  -1   25.96    1.23
   1  -4  -1   30.24    1.14
   1   4  -1   29.09    1.12
   1   4  -1   29.89    1.21
  -1   4   1   30.15    1.17
  -1  -4   1   28.60    1.11
  -1   4   1   26.83    1.25
  -1  -4   1   30.27    1.43
   1   4   0   48.90    1.35
   1  -4   0   50.23    1.41
   1   4   0   49.54    1.49
   1  -4   0   49.48    1.24
  -1   4   0   49.09    1.29
  -1  -4   0   50.39    1.44
  -1   4   0   49.51    1.24
  -1  -4   0   49.61    1.70
   1   4   1   64.18    1.46
   1  -4   1   62.45    1.55
   1   4   1   65.38    1.72
   1  -4   1   64.73    1.39
  -1   4  -1   61.34    1.46
  -1  -4  -1   63.77    1.47
  -1   4  -1   61.53    1.40
  -1  -4  -1   64.04    1.80
   1  -4   2   -1.91    1.10
   1   4   2    0.51    0.79
   1   4   2    0.81    0.90
   1  -4   2    0.17    0.94
  -1  -4  -2    0.07    0.84
  -1  -4  -2    0.15    1.03
   1   4   3   54.06    1.25
   1  -4   3   55.69    1.31
   1   4   3   60.26    1.67
  -1  -4  -3   59.61    1.41
   1  -4   4   16.19    0.99
   1   4   4   14.61    0.89
   1   4   4   15.62    1.14
   1  -4   4   17.41    1.18
   1  -4   4   15.60    0.89
  -1  -4  -4   14.86    0.85
   1  -4   5  163.18    3.50
   1   4   5  158.22    3.55
   1  -4   5  158.29    3.41
   1  -4   5  168.70    3.75
  -1  -4  -5  159.31    3.52
   1  -4   6    0.02    0.72
   1   4   6    0.57    0.69
   1  -4   6    0.50    0.68
   1  -4   6    1.26    0.91
  -1  -4  -6    0.42    0.68
   1  -4   7   10.20    0.70
   1   4   7   10.19    0.82
   1  -4   7   10.03    1.14
   1  -4   7   11.58    0.90
  -1  -4  -7   10.70    0.81
   1  -4   8    1.41    0.57
   1   4   8    1.45    0.76
   1  -4   8    0.67    1.02
   1   4   8    1.78    0.57
  -1  -4  -8    2.62    0.66
   1   4   9   55.30    2.89
   1   4   9   55.12    2.91
   1  -4   9   59.59    3.18
   1   4   9   63.38    3.52
   1   4   9   57.14    3.00
   1   4  10    0.24    0.72
   1  -4  10   -0.36    0.96
   1   4  10    0.38    1.40
   1  -4  11    0.13    0.75
   1   4  11    1.14    1.44
  -1  -5  12    0.37    1.02
  -1   5  12    1.51    1.20
  -1  -5  11   -0.14    0.98
  -1   5  11    0.64    1.39
  -1  -5  10   24.96    1.45
  -1  -5  10   22.59    1.15
  -1   5  10   25.48    1.79
  -1   5  10   21.38    1.12
  -1  -5   9   -0.46    0.69
  -1  -5   9   -0.49    1.05
  -1  -5   9    0.26    0.63
  -1   5   9    0.08    0.88
  -1   5   9   -0.07    0.67
   1   5  -8   53.40    1.84
  -1  -5   8   50.70    1.68
  -1  -5   8   50.41    1.71
  -1   5   8   48.41    1.80
  -1   5   8   49.55    1.70
  -1  -5   8   49.05    1.67
   1   5  -7    2.94    0.82
  -1  -5   7    2.50    0.70
  -1  -5   7    2.93    0.60
  -1   5   7    2.31    1.09
  -1   5   7    3.51    0.69
  -1  -5   7    2.45    0.80
   1   5  -6    5.42    0.83
   1   5  -6    4.89    0.92
  -1  -5   6    3.94    0.76
  -1   5   6    5.70    1.00
  -1  -5   6    4.43    0.61
  -1   5   6    4.67    0.68
  -1  -5   6    5.47    0.76
   1   5  -5    0.28    0.82
   1  -5  -5   -0.65    0.89
   1   5  -5    0.24    0.78
  -1   5   5   -0.59    0.87
  -1   5   5    0.32    0.89
  -1  -5   5   -0.38    0.62
  -1   5   5   -0.17    0.56
  -1  -5   5   -0.58    0.80
  -1  -5   5   -0.81    0.82
   1   5  -4  430.58    8.49
   1   5  -4  422.86    8.57
   1  -5  -4  406.93    7.86
  -1   5   4  389.90   11.44
  -1  -5   4  398.23    7.46
  -1  -5   4  433.90    8.63
  -1  -5   4  439.47    8.67
   1   5  -3    9.48    0.79
   1  -5  -3    9.31    0.76
   1   5  -3    9.90    1.05
   1  -5  -3    8.12    1.38
  -1   5   3    9.12    0.88
  -1  -5   3   10.02    0.87
   1   5  -2  159.98    2.22
   1  -5  -2  154.41    2.26
   1   5  -2  154.33    2.09
  -1   5   2  146.17    2.37
  -1  -5   2  156.84    2.16
  -1   5   2  147.57    2.58
   1  -5  -1   23.47    1.07
   1   5  -1   22.40    0.99
   1   5  -1   24.04    0.92
   1   5  -1   23.52    1.07
  -1   5   1   23.05    1.08
  -1  -5   1   22.95    1.05
  -1   5   1   21.64    0.98
  -1  -5   1   23.70    1.37
   1  -5   0  561.64    5.39
   1  -5   0  564.76    5.58
   1   5   0  572.01    5.90
  -1   5   0  546.50    5.20
  -1  -5   0  572.78    5.03
  -1   5   0  554.25    5.72
  -1  -5   0  557.52    5.24
   1   5   1    0.56    0.84
   1  -5   1    0.15    0.90
   1   5   1    1.13    0.90
   1  -5   1    0.69    0.77
  -1   5  -1    1.25    0.83
  -1  -5  -1    0.76    0.85
  -1   5  -1    0.13    0.76
  -1  -5  -1    0.45    1.24
   1  -5   2    6.05    0.81
   1   5   2    6.30    0.82
   1  -5   2    6.64    0.92
   1   5   2    6.53    0.99
  -1  -5  -2    5.85    0.75
  -1   5  -2    6.00    0.94
  -1  -5  -2    5.75    1.12
   1   5   3   14.36    0.85
   1   5   3   17.88    1.18
   1  -5   3   16.22    0.90
  -1  -5  -3   16.35    0.97
  -1  -5  -3   15.76    1.14
   1   5   4  260.32    6.41
   1  -5   4  286.04    5.83
   1   5   4  269.35    6.32
  -1  -5  -4  269.26    5.53
   1  -5   5    1.12    0.78
   1   5   5    0.92    0.63
   1   5   5    2.71    0.97
   1  -5   5    1.30    0.91
   1  -5   5    1.72    0.70
  -1  -5  -5    1.56    0.70
   1  -5   6   34.62    1.25
   1   5   6   34.02    1.21
   1  -5   6   35.11    1.24
   1  -5   6   36.49    1.47
  -1  -5  -6   35.26    1.28
   1  -5   7    0.02    0.75
   1   5   7    0.02    0.66
   1  -5   7   -0.72    0.57
   1  -5   7    0.22    0.76
   1  -5   7    0.36    0.70
  -1  -5  -7    0.35    0.64
   1   5   8   28.96    1.51
   1  -5   8   33.92    1.80
   1   5   8   30.29    1.52
   1  -5   8   28.86    1.44
  -1  -5  -8   28.78    1.43
   1   5   9   -0.23    0.65
   1  -5   9    0.27    0.79
   1  -5   9   -0.60    0.55
   1   5   9    0.81    0.75
   1  -5  10   29.82    1.66
   1   5  10   28.07    1.67
   1  -5  11    0.13    0.99
   1   5  11   -0.24    1.48
  -1  -6  12    0.30    1.05
  -1   6  12   -1.24    1.02
  -1  -6  11    0.01    0.77
  -1   6  11   -0.84    1.35
  -1  -6  10    0.77    1.03
  -1   6  10   -0.45    0.95
  -1  -6   9   80.96    4.14
  -1  -6   9   67.98    3.47
  -1   6   9   80.95    4.26
  -1   6   9   72.15    3.70
   1   6  -8    5.41    0.94
   1   6  -8    5.09    0.95
  -1  -6   8    5.39    0.74
  -1   6   8    4.83    0.92
  -1  -6   8    5.23    0.62
  -1   6   8    5.25    0.76
   1   6  -7    0.33    0.63
   1   6  -7    0.86    0.93
  -1  -6   7   -0.06    0.71
  -1   6   7    0.76    0.81
  -1  -6   7    0.50    0.55
  -1   6   7    0.23    0.54
  -1  -6   7    1.12    0.74
   1   6  -6    5.93    0.85
   1  -6  -6    6.38    0.96
   1   6  -6    6.08    0.88
  -1   6   6    4.27    0.88
  -1   6   6    5.10    1.13
  -1  -6   6    5.53    0.69
  -1   6   6    5.37    0.65
  -1  -6   6    6.06    0.82
  -1  -6   6    5.84    0.84
   1   6  -5   73.65    1.64
   1  -6  -5   67.00    1.69
   1  -6  -5   70.75    1.62
   1   6  -5   67.88    1.57
  -1   6   5   70.43    1.70
  -1  -6   5   73.14    1.60
  -1  -6   5   72.63    1.56
   1   6  -4   25.43    1.09
   1   6  -4   20.61    1.13
   1  -6  -4   20.86    0.87
   1   6  -4   23.35    0.98
   1  -6  -4   22.20    1.27
  -1   6   4   24.74    1.07
  -1  -6   4   23.62    1.02
   1   6  -3   46.01    1.36
   1  -6  -3   41.06    1.23
   1   6  -3   46.94    1.45
  -1   6   3   46.99    1.53
  -1  -6   3   47.68    1.44
   1   6  -2   14.11    0.86
   1   6  -2   14.66    1.08
   1   6  -2   14.77    1.00
   1  -6  -2   14.27    0.88
  -1   6   2   14.30    0.95
  -1  -6   2   13.83    1.04
  -1  -6   2   14.50    1.00
  -1   6   2   12.43    1.05
   1  -6  -1   37.64    1.14
   1   6  -1   36.21    1.21
   1  -6  -1   37.64    1.14
   1   6  -1   36.23    1.17
  -1   6   1   32.77    1.06
  -1  -6   1   37.23    1.27
  -1   6   1   31.49    1.34
  -1  -6   1   36.71    1.40
   1   6   0    5.18    0.75
   1  -6   0    4.50    0.73
   1  -6   0    4.01    0.97
   1   6   0    4.75    0.72
   1  -6   0    4.80    0.69
  -1   6   0    4.50    0.91
  -1   6   0    4.55    0.68
  -1  -6   0    4.90    1.17
  -1  -6   0    4.92    0.78
   1   6   1   34.49    1.25
   1  -6   1   34.22    1.26
   1   6   1   38.08    1.53
   1  -6   1   36.61    1.24
  -1   6  -1   35.57    1.31
  -1  -6  -1   33.96    1.22
  -1   6  -1   35.04    1.25
  -1  -6  -1   34.16    1.47
   1   6   2    4.89    0.84
   1  -6   2    5.03    0.76
   1   6   2    5.31    1.03
   1  -6   2    6.28    0.82
  -1   6  -2    5.56    0.91
  -1  -6  -2    5.06    0.72
  -1   6  -2    5.48    0.70
  -1  -6  -2    4.77    1.02
   1  -6   3    2.27    0.87
   1   6   3    1.84    0.72
   1  -6   3    1.51    0.62
   1   6   3    2.08    0.95
  -1  -6  -3    2.14    0.76
  -1   6  -3    2.08    0.78
  -1  -6  -3    1.29    1.00
   1   6   4    4.27    0.61
   1   6   4    6.48    1.06
   1  -6   4    5.88    0.72
  -1  -6  -4    5.30    0.65
  -1  -6  -4    4.85    1.02
   1  -6   5  104.14    2.75
   1   6   5  101.31    2.96
   1  -6   5   98.08    2.72
   1  -6   5  101.14    2.65
  -1  -6  -5   99.11    2.67
   1  -6   6   11.66    0.86
   1   6   6   11.08    0.80
   1   6   6   12.11    1.18
   1  -6   6   13.11    1.17
   1  -6   6   12.51    0.92
  -1  -6  -6   11.98    0.84
   1   6   7    1.61    0.63
   1  -6   7    1.39    0.80
  -1  -6  -7    1.13    0.66
   1   6   8    3.48    0.66
   1  -6   8    4.11    1.10
   1   6   8    3.61    0.71
  -1  -6  -8    2.81    0.62
   1   6   9   42.27    2.14
   1  -6   9   50.80    2.58
   1   6   9   40.44    2.06
   1  -6  10    1.89    1.05
   1   6  10    2.05    1.32
   1  -6  11    3.46    1.12
   1   6  11    1.02    1.40
   1   6  11    1.03    1.40
  -1  -7  11   -1.38    1.11
  -1   7  11    0.45    0.99
  -1  -7  10   18.05    1.32
  -1   7  10   18.71    1.56
  -1  -7   9    6.23    1.02
  -1   7   9    6.70    1.26
   1   7  -8   44.90    1.95
   1   7  -8   44.26    1.94
  -1   7   8   47.47    2.22
  -1   7   8   38.54    1.70
   1   7  -7    8.82    1.02
   1   7  -7    9.29    1.03
  -1   7   7    8.66    1.20
  -1  -7   7    7.94    0.77
  -1   7   7    7.68    0.72
  -1   7   7    7.57    0.69
  -1  -7   7    8.14    0.81
   1   7  -6   -0.69    0.83
   1  -7  -6   -0.27    0.97
   1   7  -6    0.22    0.82
  -1  -7   6    0.35    0.77
  -1   7   6    0.25    0.60
  -1   7   6    0.23    0.53
  -1  -7   6   -0.68    0.71
   1   7  -5    0.46    0.80
   1   7  -5    0.69    0.81
   1  -7  -5    0.79    0.88
   1  -7  -5    0.45    0.51
  -1  -7   5   -0.12    0.75
  -1   7   5    0.08    0.54
  -1   7   5    0.60    0.58
  -1  -7   5    0.47    0.69
   1   7  -4  174.53    2.90
   1  -7  -4  167.32    3.48
   1   7  -4  179.54    2.92
  -1   7   4  174.46    3.53
  -1  -7   4  182.02    2.97
   1  -7  -3    1.49    0.52
   1   7  -3    2.09    0.59
   1   7  -3    2.08    0.82
  -1  -7   3    2.27    0.78
  -1   7   3    1.72    0.61
  -1   7   3    1.14    0.56
   1  -7  -2    5.54    0.71
   1   7  -2    5.19    0.79
   1   7  -2    5.57    0.70
   1   7  -2    5.28    0.86
  -1   7   2    5.77    0.87
  -1  -7   2    4.76    0.86
  -1   7   2    3.85    0.60
  -1  -7   2    4.88    1.02
   1  -7  -1   -0.26    0.59
   1   7  -1   -0.14    0.83
   1  -7  -1   -0.49    0.91
   1   7  -1   -0.26    0.64
  -1   7   1   -0.04    0.66
  -1  -7   1   -0.44    0.84
  -1   7   1   -0.20    0.58
  -1  -7   1   -0.55    0.87
   1  -7   0   75.21    1.88
   1   7   0   78.73    2.03
   1  -7   0   77.61    2.04
   1   7   0   73.48    1.92
  -1   7   0   80.30    2.11
  -1  -7   0   79.50    1.99
  -1   7   0   76.08    2.11
  -1  -7   0   80.19    2.12
   1   7   1    0.72    0.81
   1  -7   1    0.14    0.70
   1   7   1   -0.05    0.93
   1  -7   1    0.33    0.56
  -1   7  -1    0.20    0.70
  -1  -7  -1    0.24    0.70
  -1   7  -1    0.06    0.56
  -1  -7  -1    0.32    0.89
   1   7   2   20.86    1.19
   1  -7   2   17.84    0.98
   1   7   2   20.59    1.00
   1  -7   2   21.44    0.93
  -1  -7  -2   22.55    1.03
  -1   7  -2   20.94    1.00
  -1  -7  -2   20.51    1.18
  -1   7  -2   19.98    0.94
  -1  -7  -2   22.55    1.03
   1   7   3    0.29    0.64
   1  -7   3    0.18    0.80
   1   7   3    0.59    0.89
   1  -7   3    0.21    0.63
  -1   7  -3    0.44    0.74
  -1  -7  -3    0.03    0.67
  -1   7  -3   -0.22    0.80
  -1  -7  -3    0.22    0.85
   1   7   4  121.64    3.25
   1   7   4  124.10    3.38
   1  -7   4  116.75    2.98
  -1  -7  -4  113.20    3.06
  -1  -7  -4  121.84    3.33
   1   7   5    3.01    0.73
   1  -7   5    3.00    0.75
   1   7   5    2.89    1.12
  -1  -7  -5    1.90    0.62
   1   7   6   10.20    0.82
   1   7   6    9.99    1.23
   1  -7   6   11.04    1.17
   1  -7   6   10.14    0.84
  -1  -7  -6    9.83    0.81
   1   7   7   17.16    1.02
   1   7   7   19.76    1.49
   1  -7   7   20.37    1.47
  -1  -7  -7   19.07    1.11
   1   7   8   44.08    1.82
   1  -7   8   52.81    2.22
   1   7   8   41.17    1.74
   1  -7   9   17.14    1.32
   1  -7  10   10.22    1.33
  -1  -8  11   25.91    1.52
  -1   8  11   25.59    1.60
  -1  -8  10   -0.11    1.20
  -1   8  10    0.83    1.34
  -1  -8   9   30.68    1.86
  -1   8   9   28.47    1.89
   1   8  -8    0.14    0.96
   1   8  -8    0.45    0.98
  -1   8   8    0.55    0.89
   1   8  -7    5.36    1.03
   1   8  -7    4.51    0.96
  -1   8   7    4.40    1.11
  -1   8   7    3.75    0.60
   1   8  -6    2.02    0.97
   1  -8  -6    1.05    0.61
   1   8  -6    1.34    0.90
  -1   8   6    0.81    0.55
  -1   8   6    0.84    0.55
  -1  -8   6    1.06    0.80
   1  -8  -5   40.03    1.25
   1   8  -5   41.48    1.36
  -1   8   5   39.31    1.35
  -1   8   5   39.48    1.25
  -1  -8   5   42.43    1.34
   1  -8  -4    2.19    0.53
   1   8  -4    2.60    0.61
   1   8  -4    2.51    0.73
  -1  -8   4    2.75    0.75
  -1   8   4    2.79    0.68
  -1   8   4    1.40    0.58
  -1  -8   4    3.01    0.72
   1   8  -3   25.19    1.04
   1   8  -3   25.62    1.24
   1   8  -3   25.55    1.14
   1  -8  -3   21.55    0.94
  -1   8   3   25.33    1.23
  -1  -8   3   25.85    1.20
  -1  -8   3   26.44    1.14
  -1   8   3   22.59    0.99
   1   8  -2    6.07    0.69
   1   8  -2    5.38    0.91
   1  -8  -2    3.53    0.91
   1  -8  -2    5.16    0.65
   1   8  -2    4.70    0.72
  -1  -8   2    5.84    0.93
  -1   8   2    5.17    0.72
  -1   8   2    3.98    0.54
  -1  -8   2    5.87    0.75
   1  -8  -1   19.41    0.87
   1   8  -1   21.39    1.11
   1   8  -1   19.98    0.83
   1   8  -1   20.68    1.01
   1  -8  -1   21.59    1.17
  -1  -8   1   21.50    1.11
  -1   8   1   19.86    0.94
  -1   8   1   17.09    0.85
  -1  -8   1   21.21    0.95
   1  -8   0    2.73    0.65
   1   8   0    1.77    0.74
   1  -8   0    3.48    0.89
   1   8   0    2.12    0.64
  -1   8   0    1.80    0.75
  -1  -8   0    2.69    0.72
  -1   8   0    2.62    0.64
  -1  -8   0    2.91    0.95
   1  -8   1   99.04    2.05
   1   8   1   96.05    2.03
   1  -8   1   98.44    1.90
   1  -8   1   92.62    1.93
   1   8   1   99.86    2.13
   1   8   1   94.95    2.01
  -1  -8  -1   94.57    2.15
  -1   8  -1   95.08    1.92
  -1  -8  -1   92.86    1.80
   1   8   2    0.40    1.01
   1  -8   2    0.44    0.66
   1   8   2    0.42    0.68
   1  -8   2    0.23    0.57
  -1   8  -2    1.30    0.56
  -1   8  -2    1.00    0.75
  -1  -8  -2    0.68    0.92
  -1   8  -2    0.58    0.75
  -1  -8  -2    0.31    0.60
   1   8   3   17.39    0.97
   1  -8   3   13.50    0.73
   1   8   3   15.35    1.15
   1  -8   3   15.44    0.84
  -1   8  -3   16.62    1.04
  -1  -8  -3   14.79    0.86
  -1   8  -3   15.49    0.89
  -1  -8  -3   17.25    1.21
   1  -8   4   16.56    0.91
   1   8   4   14.26    0.85
   1   8   4   17.22    1.32
   1  -8   4   16.14    0.88
  -1  -8  -4   13.91    0.80
  -1  -8  -4   17.60    1.21
   1   8   5   15.51    0.88
   1  -8   5   15.86    0.80
   1   8   5   16.54    1.15
  -1  -8  -5   18.02    1.01
   1   8   6   10.63    0.90
   1   8   6   11.13    1.30
   1  -8   6    9.90    1.20
   1  -8   6   11.35    0.89
  -1  -8  -6   10.54    0.88
   1   8   7    7.75    0.79
   1  -8   7    9.15    1.29
   1   8   7    8.55    1.30
   1  -8   8   19.00    1.46
   1   8   8   15.36    1.28
   1  -8   9   15.48    1.16
   1  -8  10    1.04    1.12
  -1  -9  10   19.50    1.54
  -1   9  10   17.50    1.65
  -1  -9   9   -0.44    1.12
  -1   9   9   -1.38    1.27
   1   9  -8   77.04    3.57
   1   9  -8   65.45    3.02
  -1   9   8   67.03    3.31
   1   9  -7    4.79    0.82
   1   9  -7    5.69    0.95
   1   9  -6    0.44    0.84
   1   9  -6    1.12    0.83
   1  -9  -6    0.71    0.60
  -1   9   6    0.84    0.55
  -1   9   6    0.54    0.52
   1  -9  -5    2.09    0.62
   1   9  -5    1.50    0.74
  -1   9   5    1.15    0.61
  -1   9   5    1.21    0.57
  -1   9   5    0.97    0.53
  -1  -9   5    1.45    0.54
   1   9  -4   63.89    2.06
   1   9  -4   56.82    2.00
   1   9  -4   68.76    2.23
   1  -9  -4   63.87    2.10
  -1   9   4   58.84    2.29
  -1  -9   4   68.07    2.28
  -1  -9   4   69.46    2.21
  -1   9   4   62.28    2.12
   1   9  -3    2.10    0.75
   1   9  -3    2.72    0.92
   1   9  -3    1.68    0.60
   1  -9  -3    1.81    0.57
   1  -9  -3    1.69    0.74
  -1  -9   3    2.45    0.82
  -1   9   3    1.89    0.63
  -1  -9   3    1.65    0.76
  -1   9   3    1.24    0.62
   1   9  -2    0.27    0.52
   1   9  -2    0.78    0.64
   1  -9  -2    0.02    0.97
   1  -9  -2    0.11    0.65
   1   9  -2    0.72    0.73
  -1  -9   2    0.38    0.87
  -1   9   2    0.12    0.80
  -1   9   2    0.37    0.53
  -1  -9   2    0.76    0.74
   1  -9  -1    0.02    0.96
   1   9  -1    0.83    0.80
   1  -9  -1   -0.10    0.64
   1   9  -1    0.37    0.68
   1   9  -1   -0.04    0.66
  -1   9   1    0.16    0.72
  -1  -9   1    0.24    0.90
  -1   9   1   -0.15    0.52
  -1  -9   1    0.20    0.67
   1  -9   0  119.14    2.70
   1   9   0  130.52    3.07
   1  -9   0  127.64    3.02
   1   9   0  112.32    2.70
  -1   9   0  123.36    3.36
  -1  -9   0  119.99    2.74
  -1   9   0  121.43    3.20
  -1  -9   0  132.37    3.15
   1  -9   1    0.75    0.72
   1   9   1    0.22    0.72
   1  -9   1    1.29    0.85
   1   9   1    0.26    0.67
  -1   9  -1    1.21    0.81
  -1  -9  -1    0.85    0.69
  -1   9  -1    0.14    0.67
  -1  -9  -1    0.37    0.96
   1  -9   2   10.58    1.03
   1   9   2   10.56    0.93
   1  -9   2   11.56    0.88
   1  -9   2    9.41    0.67
   1   9   2    9.88    1.09
  -1  -9  -2   10.21    0.76
  -1   9  -2   11.96    0.99
  -1  -9  -2    9.58    1.05
  -1   9  -2   10.55    0.84
  -1   9  -2   11.03    0.72
   1  -9   3    8.51    0.87
   1   9   3    7.35    0.77
   1   9   3    8.65    1.18
   1  -9   3    7.20    0.69
  -1   9  -3    8.17    0.99
  -1  -9  -3    6.73    0.80
  -1   9  -3    7.30    0.86
  -1  -9  -3    7.41    1.11
   1  -9   4  100.01    2.88
   1   9   4   90.39    2.99
   1   9   4   97.28    3.05
  -1   9  -4   98.53    2.85
  -1  -9  -4   95.65    2.77
   1   9   5   40.60    1.88
   1  -9   5   41.27    1.82
   1   9   5   41.48    2.07
  -1  -9  -5   31.94    1.58
   1   9   6    0.43    0.60
   1   9   6   -0.02    0.80
   1   9   7    0.29    0.63
   1  -9   7    0.87    1.01
   1   9   7    0.49    0.89
   1  -9   8    4.16    1.12
   1   9   8    3.27    1.31
   1  -9   9    4.36    1.09
   1   9   9    2.24    1.28
  -1 -10   9   79.85    1.69
  -1  10   9   73.85    4.14
   1  10  -8   -0.41    0.77
   1  10  -8   -0.34    0.96
   1  10  -7    0.15    1.01
   1  10  -7    0.34    0.67
   1  10  -6    1.19    0.85
  -1  10   6    0.12    0.60
   1 -10  -4   -0.05    0.54
   1  10  -4    0.78    0.94
   1  10  -4   -0.02    0.76
   1  10  -4    0.03    0.51
  -1  10   4    0.13    0.69
  -1 -10   4    0.63    0.76
  -1  10   4    1.24    1.15
  -1  10   4    0.02    0.65
   1 -10  -3    0.77    0.59
   1  10  -3    0.03    0.90
   1  10  -3    0.72    0.75
   1  10  -3    0.60    0.57
  -1  10   3    0.38    0.67
  -1  10   3   -0.81    0.54
  -1 -10   3    0.03    0.88
   1  10  -2   -0.14    0.53
   1  10  -2   -0.04    0.86
   1 -10  -2   -0.47    1.01
   1 -10  -2   -0.16    0.65
   1  10  -2   -0.41    0.69
  -1 -10   2   -0.55    0.90
  -1  10   2   -0.24    0.76
  -1  10   2    0.07    0.55
  -1 -10   2    0.52    0.73
   1 -10  -1    5.16    0.98
   1  10  -1    6.06    0.91
   1 -10  -1    5.23    0.72
   1  10  -1    6.04    0.81
   1  10  -1    5.26    0.64
  -1  10   1    5.84    0.87
  -1 -10   1    5.90    1.02
  -1  10   1    5.74    0.71
  -1 -10   1    6.51    0.81
   1 -10   0    5.37    0.75
   1  10   0    4.69    0.88
   1 -10   0    4.19    0.73
   1  10   0    5.01    0.80
  -1  10   0    5.80    0.88
  -1 -10   0    5.78    0.79
  -1  10   0    4.74    0.70
  -1 -10   0    4.05    0.96
   1 -10   1   38.02    1.40
   1  10   1   39.12    1.51
   1 -10   1   36.08    1.54
   1  10   1   35.47    1.41
  -1  10  -1   36.88    1.49
  -1 -10  -1   37.27    1.40
  -1  10  -1   33.99    1.55
  -1 -10  -1   32.24    1.38
   1  10   2   36.69    1.61
   1  10   2   27.78    1.82
   1 -10   2   34.47    1.30
   1  10   2   27.25    1.17
   1 -10   2   31.65    1.46
  -1 -10  -2   33.37    1.31
  -1  10  -2   32.48    1.38
  -1 -10  -2   33.73    1.52
  -1  10  -2   35.31    1.38
  -1  10  -2   34.84    1.28
   1 -10   3   28.57    1.41
   1  10   3   27.83    1.51
   1  10   3   28.80    1.67
  -1  10  -3   31.44    1.65
  -1 -10  -3   28.31    1.42
   1 -10   4    1.00    0.69
   1  10   4   -0.73    0.73
   1  10   4    0.83    1.11
  -1  10  -4   -0.15    0.96
  -1 -10  -4    0.24    0.60
   1  10   5   81.57    4.17
   1  10   5   74.07    3.92
   1 -10   5   80.26    4.12
  -1 -10  -5   69.95    3.58
   1  10   6    0.59    0.74
   1  10   6    0.36    1.20
   1  10   7    2.64    1.22
   1 -10   8    3.80    1.14
   1  10   8    2.35    1.27
   1  11  -8   21.76    1.60
   1  11  -8   21.94    1.57
   1  11  -7    0.58    0.98
   1  11  -7   -0.29    0.82
   1  11  -6   11.26    1.11
   1  11  -5    5.03    0.98
   1  11  -5    3.27    0.76
  -1  11   5    4.14    0.76
  -1  11   5    4.29    0.94
   1 -11  -4   93.42    4.64
   1  11  -4  103.01    5.16
   1  11  -4   97.70    4.91
  -1  11   4  106.69    5.34
   1  11  -3    0.47    0.85
   1  11  -3    1.72    0.90
   1 -11  -3    0.95    0.59
   1  11  -3    0.92    0.58
   1  11  -3    0.47    0.85
   1  11  -3    0.47    0.85
  -1  11   3    0.29    0.96
  -1  11   3    0.49    0.77
   1  11  -2    1.11    0.95
   1  11  -2    1.19    0.94
   1  11  -2    0.70    0.64
   1 -11  -2    0.82    0.59
   1  11  -2    0.16    0.73
  -1  11   2    1.36    0.84
  -1  11   2    0.55    0.51
  -1 -11   2    0.14    0.65
   1  11  -1    3.84    0.72
   1  11  -1    3.69    0.70
   1 -11  -1    3.47    0.53
   1  11  -1    3.98    0.62
  -1  11   1    4.28    0.66
  -1  11   1    4.42    0.91
   1  11   0  122.50    5.25
   1  11   0  144.89    6.01
   1 -11   0  142.09    5.48
  -1 -11   0  142.37    5.51
  -1  11   0  133.13    5.45
  -1  11   0  145.50    6.07
   1  11   1    0.32    0.60
   1  11   1    0.35    0.88
  -1  11  -1    1.14    0.92
  -1  11  -1    0.57    0.70
  -1 -11  -1    0.69    0.73
   1  11   2   14.94    0.99
   1  11   2   14.55    1.05
  -1 -11  -2   14.07    0.91
  -1  11  -2   15.32    0.92
  -1  11  -2   14.01    0.97
  -1  11  -2   15.97    1.16
   1  11   3    5.81    0.69
   1  11   3    8.02    0.94
   1  11   3    8.48    1.29
  -1  11  -3    6.44    0.92
  -1 -11  -3    7.33    0.82
   1  11   4   86.60    3.88
   1  11   4   99.69    1.85
   1 -11   4   92.17    3.25
   1  11   5    1.73    0.72
   1 -11   5    0.87    0.83
   1  11   5    1.89    1.22
   1 -11   6    7.02    1.18
   1  11   6    5.58    1.34
   1  11   7    0.32    1.18
   1  12  -7    2.53    0.98
   1  12  -6    1.21    0.99
   1  12  -6    1.41    0.84
  -1  12   6    2.09    1.12
   1  12  -5   43.23    1.93
   1  12  -5   51.16    2.32
  -1  12   5   36.50    1.72
   1  12  -4    7.48    0.93
   1  12  -4    6.44    0.86
  -1  12   4    6.78    0.84
   1  12  -3    1.88    0.81
   1  12  -3    1.96    0.99
  -1  12   3    1.71    0.76
   1 -12  -2   -0.37    0.61
   1  12  -2    0.43    0.69
   1  12  -2   -0.83    0.74
  -1  12   2   -0.37    0.82
   1  12  -1   26.82    1.37
   1  12  -1   34.99    1.66
   1 -12  -1   29.60    1.31
   1  12  -1   29.94    1.35
  -1  12   1   26.29    1.28
  -1  12   1   34.83    1.60
   1  12   0    0.41    0.65
   1  12   0   -0.09    0.92
   1  12   0   -0.01    0.71
  -1  12   0    0.25    0.67
  -1  12   0    0.50    0.90
   1  12   1   52.27    2.10
  -1  12  -1   55.32    2.19
   1  12   2    1.47    0.89
   1  12   2    0.85    0.59
  -1  12  -2    1.06    0.96
  -1 -12  -2    2.27    0.66
   1  12   3    0.36    0.66
   1  12   3    0.87    0.80
  -1  12  -3    1.69    0.93
   1  12   4    3.04    0.75
   1 -12   4    3.29    1.10
   1  12   4    1.95    1.19
   1  12   5   41.25    2.12
   1 -12   5   50.22    2.57
   1  12   5   44.09    2.34
   1 -12   6    0.04    0.81
   1  12   6   -1.22    1.26
   1  13  -6   -0.98    0.75
   1  13  -6    0.10    0.80
   1  13  -5    0.71    0.90
   1  13  -5    0.65    0.77
   1  13  -4   19.33    1.28
   1  13  -4   24.81    1.54
  -1  13   4   19.26    1.29
   1  13  -3    1.00    0.75
   1  13  -3    1.73    1.00
  -1  13   3    1.88    0.74
   1  13  -2    0.61    0.76
   1  13  -2    0.17    0.90
  -1  13   2    0.96    0.77
   1  13  -1   -0.08    0.63
   1  13  -1   -0.26    0.87
  -1  13   1    1.25    0.84
   1  13   0   71.08    3.06
  -1  13   0   72.97    3.01
   1  13   1    1.37    0.58
   1  13   1    1.80    0.84
  -1  13  -1    2.26    0.90
   1  13   2    0.59    0.79
  -1  13  -2   -0.09    0.97
   1  13   3   -0.10    0.83
   1  13   4   13.25    1.16
   1 -13   4   15.25    1.44
   1 -13   5    0.06    1.10
   1  13   5   -0.33    0.87
   1  14  -4    0.30    0.95
   1  14  -4   -0.10    0.79
   1  14  -3    3.64    0.78
   1  14  -3    6.18    1.10
  -1  14   3    3.87    0.78
   1  14  -2    0.27    0.70
   1  14  -2    0.17    1.04
  -1  14   2    0.76    0.82
   1  14  -1    1.26    0.71
  -1  14   1    0.61    0.88
   1  14   0    0.64    0.92
  -1  14   0    0.15    0.86
   1  14   1   23.23    1.59
  -1  14  -1   19.40    1.47
   1  14   2    0.70    0.89
   1  14   3   10.23    0.94
   1 -14   3    8.36    0.92
  -2   0  13   -1.35    0.99
  -2   0  12    4.29    0.72
  -2   0  12    4.52    0.97
  -2   0  11    0.07    0.46
  -2   0  11   -0.79    0.67
  -2   0  11   -0.23    0.74
  -2   0  10   -0.28    0.53
  -2   0  10    0.22    0.56
  -2   0  10    0.41    1.00
  -2   0  10   -0.17    0.63
  -2   0   9   -0.18    0.45
  -2   0   9   -0.28    0.64
  -2   0   9    0.44    0.95
  -2   0   9    0.26    0.63
  -2   0   8  134.78    3.38
  -2   0   8  135.19    3.45
  -2   0   8  143.35    3.82
  -2   0   8  136.02    3.41
   2   0  -7   -0.01    0.83
  -2   0   7    0.02    0.49
  -2   0   7   -0.39    0.68
   2   0  -6  390.45    4.07
   2   0  -6  438.91    8.65
  -2   0   6  443.21    8.72
  -2   0   6  430.90    8.45
   2   0  -5    0.06    0.70
   2   0  -5    0.37    0.69
  -2   0   5   -0.05    1.06
  -2   0   5   -0.45    0.62
  -2   0   5   -1.86    0.85
   2   0  -4  448.10    4.21
  -2   0   4  445.88    4.46
  -2   0   4  454.01    4.19
  -2   0   4  443.13    4.15
   2   0  -3   -0.33    0.89
   2   0  -3    0.75    1.05
  -2   0   3   -0.10    1.22
  -2   0   3   -3.40    1.16
  -2   0   3   -0.79    1.10
   2   0  -2    4.97    1.21
  -2   0   2    3.47    1.52
  -2   0   2    1.89    1.53
   2   0  -1    1.12    1.24
  -2   0   1    0.07    1.42
  -2   0   1   -0.06    1.48
   2   0   1   -1.70    1.25
  -2   0  -1    0.18    1.45
   2   0   2    9.06    1.29
  -2   0  -2    7.75    1.24
   2   0   3   -0.28    0.92
  -2   0  -3   -0.34    0.89
   2   0   4  404.52    4.17
  -2   0  -4  388.64    4.10
   2   0   5   -0.59    0.95
  -2   0  -5   -0.01    0.70
   2   0   6  128.59    3.40
  -2   0  -6  119.45    3.13
   2   0   7   -0.04    0.62
   2   0   7   -0.30    0.78
   2   0   7    0.14    0.85
   2   0   8   41.74    1.48
   2   0   8   39.28    1.61
   2   0   8   39.28    1.61
   2   0   9   -0.34    0.70
   2   0   9    0.12    0.84
   2   0  10   46.64    1.99
   2   0  10   48.93    2.18
   2   0  11   -0.27    0.93
  -2   1  13   24.60    1.91
  -2  -1  13   23.33    1.61
  -2  -1  12    0.07    0.73
  -2   1  12    0.75    1.12
  -2  -1  12    2.05    1.01
  -2  -1  11    1.78    0.64
  -2   1  11    1.45    0.55
  -2  -1  11    1.96    0.80
  -2   1  11    0.69    1.25
  -2  -1  11    1.68    1.00
  -2  -1  10   -0.23    0.57
  -2   1  10   -0.01    0.57
  -2   1  10    0.05    0.58
  -2  -1  10    0.05    0.74
  -2   1  10   -0.51    1.09
  -2   1  10    0.37    0.66
  -2  -1  10   -0.62    0.68
  -2  -1   9   23.00    0.93
  -2   1   9   22.29    0.92
  -2   1   9   22.98    0.98
  -2  -1   9   23.43    1.12
  -2   1   9   22.55    1.33
  -2   1   9   21.88    1.02
  -2  -1   9   21.40    1.01
   2   1  -8    8.26    0.92
  -2   1   8    8.28    0.68
  -2   1   8    9.10    0.78
  -2  -1   8    8.20    0.87
  -2   1   8    8.17    0.95
  -2  -1   8    8.06    0.74
  -2   1   8    8.43    0.78
  -2  -1   8    7.29    0.80
   2   1  -7   29.00    1.13
   2   1  -7   28.77    1.13
  -2   1   7   29.63    1.06
  -2  -1   7   29.36    1.09
  -2   1   7   32.37    1.44
  -2   1   7   29.02    1.13
  -2   1   7   28.24    1.11
  -2  -1   7   28.21    1.11
   2   1  -6  206.39    4.16
   2   1  -6  204.59    4.11
   2  -1  -6  201.65    4.04
  -2   1   6  208.08    4.16
  -2   1   6  206.62    4.30
  -2   1   6  209.89    4.28
  -2  -1   6  210.17    4.20
  -2   1   6  198.60    3.98
  -2  -1   6  207.01    4.16
   2  -1  -5  338.21    3.44
   2   1  -5  339.96    3.55
   2   1  -5  353.32    3.65
   2  -1  -5  343.76    3.56
  -2  -1   5  340.16    3.52
  -2   1   5  341.04    3.48
  -2   1   5  335.36    3.73
  -2   1   5  344.17    3.56
  -2  -1   5  330.35    3.53
   2  -1  -4   70.83    1.70
   2   1  -4   72.13    1.53
   2  -1  -4   68.03    1.42
  -2  -1   4   71.79    1.51
  -2   1   4   62.10    3.53
  -2   1   4   70.37    1.66
  -2   1   4   70.98    1.52
  -2  -1   4   71.65    1.48
   2   1  -3   25.43    1.17
   2  -1  -3   24.32    1.45
   2  -1  -3   25.20    1.57
   2   1  -3   25.40    1.23
   2  -1  -3   25.47    1.13
  -2  -1   3   23.99    1.43
  -2  -1   3   24.52    1.29
  -2   1   3   23.97    1.35
  -2   1   3   20.09    1.62
   2   1  -2   45.18    1.60
   2  -1  -2   43.56    1.78
   2  -1  -2   43.36    1.45
   2   1  -2   40.60    1.93
  -2   1   2   42.44    1.59
  -2   1   2   39.54    1.87
  -2  -1   2   41.29    1.57
   2   1  -1   19.99    1.36
   2  -1  -1   24.65    1.34
  -2   1   1   23.76    1.47
  -2   1   1   24.66    1.44
   2  -1   0   21.18    1.53
   2  -1   0   18.92    1.34
  -2   1   0   21.78    1.36
  -2  -1   0   15.98    1.39
   2   1   1  145.00    2.26
   2  -1   1  154.52    2.27
  -2  -1  -1  151.43    2.27
   2   1   2    8.35    1.16
   2  -1   2    7.83    0.94
  -2   1  -2    8.22    1.06
  -2  -1  -2    8.65    1.03
   2   1   3   14.43    1.15
   2  -1   3   14.61    1.24
  -2  -1  -3   14.89    1.22
  -2   1  -3   13.91    1.07
   2   1   4   21.17    1.15
   2  -1   4   20.81    1.08
  -2  -1  -4   20.85    1.16
  -2   1  -4   20.73    1.08
   2   1   5  253.55    5.30
   2  -1   5  241.08    5.17
  -2  -1  -5  246.41    5.13
  -2   1  -5  236.62    4.95
   2  -1   6   18.01    0.98
   2   1   6   16.39    1.04
   2  -1   6   18.87    1.16
  -2  -1  -6   17.41    1.01
   2  -1   7    5.85    0.80
   2   1   7    5.45    0.88
   2  -1   7    5.59    0.98
   2  -1   7    6.44    0.90
   2   1   7    6.20    0.86
  -2  -1  -7    5.95    0.83
   2   1   8    6.52    0.70
   2  -1   8    6.67    0.84
   2   1   8    6.98    0.85
   2  -1   8    7.30    0.92
   2   1   9   33.41    1.87
   2  -1   9   32.76    1.86
   2   1   9   31.67    1.85
   2  -1   9   33.75    1.98
   2   1  10    0.85    0.82
   2  -1  10    0.99    0.86
   2   1  11    1.46    0.76
   2  -1  11    0.72    0.76
   2   1  11    1.82    1.09
  -2   2  13   -0.12    1.19
  -2  -2  13    0.15    0.95
  -2  -2  12   10.89    1.07
  -2   2  12   11.48    1.33
  -2  -2  11    1.01    0.62
  -2   2  11    1.31    0.55
  -2  -2  11    1.85    0.80
  -2   2  11    2.28    1.16
  -2  -2  10    7.70    0.74
  -2   2  10    6.96    0.68
  -2   2  10    6.85    0.69
  -2  -2  10    7.16    0.92
  -2   2  10    8.39    1.29
  -2   2  10    7.57    0.78
   2   2  -9   12.40    1.05
  -2   2   9   12.43    0.77
  -2   2   9   12.57    0.80
  -2  -2   9   13.65    1.04
  -2   2   9   13.03    1.31
  -2  -2   9   11.95    0.77
  -2   2   9   11.90    0.83
  -2  -2   9   12.45    0.90
   2   2  -8   29.18    1.13
   2   2  -8   30.23    1.30
  -2   2   8   30.48    1.13
  -2  -2   8   30.58    1.16
  -2   2   8   29.60    1.45
  -2   2   8   31.66    1.19
  -2   2   8   30.45    1.18
  -2  -2   8   30.21    1.21
   2   2  -7    0.52    0.68
   2   2  -7    0.79    0.79
  -2   2   7    0.23    0.56
  -2  -2   7    0.51    0.62
  -2   2   7    0.24    0.97
  -2   2   7    0.24    0.58
  -2   2   7    0.28    0.59
  -2  -2   7    0.34    0.75
   2   2  -6   18.56    0.94
   2   2  -6   19.25    0.98
  -2   2   6   17.08    0.93
  -2  -2   6   18.70    1.03
  -2   2   6   17.54    1.27
  -2   2   6   18.57    1.03
  -2   2   6   19.05    1.00
  -2  -2   6   18.48    1.00
   2   2  -5    2.71    0.70
   2  -2  -5    2.98    0.73
   2   2  -5    3.22    1.02
  -2   2   5    1.78    0.42
  -2  -2   5    2.69    0.88
  -2   2   5    1.56    1.18
  -2  -2   5    2.18    0.88
  -2   2   5    2.09    0.42
  -2   2   5    2.18    0.78
  -2  -2   5    2.43    0.98
   2   2  -4  346.37    3.44
   2  -2  -4  352.38    3.48
   2   2  -4  342.86    3.47
   2  -2  -4  356.43    3.76
  -2   2   4  348.17    3.85
  -2  -2   4  359.82    3.73
  -2  -2   4  355.73    3.53
  -2   2   4  329.04    3.43
  -2   2   4  350.91    3.48
   2   2  -3   42.99    1.25
   2  -2  -3   47.53    1.25
   2  -2  -3   45.33    1.53
   2   2  -3   45.08    1.46
   2  -2  -3   46.13    1.68
  -2  -2   3   42.02    1.44
  -2   2   3   44.55    1.54
  -2  -2   3   44.43    1.45
  -2   2   3   43.29    1.45
   2   2  -2  104.72    1.82
   2  -2  -2  104.04    1.92
   2   2  -2  101.64    1.99
   2  -2  -2  108.71    2.33
  -2  -2   2  102.29    1.97
  -2  -2   2  104.07    2.14
  -2   2   2  100.74    1.97
   2  -2  -1    6.08    1.33
   2   2  -1    7.68    2.07
   2   2  -1    3.99    1.45
  -2   2   1    3.32    1.49
  -2  -2   1   -0.09    1.89
   2   2   0  303.87    3.51
  -2  -2   0  294.28    3.35
  -2   2   0  296.92    3.20
  -2   2   0  294.73    3.36
   2   2   1   13.95    1.25
   2  -2   1   11.62    1.06
   2   2   1   12.06    1.35
  -2  -2  -1   14.15    1.41
  -2   2  -1   14.63    1.07
   2   2   2   11.34    1.05
   2  -2   2   11.32    0.86
  -2   2  -2    9.32    1.05
  -2  -2  -2   11.37    1.16
   2   2   3    5.95    1.02
   2  -2   3    5.95    1.18
   2  -2   3    6.01    0.86
  -2  -2  -3    6.33    1.02
  -2   2  -3    5.64    1.12
   2   2   4  237.52    4.76
   2  -2   4  255.60    5.00
   2  -2   4  242.13    4.85
  -2  -2  -4  245.01    4.91
   2  -2   5   55.94    1.58
   2   2   5   53.22    1.66
   2  -2   5   57.59    1.79
   2  -2   5   51.86    1.49
  -2  -2  -5   56.16    1.69
   2  -2   6    7.92    0.82
   2   2   6    7.93    0.89
   2  -2   6    8.02    0.99
  -2  -2  -6    7.38    0.77
   2  -2   7    4.40    0.77
   2   2   7    4.28    0.86
   2  -2   7    3.18    0.90
  -2  -2  -7    3.83    0.77
   2  -2   8    6.20    0.61
   2   2   8    5.73    0.87
   2  -2   8    6.70    1.05
   2   2   8    7.00    0.85
  -2  -2  -8    5.43    0.71
   2   2   9    0.43    0.65
   2   2   9    0.01    0.84
   2  -2   9    1.05    0.84
   2   2  10   22.16    1.33
   2  -2  10   23.22    1.43
   2   2  10   24.83    1.71
   2   2  11   -0.28    0.68
   2   2  11   -0.39    0.70
   2  -2  11    0.70    0.97
   2   2  11   -0.09    1.10
  -2  -3  13    8.19    0.90
  -2   3  13    6.68    1.29
  -2  -3  12    0.74    0.87
  -2  -3  12    0.76    0.65
  -2   3  12    1.82    1.21
  -2  -3  11    4.65    0.71
  -2  -3  11    5.57    1.05
  -2  -3  11    4.51    0.76
  -2   3  11    4.77    1.19
  -2   3  11    4.77    0.73
  -2  -3  10   -0.06    0.63
  -2  -3  10   -0.07    0.83
  -2   3  10   -1.02    1.18
  -2   3  10   -0.04    0.72
   2   3  -9   46.37    1.76
  -2  -3   9   44.38    1.53
  -2   3   9   46.05    1.90
  -2  -3   9   41.93    1.51
  -2   3   9   43.98    1.56
  -2  -3   9   44.20    1.60
   2   3  -8   -0.28    0.82
   2   3  -8   -0.78    0.82
  -2  -3   8   -0.40    0.62
  -2   3   8    0.26    1.04
  -2  -3   8    0.30    0.70
  -2   3   8   -0.15    0.64
  -2  -3   8    0.03    0.70
   2   3  -7    2.15    0.69
   2   3  -7    3.91    0.83
  -2  -3   7    2.16    0.69
  -2   3   7    3.33    1.07
  -2  -3   7    2.91    0.67
  -2   3   7    2.69    0.60
  -2  -3   7    2.03    0.72
   2   3  -6    0.31    0.82
   2   3  -6    1.13    0.81
  -2  -3   6    0.54    0.58
  -2  -3   6   -0.26    0.81
  -2   3   6    0.11    0.95
  -2  -3   6    0.49    0.60
  -2   3   6    0.16    0.63
   2   3  -5   73.03    1.52
   2  -3  -5   73.61    1.63
  -2  -3   5   72.22    1.40
  -2   3   5   72.65    1.71
  -2  -3   5   73.41    1.46
  -2   3   5   72.37    1.41
   2   3  -4    9.01    1.01
   2  -3  -4    8.67    1.08
   2  -3  -4    8.67    1.08
  -2  -3   4    8.09    0.87
  -2  -3   4    8.28    0.98
  -2   3   4    7.97    0.97
  -2   3   4    7.89    0.75
   2  -3  -3   10.93    1.35
   2   3  -3    7.72    1.02
   2  -3  -3    7.83    1.37
   2  -3  -3    7.81    1.33
   2  -3  -3    8.07    0.94
   2   3  -3    7.37    1.02
  -2  -3   3    6.48    0.94
  -2  -3   3    6.92    0.92
  -2   3   3    7.76    1.17
   2  -3  -2   47.40    1.26
   2  -3  -2   49.85    1.37
   2   3  -2   48.26    1.41
   2  -3  -2   48.83    1.79
  -2  -3   2   47.20    1.37
  -2  -3   2   46.32    1.53
   2   3  -1   39.32    1.43
   2  -3  -1   41.24    1.40
   2   3  -1   40.09    1.32
  -2  -3   1   33.00    1.23
  -2  -3   1   39.58    1.57
   2   3   0    5.99    0.87
   2   3   0    4.70    1.19
   2  -3   0    5.25    1.17
   2   3   0    6.54    1.17
  -2   3   0    6.22    0.96
  -2  -3   0    4.61    1.24
  -2  -3   0    4.10    1.37
   2   3   1   59.38    1.49
   2  -3   1   58.98    1.62
   2   3   1   57.96    1.55
  -2  -3  -1   55.72    1.41
  -2   3  -1   60.99    1.71
   2   3   2   41.61    1.18
   2   3   2   44.17    1.50
   2  -3   2   43.68    1.53
   2  -3   2   44.40    1.23
  -2  -3  -2   45.12    1.38
   2   3   3   24.94    1.03
   2   3   3   26.19    1.35
   2  -3   3   24.36    0.97
   2  -3   3   27.10    1.21
  -2  -3  -3   25.50    1.17
   2  -3   4   35.30    1.22
   2   3   4   36.07    1.36
   2  -3   4   35.81    1.19
   2  -3   4   35.14    1.42
   2  -3   4   36.09    1.22
   2   3   4   34.82    1.43
  -2  -3  -4   35.98    1.26
   2  -3   5   92.24    1.82
   2   3   5   86.33    2.25
   2   3   5   99.60    2.23
   2  -3   5   93.83    2.02
   2  -3   5   94.28    1.86
  -2  -3  -5   95.11    2.00
   2  -3   6   22.92    0.99
   2   3   6   22.84    1.09
   2  -3   6   21.81    1.11
   2  -3   6   23.06    1.06
   2   3   6   24.08    1.47
  -2  -3  -6   21.57    1.02
   2  -3   7    2.40    0.75
   2   3   7    3.56    0.87
   2  -3   7    3.84    1.13
   2  -3   7    3.89    0.82
  -2  -3  -7    2.94    0.71
   2  -3   8    1.89    0.77
   2   3   8    2.83    0.79
   2  -3   8    0.69    0.97
   2   3   8    1.84    0.74
  -2  -3  -8    1.47    0.65
   2   3   9   40.40    1.76
   2   3   9   40.78    1.79
   2  -3   9   43.80    1.92
   2   3  10   -0.06    0.81
   2  -3  10    0.66    0.91
   2   3  10    1.29    1.37
   2  -3  11    0.42    1.03
   2   3  11    1.42    1.21
  -2  -4  13    0.41    0.97
  -2   4  13   -0.75    1.16
  -2  -4  12    3.40    0.95
  -2  -4  12    3.20    0.72
  -2   4  12    5.37    1.39
  -2  -4  11    0.84    0.93
  -2  -4  11    0.57    0.77
  -2   4  11    0.93    1.21
  -2   4  11    0.63    0.63
  -2  -4  10    4.28    0.77
  -2  -4  10    4.10    0.92
  -2  -4  10    4.26    0.84
  -2   4  10    4.34    1.21
  -2   4  10    3.79    0.75
   2   4  -9   -0.31    0.74
   2   4  -9    0.29    0.82
  -2  -4   9    0.83    0.70
  -2   4   9    0.05    0.83
  -2  -4   9    0.28    0.77
  -2   4   9    0.12    0.57
   2   4  -8   57.19    1.53
   2   4  -8   57.66    1.64
  -2  -4   8   59.68    1.57
  -2   4   8   61.65    1.84
  -2  -4   8   58.98    1.56
  -2   4   8   61.95    1.63
   2   4  -7    2.36    0.79
  -2  -4   7    1.73    0.76
  -2  -4   7    2.67    0.73
  -2   4   7    2.24    1.08
  -2   4   7    2.09    0.63
   2   4  -6    5.26    0.79
   2  -4  -6    4.48    0.92
  -2  -4   6    5.62    0.78
  -2   4   6    5.20    0.97
  -2  -4   6    5.26    0.60
  -2   4   6    5.18    0.63
   2   4  -5    0.30    0.76
   2  -4  -5   -0.85    1.11
  -2  -4   5   -0.52    0.71
  -2   4   5   -0.25    0.90
  -2  -4   5   -0.57    0.77
  -2   4   5   -0.33    0.55
  -2  -4   5   -0.12    0.78
   2   4  -4  166.86    2.29
   2   4  -4  168.41    2.26
   2  -4  -4  153.44    2.59
   2  -4  -4  167.69    2.52
   2   4  -4  168.41    2.26
  -2  -4   4  168.04    2.25
  -2   4   4  170.62    2.51
  -2  -4   4  162.64    2.20
  -2  -4   4  165.99    2.30
   2  -4  -3   11.13    0.78
   2   4  -3   10.48    1.12
   2  -4  -3   10.61    0.85
   2   4  -3   11.30    0.93
   2   4  -3   10.83    0.93
   2  -4  -3   10.96    1.26
  -2  -4   3   11.03    0.97
  -2   4   3   10.72    0.99
   2  -4  -2    2.24    0.87
   2  -4  -2    2.37    0.83
   2   4  -2    2.60    0.94
   2   4  -2    2.15    0.99
   2  -4  -2    2.32    1.30
  -2  -4   2    1.94    0.94
   2  -4  -1    6.24    0.92
   2   4  -1    5.77    1.02
   2  -4  -1    6.64    0.96
   2   4  -1    6.84    0.96
   2  -4  -1    6.27    1.34
   2  -4  -1    8.57    1.12
  -2  -4   1    5.41    1.21
  -2  -4   1    6.29    1.12
   2  -4   0  557.57    4.96
   2   4   0  561.47    5.02
   2  -4   0  544.01    5.13
   2  -4   0  553.00    5.48
  -2  -4   0  564.99    5.00
  -2  -4   0  561.79    5.41
   2  -4   1   16.15    1.19
   2   4   1   16.03    1.06
   2  -4   1   16.78    0.94
   2  -4   1   16.40    1.21
   2   4   1   16.73    1.30
  -2   4  -1   16.37    1.24
  -2  -4  -1   16.21    1.29
  -2  -4  -1   16.73    1.17
   2  -4   2   -0.96    0.98
   2   4   2    0.28    0.89
   2   4   2    1.07    0.86
   2  -4   2    0.17    0.92
   2  -4   2    0.02    0.66
  -2  -4  -2   -0.39    0.96
   2   4   3    0.04    0.62
   2  -4   3    0.16    0.69
   2   4   3    0.11    0.96
  -2  -4  -3    0.31    0.69
   2  -4   4   65.83    1.75
   2   4   4   60.73    1.71
   2  -4   4   57.30    1.71
   2  -4   4   61.17    1.80
   2  -4   4   64.13    1.72
   2   4   4   67.98    2.08
  -2  -4  -4   62.18    1.79
   2  -4   5    1.86    0.73
   2   4   5    2.09    0.70
   2  -4   5    2.54    0.61
   2  -4   5    2.18    0.91
   2  -4   5    1.68    0.75
   2   4   5    2.31    1.07
  -2  -4  -5    2.35    0.71
   2  -4   6   21.88    0.88
   2   4   6   21.38    1.00
   2  -4   6   23.00    0.95
   2  -4   6   23.72    1.22
   2  -4   6   20.47    0.84
   2   4   6   24.88    1.47
  -2  -4  -6   22.82    1.12
   2  -4   7   -0.20    0.81
   2   4   7   -0.47    0.66
   2  -4   7   -0.26    1.01
   2   4   7    0.61    1.33
   2  -4   7   -0.25    0.50
  -2  -4  -7   -0.21    0.61
   2   4   8   16.28    1.13
   2  -4   8   16.51    1.34
  -2  -4  -8   12.81    0.88
   2   4   9   -0.01    0.72
   2  -4   9   -0.92    1.10
   2   4  10   11.07    1.01
   2  -4  10   11.91    1.22
   2  -4  11    1.74    0.81
   2   4  11   -0.31    1.15
   2   4  11    0.08    1.26
  -2  -5  12   -0.94    0.97
  -2   5  12   -0.83    1.34
  -2  -5  11    1.08    1.03
  -2  -5  11    0.12    0.66
  -2   5  11   -0.19    1.27
   2   5 -10    2.35    0.94
  -2  -5  10    0.61    1.01
  -2  -5  10    0.61    1.01
  -2   5  10    0.61    1.15
  -2  -5  10    1.12    0.70
  -2   5  10    0.69    0.64
   2   5  -9   52.20    2.29
  -2  -5   9   50.58    2.17
  -2  -5   9   49.41    2.12
  -2   5   9   54.25    2.59
  -2   5   9   52.67    2.26
   2   5  -8    0.66    0.82
  -2  -5   8    0.51    0.76
  -2  -5   8   -0.08    0.55
  -2   5   8    0.22    1.09
  -2   5   8    0.10    0.58
   2   5  -7   27.98    1.17
  -2  -5   7   27.28    1.06
  -2  -5   7   28.64    1.07
  -2   5   7   28.10    1.38
  -2   5   7   23.98    0.99
  -2  -5   7   27.69    1.18
   2   5  -6    0.23    0.71
   2  -5  -6    0.22    0.89
  -2  -5   6    0.39    0.73
  -2   5   6   -0.28    0.97
  -2  -5   6   -0.07    0.55
  -2   5   6    0.18    0.53
  -2  -5   6    0.53    0.74
   2   5  -5  352.71    5.11
   2   5  -5  334.77    6.73
   2  -5  -5  335.88    7.40
  -2  -5   5  350.91    5.00
  -2  -5   5  339.04    6.79
  -2   5   5  354.61    5.27
  -2   5   5  323.28    7.32
  -2  -5   5  354.18    5.07
   2   5  -4   11.16    0.93
   2  -5  -4    9.79    0.77
   2  -5  -4   10.40    0.68
   2   5  -4   11.49    0.88
   2   5  -4   10.71    0.90
   2  -5  -4   11.36    1.18
  -2  -5   4   10.82    0.89
  -2  -5   4   10.55    0.89
  -2   5   4   11.10    1.05
  -2  -5   4   10.46    0.87
   2  -5  -3   36.15    1.05
   2  -5  -3   33.06    1.06
   2   5  -3   34.75    1.05
   2   5  -3   36.24    1.22
   2  -5  -3   35.57    1.56
  -2   5   3   36.96    1.46
   2  -5  -2    3.04    0.76
   2  -5  -2    3.41    0.83
   2   5  -2    2.75    0.97
   2  -5  -2    2.20    1.01
   2   5  -2    2.85    0.78
  -2  -5   2    2.27    0.86
  -2  -5   2    2.18    1.01
  -2  -5   2    2.27    0.86
   2  -5  -1   51.48    1.31
   2   5  -1   50.15    1.29
   2  -5  -1   50.31    1.14
   2  -5  -1   48.57    1.36
   2   5  -1   50.52    1.35
   2  -5  -1   51.87    1.48
  -2  -5   1   51.58    1.51
  -2  -5   1   51.81    1.26
   2  -5   0   11.52    1.02
   2   5   0   11.16    0.87
   2   5   0   12.32    1.10
   2  -5   0   12.82    1.14
   2  -5   0   11.85    0.85
  -2  -5   0   10.13    1.05
  -2  -5   0   11.38    1.04
   2  -5   1  319.63    3.31
   2   5   1  325.88    3.48
   2  -5   1  329.22    3.91
   2  -5   1  316.44    3.48
   2   5   1  318.64    4.42
  -2   5  -1  330.89    3.47
  -2  -5  -1  308.04    4.15
  -2  -5  -1  327.63    3.47
   2  -5   2    0.26    0.78
   2   5   2   -0.28    0.79
   2   5   2    0.06    0.96
   2  -5   2    0.13    0.96
   2  -5   2   -0.01    0.77
  -2  -5  -2   -0.19    0.99
  -2  -5  -2   -0.10    0.67
   2   5   3   24.06    1.10
   2  -5   3   23.98    0.98
   2   5   3   24.19    1.31
  -2  -5  -3   23.02    1.13
   2   5   4    5.56    0.73
   2  -5   4    5.19    0.74
   2   5   4    5.65    0.96
  -2  -5  -4    6.87    0.84
   2  -5   5  145.98    3.67
   2   5   5  142.33    4.08
   2  -5   5  149.22    3.86
   2  -5   5  118.74    2.99
  -2  -5  -5  144.44    4.13
   2  -5   6    1.05    0.76
   2   5   6    1.00    0.78
   2   5   6    0.67    1.31
   2  -5   6    0.70    1.01
   2  -5   6    0.43    0.77
  -2  -5  -6    0.77    0.77
   2   5   7    4.89    0.77
   2  -5   7   10.57    1.19
   2  -5   7    5.87    0.85
   2   5   7    5.68    1.26
  -2  -5  -7    5.00    0.69
   2   5   8   -0.11    0.81
   2  -5   8    0.09    1.01
   2   5   8   -0.37    1.19
  -2  -5  -8   -0.42    0.66
   2   5   9   63.47    3.05
   2  -5   9   79.67    3.76
   2  -5  10    0.43    1.07
  -2  -6  12    6.16    0.90
  -2   6  12    6.87    1.31
  -2  -6  11    1.28    0.93
  -2  -6  11    1.28    0.93
  -2   6  11   -0.43    1.33
  -2  -6  10    2.69    0.53
  -2   6  10    3.16    1.18
   2   6  -9    5.00    0.93
  -2  -6   9    4.10    0.65
  -2   6   9    4.40    1.23
  -2   6   9    4.65    0.71
   2   6  -8   33.36    1.37
   2   6  -8   27.81    1.25
  -2  -6   8   32.80    1.27
  -2   6   8   32.39    1.58
  -2  -6   8   34.06    1.29
  -2   6   8   28.70    1.17
   2   6  -7   17.49    1.01
   2   6  -7   16.03    1.04
   2  -6  -7   15.58    1.11
  -2  -6   7   17.95    0.96
  -2  -6   7   17.48    0.92
  -2   6   7   18.95    1.25
  -2   6   7   16.20    0.82
  -2  -6   7   16.80    0.97
   2   6  -6   32.04    1.30
   2   6  -6   29.85    1.29
   2  -6  -6   30.13    1.37
  -2  -6   6   31.63    1.25
  -2  -6   6   32.33    1.24
  -2   6   6   31.97    1.44
  -2   6   6   27.08    1.13
  -2  -6   6   32.31    1.25
   2   6  -5   11.96    0.91
   2   6  -5   12.08    0.86
   2  -6  -5   10.36    1.04
   2  -6  -5   11.19    1.11
  -2   6   5   11.25    1.00
  -2  -6   5   11.19    0.71
  -2  -6   5   11.27    0.90
  -2   6   5    9.64    0.87
  -2  -6   5   12.10    0.91
   2   6  -4  152.27    3.50
   2  -6  -4  155.41    3.61
   2   6  -4  161.70    3.49
   2   6  -4  163.72    3.57
   2  -6  -4  163.23    3.77
  -2   6   4  167.13    3.75
   2  -6  -3    8.10    0.71
   2  -6  -3    8.17    0.82
   2   6  -3    8.52    0.72
   2  -6  -3    8.48    1.04
   2   6  -3    8.72    0.90
  -2   6   3    7.60    0.98
  -2  -6   3    8.60    0.87
   2  -6  -2   13.19    0.76
   2   6  -2   13.95    0.97
   2  -6  -2   15.16    1.11
   2  -6  -2   13.00    0.88
   2   6  -2   15.18    0.96
   2   6  -2   15.18    0.96
   2   6  -2   14.86    0.92
  -2  -6   2   15.18    1.06
  -2  -6   2   16.69    1.14
   2  -6  -1    0.15    0.79
   2   6  -1    0.00    0.82
   2   6  -1   -0.37    0.67
   2  -6  -1   -0.06    0.72
   2  -6  -1    0.42    0.55
  -2  -6   1   -0.10    0.88
  -2  -6   1   -0.23    0.81
   2  -6   0  251.45    4.91
   2   6   0  269.13    5.25
   2   6   0  276.30    5.48
   2  -6   0  248.23    6.08
   2  -6   0  265.11    5.27
  -2  -6   0  244.14    4.92
  -2  -6   0  254.98    5.23
   2  -6   1    6.06    0.84
   2   6   1    6.71    0.83
   2   6   1    6.37    0.96
   2  -6   1    6.74    0.97
   2  -6   1    6.48    0.73
  -2  -6  -1    6.45    0.93
  -2  -6  -1    6.11    0.83
   2  -6   2    7.98    0.86
   2   6   2    7.11    0.80
   2   6   2    8.41    1.15
   2  -6   2    7.63    0.95
   2  -6   2    7.54    0.66
  -2  -6  -2    8.06    1.00
  -2  -6  -2    7.36    0.82
   2  -6   3   18.68    0.90
   2   6   3   18.84    0.97
   2   6   3   18.32    1.17
   2  -6   3   18.97    1.18
   2  -6   3   17.87    0.97
  -2  -6  -3   17.52    0.88
   2  -6   4  134.30    3.39
   2   6   4  135.65    3.71
  -2  -6  -4  129.22    3.39
   2  -6   5    0.67    0.71
   2   6   5    0.44    0.76
   2   6   5    0.54    1.10
   2  -6   5    0.37    0.96
   2  -6   5    0.58    0.69
  -2  -6  -5    0.26    0.67
   2  -6   6    7.57    0.69
   2   6   6    8.15    0.87
   2   6   6    9.64    1.30
   2  -6   6    8.34    0.89
   2  -6   6    7.81    0.82
  -2  -6  -6    8.47    0.85
   2   6   7    2.17    0.71
   2   6   7    3.53    1.25
   2  -6   7    2.39    1.14
  -2  -6  -7    2.16    0.73
   2   6   8    1.91    0.70
   2  -6   8    3.11    1.19
   2   6   8    1.15    1.22
   2   6   9    6.10    0.71
   2  -6   9    8.09    1.22
   2   6   9    6.92    1.31
   2  -6  10   12.76    1.41
  -2  -7  11   -0.08    0.97
  -2   7  11    0.97    1.26
   2   7 -10    4.58    1.07
   2   7 -10    3.70    0.99
  -2   7  10    5.10    1.25
   2   7  -9   52.11    2.78
   2   7  -9   51.03    2.76
  -2   7   9   50.73    2.94
  -2  -7   9   45.65    2.54
   2   7  -8    6.09    0.91
   2   7  -8    6.69    0.79
  -2   7   8    6.00    1.23
  -2  -7   8    5.59    0.71
  -2   7   8    5.38    0.67
   2   7  -7    3.28    0.90
   2   7  -7    3.90    0.94
   2  -7  -7    4.04    1.06
  -2  -7   7    2.64    0.75
  -2  -7   7    3.22    0.69
  -2   7   7    3.29    1.11
  -2   7   7    2.80    0.56
  -2  -7   7    2.75    0.61
   2   7  -6    3.80    0.90
   2  -7  -6    3.93    0.97
   2   7  -6    3.60    0.85
  -2  -7   6    4.10    0.77
  -2   7   6    5.04    1.15
  -2   7   6    3.39    0.60
  -2  -7   6    4.16    0.78
   2   7  -5   53.95    1.76
   2   7  -5   52.65    1.75
   2  -7  -5   46.28    1.56
   2   7  -5   51.15    1.58
   2  -7  -5   50.42    1.82
  -2   7   5   49.94    1.81
  -2  -7   5   51.23    1.63
   2  -7  -4    8.90    0.65
   2  -7  -4    9.37    0.78
   2   7  -4    9.56    0.75
   2   7  -4    9.31    0.89
   2  -7  -4    8.38    0.95
  -2   7   4    9.58    1.11
   2  -7  -3    9.02    0.71
   2   7  -3    9.45    0.84
   2   7  -3    9.77    0.78
   2  -7  -3    8.37    0.96
  -2  -7   3    9.97    0.82
  -2  -7   3   10.05    0.89
   2   7  -2    1.25    0.91
   2  -7  -2    0.14    0.69
   2  -7  -2   -0.18    0.96
   2   7  -2    0.34    0.64
   2   7  -2    0.91    0.83
  -2  -7   2    0.72    0.91
  -2  -7   2    0.56    0.79
   2  -7  -1  149.04    3.35
   2   7  -1  141.07    3.42
   2   7  -1  146.21    3.20
   2   7  -1  138.37    3.09
  -2  -7   1  140.91    3.14
  -2  -7   1  142.19    3.32
   2  -7   0    7.16    0.74
   2   7   0    8.05    0.85
   2   7   0    8.75    0.98
   2  -7   0    8.31    0.95
   2  -7   0    7.15    0.67
  -2  -7   0    7.39    0.97
  -2  -7   0    8.03    0.86
   2  -7   1   90.24    2.17
   2   7   1   84.71    2.09
   2   7   1   83.44    2.16
   2  -7   1   84.39    2.18
   2  -7   1   94.89    2.28
  -2  -7  -1   90.31    2.36
  -2  -7  -1   89.82    2.19
   2  -7   2    0.22    0.75
   2   7   2    0.45    0.72
   2   7   2    0.35    0.81
   2  -7   2    0.72    0.85
   2  -7   2    1.03    0.72
  -2  -7  -2   -0.14    0.84
  -2  -7  -2    0.05    0.80
   2  -7   3   11.35    0.88
   2   7   3   11.21    0.87
   2   7   3   10.65    1.16
   2  -7   3   10.51    0.87
   2  -7   3   11.13    0.81
  -2  -7  -3   10.68    1.10
  -2  -7  -3    9.95    0.80
   2   7   4   14.53    0.87
   2  -7   4   15.94    0.92
   2   7   4   15.92    1.25
  -2  -7  -4   15.61    0.92
   2   7   5  215.99    5.87
   2  -7   5  221.46    5.92
   2   7   5  187.01    5.15
  -2  -7  -5  186.63    5.68
   2   7   6   37.70    1.92
   2   7   6   40.45    1.98
   2  -7   6   47.21    2.22
  -2  -7  -6   44.48    1.99
   2   7   7    2.03    0.62
   2   7   7    2.75    1.31
   2  -7   7    2.40    0.79
  -2  -7  -7    3.00    0.71
   2   7   8    0.50    0.68
   2  -7   8   -0.93    1.13
   2   7   8    1.08    0.99
   2  -7   9   32.43    1.91
   2  -7   9   32.24    1.90
   2   7   9   33.96    2.21
   2  -7  10    0.86    1.14
   2   7  10    0.85    1.37
  -2  -8  11   -0.96    1.05
  -2   8  11   -1.09    1.19
   2   8 -10    0.39    0.84
   2   8 -10   -0.55    0.99
  -2   8  10   -0.30    1.11
   2   8  -9    0.98    0.92
   2   8  -9   -0.11    0.95
  -2   8   9   -0.51    1.23
   2   8  -8    4.08    0.95
   2   8  -8    4.71    0.94
  -2   8   8    5.07    1.19
   2   8  -7    0.03    0.64
   2   8  -7   -0.10    0.84
  -2   8   7    0.50    1.08
  -2   8   7   -0.17    0.52
   2   8  -6    1.04    0.95
   2   8  -6    2.00    0.81
   2  -8  -6    1.28    0.60
   2  -8  -6    1.05    1.04
  -2  -8   6    1.56    0.81
  -2   8   6    1.07    1.14
  -2  -8   6    1.67    0.74
   2  -8  -5    3.22    0.55
   2  -8  -5    3.37    0.64
   2   8  -5    3.54    0.59
   2   8  -5    4.12    0.88
   2  -8  -5    4.00    0.97
  -2   8   5    5.05    1.13
   2  -8  -4   33.20    1.39
   2  -8  -4   33.07    1.16
   2  -8  -4   33.46    1.35
   2   8  -4   34.81    1.20
   2   8  -4   35.90    1.27
  -2  -8   4   33.99    1.25
  -2  -8   4   35.66    1.35
   2   8  -3    0.94    0.91
   2  -8  -3    0.38    0.60
   2   8  -3    0.44    0.69
   2   8  -3    0.72    0.66
   2  -8  -3    0.59    0.98
  -2  -8   3   -0.22    0.68
  -2  -8   3    0.72    0.76
   2  -8  -2   -0.20    0.58
   2   8  -2   -0.20    0.76
   2   8  -2    0.17    0.58
   2   8  -2    0.14    0.83
  -2  -8   2    0.21    0.69
  -2  -8   2    0.06    0.93
  -2   8   2   -0.41    0.66
   2  -8  -1    3.95    0.65
   2   8  -1    5.21    0.75
   2   8  -1    3.81    0.71
   2   8  -1    4.12    0.72
  -2  -8   1    4.33    0.74
  -2  -8   1    3.65    0.85
  -2   8   1    3.97    0.77
   2  -8   0  155.35    3.91
   2   8   0  146.42    3.99
   2  -8   0  152.08    3.93
   2   8   0  141.01    3.58
  -2  -8   0  150.30    3.88
  -2  -8   0  159.44    4.08
   2  -8   1    7.09    0.76
   2   8   1    7.09    0.86
   2   8   1    6.66    1.09
   2  -8   1    6.48    0.92
   2  -8   1    5.99    0.70
  -2  -8  -1    6.56    0.99
  -2  -8  -1    6.52    0.77
   2  -8   2   29.89    1.03
   2   8   2   36.45    1.25
   2  -8   2   35.31    1.17
   2  -8   2   35.24    1.26
  -2   8  -2   34.84    1.15
  -2   8  -2   35.58    1.19
  -2  -8  -2   31.33    1.20
  -2  -8  -2   36.25    1.23
   2  -8   3   12.84    0.85
   2   8   3   12.16    0.86
   2   8   3   13.48    1.18
   2  -8   3   11.81    0.88
   2  -8   3   13.59    0.80
  -2  -8  -3   12.58    1.10
  -2  -8  -3   11.99    0.80
   2  -8   4   20.75    1.10
   2   8   4   17.08    0.90
   2   8   4   20.11    1.33
   2  -8   4   20.41    1.26
   2  -8   4   19.39    0.98
  -2  -8  -4   18.68    0.98
   2   8   5   20.71    1.16
   2  -8   5   25.07    1.28
   2   8   5   25.14    1.60
  -2  -8  -5   23.40    1.33
   2   8   6   -0.15    0.74
   2   8   6   -0.67    1.10
  -2  -8  -6    0.21    0.61
   2   8   7    0.03    0.68
   2  -8   7   -0.66    1.07
   2   8   7    0.01    1.26
   2  -8   8    0.85    1.12
   2   8   8    0.08    1.41
   2  -8   9    2.21    1.17
   2   8   9    1.97    1.05
   2   9 -10    4.78    0.89
   2   9 -10    4.92    1.12
  -2   9  10    3.34    0.98
   2   9  -9   34.90    1.64
   2   9  -9   32.07    1.54
  -2   9   9   34.84    1.96
   2   9  -8    5.18    0.82
   2   9  -8    4.11    0.75
  -2   9   8    4.26    1.16
   2   9  -7    1.30    0.68
   2   9  -7    0.65    0.92
  -2   9   7    1.69    1.02
   2   9  -6   19.66    1.16
   2   9  -6   19.66    1.16
   2  -9  -6   18.26    1.02
   2  -9  -6   17.55    1.12
   2  -9  -6   17.55    1.12
   2   9  -6   22.55    1.33
  -2   9   6   20.76    1.50
   2  -9  -5   65.97    2.16
   2  -9  -5   71.41    2.24
   2   9  -5   71.21    2.12
   2   9  -5   76.39    2.31
  -2  -9   5   66.89    2.11
   2   9  -4    1.23    0.67
   2  -9  -4    2.30    0.92
   2  -9  -4    2.00    0.51
   2  -9  -4    2.28    0.77
   2   9  -4    1.91    0.61
   2   9  -4    1.81    0.79
  -2  -9   4    2.31    0.75
  -2  -9   4    2.09    0.85
   2   9  -3    6.00    0.93
   2  -9  -3    6.04    0.66
   2   9  -3    6.06    0.66
   2   9  -3    5.98    0.84
  -2  -9   3    6.77    0.82
  -2  -9   3    5.59    0.86
   2  -9  -2   10.21    0.73
   2   9  -2   10.87    0.93
   2   9  -2   10.56    0.71
   2   9  -2   10.26    0.80
  -2  -9   2   10.96    0.84
  -2  -9   2   10.04    0.91
  -2   9   2   10.67    0.86
   2  -9  -1   69.05    1.72
   2   9  -1   67.46    2.31
   2   9  -1   71.72    1.76
   2   9  -1   68.70    1.86
  -2  -9   1   70.80    1.84
  -2  -9   1   67.14    1.92
  -2   9   1   67.32    1.74
   2  -9   0    7.94    0.71
   2   9   0    8.90    0.90
   2  -9   0    8.71    0.98
   2   9   0    7.74    0.79
  -2  -9   0    8.96    0.77
  -2  -9   0    7.62    0.96
   2  -9   1  125.91    3.89
   2   9   1  135.16    3.19
   2  -9   1  126.84    3.08
   2  -9   1  127.11    4.00
   2   9   1  136.80    3.24
   2  -9   1  132.87    3.00
  -2  -9  -1  136.12    3.04
  -2  -9  -1  130.60    2.89
   2  -9   2   24.91    1.25
   2   9   2   26.17    1.25
   2  -9   2   25.79    1.15
   2  -9   2   26.93    1.43
   2   9   2   25.67    1.40
  -2   9  -2   23.50    1.16
  -2  -9  -2   23.66    1.29
  -2  -9  -2   24.11    1.12
   2   9   3    0.49    0.66
   2   9   3    1.58    1.03
   2  -9   3    0.80    1.07
   2  -9   3   -0.04    0.55
  -2  -9  -3   -0.54    0.92
  -2  -9  -3    0.18    0.56
   2   9   4    1.78    0.84
   2   9   4    1.27    1.08
   2  -9   4    2.02    1.17
   2  -9   4    1.52    0.67
  -2  -9  -4    1.62    0.77
   2   9   5   29.52    1.80
   2   9   5   35.76    2.19
   2  -9   5   27.79    1.66
   2  -9   5   35.98    1.96
  -2  -9  -5   33.96    1.94
   2   9   6    1.07    0.64
   2   9   6    1.54    0.88
   2   9   7    1.70    0.59
   2  -9   7    1.99    0.90
   2   9   7    2.46    1.20
   2  -9   8   18.36    1.65
   2   9   8   18.23    1.52
   2  10  -9    1.81    1.03
   2  10  -9    2.52    1.08
  -2  10   9    1.32    1.06
   2  10  -8   18.61    1.33
   2  10  -8   17.07    1.24
  -2  10   8   15.31    1.39
   2  10  -7    0.28    0.74
   2  10  -7   -0.62    0.88
  -2  10   7    0.25    1.14
   2 -10  -6    0.25    0.61
   2  10  -6   -0.08    0.86
  -2  10   6    0.05    1.14
  -2 -10   6    0.05    0.84
   2 -10  -5    8.24    0.70
   2 -10  -5    8.66    0.76
   2  10  -5    9.71    0.76
   2  10  -5    8.53    0.79
  -2 -10   5   10.02    1.02
   2  10  -4   49.57    2.20
   2 -10  -4   46.06    2.04
   2 -10  -4   53.15    2.40
   2  10  -4   48.97    2.10
   2  10  -4   52.23    2.28
  -2 -10   4   48.08    2.16
   2  10  -3    1.09    0.99
   2 -10  -3    1.16    0.60
   2  10  -3    0.98    0.57
   2  10  -3    1.45    0.78
  -2 -10   3    1.19    0.80
   2 -10  -2   -0.08    0.60
   2  10  -2    0.46    0.90
   2  10  -2   -0.05    0.61
   2  10  -2    0.14    0.77
  -2 -10   2    0.27    0.71
  -2 -10   2    0.65    0.81
  -2  10   2   -0.44    0.73
   2  10  -1   27.08    1.29
   2 -10  -1   22.13    1.00
   2  10  -1   25.22    1.12
   2  10  -1   23.90    1.14
  -2 -10   1   21.06    0.94
  -2 -10   1   26.19    1.34
   2  10   0  225.36    6.17
   2  10   0  218.93    5.89
   2 -10   0  207.30    5.62
   2  10   0  212.77    5.87
  -2 -10   0  212.57    5.87
  -2 -10   0  215.13    6.04
   2  10   1    1.33    0.89
   2 -10   1    1.58    0.76
   2 -10   1    2.19    0.96
   2  10   1    0.93    0.65
  -2 -10  -1    1.26    0.70
  -2 -10  -1    0.42    0.90
   2  10   2    7.20    0.93
   2 -10   2    6.06    0.71
   2 -10   2    6.90    1.09
   2  10   2    7.63    1.18
  -2  10  -2    6.12    0.93
  -2 -10  -2    7.90    1.10
  -2 -10  -2    5.70    0.72
   2  10   3    3.11    0.78
   2  10   3    3.55    0.82
   2 -10   3    3.75    1.06
   2 -10   3    3.75    0.63
  -2 -10  -3    2.73    0.66
   2  10   4   34.69    2.00
   2  10   4   29.54    1.87
   2 -10   4   35.01    2.12
   2 -10   4   34.05    1.88
  -2 -10  -4   34.12    1.90
   2  10   5    7.74    0.95
   2 -10   5    7.78    1.25
   2  10   5    6.20    1.00
   2  10   6    6.27    0.73
   2  10   6    7.48    1.25
   2  10   7    4.31    1.23
   2  10   7    4.50    1.32
   2 -10   8    8.50    0.98
   2  10   8    6.64    1.35
   2  11  -9   50.87    1.79
   2  11  -9   50.36    1.83
  -2  11   9   48.93    2.16
   2  11  -8    4.91    1.06
   2  11  -8    4.05    0.73
  -2  11   8    2.65    1.29
   2  11  -7    0.34    0.92
   2  11  -7    1.13    0.76
  -2  11   7    0.06    1.10
   2  11  -6    0.54    0.77
   2  11  -5   36.27    1.68
   2 -11  -5   33.86    1.58
   2  11  -5   30.58    1.55
   2  11  -4   12.49    1.20
   2 -11  -4   10.56    0.86
   2 -11  -4   13.00    1.15
   2  11  -4   10.95    1.03
  -2 -11   4   10.35    1.09
   2  11  -3   30.09    1.52
   2 -11  -3   26.75    1.25
   2 -11  -3   27.18    1.51
   2  11  -3   27.94    1.31
   2  11  -3   24.59    1.28
  -2 -11   3   26.16    1.41
   2  11  -2    1.43    0.96
   2 -11  -2    2.14    0.57
   2  11  -2    1.67    0.60
   2  11  -2    1.43    0.85
  -2 -11   2    1.53    0.85
   2  11  -1   66.39    2.69
   2 -11  -1   56.55    2.26
   2 -11  -1   60.28    2.46
   2  11  -1   60.69    2.40
   2  11  -1   54.92    2.33
  -2 -11   1   59.97    2.54
   2  11   0    1.91    0.70
   2 -11   0    3.43    0.64
   2 -11   0    4.78    1.05
   2  11   0    3.25    0.63
   2  11   0    3.52    0.85
   2  11   1   62.47    3.13
   2  11   1   59.24    2.64
   2 -11   1   72.53    2.93
  -2 -11  -1   69.43    2.68
   2  11   2    0.11    0.80
   2  11   2    0.26    1.11
   2 -11   2    1.07    0.93
   2 -11   2    0.06    0.50
   2  11   2    0.65    0.69
  -2 -11  -2    0.40    0.59
   2  11   3    0.65    0.81
   2 -11   3    1.01    1.05
   2  11   3    1.57    0.99
   2 -11   3    1.10    0.60
  -2 -11  -3    0.49    0.64
  -2 -11  -3    0.49    0.64
   2  11   4    1.53    0.77
   2 -11   4    2.10    1.14
   2  11   4    1.08    1.13
   2 -11   4    1.62    0.62
   2  11   5   68.97    3.11
   2 -11   5   78.71    3.26
   2  11   5   74.82    3.20
   2 -11   6    2.08    0.90
   2  11   6    3.97    1.20
   2  11   7    0.53    0.93
   2  12  -7   -0.26    0.83
   2  12  -6    0.31    0.77
   2  12  -5    0.28    1.01
   2  12  -5   -0.29    0.73
   2  12  -4   76.29    3.55
   2 -12  -4   69.12    3.41
   2  12  -4   67.16    3.23
   2  12  -3    0.37    0.94
   2 -12  -3   -0.12    0.86
   2  12  -3    0.51    0.74
   2  12  -2    0.81    0.88
   2 -12  -2    0.97    0.63
   2 -12  -2    1.05    0.84
   2 -12  -2    1.01    0.84
   2  12  -2    0.90    0.76
   2  12  -1   -0.67    0.86
   2 -12  -1   -0.03    0.87
   2  12  -1    0.30    0.57
   2  12  -1   -0.24    0.73
   2  12  -1   -0.24    0.73
   2  12   0   76.49    2.92
   2 -12   0   76.24    2.90
   2  12   0   65.53    2.41
   2  12   0   58.45    2.68
   2  12   1   -0.11    0.89
   2 -12   1    0.70    1.01
   2  12   1    0.02    0.65
   2  12   2    1.16    0.80
   2 -12   2    1.04    1.03
   2  12   2    0.91    0.61
   2  12   3   -0.16    0.78
   2 -12   3    0.47    1.09
   2  12   3    0.30    0.85
   2  12   3   -0.16    0.67
   2  12   4   38.78    1.92
   2 -12   4   49.42    2.49
   2  12   4   49.88    2.55
   2  12   5    0.03    0.81
   2 -12   5    0.08    0.80
   2  12   5    0.08    1.15
   2 -12   6    8.33    1.10
   2  12   6    5.78    0.92
   2  13  -6   -0.09    0.93
   2  13  -6    0.01    0.80
   2  13  -5   19.01    1.46
   2  13  -5   19.45    1.42
   2  13  -4    0.07    1.00
   2  13  -4    0.65    0.79
   2  13  -3    2.38    0.88
   2 -13  -3    2.87    0.87
   2  13  -3    1.84    0.61
   2  13  -2    5.77    0.82
   2 -13  -2    7.91    1.07
   2  13  -2    5.82    0.89
   2  13  -1    4.18    0.97
   2 -13  -1    4.26    0.97
   2  13  -1    3.32    0.79
   2  13   0    1.00    0.81
   2  13   0    1.05    0.81
   2 -13   0    1.81    1.02
   2  13   0    0.80    0.65
   2  13   1   13.80    1.15
   2 -13   1   15.92    1.39
   2  13   1   11.36    0.95
   2  13   2    0.44    0.80
   2 -13   2    0.26    1.04
   2  13   3    0.94    0.81
   2 -13   3    0.48    0.98
   2  13   4    0.41    0.86
   2 -13   4   -0.27    1.08
   2  13   4    0.61    1.10
   2  14  -3    1.67    0.96
   2  14  -3    1.94    0.78
   2  14  -2    0.02    0.95
   2 -14  -2    0.67    0.90
   2  14  -2    1.61    0.72
   2  14  -1    0.38    0.69
   2 -14  -1    1.26    0.90
   2 -14  -1    1.31    0.92
   2  14  -1    0.50    0.58
   2  14   0   93.87    2.82
   2 -14   0   97.20    2.96
   2  14   1    2.60    0.86
   2 -14   1    2.13    0.80
   2  14   2    0.98    0.73
   2 -14   2    1.19    0.76
  -3   0  13   16.58    1.44
  -3   0  12    0.06    0.59
  -3   0  12    0.28    0.89
  -3   0  11    4.48    0.65
  -3   0  11    4.95    0.74
  -3   0  11    4.48    1.07
  -3   0  10    0.49    0.54
  -3   0  10    0.12    0.72
  -3   0  10   -0.25    1.00
  -3   0  10   -0.67    0.66
   3   0  -9  351.12    6.68
  -3   0   9  345.51    6.71
  -3   0   9  371.28   10.33
  -3   0   9  354.47    9.78
  -3   0   9  344.72    6.45
   3   0  -8   -0.33    0.56
   3   0  -8    0.16    0.67
  -3   0   8   -0.29    0.80
  -3   0   8   -0.13    0.56
  -3   0   8   -0.58    0.59
   3   0  -7   13.18    0.80
   3   0  -7   14.75    0.89
  -3   0   7   14.03    1.01
  -3   0   7   14.01    0.80
  -3   0   7   13.22    0.80
   3   0  -6   -0.07    0.59
   3   0  -6    0.30    0.88
  -3   0   6   -0.16    0.78
  -3   0   6    0.00    0.63
  -3   0   6   -0.06    0.58
   3   0  -5  176.24    2.36
  -3   0   5  170.21    2.44
  -3   0   5  177.10    2.30
  -3   0   5  163.09    2.20
   3   0  -4    0.64    0.76
   3   0  -4    0.67    0.87
  -3   0   4    0.11    0.91
  -3   0   4   -0.18    0.87
   3   0  -3   49.27    1.78
   3   0  -3   47.16    2.14
  -3   0   3   52.31    1.75
   3   0  -2    0.05    1.04
  -3   0   2   -0.76    1.25
   3   0  -1    4.44    1.22
   3   0  -1    3.42    1.08
  -3   0   1    4.74    1.27
  -3   0   1    2.64    1.40
   3   0   0   -0.51    1.18
  -3   0   0    0.72    1.07
   3   0   1  441.78    4.17
  -3   0  -1  404.95    4.44
   3   0   2    0.56    0.86
   3   0   2   -0.47    0.94
  -3   0  -2   -0.63    0.99
   3   0   3   25.51    1.17
   3   0   3   25.91    1.06
  -3   0  -3   25.58    1.11
   3   0   4   -0.18    0.79
  -3   0  -4    0.10    0.81
  -3   0  -4    0.10    0.81
   3   0   5  148.94    2.84
  -3   0  -5  147.01    2.60
   3   0   6    0.11    0.96
  -3   0  -6    0.41    0.72
   3   0   7   17.16    1.14
  -3   0  -7   17.63    1.03
   3   0   8    0.19    0.63
   3   0   8    0.26    0.92
   3   0   9   85.92    3.98
   3   0  10   -0.45    0.93
  -3   1  13    1.72    0.99
  -3  -1  13    3.16    1.05
  -3  -1  12   -0.22    0.60
  -3   1  12    0.00    0.88
  -3  -1  12   -0.24    1.03
  -3  -1  11    3.80    0.68
  -3   1  11    3.99    0.70
  -3  -1  11    3.90    0.72
  -3   1  11    5.47    1.03
  -3  -1  11    4.93    1.05
   3   1 -10   25.04    1.23
  -3  -1  10   25.84    1.13
  -3   1  10   24.66    1.08
  -3  -1  10   26.46    1.24
  -3   1  10   25.98    1.33
  -3  -1  10   25.38    1.37
  -3   1  10   24.55    1.01
  -3   1  10   24.76    1.17
  -3  -1  10   25.32    1.14
   3   1  -9   74.96    1.84
   3   1  -9   75.55    1.90
  -3   1   9   70.12    1.71
  -3   1   9   75.73    1.88
  -3   1   9   75.32    2.06
  -3  -1   9   78.59    2.16
  -3  -1   9   77.17    1.83
  -3   1   9   72.92    1.78
  -3  -1   9   74.96    1.80
   3   1  -8  116.74    3.00
   3  -1  -8  120.47    3.11
   3   1  -8  121.08    3.14
  -3   1   8  113.87    3.03
  -3   1   8  123.97    3.33
  -3  -1   8  128.79    3.54
  -3  -1   8  110.58    2.91
  -3   1   8  113.45    2.92
  -3   1   8  122.19    3.17
  -3  -1   8  118.19    3.08
   3   1  -7   17.51    0.86
   3   1  -7   18.32    1.00
   3  -1  -7   17.53    0.88
  -3   1   7   17.22    0.84
  -3  -1   7   18.61    1.11
  -3   1   7   18.50    1.07
  -3  -1   7   18.17    0.87
  -3   1   7   16.93    0.86
  -3  -1   7   17.61    0.90
   3  -1  -6   20.57    0.90
   3   1  -6   19.38    0.98
   3   1  -6   20.37    1.14
   3  -1  -6   21.03    1.01
  -3   1   6   20.27    0.93
  -3  -1   6   20.18    1.08
  -3   1   6   20.62    1.09
  -3  -1   6   20.01    0.99
  -3   1   6   18.86    0.94
  -3  -1   6   19.37    0.97
   3   1  -5    1.13    0.62
   3  -1  -5    0.99    0.63
   3   1  -5    1.61    0.82
   3  -1  -5    1.15    0.79
  -3  -1   5    0.73    0.82
  -3  -1   5    0.97    0.87
  -3   1   5    1.30    0.85
  -3  -1   5    0.31    0.80
  -3   1   5    0.46    0.68
  -3   1   5    0.46    0.68
  -3  -1   5    0.23    0.86
  -3   1   5    0.18    0.77
   3   1  -4  252.78    2.74
   3  -1  -4  255.10    2.77
   3   1  -4  262.34    2.98
   3  -1  -4  265.07    2.87
   3  -1  -4  255.44    3.07
  -3   1   4  257.81    2.99
  -3  -1   4  263.33    2.88
  -3  -1   4  262.48    3.30
  -3   1   4  256.23    2.90
  -3  -1   4  261.59    3.01
   3   1  -3   18.95    0.96
   3  -1  -3   20.03    1.23
   3  -1  -3   19.47    1.19
   3   1  -3   19.38    1.29
  -3  -1   3   18.06    1.09
  -3   1   3   18.33    1.11
   3   1  -2    8.31    1.18
   3  -1  -2    7.90    1.11
  -3  -1   2    6.79    1.19
  -3   1   2    7.64    1.19
  -3   1   2    9.25    1.26
   3   1  -1    1.87    1.18
   3  -1  -1    1.54    1.18
   3  -1  -1   -0.37    1.23
  -3   1   1    1.31    1.09
  -3   1   1   -0.13    1.33
   3  -1   0  568.16    5.19
   3  -1   0  568.47    5.03
  -3  -1   0  573.78    5.10
   3   1   1    9.21    1.03
   3   1   1   10.82    1.19
   3  -1   1   10.69    0.98
  -3  -1  -1   10.40    1.15
  -3   1  -1   10.98    0.93
   3   1   2   61.88    1.57
   3   1   2   61.49    1.42
   3  -1   2   62.74    1.36
  -3  -1  -2   58.84    1.48
  -3   1  -2   61.07    1.60
   3   1   3   -0.02    0.81
   3  -1   3    0.04    0.84
   3  -1   3   -0.48    0.70
  -3   1  -3   -0.35    0.92
  -3  -1  -3    0.28    1.06
   3   1   4   79.78    2.14
   3  -1   4   75.65    2.04
   3  -1   4   82.25    2.10
  -3   1  -4   76.96    2.02
  -3  -1  -4   79.44    2.06
   3   1   5   -0.11    0.84
   3  -1   5   -0.17    0.88
  -3  -1  -5   -0.18    0.89
  -3   1  -5    0.09    0.80
   3   1   6   12.25    1.06
   3  -1   6   12.41    1.08
  -3  -1  -6   11.98    0.86
  -3   1  -6   11.36    0.89
   3  -1   7    5.37    0.82
   3   1   7    5.51    0.97
   3  -1   7    5.33    0.79
  -3  -1  -7    5.54    0.82
   3  -1   8    0.67    0.77
   3   1   8    1.99    0.95
   3  -1   8    2.34    0.94
  -3  -1  -8    1.35    0.65
   3   1   9    1.13    0.89
   3  -1   9    2.05    0.92
   3   1  10    1.99    0.91
   3  -1  10   -0.09    0.94
  -3  -2  13   12.08    0.96
  -3   2  13   13.77    1.49
  -3  -2  13   14.02    1.30
  -3  -2  12    2.67    0.83
  -3   2  12    3.23    1.13
  -3  -2  12    4.22    1.04
  -3  -2  11    2.65    0.61
  -3   2  11    6.95    1.02
  -3  -2  11    2.52    0.78
  -3   2  11    1.54    0.96
  -3   2  11    3.14    0.74
   3   2 -10    0.02    0.86
  -3   2  10   -2.27    0.52
  -3  -2  10    0.16    0.58
  -3   2  10   -0.58    0.92
  -3   2  10   -0.57    0.61
  -3   2  10   -0.16    0.52
   3   2  -9  113.01    3.34
   3   2  -9  116.77    3.51
  -3   2   9  112.28    3.30
  -3  -2   9  117.25    3.46
  -3   2   9  113.54    3.51
  -3   2   9  111.03    3.30
  -3   2   9  111.38    3.31
  -3  -2   9  111.94    3.33
   3   2  -8    2.49    0.68
   3   2  -8    2.50    0.85
  -3   2   8    3.46    0.87
  -3   2   8    1.74    0.98
  -3  -2   8    2.07    0.70
  -3   2   8    2.10    0.84
  -3  -2   8    2.93    0.77
  -3   2   8    2.54    0.75
  -3  -2   8    2.51    0.71
   3   2  -7    1.50    0.82
   3   2  -7    1.38    0.82
   3  -2  -7    1.49    0.72
  -3   2   7    1.85    0.83
  -3   2   7    1.59    0.71
  -3  -2   7    0.28    0.87
  -3  -2   7    0.61    0.73
  -3   2   7    1.09    0.59
  -3  -2   7    1.67    0.79
   3  -2  -6   17.91    0.99
   3   2  -6   17.23    0.89
   3   2  -6   17.99    0.94
   3  -2  -6   18.32    0.92
  -3   2   6   16.57    1.17
  -3   2   6   18.76    1.07
  -3  -2   6   17.75    1.06
  -3  -2   6   17.54    1.00
  -3   2   6   17.46    0.94
  -3  -2   6   16.62    0.98
   3   2  -5   65.96    1.45
   3  -2  -5   64.04    1.28
   3  -2  -5   67.33    1.36
   3   2  -5   66.13    1.41
   3  -2  -5   61.54    1.48
  -3   2   5   65.67    1.57
  -3  -2   5   65.66    1.56
  -3  -2   5   64.02    1.32
  -3   2   5   67.28    1.42
   3   2  -4    4.17    0.90
   3  -2  -4    2.57    1.05
   3  -2  -4    3.67    0.76
   3   2  -4    4.31    1.01
   3  -2  -4    3.64    0.79
  -3  -2   4    2.83    0.77
  -3  -2   4    2.57    1.00
  -3   2   4    3.06    0.96
  -3   2   4    2.58    0.85
   3   2  -3   97.95    1.70
   3  -2  -3  101.42    1.92
   3  -2  -3   93.51    1.68
   3   2  -3   99.08    1.71
   3  -2  -3  101.42    1.92
  -3  -2   3   98.54    1.78
  -3  -2   3   95.91    1.73
  -3   2   3   99.31    1.85
   3   2  -2   45.13    1.37
   3   2  -2   48.96    1.38
   3  -2  -2   43.71    1.35
   3   2  -2   45.92    1.36
   3  -2  -2   48.98    1.50
  -3  -2   2   38.68    1.27
  -3   2   2   46.58    1.35
  -3  -2   2   38.85    1.52
  -3   2   2   46.18    1.54
   3  -2  -1  137.74    2.17
   3   2  -1  138.45    2.17
  -3   2   1  140.37    2.04
  -3   2   1  141.85    2.26
   3  -2   0   -0.28    0.91
   3  -2   0    0.22    1.20
  -3  -2   0   -0.07    0.97
  -3   2   0   -0.02    0.78
  -3   2   0   -0.52    1.08
   3   2   1  369.33    4.16
   3   2   1  354.15    3.59
  -3   2  -1  356.69    3.55
   3   2   2   63.01    1.46
   3  -2   2   64.66    1.41
  -3  -2  -2   63.31    1.56
   3   2   3    9.49    0.90
   3  -2   3    8.43    0.95
   3  -2   3    8.64    0.76
  -3  -2  -3    9.27    0.95
  -3   2  -3    8.91    1.00
   3   2   4    0.17    0.76
   3  -2   4   -0.51    0.93
   3  -2   4   -0.04    0.70
  -3   2  -4    0.56    0.85
  -3  -2  -4    0.43    0.79
   3   2   5  140.32    3.64
   3  -2   5  136.15    3.54
   3  -2   5  137.26    3.47
  -3   2  -5  128.29    3.32
  -3  -2  -5  134.99    3.49
   3  -2   6    0.70    0.72
   3   2   6    0.18    0.86
   3  -2   6    0.57    0.94
   3  -2   6    0.83    0.72
   3  -2   6    0.33    0.60
  -3  -2  -6    0.35    0.66
   3  -2   7   -0.03    0.76
   3   2   7    0.59    0.90
   3  -2   7    0.39    0.72
  -3  -2  -7    0.03    0.77
   3   2   8    1.55    0.92
   3  -2   8    1.81    0.76
   3  -2   8    1.81    0.76
  -3  -2  -8    0.97    0.73
   3   2   9   13.91    1.04
   3   2   9   16.15    1.20
   3  -2   9   14.54    1.22
   3   2  10    0.01    0.88
   3  -2  10   -0.27    0.98
  -3  -3  13   -0.08    0.74
  -3  -3  13    0.30    0.74
  -3   3  13   -1.68    1.18
  -3  -3  13   -1.10    0.88
  -3  -3  12    2.03    0.84
  -3  -3  12    2.41    0.78
  -3   3  12    3.52    1.17
   3   3 -11   -0.34    0.92
  -3  -3  11   -0.56    0.87
  -3  -3  11   -0.65    0.68
  -3   3  11    0.23    1.21
  -3  -3  11    0.51    0.74
  -3   3  11   -0.55    0.68
   3   3 -10    0.50    0.78
   3   3 -10    0.41    0.92
  -3  -3  10    0.18    0.64
  -3   3  10    0.79    1.05
  -3  -3  10    0.67    0.72
  -3   3  10   -0.58    0.71
   3   3  -9    1.74    0.70
   3   3  -9    1.67    0.90
  -3  -3   9    1.97    0.70
  -3   3   9    2.53    1.09
  -3  -3   9    2.39    0.75
  -3   3   9    1.63    0.64
  -3  -3   9    2.22    0.62
   3   3  -8   31.08    1.17
   3   3  -8   31.88    1.25
  -3  -3   8   31.01    1.17
  -3   3   8   28.81    1.37
  -3  -3   8   31.23    1.19
  -3   3   8   30.82    1.15
  -3  -3   8   31.99    1.21
   3   3  -7    0.28    0.65
   3   3  -7    0.30    0.73
  -3  -3   7   -0.38    0.78
  -3   3   7   -0.34    0.93
  -3  -3   7   -1.10    0.85
  -3   3   7    0.00    0.57
  -3  -3   7    0.02    0.73
   3   3  -6    3.24    0.81
   3   3  -6    3.01    0.73
   3  -3  -6    2.37    1.01
   3  -3  -6    3.10    0.63
  -3  -3   6    2.92    0.73
  -3   3   6    2.61    0.87
  -3  -3   6    2.85    0.69
  -3   3   6    2.74    0.67
  -3  -3   6    3.36    0.84
   3   3  -5   13.52    0.86
   3  -3  -5   12.49    0.84
   3   3  -5   14.25    1.03
   3  -3  -5   12.66    0.99
   3  -3  -5   14.77    0.86
  -3  -3   5   13.50    0.96
  -3   3   5   13.31    1.03
  -3  -3   5   13.84    0.91
   3   3  -4  135.69    2.03
   3   3  -4  134.25    2.05
   3  -3  -4  133.43    1.99
   3  -3  -4  133.49    2.14
   3  -3  -4  134.17    1.98
   3   3  -4  134.25    2.05
  -3  -3   4  127.66    1.87
  -3   3   4  130.58    2.09
  -3   3   4  124.24    1.90
  -3  -3   4  127.63    1.92
   3   3  -3   40.33    1.18
   3   3  -3   40.68    1.37
   3  -3  -3   40.47    1.23
   3  -3  -3   41.13    1.38
  -3  -3   3   39.72    1.25
  -3  -3   3   39.05    1.38
  -3  -3   3   33.38    1.62
  -3   3   3   38.28    1.19
   3  -3  -2   88.67    1.74
   3   3  -2   88.81    1.58
   3  -3  -2   92.12    1.71
  -3   3   2   91.99    1.76
  -3  -3   2   92.27    1.72
  -3  -3   2   83.63    1.67
   3  -3  -1   62.33    1.54
   3   3  -1   58.25    1.40
   3   3  -1   60.04    1.48
  -3   3   1   60.55    1.47
  -3   3   1   61.23    1.44
   3   3   0   74.19    1.60
   3   3   0   79.59    1.72
   3  -3   0   78.78    1.72
  -3  -3   0   78.65    1.61
  -3   3   0   76.28    1.50
  -3   3   0   79.37    1.73
   3   3   1   93.29    1.72
   3   3   1   93.94    1.95
   3  -3   1   95.92    1.88
   3  -3   1   93.08    1.63
   3  -3   1   93.08    1.63
  -3   3  -1   97.40    1.69
  -3  -3  -1   90.81    1.79
   3   3   2    7.60    0.90
   3  -3   2    7.46    0.71
   3  -3   2    7.46    0.71
   3   3   2    8.01    1.22
  -3  -3  -2    7.80    0.91
   3   3   3   23.55    1.11
   3  -3   3   24.07    0.97
   3   3   3   25.43    1.38
  -3  -3  -3   24.71    1.15
  -3   3  -3   24.61    1.25
   3  -3   4   26.50    1.07
   3   3   4   27.95    1.14
   3  -3   4   24.97    1.02
   3  -3   4   27.59    1.24
   3  -3   4   27.26    1.00
   3  -3   4   27.26    1.00
   3   3   4   29.41    1.37
  -3  -3  -4   27.03    1.06
   3  -3   5    5.56    0.80
   3   3   5    5.70    0.91
   3  -3   5    6.02    0.68
   3  -3   5    5.72    0.78
   3  -3   5    6.43    0.86
   3   3   5    5.69    1.22
  -3  -3  -5    5.91    0.79
   3  -3   6    9.63    0.88
   3   3   6   10.56    1.00
   3  -3   6   10.37    1.12
   3   3   6   11.64    1.39
   3  -3   6   10.21    0.83
   3  -3   6    9.53    0.91
  -3  -3  -6    9.70    0.97
   3  -3   7    1.02    0.78
   3   3   7    0.53    0.79
   3  -3   7    0.63    1.10
   3   3   7    0.63    1.39
   3  -3   7    0.59    0.66
  -3  -3  -7    0.72    0.77
   3   3   8   16.99    1.36
   3  -3   8   16.94    1.41
   3  -3   8   16.94    1.41
   3   3   8   17.06    1.70
   3  -3   8   13.65    0.97
  -3  -3  -8   13.46    1.07
   3   3   9    0.26    0.85
   3  -3   9   -0.54    0.99
   3   3   9   -0.03    1.26
   3   3  10    4.12    0.89
   3  -3  10    3.87    0.85
  -3  -4  13   19.62    1.27
  -3   4  13   18.59    1.26
  -3  -4  12    0.16    0.91
  -3  -4  12   -0.20    0.66
  -3   4  12    1.48    1.26
   3   4 -11    0.78    0.72
  -3  -4  11    0.34    0.68
  -3   4  11    0.59    1.14
  -3  -4  11    0.78    0.70
  -3   4  11    0.46    0.62
   3   4 -10   -0.12    0.75
   3   4 -10    0.01    0.94
  -3  -4  10   -0.56    0.68
  -3   4  10    0.57    1.14
  -3  -4  10    0.11    0.66
  -3   4  10   -0.08    0.59
   3   4  -9   71.86    2.29
   3   4  -9   71.26    2.32
  -3  -4   9   68.80    2.14
  -3   4   9   69.64    2.37
  -3  -4   9   70.12    2.20
  -3   4   9   65.95    2.08
   3   4  -8   -0.27    0.72
   3   4  -8   -0.24    0.79
  -3  -4   8    0.07    0.65
  -3   4   8   -0.57    0.99
  -3  -4   8   -0.32    0.62
  -3   4   8   -0.75    0.64
  -3  -4   8    0.30    0.85
   3   4  -7    2.16    0.71
   3   4  -7    1.63    0.77
  -3  -4   7    1.20    0.73
  -3   4   7    1.47    1.01
  -3  -4   7    1.73    0.85
  -3   4   7    1.03    0.62
   3   4  -6    5.67    0.83
   3  -4  -6    5.63    0.88
  -3  -4   6    5.50    0.79
  -3   4   6    5.20    0.99
  -3  -4   6    5.25    0.84
  -3   4   6    4.53    0.60
   3   4  -5   91.96    2.18
   3  -4  -5   96.11    2.39
  -3  -4   5   93.14    2.16
  -3   4   5   95.68    2.40
  -3  -4   5   91.29    2.18
   3  -4  -4    0.32    0.59
   3   4  -4    0.39    0.82
   3  -4  -4    0.28    0.79
   3  -4  -4    0.26    0.70
   3   4  -4   -0.16    0.77
   3   4  -4   -0.16    0.77
   3  -4  -4   -0.19    0.94
  -3   4   4   -0.22    1.09
  -3  -4   4   -0.30    1.00
  -3  -4   4   -0.37    0.72
   3  -4  -3   57.77    1.25
   3   4  -3   61.47    1.44
   3  -4  -3   62.22    1.46
   3  -4  -3   60.11    1.64
   3   4  -3   61.80    1.45
   3  -4  -3   58.92    1.63
  -3  -4   3   62.39    1.46
  -3  -4   3   61.92    1.44
   3  -4  -2    1.51    0.87
   3  -4  -2    0.42    1.21
   3   4  -2    1.70    1.02
  -3  -4   2    1.42    0.97
  -3  -4   2    1.15    0.79
   3   4  -1   31.79    1.16
   3  -4  -1   34.33    1.28
   3   4  -1   30.95    1.10
   3   4  -1   30.95    1.10
  -3   4   1   34.93    1.18
  -3  -4   1   35.02    1.32
  -3  -4   1   32.64    1.29
   3   4   0    9.01    0.83
   3   4   0    9.42    1.00
   3  -4   0    9.76    1.11
   3   4   0    9.22    1.04
  -3   4   0    9.15    0.79
  -3  -4   0    9.47    0.86
   3  -4   1  116.25    1.80
   3   4   1  109.48    1.76
   3  -4   1  113.16    2.18
   3   4   1  120.65    2.10
  -3  -4  -1  115.35    1.88
  -3   4  -1  119.09    1.79
   3  -4   2    5.61    0.82
   3   4   2    6.21    0.93
   3   4   2    6.45    1.04
   3  -4   2    6.14    0.94
  -3  -4  -2    6.23    0.99
   3   4   3    5.67    0.82
   3   4   3    6.47    1.08
   3  -4   3    5.03    0.64
   3  -4   3    5.49    0.72
  -3  -4  -3    6.22    0.95
   3  -4   4    0.20    0.70
   3   4   4    0.63    0.80
   3  -4   4    0.17    0.58
   3  -4   4    0.37    0.96
   3  -4   4    0.61    0.73
   3   4   4    0.64    1.08
  -3  -4  -4   -0.29    0.68
   3  -4   5  115.39    2.65
   3   4   5  115.44    2.82
   3  -4   5  111.62    2.68
   3  -4   5  113.63    3.02
   3  -4   5  116.73    2.68
   3   4   5  126.56    3.23
  -3  -4  -5  115.85    2.77
   3  -4   6   -0.33    0.80
   3   4   6   -0.39    0.73
   3  -4   6   -0.30    0.75
   3  -4   6   -0.19    0.60
   3  -4   6   -0.19    0.60
   3  -4   6    0.11    0.80
   3   4   6    0.08    1.22
  -3  -4  -6   -0.04    0.75
   3   4   7   -0.13    0.83
   3   4   7   -0.13    0.83
   3  -4   7    0.32    0.94
   3   4   7    0.70    0.94
   3  -4   7    0.08    0.58
  -3  -4  -7    0.00    0.65
   3   4   8    0.02    0.82
   3  -4   8   -0.56    1.05
   3   4   8    0.20    1.37
  -3  -4  -8   -0.09    0.64
   3   4   9   38.94    1.85
   3  -4   9   36.79    1.77
   3   4   9   46.73    2.40
   3  -4  10    2.54    1.14
   3   4  10   -0.90    1.02
  -3  -5  12    4.14    0.98
  -3  -5  12    2.39    0.72
  -3   5  12    3.86    1.32
   3   5 -11   -0.03    0.78
   3   5 -11   -1.23    0.88
  -3   5  11    0.23    0.93
  -3  -5  11    0.28    0.59
   3   5 -10   35.10    1.99
   3   5 -10   37.44    2.20
  -3  -5  10   35.22    1.90
  -3   5  10   34.51    2.05
  -3  -5  10   35.22    1.94
  -3   5  10   37.05    2.03
   3   5  -9    0.17    0.88
   3   5  -9    0.15    0.69
  -3  -5   9   -0.16    0.69
  -3   5   9    0.91    1.11
  -3  -5   9   -0.96    0.70
  -3   5   9   -0.62    0.66
   3   5  -8  143.45    4.15
  -3  -5   8  144.68    4.13
  -3  -5   8  144.82    4.15
  -3   5   8  135.29    4.15
  -3   5   8  135.10    3.89
   3   5  -7    1.93    0.81
   3  -5  -7    1.34    0.92
  -3  -5   7    1.86    0.67
  -3   5   7    1.59    1.03
  -3  -5   7    1.73    0.82
  -3   5   7    1.52    0.53
   3   5  -6    0.20    0.72
   3  -5  -6   -0.37    0.90
  -3  -5   6    0.25    0.67
  -3   5   6   -0.38    0.79
  -3  -5   6   -0.27    0.66
   3   5  -5    2.11    0.86
   3  -5  -5    1.34    0.89
   3  -5  -5    1.99    0.92
   3   5  -5    1.33    0.61
  -3  -5   5    1.49    0.69
  -3   5   5    1.09    0.95
  -3  -5   5    1.44    0.71
   3  -5  -4  220.04    5.11
   3   5  -4  231.76    4.57
   3   5  -4  222.38    4.43
   3  -5  -4  231.09    4.68
   3  -5  -4  232.77    4.83
   3   5  -4  229.84    4.57
  -3  -5   4  230.90    4.55
  -3  -5   4  237.30    4.78
  -3   5   4  227.12    4.60
  -3  -5   4  231.89    4.62
   3  -5  -3    0.54    0.62
   3  -5  -3    0.99    0.71
   3  -5  -3    0.36    1.21
   3   5  -3    0.07    0.70
   3   5  -3    0.27    0.76
  -3  -5   3   -0.24    0.77
  -3  -5   3    0.02    0.71
   3  -5  -2   38.70    1.15
   3   5  -2   40.50    1.13
   3  -5  -2   42.80    1.28
   3  -5  -2   41.07    1.37
  -3  -5   2   39.40    1.24
  -3  -5   2   40.82    1.30
   3  -5  -1    0.27    0.80
   3   5  -1    0.74    0.71
   3  -5  -1    0.52    0.58
   3  -5  -1    1.06    0.90
   3   5  -1    0.37    0.88
   3   5  -1    0.58    0.87
  -3  -5   1    0.17    0.94
  -3  -5   1    0.72    0.87
   3  -5   0  230.22    4.59
   3   5   0  209.96    4.20
   3   5   0  230.08    4.59
   3  -5   0  236.18    4.76
   3   5   0  239.87    4.89
   3  -5   0  224.39    5.01
  -3   5   0  209.42    4.23
  -3  -5   0  204.18    4.35
  -3  -5   0  223.95    4.47
   3  -5   1   11.94    0.89
   3   5   1   12.86    0.93
   3  -5   1   11.87    0.78
   3  -5   1   12.23    1.12
   3   5   1   11.00    0.96
  -3  -5  -1   12.11    0.88
  -3   5  -1   12.27    0.76
   3  -5   2    1.94    0.78
   3   5   2    2.01    0.73
   3   5   2    2.41    0.87
   3  -5   2    2.21    0.97
   3  -5   2    2.22    0.68
  -3  -5  -2    1.99    0.74
   3   5   3    6.33    0.83
   3  -5   3    5.73    0.82
   3   5   3    6.73    0.94
  -3  -5  -3    6.36    0.77
   3   5   4  143.05    3.39
   3  -5   4  141.41    3.14
   3   5   4  152.99    3.48
  -3  -5  -4  140.58    3.65
   3  -5   5   -0.12    0.79
   3   5   5    0.62    0.73
   3   5   5    0.37    1.14
   3  -5   5    0.20    0.98
   3  -5   5    1.02    0.71
  -3  -5  -5    0.75    0.74
   3   5   6   33.82    1.44
   3   5   6   39.20    1.83
   3  -5   6   36.77    1.64
  -3  -5  -6   31.44    1.33
   3   5   7    2.68    0.78
   3  -5   7    4.23    1.02
   3   5   7    4.06    1.30
   3  -5   7    3.05    0.60
  -3  -5  -7    2.77    0.70
   3   5   8   14.02    1.05
   3  -5   8   17.76    1.47
   3   5   8   18.18    1.73
   3   5   9    1.90    0.89
   3  -5   9   -0.50    1.05
   3   5   9    0.84    1.42
   3  -5  10   27.65    1.45
   3   5  10   32.16    1.78
  -3  -6  12    1.00    1.04
  -3   6  12    0.35    1.22
   3   6 -11    0.67    0.77
   3   6 -11    1.39    1.12
  -3   6  11    1.91    1.09
  -3  -6  11    0.23    0.67
   3   6 -10    5.54    0.91
  -3  -6  10    5.22    0.71
  -3   6  10    5.89    1.14
   3   6  -9  112.58    4.16
  -3  -6   9  109.74    4.01
  -3   6   9   95.65    3.65
  -3   6   9  100.19    3.76
   3   6  -8    6.49    0.75
  -3  -6   8    7.25    0.68
  -3  -6   8    6.49    0.87
  -3   6   8    8.29    1.16
  -3   6   8    5.75    0.64
   3   6  -7   -0.17    0.82
   3  -6  -7   -0.57    0.95
  -3  -6   7    0.86    0.76
  -3   6   7   -0.86    1.08
  -3  -6   7    0.50    0.63
  -3  -6   7   -0.36    0.79
   3   6  -6   19.31    1.12
   3   6  -6   19.12    1.02
   3  -6  -6   17.41    1.08
  -3  -6   6   17.67    0.82
  -3  -6   6   18.30    0.93
  -3   6   6   16.51    0.95
   3   6  -5   49.84    1.44
   3  -6  -5   43.72    1.13
   3  -6  -5   50.83    1.54
   3  -6  -5   48.78    1.30
   3   6  -5   51.01    1.40
   3   6  -5   50.52    1.33
  -3  -6   5   49.67    1.29
  -3  -6   5   49.77    1.29
  -3   6   5   49.07    1.47
   3  -6  -4    1.45    0.53
   3  -6  -4    1.45    0.53
   3   6  -4    1.31    0.72
   3  -6  -4    0.70    0.58
   3   6  -4    1.50    0.85
   3   6  -4    1.68    0.65
   3  -6  -4    1.11    1.01
  -3  -6   4    1.21    0.79
  -3  -6   4    1.16    0.78
   3  -6  -3   68.29    2.03
   3  -6  -3   77.58    2.18
   3   6  -3   79.02    1.98
   3  -6  -3   80.01    2.24
   3   6  -3   80.33    2.09
  -3  -6   3   81.62    2.15
   3  -6  -2    3.28    0.65
   3   6  -2    2.67    0.79
   3   6  -2    3.39    0.74
   3  -6  -2    3.88    0.80
   3  -6  -2    3.55    0.96
  -3  -6   2    3.47    0.74
  -3  -6   2    3.43    0.90
   3  -6  -1   77.91    2.00
   3   6  -1   71.84    1.87
   3   6  -1   74.61    1.90
   3  -6  -1   78.30    2.10
   3   6  -1   80.23    2.16
   3  -6  -1   76.84    2.13
   3  -6  -1   69.55    1.83
  -3  -6   1   73.69    2.11
  -3  -6   1   75.51    1.94
   3  -6   0    9.08    0.92
   3  -6   0    9.08    0.92
   3   6   0    8.38    0.87
   3   6   0    8.35    0.81
   3  -6   0    9.51    0.90
   3   6   0    9.14    0.93
   3  -6   0    7.73    0.69
  -3   6   0    9.02    0.82
  -3  -6   0    9.48    1.05
  -3  -6   0    9.51    0.98
   3  -6   1  182.00    3.88
   3   6   1  201.10    4.24
   3   6   1  203.30    4.40
   3  -6   1  197.19    4.43
   3  -6   1  179.03    3.95
  -3  -6  -1  189.56    4.46
  -3  -6  -1  188.80    4.01
   3  -6   2    6.88    0.79
   3   6   2    7.42    0.82
   3   6   2    7.95    1.00
   3  -6   2    7.02    0.98
   3  -6   2    6.25    0.70
   3  -6   2    6.25    0.70
  -3  -6  -2    6.68    0.84
   3  -6   3    7.82    0.85
   3   6   3    6.64    0.77
   3   6   3    8.17    1.08
   3  -6   3    7.42    1.04
   3  -6   3    7.93    0.78
  -3  -6  -3    8.26    0.90
   3   6   4    2.53    0.74
   3  -6   4    2.53    0.74
   3   6   4    2.68    1.03
  -3  -6  -4    2.38    0.69
   3   6   5   69.91    2.26
   3   6   5   75.89    2.54
   3  -6   5   61.39    2.15
   3  -6   5   73.16    2.25
  -3  -6  -5   63.03    2.18
   3   6   6    4.99    0.78
   3   6   6    6.76    1.13
   3  -6   6    4.85    1.10
  -3  -6  -6    4.86    0.76
   3   6   7   -0.14    0.78
   3   6   7   -0.14    0.78
   3   6   7   -0.99    1.35
   3  -6   7    0.21    1.15
  -3  -6  -7   -0.17    0.63
   3   6   8    1.18    0.75
   3  -6   8    2.01    1.12
   3   6   8    2.67    1.33
   3  -6   9   21.61    1.64
   3   6   9   21.63    1.83
  -3  -7  12    3.29    1.12
  -3   7  12    2.41    1.12
   3   7 -11    0.87    0.91
  -3   7  11    0.54    1.17
   3   7 -10    5.98    0.98
  -3  -7  10    5.94    0.78
  -3   7  10    5.82    0.96
   3   7  -9    7.36    0.98
   3   7  -9    5.43    1.02
  -3   7   9    5.01    1.20
  -3  -7   9    6.21    0.75
   3   7  -8   32.74    1.67
   3   7  -8   28.49    1.52
  -3   7   8   31.55    1.77
  -3  -7   8   32.85    1.61
   3   7  -7    5.12    0.94
   3   7  -7    5.51    1.02
   3  -7  -7    4.82    1.03
  -3  -7   7    4.99    0.78
  -3  -7   7    4.16    0.82
  -3   7   7    5.22    1.17
   3   7  -6    1.76    0.83
   3   7  -6    1.06    0.81
   3  -7  -6    1.05    1.03
  -3  -7   6    1.62    0.78
  -3  -7   6    1.46    0.78
  -3   7   6    1.56    1.05
   3   7  -5    7.95    0.91
   3  -7  -5    6.59    0.60
   3  -7  -5    7.55    0.98
   3  -7  -5    7.09    0.72
   3   7  -5    7.62    0.78
   3   7  -5    6.82    0.85
  -3   7   5    7.87    1.10
  -3  -7   5    7.86    0.81
  -3  -7   5    7.19    0.78
   3  -7  -4  222.07    5.84
   3  -7  -4  228.32    6.06
   3   7  -4  237.84    4.93
   3   7  -4  249.21    5.26
   3  -7  -4  226.86    5.64
  -3  -7   4  227.89    5.72
   3  -7  -3   16.58    0.79
   3   7  -3   22.30    1.00
   3  -7  -3   22.64    1.06
   3   7  -3   22.32    0.91
   3  -7  -3   20.39    1.11
  -3  -7   3   20.73    0.97
  -3  -7   3   22.05    0.99
   3  -7  -2    1.60    0.59
   3   7  -2    1.79    0.74
   3   7  -2    1.43    0.77
   3  -7  -2    1.48    0.66
   3   7  -2    1.84    0.78
   3  -7  -2    2.09    0.97
  -3  -7   2    1.16    0.75
  -3  -7   2    1.43    0.71
   3  -7  -1    5.02    0.69
   3   7  -1    4.90    0.79
   3  -7  -1    4.16    0.51
   3  -7  -1    4.95    0.82
   3   7  -1    4.92    0.85
   3  -7  -1    4.79    1.02
  -3  -7   1    4.84    0.86
  -3  -7   1    5.57    0.84
   3  -7   0  300.58    5.50
   3   7   0  294.34    5.21
   3  -7   0  290.29    4.96
   3  -7   0  308.69    4.61
   3   7   0  288.59    4.41
   3   7   0  292.76    5.62
  -3  -7   0  292.01    5.37
  -3  -7   0  299.33    4.76
   3  -7   1    8.85    0.78
   3   7   1    9.05    0.87
   3  -7   1    8.54    0.68
   3  -7   1    9.68    0.97
   3   7   1    9.65    0.95
  -3   7  -1    8.80    0.75
  -3  -7  -1    7.73    1.00
  -3  -7  -1    8.64    0.83
   3  -7   2   77.28    2.00
   3   7   2   72.08    1.88
   3   7   2   73.72    2.34
   3  -7   2   76.38    2.11
   3  -7   2   73.98    1.93
  -3  -7  -2   66.34    1.77
   3  -7   3   27.66    1.13
   3   7   3   25.87    1.09
   3   7   3   27.82    1.38
   3  -7   3   27.72    1.32
   3  -7   3   26.26    1.03
  -3  -7  -3   27.60    1.13
   3  -7   4   23.50    1.01
   3   7   4   30.57    1.36
   3   7   4   33.24    1.60
   3  -7   4   24.56    1.37
   3  -7   4   27.66    1.15
  -3  -7  -4   27.52    1.22
   3   7   5    1.12    0.76
   3  -7   5    0.43    0.74
   3   7   5   -0.21    0.84
  -3  -7  -5    0.50    0.75
   3   7   6   10.77    1.02
   3   7   6   12.58    1.39
   3  -7   6   11.70    1.34
  -3  -7  -6    8.99    0.84
   3   7   7    1.65    0.80
   3  -7   7    1.71    0.86
   3   7   7    3.41    1.34
   3   7   8   17.82    1.20
   3  -7   8   21.20    1.57
   3   7   8   20.57    1.61
   3  -7   9    0.78    0.87
   3   7   9    0.18    1.25
   3   8 -11    3.70    0.88
   3   8 -11    4.74    0.91
  -3   8  11    3.80    1.25
   3   8 -10    2.37    1.01
   3   8 -10    0.75    1.01
  -3   8  10    0.90    1.20
   3   8  -9   19.34    1.22
   3   8  -9   17.91    1.16
  -3   8   9   18.58    1.57
  -3  -8   9   18.93    1.19
   3   8  -8    0.21    0.90
   3   8  -8    0.08    0.88
  -3   8   8    0.77    0.82
  -3  -8   8   -0.41    0.69
   3   8  -7   18.38    1.29
   3   8  -7   17.56    1.24
  -3   8   7   15.55    1.27
   3   8  -6    0.59    0.84
   3  -8  -6    0.34    0.60
   3   8  -6    1.17    0.84
   3  -8  -6   -0.49    1.02
  -3   8   6   -0.14    0.81
   3   8  -5   33.53    1.44
   3  -8  -5   33.52    1.29
   3  -8  -5   33.10    1.40
   3   8  -5   37.51    1.44
   3   8  -5   36.95    1.52
   3  -8  -5   33.66    1.56
  -3  -8   5   35.80    1.50
   3  -8  -4    1.11    0.49
   3   8  -4    0.35    0.86
   3  -8  -4    1.19    0.75
   3   8  -4    1.11    0.70
   3  -8  -4   -0.21    0.97
  -3  -8   4    1.13    0.67
  -3  -8   4    0.12    0.75
   3   8  -3    5.27    0.87
   3  -8  -3    4.30    0.67
   3   8  -3    4.51    0.81
   3  -8  -3    4.99    0.91
   3   8  -3    4.30    0.75
   3  -8  -3    3.64    0.94
  -3  -8   3    3.83    0.80
  -3  -8   3    4.07    0.73
   3  -8  -2    0.78    0.63
   3   8  -2    0.98    0.82
   3   8  -2    0.39    0.71
   3  -8  -2    0.63    0.74
   3   8  -2    0.51    0.69
   3  -8  -2    0.10    0.99
  -3  -8   2    0.13    0.73
  -3  -8   2    0.28    0.79
   3  -8  -1   20.41    0.95
   3   8  -1   18.52    0.99
   3  -8  -1   19.71    0.88
   3  -8  -1   19.92    1.10
   3   8  -1   21.42    0.98
   3  -8  -1   20.55    1.20
  -3  -8   1   20.16    1.10
  -3  -8   1   21.37    1.03
   3  -8   0    2.47    0.69
   3   8   0    2.77    0.72
   3  -8   0    2.46    0.58
   3  -8   0    3.30    0.87
   3   8   0    2.65    0.74
   3   8   0    3.13    0.88
  -3  -8   0    2.64    0.84
  -3  -8   0    2.18    0.77
   3  -8   1    9.23    0.88
   3   8   1    9.84    0.91
   3  -8   1    8.77    0.96
   3  -8   1    8.66    0.95
   3   8   1   11.52    1.15
   3  -8   1    8.80    0.67
  -3   8  -1    9.09    0.72
  -3  -8  -1    7.86    0.88
  -3  -8  -1   10.07    0.91
   3  -8   2   44.24    1.66
   3   8   2   39.34    1.67
   3   8   2   37.98    1.84
   3  -8   2   41.98    1.82
   3  -8   2   36.16    1.35
  -3  -8  -2   40.87    1.72
  -3  -8  -2   39.41    1.51
   3  -8   3   27.67    1.12
   3   8   3   32.55    1.38
   3   8   3   37.33    1.66
   3  -8   3   36.55    1.58
   3  -8   3   30.24    1.41
   3   8   3   37.33    1.66
  -3  -8  -3   31.66    1.31
   3   8   4    0.00    0.66
   3   8   4    0.16    0.80
   3  -8   4   -0.06    0.94
   3  -8   4    0.25    0.71
  -3  -8  -4    0.16    0.74
   3   8   5   15.83    1.05
   3   8   5   19.64    1.44
  -3  -8  -5   14.23    0.96
   3   8   6    0.93    0.64
   3   8   6    0.07    1.27
   3   8   7    4.57    0.82
   3  -8   7    4.03    1.24
   3   8   7    4.27    1.32
   3  -8   8    0.77    1.11
   3   8   8   -0.10    1.27
   3   9 -10   10.25    0.97
   3   9 -10   10.67    1.15
  -3   9  10   10.08    1.33
   3   9  -9   11.40    1.18
   3   9  -9    9.24    1.12
  -3   9   9    9.25    1.21
   3   9  -8   40.53    2.13
   3   9  -8   37.13    1.98
  -3   9   8   34.73    2.10
   3   9  -7    8.74    1.00
   3   9  -7    7.60    1.07
  -3   9   7    8.62    1.25
   3   9  -6    1.39    0.69
   3  -9  -6    0.84    0.49
   3  -9  -6    1.26    0.59
   3   9  -6    1.21    0.94
  -3  -9   6    0.59    0.69
  -3   9   6   -0.05    1.05
   3  -9  -5   11.94    0.72
   3  -9  -5   13.49    0.93
   3   9  -5   14.44    0.83
   3   9  -5   14.44    0.83
   3   9  -5   15.28    1.11
  -3  -9   5   14.48    1.02
   3  -9  -4  203.64    5.63
   3  -9  -4  189.68    6.55
   3   9  -4  216.47    5.81
   3   9  -4  190.83    5.14
  -3  -9   4  209.70    5.73
   3   9  -3    0.16    0.93
   3  -9  -3   -0.12    0.58
   3   9  -3    0.13    0.72
   3  -9  -3    0.77    0.74
   3   9  -3    0.36    0.59
   3  -9  -3    0.50    0.97
  -3  -9   3   -0.13    0.73
  -3  -9   3    0.18    0.80
   3  -9  -2   23.92    1.15
   3   9  -2   21.85    1.06
   3   9  -2   26.20    1.30
   3  -9  -2   23.96    1.22
   3   9  -2   25.38    1.15
   3  -9  -2   25.84    1.40
  -3  -9   2   24.26    1.31
  -3  -9   2   25.83    1.23
   3  -9  -1   13.75    1.00
   3   9  -1   17.24    1.07
   3   9  -1   15.93    1.01
   3  -9  -1   16.77    1.10
   3   9  -1   15.49    0.97
   3  -9  -1   12.76    1.11
  -3  -9   1   15.81    1.03
  -3  -9   1   16.74    1.02
   3  -9   0   72.36    2.95
   3  -9   0   74.61    2.48
   3  -9   0   84.83    2.75
   3   9   0   81.97    2.55
   3   9   0   87.97    2.84
  -3  -9   0   76.11    2.54
  -3  -9   0   81.81    2.55
   3  -9   1    1.11    0.74
   3   9   1    1.12    0.78
   3   9   1    0.64    0.56
   3  -9   1    2.62    0.93
   3   9   1    1.63    0.96
   3  -9   1    1.12    0.53
  -3   9  -1    0.92    0.58
  -3  -9  -1    1.41    0.87
  -3  -9  -1    1.55    0.68
   3  -9   2    0.96    0.70
   3   9   2    0.56    0.72
   3   9   2    1.02    0.94
   3  -9   2    1.40    0.95
   3  -9   2    0.25    0.67
  -3  -9  -2    0.56    0.89
  -3  -9  -2    0.49    0.66
   3   9   3    0.15    0.76
   3   9   3   -0.34    1.09
   3  -9   3    0.57    1.09
   3  -9   3    0.23    0.63
  -3  -9  -3   -0.04    0.70
   3   9   4   37.94    2.15
   3   9   4   38.73    2.30
   3  -9   4   41.02    2.37
   3  -9   4   35.23    1.90
  -3  -9  -4   40.49    2.22
   3   9   5   12.88    0.99
   3   9   5   16.09    1.43
   3  -9   5   13.17    1.04
  -3  -9  -5   12.60    0.88
   3   9   6   25.03    1.37
   3   9   6   29.14    1.81
   3   9   7   -0.65    0.68
   3  -9   7    0.08    1.16
   3   9   7    0.55    1.04
   3  -9   8    9.25    1.26
   3   9   8    9.81    1.32
   3  10 -10    0.75    0.99
   3  10 -10    0.25    0.97
  -3  10  10    0.70    1.23
   3  10  -9   29.80    1.95
   3  10  -9   26.07    1.83
  -3  10   9   25.57    1.91
   3  10  -8   11.53    1.20
   3  10  -8   10.17    1.13
  -3  10   8    9.43    1.31
   3  10  -7    0.27    1.00
   3  10  -7    0.31    0.70
  -3 -10   7    0.71    0.78
  -3  10   7   -0.39    1.27
   3 -10  -6   -0.33    0.56
   3  10  -6    0.42    0.88
  -3 -10   6    0.32    0.82
   3 -10  -5   43.91    1.84
   3 -10  -5   45.84    2.02
   3  10  -5   46.53    1.92
   3  10  -5   50.69    2.13
  -3 -10   5   46.10    1.99
   3  10  -4    4.66    0.95
   3 -10  -4    3.59    0.64
   3 -10  -4    3.16    0.72
   3  10  -4    3.94    0.63
   3  10  -4    4.03    0.90
  -3 -10   4    4.23    0.78
   3  10  -3   86.52    3.62
   3 -10  -3   79.71    3.27
   3 -10  -3   79.71    3.27
   3  10  -3   82.10    3.30
   3  10  -3   82.53    3.45
  -3 -10   3   78.50    3.23
   3  10  -2    3.87    0.98
   3 -10  -2    4.89    0.75
   3 -10  -2    5.46    0.89
   3  10  -2    5.40    0.66
   3  10  -2    4.85    0.85
  -3 -10   2    4.17    0.86
   3  10  -1   42.20    1.58
   3 -10  -1   41.02    1.44
   3  10  -1   40.70    1.48
   3 -10  -1   40.10    1.55
   3  10  -1   42.31    1.60
  -3 -10   1   40.98    1.65
  -3 -10   1   43.92    1.57
   3 -10   0    9.07    0.82
   3  10   0    9.35    0.97
   3  10   0    8.47    0.87
   3 -10   0    9.09    1.02
   3  10   0    7.60    0.82
  -3 -10   0    7.40    1.04
  -3 -10   0    9.55    0.95
   3  10   1   57.51    2.52
   3  10   1   53.05    2.30
   3 -10   1   57.70    2.62
   3  10   1   54.98    2.53
   3 -10   1   48.64    2.12
  -3  10  -1   47.99    2.12
  -3 -10  -1   52.12    2.36
  -3 -10  -1   57.10    2.43
   3  10   2    9.67    0.96
   3  10   2    7.64    0.92
   3 -10   2    9.40    1.13
   3 -10   2   10.12    0.81
  -3 -10  -2    7.95    0.77
   3  10   3    4.76    0.86
   3  10   3    4.76    1.22
   3 -10   3    5.00    1.03
   3 -10   3    4.35    0.68
  -3 -10  -3    3.93    0.75
   3  10   4    1.19    0.75
   3  10   4    1.73    1.04
   3 -10   4    1.39    1.16
   3 -10   4    0.38    0.62
  -3 -10  -4    1.10    0.64
   3  10   5   65.29    2.72
   3 -10   5   70.85    3.03
   3  10   5   69.56    3.01
   3  10   6    0.59    0.71
   3  10   6    1.35    1.13
   3  10   7    0.34    1.16
   3  11  -9    1.38    1.14
   3  11  -9    1.05    1.02
  -3  11   9    0.98    1.21
   3  11  -8   19.81    1.34
   3  11  -8   20.45    1.55
  -3  11   8   16.06    1.34
   3  11  -7    6.51    1.04
   3  11  -7    5.93    1.06
   3  11  -6    4.61    0.85
  -3 -11   6    4.20    0.72
   3  11  -5    1.54    0.96
   3 -11  -5    0.31    0.63
   3  11  -5   -0.47    0.87
  -3 -11   5    0.58    0.67
   3  11  -4   92.08    3.49
   3 -11  -4  106.58    1.84
   3  11  -4   91.26    3.24
   3  11  -4   98.06    1.73
  -3 -11   4   94.89    3.52
   3  11  -3    4.75    1.01
   3 -11  -3    4.86    0.66
   3 -11  -3    4.39    0.91
   3  11  -3    5.24    0.73
   3  11  -3    4.80    0.79
  -3 -11   3    5.14    0.83
   3  11  -2   -0.76    0.95
   3 -11  -2    0.11    0.60
   3 -11  -2    0.86    0.88
   3  11  -2   -0.38    0.64
   3  11  -2    0.39    0.75
  -3 -11   2    0.45    0.86
   3  11  -1    2.55    0.73
   3 -11  -1    3.00    0.69
   3 -11  -1    2.82    0.85
   3  11  -1    2.73    0.74
   3  11  -1    2.24    0.84
  -3 -11   1    1.76    0.74
   3  11   0   81.25    4.14
   3 -11   0   76.24    4.05
   3  11   0   71.33    3.59
   3  11   0   69.40    3.57
   3  11   1    0.72    0.80
   3 -11   1    0.71    0.95
   3  11   1    0.50    0.72
   3  11   1    0.50    0.72
  -3  11  -1    1.01    0.57
   3  11   2    4.44    0.82
   3 -11   2    5.29    1.07
   3  11   2    5.09    1.07
   3  11   3    2.03    0.87
   3 -11   3    2.06    0.82
   3  11   3    1.64    1.02
   3  11   4   31.63    1.60
   3 -11   4   33.34    1.82
   3  11   4   35.44    1.96
   3  11   5   -0.25    0.81
   3 -11   5    0.18    1.08
   3 -11   5    0.18    1.08
   3  11   5    0.53    1.20
   3 -11   6    8.18    1.14
   3  11   6    8.89    1.33
   3  12  -7    0.57    0.85
   3  12  -6    0.99    0.81
   3  12  -5   42.21    2.02
   3  12  -5   33.60    1.61
   3  12  -4   -0.11    1.07
   3 -12  -4    0.21    0.76
   3  12  -4   -0.14    0.81
   3  12  -3   13.04    1.19
   3 -12  -3   11.45    1.00
   3  12  -3   10.63    0.99
   3  12  -2    1.40    0.70
   3 -12  -2    1.68    0.59
   3 -12  -2    2.15    0.90
   3  12  -2    1.84    0.83
   3  12  -1   15.64    1.27
   3 -12  -1   16.48    1.29
   3  12  -1   12.36    1.02
   3  12   0    3.92    0.84
   3 -12   0    3.81    1.06
   3  12   0    2.44    0.75
   3  12   1   57.08    2.43
   3 -12   1   56.18    2.56
   3  12   1   46.66    2.18
   3  12   2    0.30    0.85
   3 -12   2    0.01    0.78
   3  12   2    0.31    0.74
   3  12   3    1.89    0.85
   3 -12   3    2.29    0.99
   3  12   3    1.54    1.05
   3  12   4   -0.23    0.75
   3 -12   4   -0.08    1.18
   3  12   4    0.99    0.85
   3 -12   5   23.49    1.45
   3  12   5   20.86    1.37
   3  13  -6    1.97    0.99
   3  13  -6    1.32    0.94
   3  13  -5    2.07    0.76
   3  13  -5    1.56    0.89
   3  13  -4   33.33    2.13
   3  13  -4   30.15    1.92
   3  13  -3    0.71    1.05
   3 -13  -3   -0.10    0.94
   3  13  -3   -0.65    0.85
   3  13  -2    2.34    0.92
   3 -13  -2    2.69    0.96
   3  13  -2    2.68    0.83
   3  13  -1    0.34    0.86
   3 -13  -1   -0.32    0.91
   3  13  -1   -0.67    0.63
   3  13   0   15.79    1.17
   3 -13   0   18.65    1.40
   3  13   0   14.81    1.13
   3  13   1    3.20    0.92
   3 -13   1    3.74    1.09
   3  13   1    3.21    0.72
   3  13   2    1.42    0.80
   3 -13   2    2.90    1.13
   3  13   2    1.45    0.72
   3  13   3    2.13    0.75
   3 -13   3    4.01    1.10
   3  14  -3   29.83    1.48
   3  14  -3   21.80    1.10
   3  14  -2    0.25    0.92
   3 -14  -2    0.40    1.01
   3  14  -2    0.08    0.75
   3  14  -1    2.49    0.99
   3 -14  -1    4.91    1.05
   3  14  -1    2.78    0.74
   3  14   0    1.38    0.94
   3 -14   0    2.99    1.02
  -4   0  13   -0.52    0.94
  -4   0  12   97.61    4.41
  -4   0  12  106.65    2.05
   4   0 -11    0.29    0.89
  -4   0  11    0.00    0.66
  -4   0  11    0.12    0.53
   4   0 -10   31.94    1.22
   4   0 -10   34.35    1.40
  -4   0  10   29.25    1.40
  -4   0  10   29.20    1.12
  -4   0  10   29.49    1.18
   4   0  -9    0.39    0.61
   4   0  -9   -0.15    0.76
  -4   0   9    0.03    0.74
  -4   0   9    0.10    0.62
  -4   0   9    0.14    0.59
   4   0  -8   93.27    2.50
   4   0  -8   95.02    2.58
  -4   0   8   91.82    2.61
  -4   0   8   94.44    2.55
  -4   0   8   89.77    2.41
   4   0  -7   -0.26    0.66
   4   0  -7    0.52    0.80
  -4   0   7   -0.25    0.80
  -4   0   7   -0.03    0.62
   4   0  -6    0.69    0.56
   4   0  -6    1.65    0.87
  -4   0   6    0.55    0.74
  -4   0   6    0.69    0.73
  -4   0   6    0.79    0.82
   4   0  -5   -0.12    0.69
   4   0  -5    0.51    0.76
  -4   0   5   -0.35    0.67
  -4   0   5    0.02    0.73
  -4   0   5    0.09    0.85
   4   0  -4  214.15    2.77
   4   0  -4  207.45    2.64
  -4   0   4  216.13    2.78
   4   0  -3    0.81    0.90
   4   0  -3    0.49    0.75
  -4   0   3   -0.49    0.87
   4   0  -2   31.36    1.18
   4   0  -2   28.68    1.16
  -4   0   2   32.20    1.13
  -4   0   2   32.36    1.21
   4   0  -1    0.29    1.06
   4   0  -1   -0.18    1.15
  -4   0   1   -0.42    0.79
  -4   0   1    0.24    0.96
   4   0   0  187.15    2.41
  -4   0   0  196.97    2.52
   4   0   1   -0.60    0.80
  -4   0  -1   -0.62    0.99
   4   0   2    0.45    0.83
   4   0   2   -0.45    0.70
  -4   0  -2    0.07    0.88
   4   0   3    0.00    0.84
   4   0   3   -0.11    0.72
  -4   0  -3    0.30    0.78
   4   0   4  151.16    3.88
   4   0   4  147.99    3.74
  -4   0  -4  142.03    3.65
   4   0   5   -0.41    0.88
   4   0   5   -0.51    0.73
  -4   0  -5   -0.21    0.76
   4   0   6   31.12    1.50
   4   0   6   27.43    1.26
  -4   0  -6   27.43    1.29
   4   0   7   -0.39    1.04
   4   0   7    0.03    0.70
  -4   0  -7    0.50    0.80
   4   0   8   36.59    1.94
   4   0   8   35.41    1.89
   4   0   9   -0.78    1.04
   4   0  10   91.79    2.75
  -4  -1  13   31.50    1.92
  -4   1  13   32.63    2.09
  -4  -1  13   30.28    1.93
  -4  -1  12   11.34    0.88
  -4  -1  12   11.58    1.00
  -4   1  12   13.04    1.19
  -4  -1  12   13.04    1.25
   4   1 -11    0.21    0.85
  -4   1  11    0.18    0.61
  -4  -1  11   -0.14    0.64
  -4   1  11   -0.81    1.06
  -4  -1  11    0.49    0.91
  -4  -1  11   -0.58    0.59
  -4   1  11    0.06    0.68
  -4   1  11    0.05    0.68
   4   1 -10    0.88    0.58
   4   1 -10    1.23    0.89
   4  -1 -10    0.62    0.83
  -4  -1  10    0.92    0.59
  -4  -1  10    0.76    0.77
  -4   1  10    0.00    0.96
  -4  -1  10    0.78    0.91
  -4   1  10    0.83    0.55
  -4   1  10    0.15    0.65
  -4   1  10    0.66    0.52
  -4  -1  10    0.87    0.66
   4  -1  -9   27.30    1.14
   4   1  -9   27.28    1.18
   4  -1  -9   26.70    1.17
   4   1  -9   29.16    1.36
  -4  -1   9   26.13    1.16
  -4   1   9   28.78    1.35
  -4  -1   9   28.67    1.49
  -4  -1   9   27.56    1.16
  -4   1   9   26.25    1.13
  -4   1   9   26.28    1.20
  -4  -1   9   26.91    1.24
   4  -1  -8    0.40    0.56
   4  -1  -8    0.40    0.56
   4   1  -8    0.22    0.56
   4  -1  -8    0.26    0.67
   4   1  -8    0.77    0.72
  -4  -1   8   -0.34    0.84
  -4   1   8   -0.11    0.88
  -4  -1   8    0.14    0.87
  -4  -1   8    0.27    0.51
  -4   1   8    0.15    0.52
  -4   1   8    0.94    0.66
  -4  -1   8    0.03    0.65
  -4   1   8    0.94    0.66
   4  -1  -7    1.29    0.55
   4   1  -7    1.51    0.72
   4  -1  -7    1.81    0.65
   4   1  -7    1.89    0.78
  -4  -1   7    1.38    0.81
  -4   1   7    0.73    0.71
  -4  -1   7    1.07    0.76
  -4  -1   7    0.61    0.72
  -4   1   7    0.68    0.62
   4   1  -6    9.01    0.71
   4  -1  -6    8.08    0.65
   4  -1  -6    9.85    0.80
   4   1  -6    9.51    0.82
  -4  -1   6    8.80    0.97
  -4   1   6    8.59    0.77
  -4  -1   6    8.18    0.84
  -4  -1   6    8.25    0.75
  -4   1   6    8.31    0.75
   4   1  -5   58.84    1.33
   4  -1  -5   57.43    1.24
   4  -1  -5   56.58    1.43
   4  -1  -5   60.51    1.30
   4   1  -5   58.47    1.44
  -4   1   5   52.92    1.30
  -4  -1   5   56.77    1.39
  -4  -1   5   58.50    1.40
  -4   1   5   56.74    1.33
  -4  -1   5   57.59    1.49
   4   1  -4   16.72    0.87
   4  -1  -4   16.70    0.95
   4   1  -4   17.03    0.95
   4  -1  -4   16.73    0.98
  -4  -1   4   17.07    1.02
  -4   1   4   16.98    1.04
  -4  -1   4   15.15    0.97
   4   1  -3  132.30    2.09
   4  -1  -3  132.87    2.04
   4  -1  -3  139.75    2.18
  -4  -1   3  130.13    2.04
  -4   1   3  132.82    2.13
  -4   1   3  133.60    2.07
   4   1  -2    9.24    1.05
   4  -1  -2    9.12    1.08
   4  -1  -2    7.65    0.95
  -4  -1   2    8.38    1.26
  -4   1   2    9.01    0.87
  -4   1   2    8.45    1.14
   4   1  -1  160.03    2.34
   4  -1  -1  155.04    2.72
   4  -1  -1  158.45    2.24
  -4   1   1  158.51    2.37
  -4   1   1  162.37    2.27
  -4  -1   1  156.82    2.20
   4  -1   0   29.15    1.17
   4   1   0   28.80    1.17
   4  -1   0   28.68    1.11
  -4  -1   0   31.57    1.11
  -4   1   0   29.99    1.05
   4  -1   1  173.84    2.32
   4   1   1  172.29    2.35
  -4  -1  -1  165.62    2.35
   4   1   2    7.67    1.04
   4   1   2    8.23    0.99
   4  -1   2    8.47    0.80
   4  -1   2    8.47    0.80
  -4   1  -2    8.30    0.99
  -4  -1  -2    8.96    1.01
   4   1   3    2.81    0.95
   4  -1   3    3.13    0.99
   4   1   3    2.91    0.82
   4  -1   3    2.88    0.74
  -4  -1  -3    2.62    0.93
  -4   1  -3    2.23    0.77
   4   1   4    3.75    0.88
   4  -1   4    4.30    0.95
   4   1   4    3.48    0.83
   4  -1   4    4.30    0.71
  -4  -1  -4    4.23    0.88
  -4   1  -4    3.64    0.84
   4   1   5   86.75    2.17
   4  -1   5   83.30    2.15
   4  -1   5   81.88    2.02
  -4   1  -5   76.87    1.95
  -4  -1  -5   75.60    1.96
   4   1   6   -0.24    1.01
   4  -1   6    0.89    0.96
   4  -1   6   -0.45    0.73
  -4   1  -6    0.30    0.80
  -4  -1  -6   -0.62    0.80
   4   1   7   14.21    1.21
   4  -1   7   13.90    1.19
   4  -1   7   11.72    0.92
  -4  -1  -7   12.14    0.99
   4   1   8   19.69    1.41
   4  -1   8   18.28    1.30
   4  -1   8   16.42    1.09
   4   1   9   35.48    1.80
   4  -1   9   37.00    1.88
   4   1  10    3.66    0.94
   4  -1  10    3.88    1.00
  -4  -2  13   -0.24    0.79
  -4   2  13    0.23    0.97
  -4  -2  13    0.70    0.95
   4   2 -12    6.61    1.03
  -4  -2  12    4.99    0.90
  -4  -2  12    6.18    0.77
  -4  -2  12    5.40    1.01
  -4   2  12    6.37    0.96
   4   2 -11   -0.17    0.67
   4   2 -11    0.42    0.91
  -4  -2  11   -1.11    0.93
  -4  -2  11    0.24    0.61
  -4  -2  11    0.82    0.90
  -4   2  11   -0.12    0.90
  -4   2  11   -0.02    0.70
   4   2 -10    1.16    0.68
   4   2 -10    0.47    0.88
  -4  -2  10    0.40    0.65
  -4   2  10    0.16    0.83
  -4  -2  10    0.49    0.85
  -4   2  10    0.10    0.85
  -4  -2  10    0.39    0.94
  -4   2  10    0.78    0.86
  -4   2  10    0.36    0.68
   4   2  -9    4.34    0.65
   4   2  -9    3.92    0.94
   4  -2  -9    4.01    0.76
  -4  -2   9    5.12    0.73
  -4  -2   9    4.07    0.93
  -4   2   9    4.29    0.89
  -4  -2   9    4.44    1.06
  -4   2   9    5.09    0.74
  -4   2   9    3.39    0.69
  -4  -2   9    3.75    0.77
  -4   2   9    3.97    0.75
   4  -2  -8   59.16    1.56
   4   2  -8   62.49    1.69
   4   2  -8   65.76    1.82
   4  -2  -8   57.92    1.60
  -4  -2   8   63.83    1.75
  -4  -2   8   62.52    1.81
  -4   2   8   64.92    1.90
  -4  -2   8   61.39    1.82
  -4   2   8   62.16    1.71
  -4   2   8   62.18    1.71
  -4   2   8   57.28    1.59
  -4  -2   8   61.30    1.69
   4  -2  -7    1.45    0.55
   4   2  -7    1.55    0.65
   4  -2  -7    1.73    0.72
   4   2  -7    1.50    0.74
  -4  -2   7    1.53    0.85
  -4   2   7    1.25    0.70
  -4  -2   7    1.30    0.77
  -4  -2   7    1.60    0.64
  -4   2   7    1.07    0.57
   4   2  -6    5.65    0.84
   4  -2  -6    4.97    0.92
   4  -2  -6    5.85    0.75
   4   2  -6    5.57    0.83
  -4   2   6    4.78    0.83
  -4  -2   6    5.10    0.80
  -4  -2   6    5.30    0.73
  -4   2   6    5.16    0.65
  -4  -2   6    5.36    0.93
   4   2  -5   15.83    0.91
   4  -2  -5   15.85    0.82
   4  -2  -5   14.80    0.97
   4  -2  -5   16.56    0.92
   4   2  -5   17.41    1.01
  -4   2   5   15.83    1.09
  -4  -2   5   13.15    1.07
  -4  -2   5   15.76    0.95
  -4   2   5   14.91    0.94
  -4  -2   5   16.86    1.20
   4   2  -4  244.08    2.76
   4   2  -4  245.27    2.86
   4  -2  -4  245.13    2.91
   4   2  -4  249.63    2.90
   4  -2  -4  248.52    2.90
   4  -2  -4  249.98    3.01
  -4   2   4  243.50    2.95
  -4  -2   4  250.14    2.93
  -4   2   4  253.34    3.00
  -4  -2   4  248.49    2.94
   4   2  -3    3.27    0.75
   4   2  -3    3.17    0.91
   4  -2  -3    3.40    0.89
   4  -2  -3    3.27    1.01
  -4  -2   3    2.42    0.89
  -4  -2   3    2.29    0.90
  -4   2   3    2.93    0.89
  -4   2   3    2.69    0.93
   4   2  -2   26.94    1.17
   4   2  -2   26.70    1.48
   4  -2  -2   25.78    1.02
   4   2  -2   22.84    1.09
  -4   2   2   28.09    1.31
  -4   2   2   26.78    1.24
  -4  -2   2   25.32    1.26
   4  -2  -1   40.66    1.40
   4  -2  -1   38.85    1.32
  -4   2   1   39.02    1.26
  -4   2   1   37.84    1.38
   4  -2   0  452.03    4.47
   4  -2   0  463.30    5.07
  -4  -2   0  463.17    4.55
  -4   2   0  461.13    4.41
  -4   2   0  458.65    4.84
   4   2   1    3.18    0.90
   4  -2   1    2.45    0.76
   4  -2   1    2.67    1.12
   4   2   1    2.29    0.84
  -4  -2  -1    1.87    0.96
  -4   2  -1    3.58    0.79
   4   2   2   20.54    1.23
   4  -2   2   21.43    1.03
   4   2   2   21.03    1.09
  -4  -2  -2   19.60    1.08
   4   2   3    4.76    0.87
   4  -2   3    4.56    0.95
   4   2   3    5.17    0.85
   4  -2   3    5.42    0.79
  -4  -2  -3    5.66    0.92
  -4   2  -3    4.77    0.89
   4   2   4   93.66    2.64
   4  -2   4   97.65    2.72
   4  -2   4   93.71    2.53
  -4   2  -4   93.01    2.55
  -4  -2  -4   96.35    2.68
   4   2   5    9.12    1.03
   4  -2   5    8.36    1.03
   4  -2   5    8.30    0.77
  -4   2  -5    8.49    0.92
  -4  -2  -5    7.85    0.86
   4   2   6    4.52    0.98
   4  -2   6    3.43    1.11
   4  -2   6    3.85    0.70
  -4   2  -6    4.81    0.94
  -4  -2  -6    3.01    0.65
   4   2   7    2.11    0.95
   4  -2   7    1.25    0.75
   4  -2   7    1.82    0.69
  -4  -2  -7    1.27    0.70
   4   2   8    0.32    0.93
   4  -2   8    0.84    1.06
   4   2   9    0.88    0.90
   4  -2   9    0.98    1.05
   4   2   9    1.16    1.34
  -4  -3  13   14.21    1.24
  -4  -3  13   12.29    1.02
  -4   3  13   12.48    1.40
  -4  -3  13   12.71    1.33
   4   3 -12   -0.44    0.96
  -4  -3  12   -1.06    0.73
  -4   3  12   -1.34    1.02
  -4  -3  12   -1.07    0.89
  -4  -3  12   -1.06    0.89
  -4  -3  12   -0.12    0.84
   4   3 -11    1.28    0.74
   4   3 -11    1.93    0.72
  -4  -3  11    0.02    0.81
  -4  -3  11    1.04    0.64
  -4  -3  11    1.17    1.05
  -4   3  11   -0.45    1.10
  -4   3  11    0.92    0.64
   4   3 -10    1.42    0.75
   4   3 -10    0.55    0.65
  -4  -3  10    0.40    0.61
  -4   3  10    0.06    0.98
  -4  -3  10    0.75    0.86
  -4   3  10    0.56    0.66
   4   3  -9   48.51    1.73
   4   3  -9   51.74    1.84
  -4  -3   9   50.84    1.73
  -4   3   9   49.66    1.94
  -4  -3   9   51.05    1.82
  -4   3   9   47.13    1.63
  -4  -3   9   48.78    1.75
   4   3  -8    1.22    0.70
   4   3  -8    1.52    0.85
   4  -3  -8    1.33    0.59
  -4  -3   8    0.96    0.70
  -4  -3   8    0.70    0.80
  -4   3   8    0.89    1.01
  -4  -3   8    1.02    0.77
   4  -3  -7    1.54    0.45
   4   3  -7    1.95    0.74
   4  -3  -7    1.83    0.65
   4   3  -7    1.74    0.85
   4  -3  -7    1.20    0.77
  -4   3   7    2.35    0.87
  -4  -3   7    1.60    0.83
  -4  -3   7    2.03    0.78
  -4   3   7    1.28    0.59
   4   3  -6   19.24    0.95
   4  -3  -6   18.30    0.83
   4  -3  -6   19.90    0.90
   4   3  -6   19.52    1.04
   4  -3  -6   17.97    1.11
  -4   3   6   19.70    1.10
  -4  -3   6   18.51    1.01
  -4  -3   6   19.65    0.97
  -4   3   6   17.23    0.88
   4   3  -5   15.62    0.95
   4  -3  -5   14.54    0.94
   4  -3  -5   15.56    0.85
   4  -3  -5   14.45    0.79
   4   3  -5   15.67    0.98
   4  -3  -5   14.54    0.94
  -4  -3   5   15.33    0.90
  -4   3   5   14.42    0.98
  -4   3   5   15.63    0.92
  -4  -3   5   15.06    1.06
   4   3  -4   12.55    0.86
   4  -3  -4   12.71    1.13
   4  -3  -4   12.21    0.86
   4   3  -4   11.96    1.01
   4   3  -4   12.65    1.06
   4  -3  -4   13.26    0.86
  -4  -3   4   12.16    0.95
  -4  -3   4   12.99    1.10
  -4   3   4   11.53    0.91
   4   3  -3    2.33    0.85
   4   3  -3    2.29    0.99
   4  -3  -3    1.51    0.69
   4  -3  -3    1.80    0.94
  -4  -3   3    2.09    1.03
  -4  -3   3    1.22    1.03
  -4   3   3    2.19    0.82
  -4   3   3    1.74    0.88
   4   3  -2   80.82    1.68
   4  -3  -2   84.21    1.64
   4   3  -2   87.82    1.60
   4   3  -2   87.27    1.70
  -4  -3   2   80.28    1.54
  -4   3   2   89.46    1.74
  -4   3   2   85.13    1.67
   4  -3  -1    2.54    1.02
   4   3  -1    1.40    1.06
   4   3  -1    2.32    0.78
  -4   3   1    1.82    0.81
  -4   3   1    2.85    0.90
   4   3   0    2.83    0.99
   4  -3   0    2.45    0.88
   4  -3   0    3.07    0.92
   4   3   0    3.11    0.97
  -4   3   0    2.37    0.95
  -4   3   0    2.37    0.95
  -4  -3   0    2.71    0.98
  -4   3   0    3.14    0.80
   4   3   1   25.06    1.31
   4  -3   1   25.59    1.09
   4  -3   1   25.35    1.27
   4   3   1   27.86    1.39
   4   3   1   22.08    1.07
  -4   3  -1   22.93    1.17
  -4  -3  -1   24.77    1.14
  -4   3  -1   25.28    1.07
   4   3   2    5.27    0.81
   4  -3   2    6.30    0.74
   4   3   2    6.15    0.82
   4   3   2    6.19    1.06
  -4  -3  -2    6.76    0.92
   4   3   3    1.38    0.79
   4   3   3    0.73    0.87
   4  -3   3    0.55    0.62
  -4  -3  -3    0.21    0.73
  -4   3  -3    0.30    0.82
   4   3   4    1.11    0.82
   4  -3   4    1.73    0.97
   4  -3   4    1.08    0.69
  -4  -3  -4    1.77    0.78
  -4   3  -4    1.06    0.90
   4   3   5  124.44    3.75
   4  -3   5  114.39    3.65
   4   3   5  120.20    3.71
   4  -3   5  112.26    3.48
  -4  -3  -5  113.31    3.41
   4   3   6    0.44    0.87
   4  -3   6    0.72    0.98
   4   3   6    0.04    0.96
   4  -3   6   -0.15    0.60
  -4  -3  -6    0.48    0.78
   4   3   7   13.39    1.17
   4  -3   7   12.17    1.07
   4   3   7   14.30    1.31
   4  -3   7   12.00    1.01
  -4  -3  -7   12.17    1.02
   4   3   8    1.19    0.90
   4  -3   8    0.83    1.04
   4   3   8   -0.98    1.33
   4   3   9   10.45    1.10
   4  -3   9    7.80    0.95
   4  -3   9    7.80    0.95
   4   3   9    9.98    1.22
  -4  -4  13   -0.58    0.92
  -4  -4  13    0.28    0.65
  -4   4  13   -0.28    1.13
  -4  -4  13   -0.07    0.84
   4   4 -12    8.25    0.92
   4   4 -12    8.39    1.14
  -4   4  12    7.95    1.21
  -4  -4  12    6.73    0.74
   4   4 -11   -0.27    0.73
   4   4 -11   -0.01    0.72
  -4  -4  11   -0.26    0.72
  -4   4  11   -1.08    1.05
  -4  -4  11   -0.64    0.82
  -4   4  11    0.17    0.61
   4   4 -10    5.97    0.80
   4   4 -10    6.31    0.78
  -4  -4  10    5.01    0.80
  -4   4  10    5.48    1.14
  -4  -4  10    6.09    0.97
  -4   4  10    5.94    0.77
   4   4  -9    1.12    0.79
   4   4  -9    1.18    0.91
  -4  -4   9    1.38    0.65
  -4   4   9    0.75    1.08
  -4  -4   9    0.62    0.80
  -4   4   9    0.43    0.56
   4   4  -8   46.12    1.42
   4   4  -8   46.81    1.54
  -4  -4   8   44.95    1.39
  -4   4   8   45.22    1.57
  -4  -4   8   44.53    1.43
   4   4  -7    1.46    0.71
   4   4  -7    1.48    0.77
   4  -4  -7    1.81    0.81
   4  -4  -7    2.16    0.61
  -4  -4   7    1.90    0.79
  -4   4   7    1.59    0.87
  -4  -4   7    2.46    0.78
   4   4  -6    0.73    0.74
   4  -4  -6    0.33    0.82
   4   4  -6    0.49    0.72
   4  -4  -6    0.25    0.82
   4  -4  -6   -0.02    0.57
  -4  -4   6    0.22    0.87
  -4   4   6    0.33    0.80
  -4  -4   6   -0.37    0.73
   4   4  -5    2.80    0.75
   4  -4  -5    2.33    0.88
   4   4  -5    3.13    0.72
  -4  -4   5    2.99    0.74
  -4  -4   5    3.06    0.85
  -4   4   5    2.30    0.87
  -4  -4   5    2.79    0.67
  -4   4   5    2.43    0.63
   4   4  -4  234.65    4.64
   4  -4  -4  246.92    5.02
   4  -4  -4  244.81    4.93
   4  -4  -4  242.57    4.83
   4   4  -4  240.47    4.73
  -4  -4   4  236.05    4.68
  -4  -4   4  244.49    4.85
  -4  -4   4  230.25    4.66
  -4   4   4  231.64    5.25
   4   4  -3    7.81    0.90
   4  -4  -3    8.03    0.97
   4  -4  -3    7.54    0.90
   4   4  -3    7.75    0.99
  -4  -4   3    7.09    0.82
  -4   4   3    7.17    0.92
  -4  -4   3    6.70    0.86
  -4  -4   3    5.45    0.77
   4  -4  -2    1.91    0.77
   4   4  -2    1.39    0.79
   4   4  -2    2.13    0.78
  -4  -4   2    1.44    0.92
  -4   4   2    2.07    0.76
  -4   4   2    1.57    0.76
   4   4  -1   12.62    0.95
   4  -4  -1   12.59    0.97
   4   4  -1   12.23    0.94
  -4   4   1   11.34    0.99
  -4   4   1   12.04    0.81
  -4  -4   1   12.48    0.93
   4   4   0  172.07    3.98
   4   4   0  177.74    3.91
   4  -4   0  184.65    3.88
   4   4   0  166.11    3.46
  -4   4   0  174.06    3.62
  -4   4   0  167.64    3.50
  -4  -4   0  175.74    3.64
   4   4   1    3.42    0.93
   4   4   1    3.31    0.85
   4  -4   1    4.31    1.00
  -4  -4  -1    3.33    0.86
  -4   4  -1    3.33    0.69
  -4   4  -1    2.92    0.81
   4   4   2    4.91    0.80
   4   4   2    6.16    0.93
   4  -4   2    6.59    0.92
   4   4   2    6.01    1.00
   4  -4   2    5.31    0.70
  -4  -4  -2    5.32    0.82
   4   4   3    0.66    0.80
   4   4   3    0.58    1.04
   4  -4   3    0.13    0.57
  -4  -4  -3    0.56    0.81
   4  -4   4   74.56    1.82
   4   4   4   76.87    2.01
   4  -4   4   72.34    1.85
   4  -4   4   65.08    1.97
   4  -4   4   65.71    2.11
   4   4   4   83.58    2.35
  -4  -4  -4   72.74    1.92
   4  -4   5    0.17    0.80
   4   4   5    0.12    0.84
   4  -4   5    0.11    0.60
   4  -4   5   -0.24    0.98
   4  -4   5   -0.15    0.72
   4   4   5    0.31    1.16
  -4  -4  -5    0.01    0.71
   4   4   6   17.71    1.24
   4  -4   6   17.51    1.36
   4   4   6   19.76    1.66
   4  -4   6   15.98    0.99
  -4  -4  -6   16.13    1.06
   4   4   7    0.24    0.82
   4  -4   7    0.01    1.11
   4   4   7    0.24    1.22
  -4  -4  -7    0.46    0.71
   4   4   8    0.41    0.94
   4  -4   8    0.76    1.16
   4   4   8    1.52    1.26
   4   4   9    1.15    0.90
   4  -4   9   -0.44    1.09
   4   4   9   -0.08    1.19
   4   5 -13   51.07    1.75
  -4  -5  13   55.42    1.99
  -4   5  13   53.53    2.17
  -4   5  13   53.50    2.16
   4   5 -12    0.20    0.76
   4   5 -12    0.89    1.05
  -4   5  12   -0.71    1.09
  -4  -5  12    0.06    0.69
   4   5 -11    5.20    0.91
   4   5 -11    5.46    0.97
  -4   5  11    4.43    1.10
  -4  -5  11    5.42    0.89
   4   5 -10    0.99    0.82
   4   5 -10   -0.62    0.90
  -4  -5  10    0.18    0.71
  -4   5  10    0.25    1.08
  -4  -5  10    0.07    0.75
  -4   5  10   -0.23    0.60
   4   5  -9   51.52    2.27
   4   5  -9   50.03    2.16
  -4  -5   9   47.69    2.01
  -4   5   9   50.87    2.38
  -4  -5   9   51.28    2.24
   4   5  -8    0.29    0.79
   4   5  -8    0.19    0.88
   4  -5  -8    0.17    0.82
  -4  -5   8   -0.94    0.71
  -4  -5   8    0.50    0.76
  -4   5   8    0.65    1.02
   4   5  -7   12.97    1.01
   4  -5  -7   11.26    1.01
  -4  -5   7   13.31    0.86
  -4   5   7   13.21    1.06
  -4  -5   7   12.77    0.92
   4   5  -6    3.85    0.78
   4  -5  -6    3.94    0.94
   4  -5  -6    3.71    0.85
  -4  -5   6    3.39    0.76
  -4   5   6    3.82    1.00
  -4  -5   6    3.83    0.73
   4  -5  -5  151.18    2.97
   4   5  -5  158.83    2.71
   4   5  -5  162.25    2.72
   4  -5  -5  155.52    2.92
  -4  -5   5  161.62    2.75
  -4  -5   5  156.23    2.69
  -4  -5   5  162.29    2.69
   4  -5  -4    8.60    0.70
   4   5  -4   10.69    0.84
   4  -5  -4   10.27    1.11
   4  -5  -4    9.78    0.85
   4  -5  -4    9.51    0.86
   4   5  -4    9.90    0.86
  -4  -5   4   10.19    0.84
  -4  -5   4    8.94    0.76
  -4  -5   4   10.24    0.92
   4  -5  -3   36.69    1.26
   4  -5  -3   32.27    1.27
   4  -5  -3   32.27    1.27
   4  -5  -3   35.20    1.36
   4   5  -3   36.51    1.24
  -4  -5   3   36.22    1.28
  -4  -5   3   34.81    1.33
   4  -5  -2    8.73    0.85
   4   5  -2    9.16    0.85
   4  -5  -2    8.64    0.95
   4   5  -2    8.02    0.98
   4  -5  -2    7.78    1.01
  -4   5   2    7.53    0.79
  -4  -5   2    7.32    0.93
  -4  -5   2    7.31    0.86
   4  -5  -1   30.19    1.14
   4   5  -1   26.53    1.10
   4   5  -1   29.03    1.15
   4  -5  -1   31.17    1.36
   4   5  -1   29.83    1.25
  -4   5   1   27.64    1.09
  -4  -5   1   29.81    1.21
   4  -5   0   17.30    0.90
   4   5   0   17.98    1.01
   4   5   0   18.84    1.04
   4  -5   0   17.14    1.06
   4   5   0   18.42    1.11
  -4   5   0   17.81    0.93
  -4  -5   0   17.55    0.98
   4  -5   1  226.32    3.49
   4   5   1  218.90    3.68
   4   5   1  224.98    3.51
   4  -5   1  217.61    3.52
   4   5   1  215.54    3.56
  -4   5  -1  207.42    3.24
  -4  -5  -1  218.96    3.61
   4  -5   2    3.27    0.75
   4   5   2    3.34    0.82
   4   5   2    3.36    0.93
   4  -5   2    3.54    0.93
   4  -5   2    2.96    0.70
  -4  -5  -2    3.62    0.83
   4  -5   3    1.88    0.70
   4   5   3    2.46    0.85
   4  -5   3    2.31    0.68
   4   5   3    1.63    0.99
  -4  -5  -3    2.10    0.78
   4   5   4   10.15    1.01
   4  -5   4   10.36    0.89
   4   5   4   11.76    1.22
  -4  -5  -4   10.55    0.92
   4   5   5  107.80    3.14
   4  -5   5   89.18    2.65
   4  -5   5  104.89    3.14
   4  -5   5  101.05    2.83
   4  -5   5   89.18    2.65
  -4  -5  -5   97.27    2.88
   4   5   6    0.01    0.89
   4  -5   6    0.85    1.08
   4   5   6   -0.94    1.15
   4  -5   6   -0.06    0.57
  -4  -5  -6    0.21    0.80
   4   5   7    3.27    0.88
   4  -5   7    2.82    1.16
   4   5   7    2.78    1.36
  -4  -5  -7    2.81    0.72
   4   5   8   -0.13    0.85
   4  -5   8    1.12    1.13
   4   5   8    0.48    0.99
   4   5   9   54.11    1.91
   4   5   9   53.84    1.89
   4  -5   9   52.61    1.90
   4   5   9   61.88    2.38
   4   5   9   61.56    2.37
   4   6 -12   10.47    1.06
   4   6 -12   10.69    1.05
  -4   6  12   11.40    1.31
   4   6 -11    5.28    0.82
   4   6 -11    5.58    1.01
  -4   6  11    4.78    1.18
  -4  -6  11    5.83    0.83
   4   6 -10   -0.37    0.83
   4   6 -10    0.94    0.72
  -4   6  10   -0.54    1.00
  -4  -6  10   -0.07    0.71
   4   6  -9    4.73    0.89
  -4  -6   9    3.29    0.81
  -4   6   9    4.64    1.15
   4   6  -8   42.69    1.57
   4  -6  -8   37.82    1.55
  -4  -6   8   41.46    1.48
  -4   6   8   40.84    1.72
  -4  -6   8   43.07    1.59
   4   6  -7    0.52    0.81
   4  -6  -7    1.09    0.92
  -4  -6   7    0.79    0.76
  -4   6   7    1.25    1.01
  -4  -6   7    0.98    0.75
   4   6  -6    6.44    0.90
   4  -6  -6    4.92    0.93
   4  -6  -6    6.05    1.04
   4   6  -6    5.89    0.73
  -4  -6   6    5.97    0.80
  -4  -6   6    5.71    0.79
  -4  -6   6    5.83    0.76
  -4   6   6    5.72    1.00
   4  -6  -5    1.45    0.53
   4   6  -5    2.12    0.87
   4  -6  -5    1.94    0.95
   4  -6  -5    0.99    0.61
   4   6  -5    1.75    0.61
   4   6  -5    1.77    0.72
  -4  -6   5    1.74    0.76
  -4  -6   5    1.94    0.78
  -4  -6   5    1.61    0.66
   4   6  -4  175.62    2.84
   4  -6  -4  162.23    3.35
   4  -6  -4  170.96    3.08
   4   6  -4  181.98    2.94
   4   6  -4  181.34    3.20
  -4  -6   4  170.85    3.09
  -4  -6   4  173.12    2.88
   4  -6  -3    2.54    0.66
   4  -6  -3    2.42    0.67
   4   6  -3    2.58    0.76
   4  -6  -3    1.90    0.99
   4   6  -3    2.08    0.77
  -4  -6   3    1.39    0.73
   4  -6  -2   13.77    0.89
   4  -6  -2   11.20    0.69
   4  -6  -2   12.01    0.87
   4   6  -2   13.24    0.86
   4  -6  -2   12.58    1.06
  -4  -6   2   13.11    0.94
  -4  -6   2   12.74    0.86
   4  -6  -1    4.29    0.72
   4   6  -1    3.68    0.73
   4   6  -1    3.26    0.80
   4  -6  -1    4.61    0.88
   4   6  -1    4.15    0.77
   4  -6  -1    3.68    0.58
  -4   6   1    4.12    0.64
  -4  -6   1    3.64    0.87
  -4  -6   1    4.02    0.81
   4  -6   0  253.17    3.79
   4   6   0  244.39    3.94
   4  -6   0  250.79    4.16
   4  -6   0  255.27    4.12
   4   6   0  253.22    3.87
   4   6   0  217.49    7.51
  -4   6   0  236.97    3.86
  -4  -6   0  248.55    4.45
   4  -6   1    7.51    0.80
   4   6   1    9.04    0.86
   4  -6   1    8.22    0.78
   4  -6   1    8.03    1.00
   4   6   1    9.10    0.87
   4   6   1    9.01    0.94
  -4   6  -1    8.83    0.76
  -4  -6  -1    8.42    0.94
   4  -6   2    5.18    0.75
   4   6   2    4.86    0.88
   4   6   2    5.69    0.85
   4  -6   2    4.50    0.98
   4  -6   2    4.21    0.67
   4   6   2    4.11    0.97
  -4  -6  -2    5.02    0.85
   4  -6   3    1.01    0.72
   4   6   3    0.93    0.78
   4   6   3    1.72    1.03
   4  -6   3    0.85    0.92
   4  -6   3    0.45    0.62
  -4  -6  -3    0.55    0.65
   4   6   4   57.74    1.99
   4  -6   4   55.90    1.82
   4   6   4   60.30    2.23
  -4  -6  -4   56.22    1.90
   4   6   5   -0.12    0.72
   4   6   5    1.04    1.16
  -4  -6  -5    0.26    0.78
   4   6   6    8.87    0.91
   4   6   6   12.25    1.42
   4  -6   6   11.27    1.25
  -4  -6  -6    9.50    0.90
   4   6   7    5.36    0.89
   4  -6   7    6.01    1.13
   4   6   7    6.83    1.40
   4   6   8    2.26    0.90
   4  -6   8    2.17    1.09
   4   6   8    2.72    1.39
   4   7 -12   -0.14    0.82
   4   7 -12   -0.19    0.79
  -4   7  12    0.75    1.14
   4   7 -11    0.88    0.71
  -4  -7  11    0.39    0.73
  -4   7  11    0.63    0.84
   4   7 -10    0.13    0.89
  -4  -7  10   -0.11    0.68
  -4   7  10   -0.15    1.14
   4   7  -9   49.75    2.02
  -4  -7   9   43.54    1.77
  -4   7   9   40.83    1.78
   4   7  -8    7.01    0.99
   4   7  -8    5.66    0.92
  -4   7   8    6.07    0.92
  -4  -7   8    6.23    0.86
   4   7  -7    7.39    0.77
   4   7  -7    8.22    1.01
   4  -7  -7    6.73    1.01
  -4  -7   7    7.80    0.84
  -4   7   7    7.93    1.16
  -4  -7   7    8.11    0.80
  -4  -7   7    7.84    0.83
   4   7  -6    9.59    1.03
   4  -7  -6    7.88    1.06
   4  -7  -6    8.42    0.75
   4   7  -6   10.00    0.81
   4   7  -6    9.75    0.83
  -4  -7   6    8.72    0.87
  -4  -7   6    9.02    0.93
  -4  -7   6    8.85    0.81
   4  -7  -5   38.41    1.19
   4   7  -5   46.63    1.50
   4   7  -5   45.80    1.45
   4  -7  -5   44.14    1.38
   4   7  -5   47.17    1.42
   4  -7  -5   40.75    1.52
  -4  -7   5   43.79    1.38
  -4  -7   5   42.28    1.22
   4  -7  -4    4.00    0.64
   4  -7  -4    4.34    0.79
   4   7  -4    3.89    0.75
   4  -7  -4    3.72    0.90
   4   7  -4    3.98    0.84
  -4  -7   4    3.82    0.80
   4  -7  -3  132.45    3.79
   4   7  -3  141.31    3.60
   4  -7  -3  131.87    4.34
   4   7  -3  140.21    3.52
   4  -7  -3  131.49    3.72
  -4  -7   3  138.75    3.65
  -4  -7   3  146.82    3.71
   4  -7  -2    8.80    0.73
   4   7  -2    7.87    0.70
   4  -7  -2    7.69    0.61
   4  -7  -2    8.73    0.88
   4   7  -2    9.28    0.81
   4  -7  -2    7.50    0.95
  -4  -7   2    8.29    0.81
  -4  -7   2    9.27    0.96
   4  -7  -1  113.95    3.03
   4   7  -1  113.27    3.00
   4   7  -1  111.98    3.45
   4  -7  -1  110.28    3.08
   4   7  -1  110.38    2.91
   4  -7  -1  114.21    3.09
   4  -7  -1   99.36    3.15
  -4   7   1  105.02    2.82
  -4  -7   1  114.24    3.00
   4  -7   0    4.26    0.79
   4   7   0    4.77    0.78
   4  -7   0    3.86    0.65
   4  -7   0    4.92    0.95
   4   7   0    5.20    0.81
   4   7   0    4.60    0.99
  -4   7   0    4.96    0.72
  -4  -7   0    5.08    0.79
   4  -7   1   51.45    1.46
   4   7   1   53.07    1.58
   4  -7   1   49.03    1.55
   4  -7   1   55.34    1.70
   4   7   1   54.16    1.59
   4   7   1   54.90    1.70
  -4   7  -1   50.01    1.40
  -4  -7  -1   53.97    1.64
   4  -7   2    3.61    0.78
   4   7   2    3.86    0.86
   4   7   2    3.60    0.83
   4  -7   2    3.53    0.92
   4  -7   2    4.15    0.68
   4   7   2    4.83    1.03
  -4  -7  -2    4.41    0.86
   4   7   3    5.80    0.88
   4   7   3    6.91    1.10
   4  -7   3    6.25    0.87
   4  -7   3    6.67    0.70
  -4  -7  -3    6.89    0.84
   4   7   4   18.72    1.18
   4   7   4   21.67    1.50
   4  -7   4   16.44    1.24
   4  -7   4   19.47    1.10
  -4  -7  -4   16.52    1.12
   4   7   5  116.45    6.19
   4   7   5  116.28    6.09
  -4  -7  -5  116.47    5.96
   4   7   6   -0.15    0.79
   4   7   6    1.14    1.25
   4  -7   6    1.19    1.10
  -4  -7  -6    0.85    0.70
   4   7   7    3.84    0.91
   4  -7   7    6.26    1.23
   4   7   7    7.00    1.29
   4   7   8    0.40    0.77
   4  -7   8   -0.96    1.14
   4   7   8    0.95    1.19
   4   8 -11    0.19    0.79
  -4   8  11   -0.75    1.12
   4   8 -10    0.90    0.89
   4   8 -10    0.61    0.97
  -4   8  10    0.75    0.87
  -4  -8  10    0.16    0.67
   4   8  -9   -0.33    0.99
   4   8  -9    0.83    0.96
  -4   8   9   -0.85    1.10
  -4  -8   9   -0.90    0.76
   4   8  -8   30.49    1.86
   4   8  -8   27.65    1.64
  -4   8   8   25.74    1.77
  -4  -8   8   28.48    1.69
   4   8  -7    0.58    0.92
   4   8  -7    0.27    0.66
  -4  -8   7    1.02    0.76
  -4   8   7    0.61    1.16
   4   8  -6    6.41    0.79
   4  -8  -6    5.48    0.57
   4  -8  -6    5.56    0.66
   4   8  -6    6.59    0.71
   4   8  -6    6.77    0.99
   4  -8  -6    6.67    0.96
  -4  -8   6    5.56    0.69
   4   8  -5    4.23    0.93
   4  -8  -5    3.00    0.53
   4  -8  -5    2.93    0.70
   4   8  -5    3.82    0.76
   4   8  -5    3.01    0.97
   4  -8  -5    3.62    1.00
  -4  -8   5    3.43    0.81
   4  -8  -4    6.87    0.64
   4  -8  -4    8.89    0.90
   4   8  -4    9.09    0.77
   4  -8  -4    8.78    1.04
   4   8  -4    7.78    0.95
  -4  -8   4    7.79    0.79
   4  -8  -3    0.96    0.65
   4   8  -3    1.83    0.89
   4   8  -3    1.23    0.80
   4  -8  -3    1.52    0.73
   4   8  -3    0.62    0.70
   4  -8  -3    1.05    0.98
  -4  -8   3    0.21    0.80
  -4  -8   3    0.75    0.77
   4  -8  -2   38.11    1.23
   4   8  -2   39.71    1.35
   4   8  -2   38.40    1.34
   4  -8  -2   38.92    1.46
   4   8  -2   37.25    1.24
   4  -8  -2   37.10    1.45
  -4  -8   2   35.79    1.32
  -4  -8   2   39.54    1.36
   4  -8  -1   48.54    1.41
   4   8  -1   51.65    1.52
   4  -8  -1   45.10    1.57
   4  -8  -1   47.37    1.64
   4   8  -1   48.44    1.40
   4   8  -1   47.46    1.73
  -4   8   1   47.54    1.47
  -4  -8   1   49.94    1.53
  -4  -8   1   47.49    1.58
   4  -8   0   -0.17    0.71
   4   8   0    0.79    0.81
   4   8   0   -0.49    0.77
   4  -8   0    0.78    0.96
   4   8   0    0.82    0.88
   4  -8   0    0.34    0.57
  -4   8   0    0.61    0.62
  -4  -8   0   -0.21    0.83
  -4  -8   0    0.52    0.72
   4  -8   1    3.75    0.82
   4   8   1    3.81    0.88
   4  -8   1    3.16    0.68
   4  -8   1    3.24    0.98
   4   8   1    3.21    0.86
   4   8   1    3.30    0.94
  -4   8  -1    2.93    0.57
  -4  -8  -1    2.94    0.84
   4  -8   2   32.14    1.41
   4   8   2   35.50    1.43
   4   8   2   37.28    1.66
   4  -8   2   36.95    1.59
   4  -8   2   31.09    1.28
  -4  -8  -2   32.38    1.28
   4   8   3    3.04    0.80
   4   8   3    3.77    1.05
   4  -8   3    2.30    1.02
   4  -8   3    2.69    0.66
  -4  -8  -3    2.92    0.74
   4   8   4   45.54    2.50
   4   8   4   49.66    2.78
   4  -8   4   47.98    2.70
   4  -8   4   44.58    2.40
  -4  -8  -4   44.93    2.43
   4   8   5    0.19    0.70
   4   8   5    1.61    1.16
  -4  -8  -5    1.74    0.78
   4   8   6    5.81    0.84
   4   8   6    5.85    1.00
   4   8   7   -0.52    0.86
   4  -8   7   -0.49    1.10
   4   8   7   -0.27    1.19
   4   9 -10    2.54    0.86
   4   9 -10    2.46    0.81
  -4   9  10    1.09    1.17
   4   9  -9   24.69    1.48
   4   9  -9   22.35    1.46
  -4   9   9   20.11    1.59
   4   9  -8    5.64    0.96
   4   9  -8    5.30    0.81
  -4   9   8    5.23    1.16
   4   9  -7   35.64    2.09
   4   9  -7   34.31    1.99
  -4  -9   7   30.55    1.78
   4   9  -6    0.72    0.95
   4  -9  -6    0.42    0.48
   4  -9  -6    0.53    0.58
   4   9  -6    0.71    0.64
   4   9  -6    0.48    0.88
  -4  -9   6    0.04    0.67
   4  -9  -5   77.14    3.19
   4  -9  -5   87.95    3.72
   4   9  -5   92.60    3.67
   4   9  -5   94.92    3.84
  -4  -9   5   85.99    3.55
   4  -9  -4   16.58    0.86
   4  -9  -4   19.53    1.11
   4   9  -4   17.30    0.93
   4   9  -4   18.58    1.06
  -4  -9   4   16.62    0.99
   4  -9  -3    6.39    0.70
   4   9  -3    8.53    0.98
   4  -9  -3    7.05    0.82
   4   9  -3    8.08    0.77
   4   9  -3    8.80    0.89
  -4  -9   3    7.44    0.94
   4  -9  -2    7.72    0.74
   4   9  -2    7.63    0.99
   4   9  -2    8.01    0.77
   4  -9  -2    7.34    0.93
   4   9  -2    7.78    0.90
  -4  -9   2    6.97    0.84
  -4  -9   2    6.83    0.85
   4  -9  -1    8.12    0.79
   4   9  -1    7.31    0.89
   4   9  -1    8.02    0.69
   4  -9  -1    7.92    0.99
   4  -9  -1    7.38    0.66
  -4  -9   1    7.29    0.84
  -4  -9   1    8.81    0.95
   4  -9   0    0.38    0.69
   4   9   0    0.22    0.83
   4   9   0    0.65    0.77
   4  -9   0    0.76    0.96
   4   9   0    0.31    0.91
   4  -9   0    0.40    0.55
  -4   9   0    0.75    0.63
  -4  -9   0    0.80    0.80
  -4  -9   0    0.41    0.74
   4   9   1   64.67    2.63
   4  -9   1   73.67    3.32
   4  -9   1   90.23    3.69
   4   9   1   77.86    3.56
  -4  -9  -1   79.79    3.24
  -4   9  -1   73.06    2.96
   4   9   2    0.75    0.82
   4   9   2    1.11    0.73
   4  -9   2    1.36    1.01
   4  -9   2    0.74    0.56
  -4  -9  -2    0.48    0.72
   4   9   3    8.75    0.95
   4   9   3    7.69    0.95
   4  -9   3    8.81    0.94
   4  -9   3    9.40    0.86
  -4  -9  -3    8.62    0.86
   4   9   4    0.16    0.86
   4   9   4    0.27    1.09
   4  -9   4    0.73    1.07
  -4  -9  -4   -0.02    0.68
   4   9   5   81.52    3.33
   4  -9   5   66.24    2.75
   4   9   5   89.48    3.72
   4   9   6    2.03    0.89
   4   9   6    1.75    1.22
   4  -9   7    0.45    1.19
   4   9   7   -1.28    1.19
   4  10 -10   -0.04    0.70
   4  10 -10    0.04    0.75
  -4  10  10   -0.45    1.14
   4  10  -9    0.74    1.00
   4  10  -9    1.03    1.01
  -4  10   9   -1.00    1.17
   4  10  -8   36.45    1.78
   4  10  -8   30.60    1.67
   4  10  -7    1.95    0.98
   4  10  -7    2.97    0.99
   4  10  -6   19.76    1.26
   4 -10  -6   19.25    1.05
   4  10  -6   17.35    1.01
  -4 -10   6   18.59    1.13
   4 -10  -5    3.35    0.68
   4  10  -5    3.80    0.67
   4  10  -5    4.80    0.92
  -4 -10   5    2.82    0.83
  -4 -10   5    2.68    0.81
   4  10  -4  132.06    1.85
   4 -10  -4  115.67    4.22
   4 -10  -4  132.22    2.16
   4  10  -4  124.11    4.49
   4  10  -4  124.60    2.30
  -4 -10   4  116.81    4.53
   4  10  -3    2.24    0.98
   4 -10  -3    1.61    0.58
   4 -10  -3    1.06    0.84
   4  10  -3    1.23    0.74
   4  10  -3    2.26    0.86
  -4 -10   3    0.68    0.75
   4 -10  -2    0.38    0.72
   4  10  -2   -0.40    0.91
   4 -10  -2    0.08    0.88
   4  10  -2    0.07    0.73
   4  10  -2   -0.07    0.62
  -4 -10   2    0.64    0.78
   4 -10  -1    0.88    0.62
   4  10  -1    1.06    0.84
   4 -10  -1    0.62    0.86
   4  10  -1    0.94    0.74
   4  10  -1    1.43    0.81
  -4 -10   1    1.37    0.88
   4  10   0  130.44    1.90
   4 -10   0  132.57    1.99
   4 -10   0  114.53    4.45
  -4 -10   0  123.67    4.62
  -4  10   0  114.97    4.25
   4  10   1    4.04    0.70
   4 -10   1    4.84    1.16
   4  10   1    3.63    0.87
   4 -10   1    4.14    0.60
  -4  10  -1    4.90    0.62
  -4 -10  -1    3.72    0.94
   4  10   2   12.15    0.97
   4 -10   2   13.76    1.21
   4  10   2   10.99    1.03
   4 -10   2   10.57    0.71
   4  10   3   -0.08    0.76
   4 -10   3    0.90    1.05
   4  10   3    0.16    0.72
   4 -10   3   -0.32    0.56
   4  10   4   40.78    1.90
   4 -10   4   44.13    2.16
   4  10   4   43.37    2.09
   4  10   5   -0.30    0.83
   4 -10   5    0.40    0.88
   4  10   5   -0.19    1.11
   4  10   6    8.32    0.88
   4  10   6   11.03    1.38
   4  11  -9   46.66    1.69
   4  11  -9   44.60    1.67
   4  11  -8   -0.81    0.96
   4  11  -8   -0.36    0.96
   4  11  -7    2.35    1.01
   4  11  -7    2.19    1.01
   4  11  -6    5.66    0.82
   4  11  -5   32.85    1.90
   4 -11  -5   35.25    1.87
   4  11  -5   34.78    1.90
   4  11  -4    6.87    1.04
   4 -11  -4    6.31    0.94
   4  11  -4    5.63    0.72
   4  11  -4    6.10    0.99
  -4 -11   4    5.26    0.77
   4  11  -3   25.63    1.35
   4 -11  -3   23.41    1.12
   4 -11  -3   22.43    1.22
   4  11  -3   25.08    1.24
   4  11  -3   24.54    1.36
  -4 -11   3   22.53    1.29
   4  11  -2    0.40    0.86
   4 -11  -2    0.29    0.67
   4 -11  -2    0.22    0.86
   4  11  -2    0.13    0.61
   4  11  -2   -0.26    0.82
  -4 -11   2   -0.26    0.74
   4  11  -1    8.46    1.05
   4 -11  -1    9.65    1.03
   4  11  -1    8.96    0.91
  -4 -11   1    8.10    0.86
   4  11   0    0.42    0.64
   4 -11   0   -0.02    0.78
   4  11   0    0.43    0.76
  -4  11   0    0.30    0.56
   4  11   1   29.88    1.72
   4 -11   1   31.55    1.80
   4  11   1   34.02    1.94
   4  11   2    0.67    0.82
   4 -11   2    0.71    0.83
   4  11   2    0.92    1.07
   4  11   3   -0.18    0.79
   4 -11   3   -0.01    0.82
   4  11   3    1.24    1.10
   4  11   4    0.64    0.75
   4 -11   4   -0.07    0.93
   4  11   4   -0.02    1.04
   4  11   5   91.10    2.86
   4 -11   5   95.44    2.94
   4  11   5   75.70    2.67
   4  12  -7    2.81    1.00
   4  12  -6   -1.07    0.80
   4  12  -5    0.58    1.01
   4  12  -5   -0.43    0.77
   4  12  -4   60.89    2.89
   4 -12  -4   55.06    2.73
   4  12  -4   57.65    2.52
   4  12  -3    2.91    0.99
   4 -12  -3    3.54    0.94
   4  12  -3    3.23    0.78
   4  12  -2    1.87    1.06
   4 -12  -2    1.66    0.91
   4  12  -2    1.47    0.84
   4  12  -1   -0.01    0.82
   4 -12  -1    0.66    0.95
   4  12  -1    0.22    0.85
   4  12   0   63.91    2.68
   4 -12   0   62.71    2.83
   4  12   0   54.48    2.41
   4  12   1    0.64    0.82
   4 -12   1    1.33    0.95
   4  12   1    0.27    0.79
   4  12   2    0.57    0.89
   4 -12   2    1.26    0.84
   4  12   2    0.03    0.76
   4  12   3   -0.09    0.89
   4 -12   3    0.60    1.07
   4  12   3    0.24    1.01
   4  13  -5    5.97    0.82
   4  13  -5    7.74    0.96
   4  13  -4   -0.01    0.88
   4  13  -4    0.52    0.81
   4  13  -3    0.29    1.02
   4 -13  -3    0.22    0.83
   4  13  -3   -0.20    0.82
   4  13  -2    9.08    1.08
   4 -13  -2    9.01    1.15
   4  13  -2    8.07    0.97
   4  13  -1    0.55    0.92
   4 -13  -1    0.01    0.99
   4  13  -1   -0.55    0.75
   4  13   0    0.70    0.81
   4 -13   0    0.58    1.03
   4  13   0    0.64    0.79
   4  13   1   11.09    1.03
   4 -13   1   11.61    1.25
   4  13   1    8.64    0.88
  -5   0  13   68.59    3.67
  -5   0  13   71.41    3.95
   5   0 -12   -0.12    0.75
  -5   0  12    0.22    0.90
  -5   0  12    0.65    0.88
   5   0 -11    1.76    0.56
   5   0 -11    2.68    0.86
  -5   0  11    2.23    0.82
  -5   0  11    1.87    0.88
   5   0 -10    0.01    0.62
   5   0 -10   -0.28    0.76
  -5   0  10   -0.13    0.65
  -5   0  10    0.28    0.83
  -5   0  10    0.16    0.93
   5   0  -9   81.27    2.51
   5   0  -9   82.24    2.58
  -5   0   9   72.24    2.34
  -5   0   9   82.00    2.68
  -5   0   9   74.58    2.36
   5   0  -8   -0.09    0.63
   5   0  -8   -0.56    0.72
  -5   0   8   -0.05    0.61
  -5   0   8   -0.54    0.62
  -5   0   8   -0.15    0.96
   5   0  -7   16.28    0.93
   5   0  -7   16.29    0.95
  -5   0   7   14.55    0.88
  -5   0   7   15.61    0.96
  -5   0   7   15.45    1.07
   5   0  -6    0.09    0.58
   5   0  -6    0.36    0.73
  -5   0   6    0.86    0.78
  -5   0   6   -0.27    0.72
   5   0  -5  161.46    3.36
   5   0  -5  169.89    3.60
  -5   0   5  161.82    3.43
   5   0  -4    0.20    0.84
   5   0  -4    0.24    0.65
  -5   0   4   -0.70    0.88
   5   0  -3   50.19    1.49
   5   0  -3   42.54    1.38
  -5   0   3   49.37    1.54
  -5   0   3   48.12    1.48
   5   0  -2    0.07    0.85
   5   0  -2   -1.03    1.04
  -5   0   2   -0.41    0.99
  -5   0   2   -0.94    1.04
   5   0  -1   22.53    1.25
   5   0  -1   20.48    1.04
  -5   0   1   21.20    1.02
  -5   0   1   21.28    1.15
   5   0   0   -0.12    0.97
   5   0   0    0.15    0.75
  -5   0   0    0.59    0.81
  -5   0  -1  193.19    4.12
   5   0   2    0.29    0.86
   5   0   2   -0.88    0.82
  -5   0  -2    0.09    0.76
   5   0   3    3.65    1.05
   5   0   3    2.74    0.74
  -5   0  -3    3.18    0.81
   5   0   4    0.59    0.71
   5   0   4   -0.11    0.71
  -5   0  -4   -0.40    0.81
   5   0   5  194.36    2.27
   5   0   5  174.42    4.67
  -5   0  -5  181.24    4.90
   5   0   6    0.44    0.98
   5   0   6    0.53    0.73
   5   0   7   36.91    1.96
   5   0   7   34.15    1.81
   5   0   8    0.39    0.97
   5   0   9   26.74    1.40
  -5  -1  13   -0.01    0.94
  -5   1  13   -0.74    0.90
  -5  -1  13   -0.16    0.94
   5   1 -12    1.60    0.94
  -5  -1  12    1.77    0.86
  -5  -1  12    0.66    0.84
  -5   1  12    1.46    0.92
   5   1 -11    0.27    0.65
   5   1 -11   -0.50    0.83
   5  -1 -11    0.35    0.72
  -5  -1  11    0.24    0.57
  -5   1  11    0.04    0.86
  -5  -1  11    0.55    0.81
  -5  -1  11    0.55    0.81
  -5   1  11   -0.38    0.63
  -5  -1  11   -0.46    0.94
   5  -1 -10    0.00    0.49
   5   1 -10    0.52    0.72
   5  -1 -10    1.54    0.83
   5   1 -10    0.68    0.89
  -5  -1  10    0.61    0.84
  -5   1  10    0.72    0.82
  -5  -1  10    0.93    0.79
  -5  -1  10    0.13    0.59
  -5   1  10    0.20    0.60
   5  -1  -9    0.35    0.56
   5   1  -9   -0.50    0.76
   5  -1  -9    0.73    0.71
   5   1  -9    0.34    0.76
  -5  -1   9   -0.76    0.96
  -5   1   9    0.21    0.86
  -5  -1   9    0.15    0.83
  -5  -1   9   -0.10    0.71
  -5   1   9   -0.25    0.60
   5   1  -8   35.40    1.19
   5  -1  -8   34.93    1.18
   5   1  -8   39.53    1.38
   5  -1  -8   38.76    1.32
  -5  -1   8   37.85    1.28
  -5   1   8   38.21    1.46
  -5   1   8   38.09    1.39
  -5  -1   8   36.87    1.34
  -5   1   8   37.09    1.27
  -5  -1   8   37.70    1.45
   5   1  -7   25.76    1.06
   5  -1  -7   25.04    1.02
   5   1  -7   26.44    1.14
   5  -1  -7   26.79    1.14
  -5  -1   7   25.73    1.07
  -5   1   7   25.81    1.28
  -5   1   7   25.63    1.12
  -5  -1   7   24.85    1.13
  -5   1   7   26.56    1.14
  -5  -1   7   26.17    1.28
   5   1  -6    1.94    0.67
   5  -1  -6    1.57    0.55
   5   1  -6    1.15    0.70
   5  -1  -6    1.56    0.71
  -5  -1   6    1.37    0.66
  -5   1   6    1.12    0.73
  -5  -1   6    1.37    0.85
   5   1  -5    4.69    0.69
   5  -1  -5    4.24    0.75
   5   1  -5    4.23    0.76
   5  -1  -5    4.24    0.73
   5  -1  -5    4.76    0.74
  -5   1   5    4.76    0.70
  -5  -1   5    4.33    0.84
  -5  -1   5    4.44    0.78
   5   1  -4  369.22    7.00
   5  -1  -4  337.53    6.50
   5  -1  -4  375.05    7.21
   5   1  -4  351.19    6.70
  -5  -1   4  364.05    6.97
  -5   1   4  351.51    6.77
  -5   1   4  352.22    7.05
   5   1  -3   15.29    1.00
   5  -1  -3   14.84    0.99
  -5  -1   3   14.95    1.07
  -5   1   3   16.10    1.10
  -5   1   3   16.17    0.96
   5   1  -2    0.11    0.84
   5  -1  -2    0.88    0.78
   5  -1  -2   -0.01    0.78
   5   1  -2   -0.09    0.87
  -5   1   2    0.38    0.80
  -5   1   2   -0.10    0.90
  -5  -1   2    0.61    0.91
  -5  -1   2    0.22    0.92
   5   1  -1    0.67    0.77
   5  -1  -1    0.48    0.93
   5  -1  -1   -0.04    0.87
   5   1  -1    0.38    0.80
  -5   1   1   -0.19    0.94
  -5  -1   1    0.73    0.80
  -5   1   1    0.37    0.78
   5  -1   0  206.26    4.65
   5  -1   0  211.89    4.28
   5   1   0  207.17    4.18
  -5   1   0  210.57    4.24
   5  -1   1    2.29    0.78
   5   1   1    2.13    0.78
  -5  -1  -1    2.27    0.84
   5   1   2    2.90    0.94
   5   1   2    2.34    0.79
   5  -1   2    1.80    0.68
  -5  -1  -2    1.93    0.83
  -5   1  -2    1.94    0.77
   5   1   3    8.09    1.04
   5  -1   3    6.32    0.95
   5   1   3    7.32    0.83
   5  -1   3    7.20    0.89
  -5  -1  -3    6.81    0.89
  -5   1  -3    6.72    0.96
   5   1   4    6.54    1.09
   5  -1   4    6.91    1.13
   5   1   4    6.86    0.85
   5  -1   4    6.89    0.85
  -5  -1  -4    7.68    0.92
  -5   1  -4    6.88    0.98
   5   1   5   42.59    1.68
   5  -1   5   44.08    1.73
   5  -1   5   40.08    1.51
   5   1   5   39.59    1.49
  -5  -1  -5   38.08    1.46
   5   1   6   37.75    2.21
   5  -1   6   37.29    2.20
   5   1   6   33.22    1.95
   5  -1   6   32.77    1.90
   5   1   7    9.00    1.03
   5  -1   7   10.67    1.24
   5  -1   7    8.41    0.87
   5   1   8    5.78    0.98
   5  -1   8    7.32    1.12
   5   1   9   -0.53    0.97
   5  -1   9   -0.10    1.06
   5   2 -13   11.52    1.20
  -5  -2  13   10.76    1.11
  -5  -2  13   10.59    1.22
  -5   2  13   10.05    1.19
   5   2 -12    0.29    0.59
   5   2 -12   -0.83    0.97
  -5  -2  12   -1.38    0.91
  -5  -2  12   -0.59    0.88
  -5   2  12   -0.03    0.92
   5   2 -11    0.10    0.71
   5   2 -11   -0.05    0.87
   5  -2 -11    0.23    0.74
  -5  -2  11    0.23    0.86
  -5  -2  11    0.61    0.82
  -5   2  11    0.49    0.88
  -5  -2  11   -0.24    0.56
   5   2 -10   -0.15    0.61
   5   2 -10   -1.02    0.92
   5  -2 -10   -0.37    0.66
  -5  -2  10   -0.71    0.67
  -5  -2  10    0.85    0.87
  -5   2  10    0.76    0.84
  -5  -2  10   -0.17    0.87
  -5   2  10   -0.11    0.60
  -5   2  10   -0.15    0.57
   5  -2  -9   50.72    1.66
   5   2  -9   50.29    1.69
   5  -2  -9   53.35    1.78
   5   2  -9   54.90    1.92
  -5  -2   9   54.69    1.96
  -5   2   9   52.45    1.83
  -5  -2   9   48.93    1.74
  -5  -2   9   53.52    1.78
  -5   2   9   51.38    1.77
   5   2  -8    1.79    0.70
   5  -2  -8    1.11    0.54
   5  -2  -8    1.65    0.71
   5   2  -8    2.24    0.90
  -5  -2   8    1.43    0.84
  -5   2   8    1.59    0.62
  -5  -2   8    1.69    0.69
  -5  -2   8    1.93    0.67
  -5   2   8    1.65    0.65
   5   2  -7    0.59    0.79
   5  -2  -7    0.07    0.54
   5  -2  -7    0.59    0.61
   5   2  -7    0.14    0.74
  -5  -2   7   -0.08    0.77
  -5   2   7   -0.30    0.87
  -5  -2   7    0.25    0.59
  -5  -2   7    0.68    0.65
  -5   2   7    0.14    0.62
   5   2  -6    8.21    0.77
   5  -2  -6    7.43    0.67
   5   2  -6    8.10    0.85
   5  -2  -6    7.09    0.82
   5  -2  -6    7.71    0.70
  -5   2   6    7.29    0.75
  -5  -2   6    7.60    0.89
  -5  -2   6    8.40    0.80
   5   2  -5  151.59    3.34
   5  -2  -5  152.10    3.35
   5   2  -5  155.24    3.46
   5  -2  -5  153.80    3.37
   5  -2  -5  147.68    3.44
  -5   2   5  151.84    3.40
  -5  -2   5  157.16    3.51
  -5  -2   5  156.39    3.46
  -5   2   5  147.01    3.29
   5   2  -4   22.47    1.13
   5   2  -4   22.50    1.15
   5  -2  -4   22.46    1.12
   5  -2  -4   23.78    1.15
  -5  -2   4   22.59    1.16
  -5   2   4   22.88    1.14
  -5  -2   4   22.36    1.19
  -5   2   4   22.51    1.11
   5   2  -3  170.58    3.53
   5   2  -3  166.19    3.47
   5  -2  -3  168.37    3.57
   5  -2  -3  157.22    3.37
  -5   2   3  170.00    3.82
  -5   2   3  159.98    3.38
  -5  -2   3  171.03    3.62
  -5  -2   3  171.03    3.62
   5   2  -2    0.37    0.70
   5   2  -2   -0.01    0.69
   5  -2  -2    0.30    0.93
  -5  -2   2   -0.63    0.93
  -5   2   2    0.06    0.81
  -5   2   2   -1.22    1.03
   5  -2  -1   19.06    1.12
   5  -2  -1   19.81    1.11
  -5   2   1   19.65    1.05
  -5   2   1   20.50    0.98
  -5  -2   1   21.02    1.17
   5  -2   0    5.33    0.89
   5  -2   0    5.31    0.90
   5   2   0    6.13    0.84
  -5  -2   0    5.24    0.94
  -5   2   0    5.51    0.90
  -5   2   0    5.50    0.76
   5   2   1  199.44    4.24
   5   2   1  220.98    4.62
   5  -2   1  227.75    4.77
  -5  -2  -1  216.21    4.60
  -5   2  -1  198.76    4.22
   5   2   2   19.50    1.15
   5  -2   2   19.54    1.06
   5   2   2   19.68    1.11
  -5  -2  -2   18.33    1.06
   5   2   3    1.34    0.90
   5  -2   3    0.31    0.98
   5   2   3    0.35    0.75
   5  -2   3    0.97    0.65
  -5  -2  -3    0.58    0.85
  -5   2  -3    0.70    0.80
   5   2   4    8.00    1.05
   5  -2   4    8.05    1.07
   5   2   4    6.86    0.88
   5  -2   4    6.96    0.78
  -5  -2  -4    6.21    0.91
  -5   2  -4    6.70    0.97
   5   2   5   31.59    1.46
   5  -2   5   31.52    1.48
   5  -2   5   30.18    1.27
   5   2   5   30.67    1.36
  -5  -2  -5   29.80    1.31
   5   2   6    2.60    0.97
   5  -2   6    1.65    0.76
   5  -2   6    1.84    0.74
   5   2   7   -0.97    0.90
   5  -2   7   -0.58    1.04
   5   2   8    2.69    0.99
   5  -2   8    2.42    1.10
   5   2   9   33.51    1.47
   5  -2   9   35.43    1.64
   5   2   9   33.26    1.68
   5   3 -13    0.06    0.74
  -5   3  13   -0.27    0.97
  -5  -3  13   -0.86    0.92
   5   3 -12    7.80    0.80
   5   3 -12    6.53    0.97
  -5  -3  12    7.45    0.98
  -5  -3  12    7.15    0.90
  -5   3  12    6.16    0.92
   5   3 -11    0.91    0.82
   5   3 -11   -0.47    0.68
  -5  -3  11    0.53    0.81
  -5  -3  11    0.07    0.70
  -5  -3  11    0.43    0.89
  -5   3  11    0.24    0.96
   5   3 -10    0.72    0.66
   5   3 -10    0.72    0.66
   5   3 -10   -0.11    0.94
   5  -3 -10    0.06    0.66
  -5  -3  10   -0.06    0.89
  -5  -3  10   -0.24    0.72
  -5   3  10   -0.79    0.97
  -5  -3  10    0.22    0.64
   5   3  -9    3.45    0.77
   5   3  -9    3.84    0.95
   5  -3  -9    4.39    0.77
  -5  -3   9    4.00    0.91
  -5  -3   9    3.35    0.82
  -5   3   9    3.23    0.84
  -5  -3   9    3.41    0.70
   5  -3  -8   40.20    1.19
   5   3  -8   39.38    1.28
   5  -3  -8   40.12    1.19
   5   3  -8   43.59    1.38
  -5  -3   8   42.20    1.42
  -5   3   8   41.20    1.46
  -5  -3   8   39.13    1.35
  -5  -3   8   41.00    1.25
  -5   3   8   38.89    1.26
   5   3  -7    0.70    0.67
   5  -3  -7    0.64    0.50
   5  -3  -7   -0.19    0.77
   5  -3  -7    0.36    0.62
   5   3  -7    0.42    0.65
  -5   3   7    0.48    0.92
  -5  -3   7   -0.24    0.62
  -5  -3   7    0.36    0.72
  -5   3   7    0.04    0.59
  -5  -3   7    0.61    0.82
   5   3  -6   10.50    0.81
   5  -3  -6    8.89    0.70
   5   3  -6   11.53    0.92
   5  -3  -6    8.80    0.82
   5  -3  -6   10.30    0.72
  -5   3   6    9.61    0.75
  -5  -3   6   10.12    0.96
  -5  -3   6   10.08    0.84
   5   3  -5   24.33    1.03
   5  -3  -5   23.36    0.96
   5  -3  -5   23.86    1.08
   5   3  -5   23.36    1.10
   5   3  -5   22.51    1.13
   5  -3  -5   20.16    1.08
  -5   3   5   22.34    1.15
  -5  -3   5   23.49    1.18
  -5   3   5   22.64    0.97
  -5  -3   5   22.22    1.16
   5   3  -4   69.62    1.89
   5   3  -4   69.77    1.86
   5  -3  -4   71.96    1.96
   5  -3  -4   66.93    1.88
  -5  -3   4   69.56    1.90
  -5  -3   4   70.14    1.88
  -5   3   4   69.97    1.95
  -5   3   4   71.39    1.94
   5   3  -3    0.18    0.72
   5   3  -3   -0.51    0.75
   5  -3  -3    0.41    0.72
   5  -3  -3    0.17    0.70
  -5  -3   3    0.22    0.80
  -5  -3   3    0.21    0.97
  -5   3   3    0.69    0.82
  -5   3   3   -0.13    0.75
   5   3  -2   38.18    1.29
   5  -3  -2   42.53    1.51
   5   3  -2   38.32    1.34
   5   3  -2   35.10    1.28
  -5   3   2   40.15    1.36
  -5   3   2   39.71    1.37
   5  -3  -1    0.91    0.81
   5   3  -1    1.12    0.77
  -5   3   1    1.37    0.69
  -5   3   1    0.80    0.83
   5   3   0  117.00    3.16
   5  -3   0  118.65    2.87
   5  -3   0  117.68    2.73
  -5   3   0  114.60    2.67
  -5   3   0  104.19    2.50
  -5  -3   0  112.06    2.62
   5   3   1    1.16    0.79
   5  -3   1    0.33    0.64
   5  -3   1    1.60    0.90
   5   3   1    0.35    0.77
   5   3   1    1.05    0.91
  -5   3  -1    0.92    0.60
  -5  -3  -1    0.56    0.85
  -5   3  -1    0.85    0.77
   5   3   2    4.83    0.86
   5  -3   2    5.83    0.75
   5   3   2    5.33    0.85
   5  -3   2    5.83    0.75
  -5  -3  -2    5.63    0.86
   5   3   3    8.79    1.02
   5   3   3    8.23    0.94
   5  -3   3    7.96    0.75
  -5  -3  -3    8.22    0.88
  -5   3  -3    6.64    0.73
   5   3   4    0.63    0.91
   5  -3   4    1.35    1.04
   5   3   4    1.27    0.63
   5  -3   4    0.81    0.62
  -5  -3  -4    1.19    0.80
  -5   3  -4    1.71    0.92
   5   3   5    1.54    0.96
   5  -3   5    0.75    0.95
   5  -3   5    1.35    0.73
  -5  -3  -5    0.88    0.81
   5   3   6    1.54    0.91
   5  -3   6    1.92    0.98
   5  -3   6    2.02    0.67
   5   3   6    3.66    1.22
   5   3   7    1.53    0.89
   5  -3   7    1.42    1.17
   5   3   7    1.44    1.20
   5   3   8    6.65    0.99
   5  -3   8    7.52    1.18
   5   3   8    9.55    1.54
   5   4 -13   20.91    1.09
   5   4 -13   21.29    1.24
  -5  -4  13   20.59    1.05
  -5   4  13   22.89    1.41
  -5   4  13   22.89    1.41
   5   4 -12    0.06    0.72
   5   4 -12    0.89    0.75
  -5  -4  12    0.52    0.86
  -5  -4  12    0.65    0.83
  -5   4  12    0.17    1.05
   5   4 -11    2.22    0.78
   5   4 -11    3.82    0.76
  -5  -4  11    1.84    0.80
  -5  -4  11    2.35    0.77
  -5  -4  11    2.24    0.80
  -5   4  11    2.17    1.03
   5   4 -10    1.45    0.86
   5   4 -10    1.53    0.99
  -5  -4  10    1.89    0.86
  -5  -4  10    1.13    0.72
  -5  -4  10    1.17    0.86
  -5   4  10    1.12    0.97
   5   4  -9   61.24    1.97
   5   4  -9   61.51    1.92
  -5  -4   9   60.32    1.99
  -5  -4   9   62.34    1.97
  -5  -4   9   60.32    2.05
  -5   4   9   59.04    2.08
   5   4  -8    6.81    0.91
   5  -4  -8    5.99    0.68
   5   4  -8    5.38    0.95
   5  -4  -8    5.91    0.91
  -5  -4   8    5.35    0.81
  -5   4   8    5.68    0.91
  -5  -4   8    5.97    0.85
  -5  -4   8    6.42    0.89
   5   4  -7   13.22    0.97
   5  -4  -7   11.45    0.71
   5   4  -7   13.41    1.02
   5  -4  -7   11.67    0.72
   5  -4  -7   11.68    0.96
  -5   4   7   12.30    1.01
  -5  -4   7   11.87    0.88
  -5  -4   7   11.41    0.93
  -5   4   7   10.85    0.75
  -5  -4   7   12.99    1.02
   5   4  -6    2.56    0.74
   5  -4  -6    2.36    0.59
   5  -4  -6    1.90    0.64
   5  -4  -6    2.67    0.80
   5   4  -6    2.38    0.68
  -5  -4   6    1.77    0.79
  -5  -4   6    1.82    0.76
  -5   4   6    2.07    0.60
   5   4  -5   22.97    0.96
   5  -4  -5   23.75    1.09
   5  -4  -5   22.52    0.99
   5   4  -5   23.50    1.06
   5   4  -5   24.09    1.04
   5  -4  -5   23.23    0.87
  -5  -4   5   23.39    1.06
  -5  -4   5   24.24    1.08
  -5   4   5   22.69    0.99
   5   4  -4    9.79    0.88
   5   4  -4    9.74    0.91
   5  -4  -4    9.20    0.81
   5  -4  -4    9.16    0.95
  -5  -4   4   10.08    0.88
  -5  -4   4   10.27    0.86
  -5   4   4    9.61    0.91
  -5   4   4    9.80    0.79
   5   4  -3   35.92    1.25
   5   4  -3   36.53    1.30
   5  -4  -3   33.68    1.27
   5  -4  -3   35.82    1.31
  -5  -4   3   36.88    1.32
  -5  -4   3   35.81    1.29
  -5   4   3   35.82    1.30
  -5   4   3   32.84    1.19
   5  -4  -2    3.39    0.83
   5   4  -2    3.33    0.84
   5   4  -2    4.62    0.76
  -5  -4   2    4.58    0.88
  -5   4   2    3.82    0.74
  -5   4   2    3.36    0.79
   5   4  -1   21.73    1.12
   5  -4  -1   24.72    1.26
   5   4  -1   22.82    1.06
  -5   4   1   23.94    1.20
  -5   4   1   22.93    1.02
  -5  -4   1   21.18    1.11
   5   4   0    1.41    0.85
   5   4   0    1.59    0.89
   5  -4   0    1.49    0.88
  -5  -4   0    1.48    0.89
  -5   4   0    1.79    0.67
  -5   4   0    1.33    0.86
   5   4   1  145.12    3.95
   5   4   1  132.36    4.33
   5  -4   1  137.91    3.88
  -5  -4  -1  139.25    3.63
  -5   4  -1  128.37    3.27
  -5   4  -1  144.22    3.68
   5   4   2    0.76    0.91
   5   4   2    1.51    0.93
   5  -4   2    1.44    1.01
   5  -4   2    0.38    0.68
   5   4   2    1.19    0.81
  -5   4  -2    0.53    0.78
  -5  -4  -2    1.29    0.74
   5   4   3    0.83    0.86
   5  -4   3    0.66    0.57
   5   4   3    0.16    0.83
   5   4   3    0.51    1.04
  -5  -4  -3    0.44    0.84
   5   4   4    0.57    0.91
   5  -4   4    0.62    0.54
   5   4   4    0.56    0.84
   5   4   4    1.18    1.16
  -5  -4  -4   -0.09    0.81
   5   4   5   45.65    2.05
   5  -4   5   45.53    2.11
   5   4   5   50.75    2.41
   5  -4   5   39.54    1.73
  -5  -4  -5   43.20    1.90
   5   4   6   -0.46    0.83
   5   4   6   -0.41    0.81
   5  -4   6    0.61    1.06
   5   4   6    0.20    1.17
   5   4   7    2.96    0.93
   5  -4   7    1.88    1.09
   5   4   7    2.31    1.00
   5   4   8   -0.06    0.69
   5  -4   8   -0.31    1.03
   5   4   8    0.73    1.23
   5   5 -12   11.06    0.97
   5   5 -12   11.27    1.15
  -5   5  12   10.45    1.19
  -5  -5  12   11.20    1.03
   5   5 -11   -0.01    0.81
   5   5 -11    0.52    0.96
  -5   5  11   -0.24    1.09
  -5  -5  11    0.20    0.85
   5   5 -10   11.96    0.93
   5   5 -10   10.30    1.12
  -5   5  10   10.02    1.11
  -5  -5  10   11.19    1.01
   5   5  -9   -0.75    0.86
   5   5  -9    0.76    0.94
  -5  -5   9    0.18    0.70
  -5   5   9    1.01    1.01
  -5  -5   9   -0.27    0.74
   5   5  -8  101.04    2.97
   5   5  -8  100.12    2.91
   5  -5  -8   89.29    2.84
  -5  -5   8  102.38    2.99
  -5  -5   8   97.73    2.94
  -5   5   8   95.44    2.96
   5   5  -7    7.15    0.93
   5  -5  -7    5.44    0.87
   5  -5  -7    5.87    0.63
   5   5  -7    7.91    1.00
   5  -5  -7    6.56    1.00
  -5  -5   7    7.04    0.72
  -5   5   7    6.56    1.05
  -5  -5   7    7.52    0.86
  -5  -5   7    6.52    0.90
   5  -5  -6   -0.13    0.52
   5   5  -6   -0.27    0.80
   5  -5  -6    0.46    0.87
   5  -5  -6   -0.40    0.54
   5  -5  -6   -0.02    0.50
   5   5  -6   -0.02    0.68
  -5  -5   6    0.46    0.76
  -5  -5   6   -0.05    0.80
  -5  -5   6   -0.18    0.66
   5   5  -5    2.82    0.80
   5  -5  -5    2.46    0.84
   5  -5  -5    2.14    0.71
   5  -5  -5    1.99    0.51
   5   5  -5    2.10    0.79
  -5  -5   5    2.60    0.76
  -5  -5   5    1.43    1.03
  -5  -5   5    2.12    0.83
   5   5  -4  229.95    5.51
   5   5  -4  228.27    5.46
   5  -5  -4  226.31    5.65
   5  -5  -4  221.09    5.43
  -5  -5   4  211.51    5.16
  -5  -5   4  228.73    5.51
  -5   5   4  208.48    5.15
  -5   5   4  214.81    5.29
   5   5  -3   19.91    0.99
   5  -5  -3   19.70    0.96
   5   5  -3   21.83    0.97
   5  -5  -3   20.80    1.03
  -5  -5   3   19.97    0.95
  -5   5   3   21.63    1.05
  -5   5   3   22.39    1.07
   5  -5  -2   14.51    0.94
   5   5  -2   13.22    0.87
   5   5  -2   12.76    0.83
  -5   5   2   14.07    0.91
  -5   5   2   15.40    0.94
   5   5  -1    0.75    0.77
   5   5  -1    0.47    0.79
   5  -5  -1    0.23    0.79
   5   5  -1   -0.25    0.81
  -5   5   1    0.11    0.82
  -5   5   1    0.81    0.64
  -5  -5   1    0.15    0.83
   5   5   0  124.12    4.03
   5   5   0  137.77    3.65
   5  -5   0  135.49    3.56
   5   5   0  134.21    3.43
  -5   5   0  133.50    3.66
  -5   5   0  131.29    3.36
  -5  -5   0  132.72    3.80
   5   5   1    9.08    0.96
   5   5   1    7.73    0.93
   5  -5   1    9.08    1.03
  -5  -5  -1    8.80    0.95
  -5   5  -1    9.01    0.78
  -5   5  -1    8.37    0.91
   5   5   2   18.84    1.06
   5   5   2   14.99    1.00
   5  -5   2   14.56    0.93
   5   5   2   18.87    1.24
  -5  -5  -2   18.47    1.02
   5  -5   3   -0.04    0.72
   5   5   3    0.33    0.82
   5   5   3    0.08    0.83
   5  -5   3   -0.86    0.91
   5  -5   3    0.31    0.71
   5   5   3    0.20    1.03
  -5  -5  -3    0.45    0.87
   5   5   4   63.96    2.76
   5   5   4   58.60    2.81
   5  -5   4   49.75    2.23
   5  -5   4   49.18    2.39
  -5  -5  -4   56.39    2.44
   5   5   5    0.46    0.92
   5  -5   5    1.53    1.16
   5   5   5    0.27    1.25
   5  -5   5    0.47    0.57
  -5  -5  -5    0.28    0.80
   5   5   6   41.20    2.17
   5  -5   6   37.19    2.03
   5   5   6   48.72    2.66
   5   5   7    0.54    0.91
   5  -5   7    0.34    1.25
   5   5   7   -0.08    0.96
   5   5   8    8.26    0.89
   5  -5   8    8.45    1.21
   5   5   8    7.31    1.49
   5   6 -12   -0.58    0.83
   5   6 -12   -0.68    0.68
  -5   6  12    0.10    1.06
  -5  -6  12   -0.37    0.76
   5   6 -11    1.39    0.84
   5   6 -11    1.63    1.02
  -5   6  11    1.59    1.10
  -5  -6  11    1.52    0.76
   5   6 -10    0.77    0.88
   5   6 -10    0.29    1.03
  -5   6  10   -0.44    0.90
  -5  -6  10   -0.07    0.90
   5   6  -9   47.36    2.57
   5  -6  -9   38.21    2.22
   5   6  -9   41.74    2.25
  -5  -6   9   43.17    2.36
  -5   6   9   37.08    2.12
   5   6  -8    1.20    0.85
   5  -6  -8    0.46    0.85
  -5  -6   8    0.12    0.74
  -5   6   8    0.42    1.06
  -5  -6   8    0.34    0.73
   5   6  -7    2.36    0.77
   5  -6  -7    0.21    0.61
   5  -6  -7    1.22    0.72
   5  -6  -7    1.43    0.66
  -5  -6   7    1.79    0.77
  -5  -6   7    1.49    0.66
  -5  -6   7    2.08    0.90
   5  -6  -6    4.08    0.58
   5   6  -6    4.11    0.89
   5  -6  -6    4.61    0.91
   5  -6  -6    4.87    0.70
   5   6  -6    4.94    0.75
  -5  -6   6    4.71    0.79
  -5  -6   6    5.63    0.93
  -5  -6   6    4.56    0.69
  -5  -6   6    4.54    0.69
   5  -6  -5   85.59    2.14
   5   6  -5   94.69    2.24
   5  -6  -5   85.64    2.26
   5  -6  -5   88.53    2.63
   5   6  -5   92.76    2.13
  -5  -6   5   96.72    2.22
  -5  -6   5   93.69    2.19
  -5  -6   5   83.94    2.29
   5  -6  -4    1.81    0.65
   5   6  -4    1.57    0.84
   5   6  -4    1.77    0.93
   5  -6  -4    1.79    0.77
   5  -6  -4    2.02    0.91
   5   6  -4    1.48    0.69
   5  -6  -4    1.41    0.53
  -5  -6   4    1.61    0.69
  -5  -6   4    1.99    0.81
  -5  -6   4    1.70    0.82
   5  -6  -3   88.12    2.72
   5  -6  -3   97.98    2.71
   5   6  -3   89.31    2.43
   5  -6  -3   89.04    2.58
  -5   6   3   83.16    2.33
   5  -6  -2   11.18    0.84
   5   6  -2   12.54    0.97
   5  -6  -2   13.47    1.12
   5   6  -2   12.07    0.88
   5  -6  -2   11.65    1.06
  -5   6   2   11.85    0.91
  -5  -6   2   13.43    0.96
   5  -6  -1    7.42    0.76
   5   6  -1    6.99    0.85
   5   6  -1    6.83    0.65
   5  -6  -1    7.20    0.88
   5   6  -1    6.91    0.81
  -5   6   1    6.19    0.71
  -5  -6   1    7.54    0.94
   5  -6   0    0.36    0.71
   5   6   0    1.19    0.81
   5   6   0    0.20    0.82
   5  -6   0    0.99    0.94
   5   6   0    0.93    0.81
  -5   6   0    1.19    0.71
  -5  -6   0    1.37    0.77
   5  -6   1  128.93    2.73
   5   6   1  133.25    2.98
   5  -6   1  111.24    3.89
   5  -6   1  123.60    3.53
   5   6   1  117.44    3.77
   5   6   1  128.27    2.72
  -5   6  -1  124.95    2.85
  -5  -6  -1  119.87    3.41
   5  -6   2    0.03    0.74
   5   6   2    0.24    0.83
   5   6   2   -0.05    0.92
   5  -6   2   -0.11    0.70
   5  -6   2   -0.02    0.62
  -5  -6  -2    0.09    0.81
   5   6   3    1.14    0.89
   5   6   3    1.58    0.94
   5  -6   3    0.89    1.02
   5  -6   3    1.10    0.65
  -5  -6  -3    1.44    0.70
   5   6   4    4.21    0.90
   5   6   4    2.49    1.10
  -5  -6  -4    3.42    0.82
   5   6   5   69.30    2.63
   5   6   5   67.65    2.74
   5   6   6    7.17    0.91
   5  -6   6    9.44    1.33
   5   6   6    9.71    1.34
   5   6   7    0.12    0.80
   5  -6   7    0.55    0.98
   5   6   7    1.72    1.28
   5   7 -12    3.19    0.83
   5   7 -12    3.76    0.79
  -5   7  12    3.15    1.19
   5   7 -11    0.61    0.86
   5   7 -11    1.08    1.02
  -5   7  11   -0.66    1.11
  -5  -7  11   -0.12    0.80
   5   7 -10    2.90    0.86
  -5  -7  10    3.29    0.83
  -5   7  10    2.83    1.01
   5   7  -9    1.45    0.66
  -5  -7   9    1.22    0.85
  -5   7   9    2.18    1.06
   5   7  -8   47.82    2.09
  -5  -7   8   47.67    2.04
  -5   7   8   42.55    2.03
  -5  -7   8   41.47    1.78
   5   7  -7    0.37    0.87
   5  -7  -7   -0.40    0.62
   5  -7  -7   -0.06    0.68
   5  -7  -7    0.36    0.90
   5   7  -7    0.24    0.93
  -5  -7   7   -0.37    0.82
  -5  -7   7    0.27    0.59
   5  -7  -6   15.49    0.85
   5   7  -6   19.54    1.15
   5  -7  -6   17.14    0.98
   5   7  -6   18.98    1.17
   5   7  -6   18.36    0.99
   5  -7  -6   15.91    1.16
  -5  -7   6   18.79    1.10
  -5  -7   6   16.07    0.95
   5  -7  -5    8.60    0.70
   5   7  -5    9.86    0.95
   5  -7  -5    9.32    1.07
   5  -7  -5    8.81    0.85
   5   7  -5    8.99    1.02
   5   7  -5    8.91    0.82
  -5  -7   5    9.70    0.89
  -5  -7   5    8.45    0.84
  -5  -7   5    9.08    0.95
   5  -7  -4  204.08    4.25
   5   7  -4  201.06    3.97
   5  -7  -4  196.34    4.31
   5   7  -4  207.00    5.74
  -5  -7   4  181.75    4.64
   5  -7  -3   10.44    0.77
   5   7  -3    9.90    0.85
   5  -7  -3   10.37    0.93
   5  -7  -3    9.20    0.96
  -5   7   3   11.12    0.90
  -5  -7   3   10.37    0.91
  -5  -7   3   10.58    0.92
   5  -7  -2    4.32    0.69
   5   7  -2    4.14    0.88
   5  -7  -2    3.30    0.58
   5  -7  -2    3.78    0.83
   5   7  -2    3.51    0.75
   5  -7  -2    4.30    0.97
  -5   7   2    3.34    0.85
  -5  -7   2    3.32    0.84
   5  -7  -1    2.95    0.71
   5   7  -1    2.89    0.85
   5  -7  -1    2.61    0.50
   5  -7  -1    3.08    0.92
   5   7  -1    3.13    0.78
   5   7  -1    3.20    0.76
  -5   7   1    2.79    0.71
  -5  -7   1    2.94    0.79
   5  -7   0  168.72    5.09
   5   7   0  170.11    5.04
   5  -7   0  138.59    5.22
   5   7   0  167.52    4.77
   5   7   0  167.24    5.07
  -5  -7   0  173.01    4.98
  -5   7   0  148.58    4.35
   5  -7   1   27.48    1.20
   5   7   1   26.96    1.30
   5  -7   1   24.17    1.09
   5  -7   1   28.24    1.41
   5   7   1   27.08    1.29
   5   7   1   24.62    1.31
  -5   7  -1   24.98    1.10
  -5  -7  -1   26.29    1.28
   5   7   2   18.53    1.06
   5   7   2   27.57    1.38
   5  -7   2   27.46    1.44
   5  -7   2   20.38    0.97
  -5  -7  -2   25.47    1.22
   5   7   3    5.73    0.93
   5   7   3    5.43    1.11
   5  -7   3    5.67    0.86
   5  -7   3    5.88    0.72
  -5  -7  -3    4.69    0.67
   5   7   4    6.82    0.85
   5  -7   4    6.18    0.90
   5   7   4    8.07    1.18
   5   7   5    2.91    0.82
   5   7   5    3.84    1.24
   5   7   6   20.01    1.33
   5  -7   6   21.46    1.64
   5   7   6   21.43    1.63
   5   7   7    0.12    0.85
   5  -7   7    0.18    1.10
   5   7   7   -1.78    1.36
   5   8 -11    0.25    0.87
  -5   8  11   -1.00    1.13
   5   8 -10   -0.30    0.88
  -5  -8  10    0.49    0.73
  -5   8  10    0.19    0.85
   5   8  -9   28.73    1.66
   5   8  -9   26.82    1.62
  -5   8   9   26.59    1.81
  -5  -8   9   26.25    1.50
   5   8  -8    9.37    1.07
   5   8  -8    8.32    1.07
  -5  -8   8    7.68    0.87
   5   8  -7    5.86    1.03
   5  -8  -7    3.95    0.94
   5   8  -7    4.57    0.93
  -5  -8   7    4.07    0.73
  -5  -8   7    5.70    0.99
   5   8  -6    3.28    0.74
   5  -8  -6    2.50    0.49
   5  -8  -6    2.71    0.66
   5   8  -6    2.62    0.80
   5   8  -6    3.39    0.96
  -5  -8   6    2.60    0.64
   5  -8  -5    4.10    0.62
   5   8  -5    4.63    1.00
   5  -8  -5    3.64    0.74
   5   8  -5    4.03    0.75
   5  -8  -5    3.69    0.91
   5   8  -5    4.26    0.96
  -5  -8   5    4.44    0.75
   5  -8  -4   36.42    1.48
   5  -8  -4   42.67    1.62
   5   8  -4   36.98    1.28
   5  -8  -4   33.10    1.48
   5   8  -4   37.62    1.42
  -5  -8   4   36.26    1.51
   5  -8  -3    8.86    0.82
   5   8  -3    7.16    0.75
   5  -8  -3    8.30    0.87
   5   8  -3    8.35    0.83
   5  -8  -3    7.92    1.00
   5   8  -3    8.34    0.98
  -5  -8   3    8.05    0.88
   5  -8  -2    4.45    0.73
   5   8  -2    4.18    0.83
   5   8  -2    3.77    0.75
   5  -8  -2    4.39    0.88
   5  -8  -2    4.29    0.76
   5  -8  -2    2.70    0.49
  -5   8   2    4.87    0.88
  -5  -8   2    4.36    0.77
  -5  -8   2    4.29    0.94
   5  -8  -1   20.39    1.00
   5   8  -1   22.61    1.18
   5   8  -1   24.26    1.31
   5  -8  -1   22.27    1.32
   5   8  -1   19.38    1.06
   5  -8  -1   19.98    1.18
  -5   8   1   18.95    1.01
  -5  -8   1   19.58    1.15
   5  -8   0    8.10    0.69
   5  -8   0    8.09    0.70
   5   8   0   10.79    0.93
   5  -8   0    9.81    0.76
   5  -8   0   10.58    1.09
   5   8   0   10.40    1.06
  -5  -8   0   10.73    0.97
  -5   8   0    9.79    0.80
   5   8   1   68.38    2.91
   5  -8   1   75.49    3.17
   5   8   1   71.98    3.09
  -5  -8  -1   65.43    2.83
  -5   8  -1   64.73    2.68
   5   8   2   -0.12    0.81
   5  -8   2    0.07    1.12
   5   8   2    0.18    0.95
   5  -8   2    0.36    0.65
   5   8   3    5.79    0.87
   5  -8   3    6.10    1.19
   5   8   3    6.17    1.09
   5  -8   3    6.20    0.71
   5   8   4    0.10    0.81
   5  -8   4    1.41    1.11
   5   8   4   -0.19    0.99
   5   8   5   22.03    1.32
   5   8   5   21.04    1.46
   5   8   6    1.40    0.79
   5   8   6    1.51    0.92
   5   9 -10   18.91    1.46
   5   9 -10   15.85    1.20
  -5   9  10   15.99    1.50
   5   9  -9    2.44    0.78
   5   9  -9    3.00    1.03
   5   9  -8   52.73    2.35
   5   9  -8   52.71    2.44
   5   9  -7   18.99    1.13
   5   9  -7   18.17    0.98
   5   9  -7   19.25    1.32
   5   9  -6    5.20    1.04
   5  -9  -6    4.58    0.74
   5   9  -6    4.10    0.73
   5   9  -6    4.69    0.96
  -5  -9   6    4.44    0.82
   5  -9  -5   -0.30    0.46
   5  -9  -5   -0.12    0.64
   5   9  -5    0.44    0.63
   5   9  -5    0.50    0.83
  -5  -9   5   -0.29    0.70
   5  -9  -4   71.87    2.94
   5  -9  -4   71.63    2.80
   5   9  -4   81.87    3.08
   5   9  -4   82.87    3.21
  -5  -9   4   78.14    3.08
   5  -9  -3   -0.07    0.56
   5   9  -3   -0.45    0.66
   5  -9  -3   -0.06    0.76
   5   9  -3    0.48    0.74
   5   9  -3   -0.44    0.83
  -5  -9   3   -0.19    0.70
   5  -9  -2    0.12    0.57
   5   9  -2    0.23    0.86
   5  -9  -2    0.26    0.87
   5   9  -2    0.42    0.71
   5  -9  -2    0.08    0.48
  -5  -9   2   -0.23    0.82
  -5   9   2    0.01    0.80
   5  -9  -1    1.10    0.67
   5   9  -1    0.87    0.83
   5  -9  -1    1.24    0.70
   5  -9  -1    0.86    0.53
  -5   9   1    0.93    0.75
   5   9   0  111.41    4.33
   5  -9   0  113.23    4.49
   5  -9   0   93.18    3.76
   5   9   0  112.80    4.41
  -5   9   0   91.70    3.52
   5   9   1    3.63    0.86
   5  -9   1    2.71    0.80
   5  -9   1    3.11    0.64
   5   9   1    3.33    0.91
  -5   9  -1    3.59    0.61
   5   9   2   21.73    1.26
   5  -9   2   22.57    1.44
   5   9   2   22.88    1.39
   5  -9   2   19.37    1.06
   5   9   3    5.61    0.92
   5  -9   3    5.22    0.89
   5   9   3    4.82    1.00
   5   9   3    4.86    1.01
   5  -9   3    4.70    0.65
   5   9   4   25.12    1.41
   5  -9   4   22.84    1.43
   5   9   4   24.30    1.52
   5   9   5    5.88    0.95
   5  -9   5    5.32    1.13
   5   9   5    5.53    1.09
   5   9   6   13.13    0.97
   5   9   6   16.20    1.36
   5  10  -9   63.43    3.43
   5  10  -9   60.72    3.37
   5  10  -8    0.11    1.00
   5  10  -8   -0.37    0.74
   5  10  -7    7.03    1.06
   5  10  -7    5.42    1.04
   5  10  -6    0.02    0.96
   5  10  -6    0.87    0.98
   5 -10  -5   18.07    1.06
   5  10  -5   21.30    1.11
   5  10  -5   23.52    1.39
   5 -10  -4    0.51    0.51
   5  10  -4    1.60    0.90
   5 -10  -4   -0.05    0.80
   5  10  -4    0.12    0.67
   5  10  -4    0.31    0.87
  -5 -10   4    0.28    0.67
   5 -10  -3   37.13    2.01
   5  10  -3   47.47    2.62
   5 -10  -3   43.93    2.49
   5  10  -3   43.22    2.45
  -5 -10   3   40.07    2.25
   5 -10  -2   -0.01    0.67
   5  10  -2   -0.20    0.92
   5 -10  -2    0.61    0.84
   5  10  -2   -0.56    0.79
  -5 -10   2    0.59    0.73
  -5  10   2    0.41    0.60
   5  10  -1   20.29    1.25
   5 -10  -1   18.99    1.30
  -5  10   1   16.36    0.97
  -5 -10   1   17.88    1.13
   5  10   0   -0.20    0.64
   5 -10   0    1.32    0.92
   5  10   0   -0.67    0.86
  -5  10   0   -0.18    0.55
   5  10   1   89.97    4.10
   5 -10   1   73.85    3.70
   5  10   1   89.29    4.13
   5  10   2    0.28    0.89
   5 -10   2    1.22    1.05
   5  10   2    0.87    0.95
   5  10   3    0.09    0.79
   5 -10   3    0.87    0.84
   5  10   3    0.93    0.95
   5  10   4    4.96    0.74
   5 -10   4    5.98    0.93
   5  10   4    6.24    1.09
   5  10   5   25.77    1.25
   5 -10   5   26.56    1.44
   5  10   5   24.68    1.46
   5  11  -8   50.78    1.87
   5  11  -8   48.61    1.85
   5  11  -7    1.62    1.06
   5  11  -7    1.28    0.99
   5  11  -6    1.35    0.91
   5 -11  -5    0.22    0.67
   5  11  -5    1.06    0.82
   5  11  -4   64.37    2.77
   5 -11  -4   56.33    2.51
   5  11  -4   59.32    2.61
   5  11  -3    0.49    0.98
   5 -11  -3    1.02    0.88
   5  11  -3    0.61    0.90
   5  11  -2    0.07    0.93
   5 -11  -2    1.26    0.91
   5  11  -2    0.24    0.79
  -5  11   2    0.38    0.67
   5  11  -1    0.86    0.91
   5 -11  -1   -0.35    0.83
   5  11  -1    0.50    0.62
  -5  11   1    0.24    0.56
   5  11   0   54.87    2.37
   5 -11   0   53.06    2.40
   5  11   1   -0.08    0.88
   5 -11   1    1.10    1.12
   5  11   1   -0.06    0.85
   5  11   2   21.94    1.40
   5 -11   2   23.52    1.63
   5  11   2   23.45    1.62
   5  11   3   -0.40    0.82
   5 -11   3    0.44    1.13
   5  11   3   -0.26    1.05
   5  12  -7    1.37    0.81
   5  12  -7    0.46    0.93
   5  12  -7    0.46    0.93
   5  12  -6    0.19    0.88
   5  12  -5   29.61    1.89
   5  12  -5   25.36    1.59
   5  12  -4    0.18    1.02
   5 -12  -4    0.84    0.85
   5  12  -4   -0.16    0.87
   5  12  -3   22.02    1.51
   5 -12  -3   23.01    1.44
   5  12  -3   21.32    1.31
   5  12  -2    1.60    0.81
   5 -12  -2    0.90    0.93
   5  12  -2   -0.03    0.85
   5  12  -1   -0.03    0.95
   5 -12  -1   -0.46    1.03
   5  12  -1    0.59    0.73
   5  12   0    3.54    0.92
   5 -12   0    3.17    0.95
   5  12   0    2.95    0.84
   5  12   1   29.50    1.74
   5 -12   1   33.65    2.11
   5  12   2    1.86    0.89
   5 -12   2    3.56    1.11
   5  12   2    2.68    0.97
   5  13  -4   32.79    1.55
   5  13  -4   29.72    1.40
   5  13  -3    0.67    0.74
   5 -13  -3    1.70    0.85
   5  13  -3    1.24    0.89
   5  13  -2    4.49    1.05
   5 -13  -2    6.56    0.99
   5  13  -2    4.99    0.92
   5  13  -1    1.10    0.96
   5 -13  -1    0.80    0.99
   5  13  -1    1.00    0.84
   6   0 -13    0.23    0.85
  -6   0  13   -0.05    0.99
   6   0 -12   29.37    1.49
  -6   0  12   30.62    1.62
  -6   0  12   31.90    1.72
   6   0 -11    0.33    0.53
   6   0 -11   -0.07    0.73
  -6   0  11   -0.09    0.70
  -6   0  11   -0.27    0.69
   6   0 -10    7.75    0.73
   6   0 -10    8.69    0.90
   6   0 -10    8.68    0.91
  -6   0  10    6.96    0.82
  -6   0  10    6.36    0.83
  -6   0  10    7.04    0.86
   6   0  -9    0.14    0.61
   6   0  -9    0.91    0.80
  -6   0   9   -0.18    0.64
  -6   0   9    0.41    0.65
  -6   0   9   -0.09    0.98
   6   0  -8  148.68    4.26
   6   0  -8  156.55    4.48
  -6   0   8  145.23    4.22
  -6   0   8  141.50    4.10
  -6   0   8  155.81    4.53
   6   0  -7    0.33    0.64
   6   0  -7   -0.50    0.78
  -6   0   7   -0.08    0.95
  -6   0   7   -0.24    0.66
   6   0  -6    7.61    0.77
   6   0  -6    7.68    0.82
  -6   0   6    7.91    0.79
   6   0  -5    0.11    0.82
   6   0  -5    0.10    0.60
  -6   0   5    0.02    0.70
   6   0  -4  296.29    4.39
   6   0  -4  328.42    8.02
  -6   0   4  305.72    4.57
  -6   0   4  316.52    7.54
   6   0  -3    0.58    0.85
   6   0  -3   -0.02    0.89
  -6   0   3    0.03    0.82
  -6   0   3   -0.03    0.74
   6   0  -2   19.45    1.06
   6   0  -2   18.71    1.06
  -6   0   2   20.15    1.08
  -6   0   2   17.96    1.10
   6   0  -1   -0.01    0.85
   6   0  -1   -0.18    0.68
  -6   0   1   -0.42    0.80
  -6   0   1   -0.20    0.77
   6   0   0   86.60    2.63
   6   0   0   89.48    2.51
  -6   0   0   85.12    2.44
   6   0   1   -1.26    0.74
   6   0   2  100.54    2.47
   6   0   2   96.55    2.28
  -6   0  -2   98.17    2.43
   6   0   3   -0.86    1.04
   6   0   3   -0.38    0.73
  -6   0  -3   -0.59    0.86
   6   0   4  155.73    6.64
   6   0   4  159.19    2.36
   6   0   5   -0.14    0.73
   6   0   5   -0.95    0.74
   6   0   6   17.56    1.43
   6   0   7   -1.04    0.95
   6   0   8    0.38    1.01
   6   1 -13   13.21    1.17
  -6  -1  13   12.73    1.18
  -6   1  13   14.12    1.24
  -6   1  13   14.06    1.33
   6   1 -12    2.39    0.59
   6   1 -12    3.17    0.86
   6  -1 -12    2.80    0.74
  -6   1  12    2.42    0.99
  -6  -1  12    2.48    0.76
  -6   1  12    2.79    0.83
  -6  -1  12    2.58    0.94
   6  -1 -11    5.41    0.61
   6   1 -11    6.39    0.70
   6   1 -11    6.34    0.73
   6  -1 -11    5.89    0.82
  -6   1  11    6.34    1.07
  -6  -1  11    6.03    0.81
  -6   1  11    5.63    0.82
  -6  -1  11    5.11    1.03
   6  -1 -10   13.35    0.85
   6   1 -10   13.36    0.90
   6   1 -10   14.93    1.11
   6  -1 -10   14.20    1.04
  -6  -1  10   13.58    0.99
  -6   1  10   14.24    1.16
  -6   1  10   13.42    0.97
  -6  -1  10   14.58    1.03
  -6   1  10   12.88    0.92
  -6  -1  10   12.88    0.97
   6   1  -9   48.91    1.67
   6  -1  -9   46.86    1.57
   6  -1  -9   49.34    1.70
   6   1  -9   49.45    1.74
  -6  -1   9   48.56    1.66
  -6   1   9   46.48    1.60
  -6   1   9   50.65    1.86
  -6   1   9   48.13    1.69
  -6  -1   9   45.57    1.61
  -6   1   9   46.48    1.60
  -6  -1   9   50.31    1.84
   6   1  -8    4.03    0.80
   6  -1  -8    3.63    0.69
   6  -1  -8    3.15    0.70
   6   1  -8    4.07    0.85
  -6  -1   8    4.54    0.90
  -6   1   8    4.71    1.06
  -6   1   8    2.66    0.73
  -6  -1   8    4.12    0.68
  -6   1   8    3.92    0.67
   6   1  -7   21.84    0.96
   6  -1  -7   22.35    1.00
   6   1  -7   24.76    1.17
   6  -1  -7   22.33    1.02
  -6  -1   7   21.06    0.98
  -6   1   7   22.24    1.06
  -6  -1   7   22.47    1.16
   6   1  -6    2.26    0.82
   6  -1  -6    2.10    0.67
   6  -1  -6    2.45    0.86
   6  -1  -6    1.60    0.64
   6   1  -6    1.35    0.76
  -6   1   6    2.18    0.66
  -6  -1   6    1.65    0.84
  -6  -1   6    1.90    0.76
   6   1  -5   19.65    0.94
   6  -1  -5   20.65    0.92
   6  -1  -5   18.12    0.93
  -6  -1   5   18.82    0.97
  -6   1   5   19.00    1.08
  -6   1   5   18.09    0.95
   6   1  -4   11.90    0.94
   6  -1  -4   12.07    0.97
   6   1  -4   10.08    0.86
   6  -1  -4   12.19    0.87
  -6  -1   4   12.82    0.93
  -6   1   4   12.84    0.86
  -6   1   4   11.80    0.94
   6   1  -3   78.27    2.04
   6  -1  -3   76.28    2.29
   6  -1  -3   77.38    2.00
  -6   1   3   76.50    2.03
  -6  -1   3   71.93    1.93
  -6   1   3   80.00    2.17
  -6  -1   3   74.08    1.99
   6   1  -2    2.85    0.81
   6  -1  -2    2.81    0.84
   6  -1  -2    3.36    0.77
   6   1  -2    2.46    0.83
  -6   1   2    3.93    0.85
  -6   1   2    3.24    0.80
  -6  -1   2    2.40    0.83
  -6  -1   2    3.45    0.83
   6   1  -1    1.83    0.85
   6  -1  -1    1.11    0.90
   6  -1  -1    1.53    0.71
   6   1  -1    1.12    0.82
  -6   1   1    1.17    0.88
  -6   1   1    0.63    0.81
  -6  -1   1    0.95    0.79
  -6  -1   1    0.80    0.78
   6  -1   0    4.13    0.97
   6   1   0    3.88    0.76
   6  -1   0    3.82    0.72
  -6   1   0    3.85    0.89
  -6   1   0    4.62    0.82
   6  -1   1   35.34    1.26
   6   1   1   32.44    1.23
  -6  -1  -1   34.55    1.38
   6   1   2   35.20    1.41
   6   1   2   34.54    1.25
   6  -1   2   34.38    1.27
  -6  -1  -2   33.44    1.31
  -6   1  -2   35.73    1.37
   6   1   3    2.67    1.02
   6  -1   3    2.56    1.13
   6   1   3    2.06    0.75
   6  -1   3    1.94    0.73
  -6  -1  -3    1.94    0.66
  -6   1  -3    3.45    0.97
   6   1   4    8.99    0.93
   6  -1   4   10.54    1.15
   6   1   4    9.36    0.98
   6  -1   4    9.45    0.87
   6   1   5   91.58    4.62
   6  -1   5   92.57    4.68
   6  -1   5   80.30    4.20
   6   1   6    0.43    0.79
   6  -1   6    0.54    0.80
   6  -1   6    0.38    0.68
   6   1   7    1.32    1.04
   6  -1   7    0.61    0.81
   6   1   8    1.70    1.15
   6  -1   8    2.42    0.98
   6   2 -13    0.45    0.84
  -6  -2  13   -0.46    0.87
  -6   2  13   -0.16    0.74
  -6   2  13   -1.49    1.08
   6   2 -12    3.92    0.68
   6   2 -12    4.00    0.82
   6  -2 -12    3.74    0.80
  -6  -2  12    3.33    0.92
  -6   2  12    5.01    1.08
  -6   2  12    4.13    0.82
   6   2 -11    0.40    0.70
   6  -2 -11    1.12    0.79
   6   2 -11   -1.00    0.88
  -6   2  11    0.27    1.08
  -6   2  11   -0.59    0.85
  -6  -2  11    0.10    0.76
  -6  -2  11   -0.87    0.64
  -6  -2  11   -0.20    0.86
   6  -2 -10    0.14    0.51
   6   2 -10   -0.49    0.73
   6   2 -10    0.47    0.89
   6  -2 -10    0.56    0.69
  -6  -2  10   -0.33    0.70
  -6   2  10   -0.75    0.89
  -6   2  10    0.30    0.68
  -6  -2  10    0.25    0.72
  -6   2  10    0.24    0.61
  -6  -2  10    0.05    0.94
   6   2  -9    5.85    0.79
   6  -2  -9    5.04    0.65
   6   2  -9    5.66    0.72
   6  -2  -9    4.88    0.75
  -6  -2   9    6.00    0.74
  -6   2   9    5.43    1.00
  -6   2   9    4.09    0.79
  -6  -2   9    5.41    0.74
  -6   2   9    4.55    0.68
  -6  -2   9    5.47    0.98
   6   2  -8  118.78    3.48
   6  -2  -8  116.39    3.37
   6   2  -8  130.90    3.83
   6  -2  -8  126.00    3.66
  -6   2   8  128.47    3.79
  -6   2   8  120.57    3.59
  -6  -2   8  131.82    3.88
  -6  -2   8  132.01    3.89
   6   2  -7   20.58    0.99
   6  -2  -7   19.96    0.93
   6   2  -7   21.34    1.12
   6  -2  -7   17.66    1.02
   6  -2  -7   20.19    0.94
  -6   2   7   19.27    0.92
  -6  -2   7   20.78    1.13
  -6  -2   7   20.08    0.98
   6   2  -6    0.52    0.67
   6  -2  -6    0.47    0.75
   6  -2  -6   -0.45    0.63
   6   2  -6   -0.17    0.80
   6  -2  -6    0.02    0.71
  -6   2   6    0.95    0.88
  -6  -2   6    0.18    0.87
  -6  -2   6    0.88    0.75
  -6   2   6    0.10    0.61
   6   2  -5    5.13    0.81
   6  -2  -5    5.01    0.73
   6  -2  -5    5.09    0.84
   6   2  -5    4.43    0.78
  -6   2   5    4.40    0.83
  -6   2   5    3.72    0.90
  -6  -2   5    4.96    0.84
  -6  -2   5    4.15    0.84
   6   2  -4  101.74    1.97
   6  -2  -4  100.03    2.12
   6  -2  -4   93.11    1.94
   6   2  -4  100.90    1.98
  -6  -2   4  105.28    2.11
  -6   2   4  100.33    1.99
  -6   2   4   96.63    1.96
   6   2  -3   -0.14    0.73
   6  -2  -3   -0.07    0.81
   6   2  -3   -0.08    0.60
  -6  -2   3   -0.20    0.84
  -6   2   3    0.98    0.83
  -6   2   3    0.07    0.74
   6   2  -2   18.67    1.00
   6  -2  -2   17.59    1.04
   6  -2  -2   18.33    1.06
  -6   2   2   15.83    0.99
  -6  -2   2   13.87    0.81
  -6   2   2   16.53    0.93
  -6  -2   2   16.33    0.97
   6  -2  -1   18.40    1.09
   6  -2  -1   18.23    0.96
   6   2  -1   17.77    0.95
  -6   2   1   18.56    1.08
  -6  -2   1   18.06    1.00
  -6   2   1   18.90    1.02
   6  -2   0   81.71    2.50
   6  -2   0   83.28    2.33
   6   2   0   81.78    2.27
  -6  -2   0   74.54    2.42
  -6   2   0   83.96    2.38
  -6   2   0   83.13    2.39
   6   2   1    3.56    0.87
   6  -2   1    4.09    0.93
   6  -2   1    3.56    0.79
   6   2   1    4.24    0.84
  -6  -2  -1    3.16    0.97
   6   2   2    5.40    1.02
   6  -2   2    5.07    0.73
   6   2   2    6.00    0.83
  -6  -2  -2    4.52    0.87
   6   2   3    6.48    1.02
   6  -2   3    4.94    1.02
   6  -2   3    6.07    0.81
   6   2   3    5.82    0.84
  -6  -2  -3    5.30    0.86
   6   2   4   37.32    1.89
   6  -2   4   34.22    1.75
   6   2   4   35.22    1.75
   6  -2   4   33.84    1.68
   6   2   5    3.59    0.82
   6  -2   5    4.72    1.12
   6  -2   5    4.50    0.71
   6   2   6   38.48    1.78
   6  -2   6   39.97    1.92
   6   2   7    3.44    1.02
   6  -2   7    2.25    0.99
   6   3 -13   19.83    1.22
  -6   3  13   16.20    1.07
  -6  -3  13   18.85    1.21
   6   3 -12   -0.09    0.67
   6   3 -12    0.44    0.98
  -6   3  12   -0.57    0.85
  -6  -3  12    0.53    0.84
   6   3 -11    0.94    0.76
   6   3 -11    0.62    0.89
   6  -3 -11    1.48    0.71
  -6  -3  11    1.20    0.83
  -6  -3  11    1.05    0.71
  -6   3  11   -0.21    0.91
  -6  -3  11    0.44    0.68
   6   3 -10    0.33    0.79
   6   3 -10    0.98    0.88
   6  -3 -10   -0.09    0.61
  -6  -3  10   -1.30    0.90
  -6  -3  10   -0.22    0.68
  -6   3  10    0.37    0.86
  -6  -3  10   -0.41    0.74
   6   3  -9   23.30    1.29
   6   3  -9   23.61    1.41
   6  -3  -9   21.80    1.21
  -6  -3   9   20.97    1.19
  -6  -3   9   22.52    1.38
  -6   3   9   22.48    1.38
  -6  -3   9   20.35    1.18
  -6  -3   9   21.61    1.21
  -6   3   9   20.23    1.14
   6   3  -8    4.89    0.81
   6  -3  -8    3.67    0.55
   6   3  -8    5.06    0.99
   6  -3  -8    3.42    0.77
   6  -3  -8    3.97    0.75
  -6   3   8    4.03    0.72
  -6  -3   8    3.81    0.90
  -6  -3   8    5.21    0.79
   6   3  -7    0.00    0.75
   6  -3  -7    0.29    0.60
   6  -3  -7    0.44    0.54
   6   3  -7   -0.37    0.87
   6  -3  -7    0.60    0.73
  -6   3   7    0.45    0.95
  -6  -3   7   -0.45    0.95
  -6  -3   7   -0.53    0.77
  -6   3   7   -0.13    0.64
   6   3  -6    3.46    0.74
   6  -3  -6    3.12    0.72
   6  -3  -6    3.64    0.70
   6   3  -6    3.69    0.88
   6  -3  -6    2.58    0.69
  -6   3   6    3.70    0.99
  -6  -3   6    4.38    0.98
  -6  -3   6    3.24    0.81
  -6   3   6    2.72    0.63
   6   3  -5   11.78    0.86
   6  -3  -5   12.18    0.96
   6  -3  -5   12.94    1.04
   6   3  -5   11.79    0.98
  -6   3   5   10.59    0.83
  -6   3   5   11.27    1.04
  -6  -3   5   11.87    0.99
  -6  -3   5   11.30    0.96
   6   3  -4    2.38    0.80
   6   3  -4    1.80    0.87
   6  -3  -4    1.64    0.74
   6  -3  -4    1.91    0.67
  -6  -3   4    2.18    0.94
  -6   3   4    2.20    0.78
  -6  -3   4    1.56    0.83
  -6   3   4    1.78    0.78
   6   3  -3   62.30    1.58
   6   3  -3   64.93    1.79
   6  -3  -3   62.60    1.75
   6   3  -3   59.66    1.44
  -6   3   3   63.98    1.58
  -6   3   3   61.74    1.58
  -6  -3   3   58.68    1.50
   6   3  -2    0.83    0.78
   6  -3  -2    0.07    0.82
   6   3  -2   -0.36    0.63
  -6   3   2    0.07    0.73
  -6   3   2   -0.24    0.74
   6  -3  -1    6.38    1.02
   6   3  -1    4.97    0.74
  -6   3   1    5.14    0.78
  -6   3   1    5.29    0.89
   6  -3   0   18.99    1.13
   6   3   0   19.16    1.16
   6   3   0   18.06    0.96
   6  -3   0   16.29    0.94
  -6   3   0   17.78    1.07
  -6   3   0   17.70    0.97
  -6  -3   0   18.17    1.10
   6   3   1   25.64    1.22
   6  -3   1   28.18    1.31
   6   3   1   26.65    1.14
   6  -3   1   26.17    1.14
  -6  -3  -1   24.57    1.11
  -6   3  -1   20.33    0.92
   6   3   2    0.80    0.93
   6  -3   2   -0.47    0.71
   6   3   2   -0.69    0.88
  -6  -3  -2   -0.53    0.85
   6   3   3    5.53    0.78
   6  -3   3    6.01    0.81
   6   3   3    6.41    0.92
  -6  -3  -3    7.04    0.91
   6   3   4    0.49    0.97
   6  -3   4    1.22    1.00
   6  -3   4    0.79    0.66
   6   3   5   90.00    3.31
   6  -3   5   92.84    3.40
   6  -3   5   72.96    2.74
   6   3   5   89.52    3.37
   6   3   6   -0.05    0.94
   6  -3   6    0.42    1.12
   6   3   6   -0.21    1.23
   6   3   7    4.05    1.04
   6  -3   7    2.79    1.14
   6   3   7    1.63    1.35
   6   4 -13    0.94    0.72
   6   4 -13   -0.31    0.92
  -6   4  13   -0.72    1.04
  -6  -4  13    0.38    0.97
   6   4 -12   16.27    1.15
   6   4 -12   17.00    1.28
  -6   4  12   15.57    1.32
  -6  -4  12   15.27    1.15
   6   4 -11    2.27    0.80
   6   4 -11    1.50    1.04
  -6   4  11    2.70    1.04
  -6  -4  11    1.40    0.82
   6   4 -10    2.84    0.82
   6   4 -10    2.35    0.72
   6  -4 -10    2.08    0.63
  -6  -4  10    2.46    0.97
  -6  -4  10    2.01    0.67
  -6   4  10    1.96    0.91
  -6  -4  10    2.11    0.80
   6   4  -9    0.86    0.79
   6   4  -9    0.36    0.93
   6  -4  -9    0.71    0.54
  -6  -4   9    0.44    0.87
  -6  -4   9   -0.10    1.18
  -6   4   9   -0.24    1.00
  -6  -4   9    0.25    0.74
   6   4  -8   29.24    1.25
   6  -4  -8   25.51    1.05
   6   4  -8   29.70    1.24
   6  -4  -8   26.01    1.28
   6  -4  -8   28.41    1.16
  -6   4   8   24.71    1.08
  -6  -4   8   29.57    1.36
  -6  -4   8   28.86    1.27
   6   4  -7    3.71    0.83
   6  -4  -7    2.95    0.61
   6  -4  -7    2.92    0.65
   6   4  -7    3.22    0.84
   6  -4  -7    2.19    0.73
  -6   4   7    3.18    1.01
  -6  -4   7    2.74    0.84
  -6  -4   7    2.96    0.79
  -6   4   7    2.88    0.66
   6   4  -6    0.30    0.78
   6   4  -6    0.05    0.78
   6  -4  -6    0.38    0.70
   6  -4  -6    0.28    0.53
   6   4  -6    0.14    0.88
   6  -4  -6    0.88    0.80
  -6  -4   6   -0.09    0.73
  -6   4   6    0.33    0.98
  -6   4   6    0.43    0.59
  -6  -4   6    0.45    0.88
   6   4  -5   -0.13    0.79
   6   4  -5    0.30    0.66
   6  -4  -5    0.07    0.67
   6   4  -5    0.09    0.59
   6  -4  -5   -0.34    0.75
  -6  -4   5    0.62    0.94
  -6   4   5    0.46    0.89
  -6  -4   5   -0.52    0.84
  -6   4   5    0.22    0.59
   6   4  -4  184.10    4.55
   6   4  -4  179.39    4.41
   6  -4  -4  178.06    4.55
   6  -4  -4  162.70    4.29
  -6  -4   4  184.80    4.58
  -6  -4   4  184.27    4.66
  -6   4   4  182.16    4.52
  -6   4   4  172.24    4.28
   6   4  -3    1.06    0.59
   6   4  -3    1.09    0.66
   6  -4  -3    1.67    0.93
   6   4  -3    0.77    0.76
   6  -4  -3    1.75    0.74
  -6  -4   3    1.82    0.88
  -6   4   3    1.76    0.78
  -6  -4   3    1.20    0.77
  -6   4   3    0.85    0.78
   6  -4  -2    0.30    0.79
   6   4  -2    1.03    0.74
   6   4  -2    0.51    0.65
  -6   4   2    0.44    0.76
  -6   4   2   -0.42    0.78
   6   4  -1    1.32    0.79
   6  -4  -1    1.34    0.87
  -6  -4   1    1.66    0.78
  -6   4   1    1.34    0.83
  -6   4   1    1.46    0.85
   6   4   0   61.07    1.94
   6   4   0   55.56    2.16
   6  -4   0   64.27    2.01
  -6  -4   0   62.62    1.99
  -6   4   0   61.33    1.73
  -6   4   0   64.97    1.86
   6   4   1    1.81    0.85
   6  -4   1    0.89    0.75
   6  -4   1    1.01    0.98
   6   4   1    1.21    0.82
   6   4   1    1.54    0.93
  -6   4  -1    1.38    0.78
  -6  -4  -1    1.24    0.82
  -6   4  -1    0.59    0.83
   6   4   2    0.84    0.97
   6   4   2    1.01    0.90
   6  -4   2    0.75    1.06
   6   4   2    1.39    0.92
   6  -4   2    0.67    0.66
  -6  -4  -2    1.07    0.92
   6   4   3    0.16    0.94
   6  -4   3    0.42    0.70
   6   4   3    0.64    1.08
   6   4   4   39.12    2.25
   6  -4   4   29.35    1.73
   6   4   4   44.35    2.65
   6   4   4   44.35    2.65
   6   4   5    0.49    0.93
   6  -4   5    1.63    1.13
   6   4   5    1.44    1.15
   6   4   6   23.77    1.52
   6  -4   6   23.14    1.61
   6   4   6   23.95    1.78
   6   4   7    1.49    0.71
   6  -4   7    1.58    1.21
   6   4   7    3.00    1.39
   6   5 -12   -0.29    0.73
   6   5 -12   -0.30    0.93
  -6   5  12   -0.24    0.96
  -6  -5  12   -0.18    0.95
   6   5 -11    1.49    0.85
   6   5 -11    1.55    0.96
  -6   5  11    1.41    1.00
  -6  -5  11    1.09    0.86
   6   5 -10    2.25    0.81
   6   5 -10    1.47    0.75
  -6   5  10    1.93    0.92
  -6  -5  10    1.78    0.89
   6   5  -9   50.75    2.73
   6   5  -9   51.34    2.78
   6  -5  -9   43.38    2.46
  -6  -5   9   51.97    2.81
  -6   5   9   45.32    2.52
  -6  -5   9   45.18    2.70
   6   5  -8    1.29    0.86
   6  -5  -8    1.44    0.86
   6  -5  -8    1.25    0.54
   6   5  -8    2.39    1.00
  -6  -5   8    2.16    0.94
  -6  -5   8    1.73    0.59
   6   5  -7   25.51    1.20
   6  -5  -7   23.80    1.11
   6  -5  -7   23.09    1.17
   6  -5  -7   20.60    0.95
   6   5  -7   27.27    1.33
  -6  -5   7   24.04    1.11
  -6  -5   7   25.37    1.25
   6   5  -6    9.17    0.94
   6  -5  -6    8.23    0.69
   6  -5  -6    8.57    0.85
   6   5  -6    8.55    0.89
   6   5  -6    9.23    1.05
   6  -5  -6    9.04    0.94
  -6   5   6    8.75    1.00
  -6  -5   6    8.79    0.90
  -6   5   6    8.09    0.71
  -6  -5   6    9.24    0.99
   6   5  -5   58.99    1.66
   6  -5  -5   50.23    1.41
   6  -5  -5   60.48    1.72
   6   5  -5   58.26    1.63
   6  -5  -5   47.18    1.53
  -6  -5   5   55.61    1.62
  -6   5   5   47.97    1.41
  -6  -5   5   59.31    1.66
  -6   5   5   56.79    1.63
   6   5  -4    0.24    0.74
   6   5  -4    1.27    0.78
   6  -5  -4    0.80    0.77
   6  -5  -4    0.51    0.86
  -6  -5   4    1.01    0.83
  -6  -5   4    0.63    0.89
  -6   5   4    1.49    0.86
  -6   5   4    0.61    0.68
   6   5  -3   56.78    1.76
   6  -5  -3   62.12    1.84
   6   5  -3   61.09    1.71
   6  -5  -3   57.86    1.91
  -6  -5   3   61.10    1.80
  -6   5   3   55.24    1.64
  -6   5   3   58.54    1.76
   6  -5  -2    2.31    0.80
   6   5  -2    1.90    0.83
   6   5  -2    1.71    0.68
  -6   5   2    0.93    0.85
  -6   5   2    2.31    0.80
   6   5  -1   28.38    1.18
   6   5  -1   21.73    1.01
   6  -5  -1   21.80    1.00
   6   5  -1   28.16    1.15
  -6   5   1   30.61    1.26
  -6   5   1   26.33    1.06
  -6  -5   1   30.71    1.31
   6   5   0    0.90    0.87
   6   5   0    0.00    0.92
   6  -5   0    0.14    0.89
   6  -5   0    0.14    0.89
  -6   5   0    0.26    0.78
  -6   5   0    0.07    0.77
  -6  -5   0   -0.39    0.84
   6   5   1  136.31    4.01
   6   5   1  116.19    3.44
   6  -5   1  107.65    3.27
  -6  -5  -1  107.45    3.48
  -6   5  -1  122.16    4.00
  -6   5  -1  135.51    3.90
   6   5   2   -0.28    0.92
   6   5   2    0.17    0.94
   6  -5   2    0.72    0.99
  -6  -5  -2    0.40    0.79
   6   5   3    7.16    1.03
   6  -5   3    7.68    1.08
   6   5   3    7.58    1.12
   6   5   4   -0.27    0.93
   6   5   4   -1.14    1.18
   6   5   5   97.68    3.86
   6  -5   5  100.04    4.01
   6   5   5  102.97    2.05
   6   5   6    2.76    0.93
   6  -5   6    3.74    1.24
   6   5   6    3.75    1.37
   6   5   7    0.73    0.98
   6  -5   7    0.25    1.01
   6   5   7   -0.58    1.18
   6   6 -12    4.35    0.82
   6   6 -12    4.01    0.87
   6   6 -12    4.11    0.95
  -6  -6  12    4.91    0.86
  -6   6  12    3.89    0.85
   6   6 -11   -0.27    0.77
   6   6 -11   -0.01    0.95
  -6   6  11    0.57    0.90
  -6  -6  11   -0.37    0.88
   6   6 -10    0.61    0.79
   6   6 -10    0.14    0.92
  -6   6  10   -0.45    0.95
  -6  -6  10    0.42    0.88
   6   6  -9   12.16    1.04
   6   6  -9   12.11    1.14
   6  -6  -9    9.75    1.07
  -6  -6   9   11.82    1.10
   6   6  -8   87.97    3.35
   6  -6  -8   77.10    3.17
   6   6  -8   86.12    3.27
  -6  -6   8   92.67    3.53
  -6  -6   8   92.67    3.53
   6  -6  -7    2.32    0.52
   6  -6  -7    2.32    0.52
   6   6  -7    3.75    0.90
   6   6  -7    3.75    0.90
   6  -6  -7    2.62    0.65
   6  -6  -7    2.34    0.51
   6  -6  -7    1.97    0.89
  -6  -6   7    2.95    0.91
   6  -6  -6    0.73    0.54
   6   6  -6    1.46    0.88
   6  -6  -6    0.28    0.51
   6  -6  -6    0.78    0.70
   6  -6  -6    0.20    0.86
   6   6  -6    0.04    0.81
  -6  -6   6    0.54    0.94
  -6  -6   6    0.26    0.64
   6  -6  -5    5.84    0.62
   6   6  -5    6.56    0.98
   6  -6  -5    6.22    0.94
   6  -6  -5    5.70    0.77
   6  -6  -5    5.95    0.61
   6   6  -5    7.30    0.91
  -6  -6   5    6.96    0.95
  -6  -6   5    7.18    0.94
  -6   6   5    7.58    1.00
   6  -6  -4   61.48    2.01
   6   6  -4   71.27    2.33
   6  -6  -4   57.98    2.10
   6  -6  -4   68.16    2.27
   6   6  -4   65.46    2.15
  -6  -6   4   67.84    2.27
  -6   6   4   69.74    2.30
  -6  -6   4   67.13    2.19
   6  -6  -3    2.53    0.86
   6   6  -3    2.11    0.85
   6  -6  -3    3.00    0.91
  -6   6   3    2.43    0.73
  -6   6   3    2.80    0.85
   6   6  -2    4.61    0.82
   6  -6  -2    3.58    0.81
   6   6  -2    4.24    0.80
  -6   6   2    4.18    0.82
  -6   6   2    4.55    0.80
  -6  -6   2    4.31    0.92
   6   6  -1    2.79    0.94
   6   6  -1    2.43    0.68
   6  -6  -1    3.54    1.00
   6   6  -1    2.04    0.78
  -6   6   1    2.81    0.77
  -6   6   1    2.30    0.74
  -6  -6   1    3.13    0.95
   6   6   0   97.22    2.91
   6  -6   0   95.75    3.02
   6   6   0   78.12    2.47
  -6  -6   0   97.11    2.91
  -6   6   0   93.09    2.84
   6   6   1    2.13    0.93
   6  -6   1    2.82    0.80
   6   6   1    2.87    0.99
  -6   6  -1    2.78    0.62
   6   6   2    6.20    0.97
   6  -6   2    7.46    1.14
   6   6   2    4.79    0.90
   6  -6   2    6.21    0.73
   6   6   3   10.36    1.09
   6  -6   3    9.93    1.25
   6   6   3    7.70    1.01
   6   6   4   28.67    1.70
   6   6   4   33.04    1.96
   6   6   5    0.92    0.90
   6   6   5    2.93    1.12
   6   6   6    9.82    1.07
   6  -6   6   10.45    1.22
   6   6   6   13.90    1.55
   6   7 -11    0.52    0.69
   6   7 -11   -0.80    0.98
   6   7 -11   -0.91    0.97
  -6  -7  11    0.92    0.84
  -6   7  11    0.64    1.20
   6   7 -10    2.51    0.90
   6   7 -10    2.97    1.09
  -6  -7  10    1.76    0.84
   6   7  -9   60.71    2.83
  -6  -7   9   62.91    2.99
   6   7  -8    7.98    0.98
  -6  -7   8    7.39    0.97
   6   7  -7   17.23    1.22
   6  -7  -7   12.87    0.86
   6  -7  -7   13.60    0.98
   6   7  -7   15.50    0.91
  -6  -7   7   16.28    1.16
  -6  -7   7   13.04    1.33
   6  -7  -6   27.44    1.34
   6   7  -6   34.34    1.72
   6  -7  -6   32.05    1.59
   6  -7  -6   28.83    1.65
   6   7  -6   31.63    1.56
   6   7  -6   28.66    1.57
  -6  -7   6   32.56    1.67
   6  -7  -5    9.74    0.71
   6   7  -5   12.50    1.00
   6  -7  -5   11.53    0.89
   6   7  -5   10.82    0.87
   6   7  -5   11.43    0.89
   6  -7  -5   10.48    0.98
  -6   7   5   10.70    1.00
   6  -7  -4    0.63    0.56
   6   7  -4   -0.65    0.85
   6  -7  -4    0.83    0.78
   6   7  -4    0.32    0.70
   6   7  -4    0.21    0.67
   6  -7  -4    0.89    0.63
  -6   7   4   -0.05    0.91
   6  -7  -3   73.03    2.29
   6  -7  -3   78.88    2.50
   6   7  -3   72.10    2.22
   6  -7  -3   68.49    2.34
  -6   7   3   74.12    2.42
   6  -7  -2   10.12    0.81
   6   7  -2   10.30    0.95
   6  -7  -2    9.99    1.06
   6   7  -2    9.95    0.92
   6   7  -2    9.23    0.86
   6  -7  -2    8.86    0.95
   6  -7  -2    7.99    0.69
  -6   7   2   10.40    0.94
   6  -7  -1   11.58    0.88
   6   7  -1   12.58    1.04
   6  -7  -1   13.73    1.16
   6  -7  -1    9.25    0.69
   6   7  -1   11.21    0.94
  -6   7   1   10.43    0.84
   6   7   0   10.03    1.04
   6  -7   0    8.77    1.05
   6   7   0    8.85    0.99
  -6   7   0    7.73    0.76
   6   7   1   32.93    1.73
   6  -7   1   40.48    1.94
   6  -7   1   31.19    1.42
   6   7   1   40.95    1.92
  -6   7  -1   34.84    1.62
   6   7   2    0.23    0.64
   6  -7   2    0.97    1.06
   6   7   2    0.01    1.05
   6  -7   2    0.35    0.55
   6   7   3    1.22    0.80
   6  -7   3    1.06    1.14
   6   7   3    1.05    0.98
   6   7   3    1.05    0.98
   6   7   4    1.61    0.86
   6  -7   4    0.97    1.04
   6   7   4    2.06    1.07
   6   7   5   45.27    2.34
   6   7   5   51.05    2.58
   6   7   6    4.22    0.93
   6  -7   6    4.98    1.10
   6   7   6    4.97    1.30
   6   8 -11    3.52    0.75
   6   8 -11    3.52    0.75
  -6  -8  11    2.60    0.79
   6   8 -10    1.17    0.73
  -6  -8  10    1.39    0.88
   6   8  -9    2.37    0.93
  -6  -8   9    3.09    0.87
   6   8  -8   22.27    1.35
   6   8  -8   25.49    1.58
  -6  -8   8   24.60    1.48
   6   8  -7   26.82    1.40
   6  -8  -7   23.75    1.19
   6   8  -7   27.65    1.44
   6   8  -7   25.67    1.23
  -6  -8   7   24.97    1.28
   6   8  -6   22.77    1.41
   6  -8  -6   24.10    1.52
   6   8  -6   25.42    1.57
   6   8  -6   25.21    1.64
   6  -8  -5   -0.02    0.57
   6   8  -5   -0.19    0.97
   6  -8  -5    0.29    0.65
   6   8  -5    0.11    0.78
   6   8  -5    0.39    0.90
   6  -8  -4   28.38    1.33
   6  -8  -4   25.34    1.34
   6   8  -4   27.63    1.32
   6   8  -4   29.78    1.62
  -6   8   4   28.17    1.48
   6  -8  -3    3.97    0.61
   6  -8  -3    5.33    0.97
   6  -8  -3    3.16    0.51
  -6   8   3    4.24    0.91
   6  -8  -2    1.66    0.74
   6   8  -2    2.05    0.69
   6  -8  -2    0.84    0.83
   6  -8  -2    1.84    0.53
  -6   8   2    1.37    0.72
   6  -8  -1    0.52    0.71
   6   8  -1    1.24    0.91
   6  -8  -1    0.10    0.89
   6  -8  -1   -0.32    0.56
   6   8  -1    0.03    0.79
  -6   8   1    0.42    0.74
   6   8   0   28.58    1.49
   6  -8   0   24.37    1.32
   6  -8   0   21.74    1.21
   6   8   0   25.23    1.50
  -6   8   0   25.95    1.31
   6   8   1   -1.15    0.86
   6  -8   1    0.01    1.05
   6  -8   1    0.79    0.59
   6   8   1   -0.05    0.88
  -6   8  -1    0.61    0.60
   6   8   2    0.08    0.87
   6  -8   2    1.43    1.06
   6   8   2    0.55    0.94
   6  -8   2    0.05    0.57
   6   8   3    0.27    0.93
   6  -8   3    0.48    1.09
   6   8   3    1.30    0.89
   6   8   4    7.81    1.03
   6   8   4    7.81    1.03
   6  -8   4    8.84    1.25
   6   8   4    9.20    1.22
   6   8   5   -0.10    0.87
   6  -8   5   -0.38    1.07
   6   8   5    0.25    1.16
   6   9 -10   10.91    1.08
   6   9 -10   10.22    1.00
   6   9 -10   10.89    1.07
  -6  -9  10   10.38    0.92
   6   9  -9   15.07    1.35
   6   9  -9   15.02    1.34
   6   9  -9   14.09    1.39
   6   9  -8    2.15    1.00
   6   9  -8    2.11    0.78
   6   9  -7    1.32    0.77
   6   9  -7    0.81    0.78
   6   9  -6    3.40    0.73
   6  -9  -6    3.50    0.72
   6   9  -6    3.37    0.92
   6  -9  -5    5.32    0.72
   6   9  -5    4.65    1.06
   6  -9  -4   12.01    0.91
   6  -9  -4   11.88    1.06
   6   9  -4   12.87    1.19
  -6   9   4   12.22    1.11
   6  -9  -3   43.68    2.35
   6   9  -3   46.46    2.57
   6  -9  -3   46.15    2.55
   6   9  -3   42.48    2.39
  -6   9   3   41.05    2.26
   6  -9  -2    2.44    0.66
   6   9  -2    2.34    0.92
   6  -9  -2    1.61    0.81
  -6   9   2    2.33    0.67
   6   9  -1   21.05    1.26
   6  -9  -1   21.55    1.33
   6   9  -1   18.81    1.21
  -6   9   1   19.82    1.13
   6   9   0    0.53    0.87
   6  -9   0   -0.73    0.99
   6   9   0    0.29    0.95
  -6   9   0    0.63    0.63
   6   9   1   63.98    3.04
   6  -9   1   61.48    3.01
   6   9   1   57.11    2.95
   6   9   2   11.41    1.10
   6  -9   2   10.26    1.00
   6   9   2   12.25    1.13
   6   9   3    0.54    0.81
   6  -9   3   -0.35    1.12
   6   9   3    1.13    1.14
   6   9   4    5.28    0.90
   6  -9   4    5.15    1.05
   6   9   4    5.01    1.03
   6  10  -9   -0.29    0.93
   6  10  -9   -0.34    0.74
   6  10  -8   27.54    1.84
   6  10  -8   22.87    1.65
   6  10  -7    1.25    1.00
   6  10  -7    0.84    0.74
   6  10  -6   -0.45    1.00
   6  10  -6    0.30    0.69
   6 -10  -5    1.91    0.75
   6  10  -5    1.09    0.86
   6  10  -4   69.29    3.23
   6 -10  -4   63.90    3.09
   6  10  -4   67.29    3.23
  -6  10   4   64.05    3.05
   6 -10  -3    2.43    0.61
   6  10  -3    2.62    1.01
   6 -10  -3    3.63    0.89
   6  10  -3    2.39    0.92
  -6  10   3    2.36    0.80
   6  10  -2    2.25    0.94
   6 -10  -2    4.04    0.95
  -6  10   2    2.46    0.74
   6  10  -1    2.29    0.90
   6 -10  -1    1.42    0.94
  -6  10   1    2.12    0.71
   6  10   0   57.13    2.45
   6 -10   0   50.30    2.42
   6  10   0   46.33    2.32
   6  10   1    2.24    0.92
   6 -10   1    3.33    1.19
   6  10   1    2.08    0.97
   6  10   2    1.49    0.95
   6 -10   2    1.04    1.09
   6  10   2    1.54    0.94
   6  10   3    0.85    0.90
   6 -10   3    1.54    1.04
   6  10   3    1.16    0.99
   6  11  -7    5.25    0.91
   6  11  -7    4.90    0.77
   6  11  -6    2.17    0.99
   6  11  -5   20.20    1.38
   6  11  -4    0.91    0.97
   6 -11  -4    0.35    0.88
   6  11  -4   -0.55    0.89
  -6  11   4    0.13    0.77
   6  11  -3   31.03    1.76
   6 -11  -3   29.44    1.73
   6  11  -3   28.47    1.74
  -6  11   3   26.58    1.50
   6  11  -2    0.42    1.00
   6 -11  -2   -0.38    0.95
   6  11  -2    0.25    0.81
   6  11  -1   18.59    1.24
   6 -11  -1   15.56    1.12
   6  11   0    2.95    0.73
   6 -11   0    3.35    0.99
   6  11   1   63.79    3.57
   6 -11   1   57.39    3.13
   6  11   1   69.92    3.77
   6  11   2    0.33    0.91
   6 -11   2   -0.12    0.96
   6  11   2    0.17    0.92
   6  12  -5    0.76    0.91
   6  12  -5    0.35    0.99
   6  12  -4   18.80    1.27
   6  12  -4   17.11    1.16
  -6  12   4   16.08    1.00
   6  12  -3    2.07    0.96
   6 -12  -3    1.83    0.95
   6  12  -3    2.27    0.82
   6  12  -2    0.45    0.94
   6 -12  -2   -0.35    0.92
   6  12  -2    0.54    0.87
   6  12  -1    3.21    0.89
   6 -12  -1    3.46    1.08
   6  12  -1    2.33    0.88
   6  12   0   59.13    1.99
   6 -12   0   63.01    2.14
   7   0 -13   19.61    1.12
  -7   0  13   20.11    1.30
   7   0 -12    1.18    0.88
  -7   0  12   -0.39    1.08
   7   0 -11    3.98    0.67
   7   0 -11    4.24    0.81
  -7   0  11    4.21    0.68
  -7   0  11    4.45    1.03
   7   0 -10    0.10    0.62
   7   0 -10    0.01    0.85
  -7   0  10    0.07    1.00
  -7   0  10    0.12    0.75
   7   0  -9   90.55    3.62
   7   0  -9   89.93    3.62
  -7   0   9   89.54    3.67
  -7   0   9   87.72    3.55
   7   0  -8    0.52    0.68
   7   0  -8    0.42    0.80
  -7   0   8   -0.24    0.71
  -7   0   8   -0.01    0.71
   7   0  -7   66.11    2.14
   7   0  -7   70.85    2.33
  -7   0   7   66.58    2.20
   7   0  -6   -0.12    0.71
   7   0  -6   -0.12    0.86
  -7   0   6   -0.47    0.76
   7   0  -5   73.03    1.93
  -7   0   5   74.58    2.03
  -7   0   5   71.66    1.99
   7   0  -4   -0.33    0.78
   7   0  -4    0.44    0.81
   7   0  -4    0.04    0.64
  -7   0   4    0.07    0.72
  -7   0   4   -0.32    0.96
   7   0  -3   76.75    2.73
   7   0  -3   84.67    2.20
  -7   0   3   85.41    2.30
  -7   0   3   84.94    2.23
   7   0  -2    0.13    0.86
   7   0  -2   -0.03    0.74
  -7   0   2   -0.11    0.83
  -7   0   2   -0.47    0.85
   7   0  -1  125.34    2.69
  -7   0   1  129.34    2.86
   7   0   0   10.36    1.55
   7   0   0    5.15    1.01
   7   0   1  364.14    9.42
   7   0   2   -0.50    0.93
   7   0   2   -0.04    0.72
   7   0   3    3.46    0.99
   7   0   3    3.67    0.82
   7   0   4   -0.36    1.02
   7   0   5   72.34    3.03
   7   0   6    0.34    0.95
   7  -1 -13    2.03    0.65
   7   1 -13    2.46    0.84
  -7  -1  13    2.09    1.04
  -7   1  13    3.19    0.93
   7  -1 -12   13.94    1.06
   7   1 -12   13.52    1.12
  -7  -1  12   13.41    1.19
  -7   1  12   13.50    1.32
   7   1 -11    0.88    0.66
   7   1 -11    1.42    0.81
   7  -1 -11    1.44    0.78
   7   1 -11    1.42    0.81
  -7   1  11    1.67    0.99
  -7   1  11    0.63    0.66
  -7  -1  11    0.43    0.78
   7  -1 -10    1.95    0.65
   7   1 -10    2.44    0.76
   7   1 -10    2.84    0.85
   7  -1 -10    1.80    0.72
  -7   1  10    2.04    0.69
  -7   1  10    2.35    1.03
  -7  -1  10    1.93    1.01
  -7  -1  10    2.05    0.67
   7   1  -9    8.34    0.86
   7  -1  -9    6.96    0.72
   7   1  -9    7.69    0.97
   7  -1  -9    7.92    0.85
  -7   1   9    7.64    0.81
  -7   1   9    6.91    0.84
  -7  -1   9    8.01    1.10
  -7  -1   9    7.03    0.84
   7   1  -8   37.59    1.37
   7  -1  -8   38.20    1.42
   7   1  -8   37.01    1.34
   7  -1  -8   35.77    1.39
  -7  -1   8   37.20    1.44
  -7  -1   8   35.29    1.38
  -7   1   8   35.68    1.36
  -7  -1   8   37.20    1.44
   7   1  -7   12.59    0.90
   7  -1  -7   11.65    0.81
   7  -1  -7   12.09    0.91
   7   1  -7   12.52    0.98
  -7  -1   7   12.60    0.91
  -7   1   7   12.01    0.88
  -7  -1   7   11.20    1.06
   7   1  -6    0.59    0.70
   7  -1  -6    0.00    0.72
   7  -1  -6   -0.41    0.83
   7  -1  -6   -0.10    0.59
   7   1  -6   -0.55    0.77
  -7   1   6    0.34    0.66
  -7   1   6    1.07    0.89
  -7  -1   6   -0.02    0.74
   7   1  -5    4.25    0.86
   7  -1  -5    3.24    0.76
   7  -1  -5    4.19    0.76
  -7  -1   5    3.54    0.80
  -7   1   5    4.43    1.04
  -7   1   5    4.71    0.76
   7   1  -4   72.32    2.07
   7  -1  -4   72.87    1.99
   7  -1  -4   62.96    1.91
  -7   1   4   67.95    1.89
  -7  -1   4   69.45    1.89
  -7   1   4   72.82    2.01
  -7  -1   4   70.13    2.00
   7   1  -3    1.01    0.81
   7  -1  -3   -0.03    0.91
   7  -1  -3    0.65    0.74
   7   1  -3    0.32    0.77
  -7   1   3    0.18    0.77
  -7   1   3   -0.16    0.82
  -7  -1   3   -0.44    0.95
  -7  -1   3    0.69    0.82
   7   1  -2   21.32    1.22
   7  -1  -2   21.34    1.17
   7  -1  -2   21.00    1.03
   7   1  -2   20.48    1.07
  -7   1   2   19.94    1.15
  -7   1   2   20.87    1.12
  -7  -1   2   20.33    1.15
  -7  -1   2   20.17    1.07
   7   1  -1   14.49    1.11
   7  -1  -1   14.42    1.11
   7  -1  -1   14.83    0.93
   7   1  -1   13.88    0.94
  -7   1   1   14.36    1.02
  -7   1   1   14.33    1.01
  -7  -1   1   15.28    1.12
  -7  -1   1   15.01    0.98
   7  -1   0   70.53    2.45
   7   1   0   85.97    2.73
   7  -1   0   84.43    2.69
  -7   1   0   85.16    2.87
  -7   1   0   75.48    2.51
   7   1   1    5.09    0.94
   7  -1   1    4.86    0.81
   7   1   2   12.44    1.01
   7   1   2   14.04    1.07
   7  -1   2   14.46    1.06
   7   1   3   -0.40    0.97
   7  -1   3    0.84    1.03
   7  -1   3    0.08    0.75
   7   1   4    7.00    1.13
   7  -1   4    7.57    1.17
   7  -1   4    5.93    0.85
   7   1   5    0.36    0.79
   7  -1   5   -0.59    1.11
   7   1   6   13.33    1.32
   7  -1   6   14.93    1.40
   7  -2 -13   17.09    1.01
   7   2 -13   18.53    1.15
  -7  -2  13   19.35    1.27
  -7   2  13   17.56    1.30
   7   2 -12    0.66    0.73
   7   2 -12    0.88    0.85
   7  -2 -12    0.92    0.71
  -7  -2  12    1.01    0.74
  -7   2  12   -0.52    1.13
  -7   2  12    0.50    0.72
   7   2 -11    3.40    0.66
   7   2 -11    4.09    0.81
   7  -2 -11    4.05    0.77
  -7  -2  11    3.62    0.78
  -7   2  11    4.41    1.17
  -7   2  11    3.80    0.77
   7  -2 -10    8.96    0.74
   7   2 -10   10.01    0.92
   7   2 -10    9.95    0.84
   7  -2 -10    9.36    0.86
  -7  -2  10    9.32    0.86
  -7  -2  10    9.57    1.07
  -7   2  10   10.64    1.15
   7   2  -9   23.19    1.22
   7  -2  -9   22.76    1.16
   7   2  -9   24.70    1.40
   7  -2  -9   22.72    1.20
  -7  -2   9   22.20    1.21
  -7   2   9   23.37    1.26
  -7  -2   9   25.53    1.52
   7   2  -8    4.10    0.74
   7  -2  -8    4.90    0.75
   7   2  -8    6.22    1.00
   7  -2  -8    4.34    0.72
  -7   2   8    4.50    0.79
  -7  -2   8    5.22    1.00
  -7   2   8    4.64    0.77
  -7  -2   8    4.63    0.78
   7   2  -7    1.86    0.75
   7  -2  -7    0.88    0.62
   7  -2  -7    1.98    0.73
   7   2  -7    1.52    0.86
   7  -2  -7    0.98    0.69
  -7   2   7    1.25    0.76
  -7  -2   7    1.88    1.04
  -7  -2   7    0.97    0.78
  -7   2   7    1.20    0.80
   7   2  -6    1.06    0.76
   7  -2  -6    1.72    0.72
   7   2  -6    1.03    0.95
   7  -2  -6    1.37    0.74
   7  -2  -6    1.03    0.68
  -7   2   6    1.13    1.04
  -7  -2   6    1.05    0.97
  -7  -2   6    0.97    0.85
  -7   2   6    0.43    0.69
   7   2  -5   66.38    1.79
   7  -2  -5   58.79    1.62
   7  -2  -5   61.31    1.79
   7   2  -5   65.88    1.77
  -7  -2   5   62.96    1.70
  -7   2   5   60.84    1.68
  -7   2   5   59.34    1.73
   7   2  -4   10.74    0.96
   7  -2  -4    9.83    0.85
   7  -2  -4    8.43    0.88
  -7  -2   4   10.94    1.01
  -7   2   4    9.99    0.95
  -7   2   4    9.05    0.88
   7   2  -3   21.47    1.13
   7  -2  -3   22.08    1.19
   7   2  -3   17.30    0.99
  -7   2   3   20.64    1.09
  -7  -2   3   20.10    1.12
  -7   2   3   21.27    1.16
  -7  -2   3   20.19    1.19
   7   2  -2   -0.80    0.91
   7  -2  -2    1.18    0.89
   7  -2  -2   -0.14    0.79
   7   2  -2    0.23    0.76
  -7   2   2    0.07    0.83
  -7   2   2   -0.24    0.88
  -7  -2   2    0.23    0.96
  -7  -2   2   -0.72    0.85
   7   2  -1   24.98    1.17
   7  -2  -1   28.01    1.27
   7   2  -1   27.02    0.99
   7  -2  -1   27.58    1.13
  -7   2   1   28.74    1.21
  -7   2   1   28.46    1.20
   7  -2   0   11.39    1.12
   7  -2   0    8.80    0.79
   7   2   0   10.32    0.91
  -7  -2   0    8.27    1.01
  -7   2   0    9.93    0.94
  -7   2   0   10.35    0.96
   7   2   1  115.07    3.40
   7  -2   1  115.65    3.45
   7   2   1   96.99    2.83
   7   2   2    2.28    1.00
   7  -2   2    1.57    0.78
   7   2   3    3.23    1.13
   7  -2   3    3.59    0.83
   7   2   4    0.60    0.79
   7  -2   4    1.27    1.08
   7  -2   4    0.68    0.70
   7   2   5   37.57    1.94
   7  -2   5   32.82    1.68
   7   2   6    0.84    1.01
   7  -2   6   -0.08    1.13
   7   3 -13    0.55    0.79
   7   3 -13    0.54    0.79
  -7  -3  13   -0.39    1.04
  -7   3  13   -0.25    1.06
   7   3 -12    2.43    0.64
   7   3 -12    2.37    0.94
   7  -3 -12    2.60    0.72
  -7  -3  12    2.82    0.93
  -7   3  12    2.33    1.08
  -7   3  12    1.78    0.86
   7   3 -11    1.25    0.75
   7   3 -11    2.29    0.89
   7  -3 -11    1.75    0.65
  -7  -3  11    1.69    0.91
  -7   3  11    1.32    1.01
  -7   3  11    1.47    0.89
   7   3 -10    1.25    0.78
   7  -3 -10    0.80    0.62
   7   3 -10    0.82    0.87
  -7  -3  10    0.60    0.69
  -7  -3  10    1.16    0.73
   7   3  -9    3.09    0.74
   7  -3  -9    2.14    0.53
   7   3  -9    2.72    0.93
   7  -3  -9    2.46    0.64
  -7  -3   9    2.88    0.82
  -7   3   9    2.62    0.66
  -7  -3   9    4.21    0.95
   7   3  -8   39.03    1.81
   7  -3  -8   37.35    1.73
   7  -3  -8   39.24    1.80
   7   3  -8   42.04    2.01
   7  -3  -8   31.66    1.64
  -7   3   8   37.86    1.93
  -7  -3   8   40.18    1.94
  -7  -3   8   39.22    1.86
  -7   3   8   36.26    1.74
   7   3  -7    2.20    0.81
   7  -3  -7    1.65    0.75
   7  -3  -7    1.33    0.65
   7   3  -7    2.01    0.90
   7  -3  -7    1.75    0.80
  -7   3   7    1.75    0.75
  -7  -3   7    1.64    0.92
  -7  -3   7    1.58    0.77
  -7   3   7    1.77    0.68
   7   3  -6    0.44    0.77
   7  -3  -6    0.51    0.70
   7  -3  -6    0.65    0.82
   7  -3  -6    0.00    0.62
   7   3  -6    0.17    0.91
   7   3  -6   -0.22    0.85
  -7   3   6   -0.93    0.93
  -7  -3   6   -1.07    0.78
  -7   3   6   -0.14    0.84
  -7  -3   6    0.48    0.88
   7   3  -5   -0.77    0.74
   7  -3  -5    1.01    0.82
   7  -3  -5   -0.20    0.74
   7   3  -5   -0.38    0.87
  -7   3   5   -0.62    0.76
  -7   3   5    0.10    0.91
  -7  -3   5    0.41    0.90
  -7  -3   5    0.01    0.59
   7   3  -4  135.66    2.90
   7  -3  -4  115.94    2.59
   7  -3  -4  123.01    2.96
   7   3  -4  134.77    2.91
  -7  -3   4  133.97    2.87
  -7   3   4  119.00    2.63
  -7   3   4  121.17    3.06
   7   3  -3    7.53    0.98
   7  -3  -3    6.51    0.99
   7   3  -3    5.67    0.70
  -7  -3   3    7.39    0.91
  -7  -3   3    7.39    0.91
  -7   3   3    7.58    0.94
  -7   3   3    6.19    0.81
   7   3  -2    9.28    0.92
   7  -3  -2   10.03    1.02
   7   3  -2    8.00    0.80
  -7   3   2    8.68    0.92
  -7  -3   2    7.63    0.92
  -7   3   2    8.82    0.92
  -7  -3   2    9.55    0.97
   7  -3  -1    0.69    0.95
   7   3  -1    0.56    0.62
   7  -3  -1    0.34    0.69
   7   3  -1    0.97    0.87
  -7   3   1    0.94    0.83
  -7   3   1    0.76    0.79
   7  -3   0   38.66    1.67
   7   3   0   41.01    1.73
   7   3   0   37.24    1.36
   7  -3   0   37.96    1.47
  -7   3   0   38.55    1.60
  -7   3   0   37.99    1.54
  -7  -3   0   38.60    1.64
   7   3   1    0.12    0.93
   7  -3   1    0.14    1.03
   7  -3   1   -0.21    0.69
   7   3   1    0.86    0.85
   7   3   2   25.36    1.42
   7  -3   2   27.07    1.56
   7  -3   2   24.84    1.30
   7   3   3    0.96    1.07
   7  -3   3    0.02    0.69
   7   3   4    6.02    1.10
   7  -3   4    7.04    1.18
   7   3   4    4.55    1.16
   7   3   5   -1.27    0.97
   7  -3   5    0.59    1.18
   7   3   5   -0.17    1.10
   7   3   6    3.73    1.05
   7  -3   6    2.54    1.12
   7  -3   6    2.49    1.13
   7   3   6    3.97    1.23
   7   4 -12   -0.06    0.71
   7   4 -12   -0.07    0.71
   7   4 -12    0.66    0.87
  -7  -4  12    0.05    0.96
  -7   4  12   -0.05    0.91
  -7   4  12    0.03    0.94
   7   4 -11    2.50    0.79
   7  -4 -11    2.67    0.64
   7   4 -11    2.93    1.02
  -7  -4  11    1.84    0.86
  -7   4  11    1.57    0.93
   7   4 -10    1.14    0.89
   7   4 -10    0.28    0.91
   7  -4 -10    1.17    0.57
  -7  -4  10   -0.11    0.92
   7   4  -9   35.66    1.95
   7  -4  -9   32.77    1.80
   7  -4  -9   32.12    1.76
   7  -4  -9   29.38    1.78
   7  -4  -9   37.87    2.08
   7   4  -9   39.95    2.27
  -7   4   9   38.80    2.26
  -7  -4   9   37.91    2.11
   7   4  -8    1.21    0.86
   7  -4  -8    0.45    0.61
   7  -4  -8    0.36    0.65
   7   4  -8    1.08    0.73
   7  -4  -8    0.29    0.72
  -7   4   8    0.43    0.96
  -7  -4   8    0.55    0.93
  -7  -4   8    1.02    0.78
  -7   4   8    0.54    0.58
   7   4  -7   13.47    0.96
   7  -4  -7   11.73    0.84
   7  -4  -7   11.67    0.83
   7   4  -7   14.33    1.16
   7  -4  -7   11.23    0.99
  -7   4   7   14.33    1.14
  -7  -4   7   13.34    1.05
  -7  -4   7   13.42    0.96
  -7   4   7   13.42    0.94
   7   4  -6    0.02    0.63
   7  -4  -6    0.20    0.68
   7  -4  -6    0.01    0.74
   7  -4  -6    0.38    0.67
   7   4  -6   -0.23    0.70
   7   4  -6    0.34    0.80
  -7   4   6    0.47    1.02
  -7  -4   6    0.41    0.59
  -7   4   6   -0.14    0.78
  -7  -4   6    0.19    0.95
   7   4  -5   17.50    1.06
   7   4  -5   17.14    1.08
   7  -4  -5   14.88    1.00
   7  -4  -5   14.74    1.00
  -7  -4   5   16.86    1.16
  -7   4   5   17.36    1.05
  -7  -4   5   17.49    1.14
  -7   4   5   14.88    0.93
   7   4  -4    0.38    0.79
   7   4  -4   -0.13    0.79
   7  -4  -4   -0.41    0.81
   7  -4  -4    0.00    0.79
  -7  -4   4   -0.23    0.90
  -7   4   4    0.23    0.72
  -7  -4   4    0.23    0.76
  -7   4   4    0.20    0.84
   7   4  -3   40.74    1.63
   7   4  -3   36.86    1.47
   7  -4  -3   38.19    1.67
   7   4  -3   39.81    1.56
  -7   4   3   39.61    1.61
  -7   4   3   39.19    1.61
  -7  -4   3   40.68    1.57
   7  -4  -2    2.63    0.90
   7   4  -2    2.58    0.78
  -7   4   2    2.74    0.85
  -7   4   2    2.98    0.85
   7   4  -1    0.02    0.78
   7  -4  -1    0.00    0.89
  -7  -4   1    0.41    0.82
  -7   4   1    0.07    0.67
  -7   4   1   -0.19    0.84
   7   4   0    1.34    1.00
   7  -4   0    1.51    0.94
   7   4   0    1.32    0.78
  -7   4   0    0.97    0.67
   7   4   1   93.87    4.00
   7  -4   1   77.22    3.53
   7  -4   1   81.24    3.45
   7   4   1   90.41    3.93
   7   4   2    3.42    0.92
   7  -4   2    3.91    0.99
   7  -4   2    3.18    0.71
   7   4   2    3.10    1.12
   7   4   3    0.61    0.97
   7  -4   3   -0.28    0.63
   7   4   3    0.23    1.05
   7   4   4    1.28    1.02
   7   4   4    0.08    1.05
   7   4   5   38.33    2.07
   7  -4   5   38.32    2.14
   7   4   5   43.43    2.35
   7   4   6   -0.31    1.03
   7  -4   6   -0.10    1.15
   7   4   6    0.34    1.17
   7   5 -12   15.46    0.98
   7   5 -12   15.67    1.13
  -7   5  12   14.46    1.21
  -7  -5  12   15.84    0.99
   7   5 -11   -0.36    0.85
   7   5 -11    1.46    1.05
  -7  -5  11    0.68    0.86
   7   5 -10    3.79    0.80
   7   5 -10    4.94    0.96
  -7   5  10    4.60    1.21
  -7  -5  10    3.99    0.96
   7   5  -9    0.61    0.64
   7  -5  -9    0.44    0.76
   7  -5  -9    0.32    0.57
   7   5  -9    0.94    1.04
  -7   5   9    1.13    0.81
  -7  -5   9    1.49    0.91
   7   5  -8   70.22    3.54
   7  -5  -8   62.42    3.24
   7   5  -8   80.58    4.11
   7  -5  -8   61.54    3.38
   7  -5  -8   64.70    3.34
  -7  -5   8   72.06    3.65
  -7   5   8   76.65    3.98
  -7   5   8   62.71    3.26
   7   5  -7    0.05    0.84
   7  -5  -7    0.15    0.68
   7   5  -7   -0.12    1.02
   7  -5  -7   -0.06    0.78
   7  -5  -7   -0.15    0.57
  -7  -5   7    0.20    0.88
  -7   5   7   -0.39    0.91
  -7   5   7    0.35    0.67
   7   5  -6    3.33    0.88
   7  -5  -6    2.73    0.74
   7  -5  -6    2.13    0.60
   7   5  -6    2.67    0.99
   7  -5  -6    1.31    0.85
   7   5  -6    3.33    0.92
  -7   5   6    2.91    1.01
  -7   5   6    2.29    0.70
  -7  -5   6    2.23    0.95
   7   5  -5    0.91    0.84
   7  -5  -5    0.60    0.70
   7  -5  -5    0.41    0.68
   7   5  -5   -0.08    0.79
  -7   5   5    0.14    0.74
  -7  -5   5    0.15    0.74
  -7   5   5    0.14    0.93
   7   5  -4  175.29    4.83
   7   5  -4  175.75    4.85
   7  -5  -4  147.84    5.26
   7  -5  -4  141.31    4.23
   7   5  -4  161.40    4.44
  -7   5   4  148.07    4.73
  -7  -5   4  162.35    4.60
  -7   5   4  169.89    4.89
   7   5  -3    0.51    0.79
   7  -5  -3   -0.13    0.89
   7   5  -3    0.90    0.63
   7  -5  -3    0.29    0.72
   7   5  -3    0.62    0.67
  -7   5   3    0.59    0.85
  -7   5   3   -0.50    0.77
   7  -5  -2    6.42    0.99
   7   5  -2    5.72    0.79
  -7   5   2    4.75    0.84
  -7   5   2    6.50    0.92
   7   5  -1    2.24    0.96
   7  -5  -1    1.47    1.06
   7   5  -1    1.22    0.70
  -7   5   1    2.17    0.78
  -7   5   1    1.80    0.79
   7   5   0  124.39    4.96
   7  -5   0  121.22    4.92
   7   5   0  101.25    4.10
  -7   5   0  107.05    4.37
   7   5   1    0.18    0.90
   7  -5   1    0.57    1.02
   7   5   1    0.35    0.84
   7   5   2   44.71    2.48
   7  -5   2   41.43    2.40
   7   5   2   48.29    2.71
   7   5   3    3.03    0.78
   7  -5   3    3.53    0.84
   7   5   3    3.05    1.13
   7   5   4   10.98    1.10
   7   5   4   10.11    1.02
   7   5   5   -1.33    0.98
   7  -5   5    0.36    0.85
   7   5   5   -1.11    1.20
   7   6 -11    3.35    0.89
   7   6 -11    2.26    0.96
  -7  -6  11    3.03    1.02
   7   6 -10    0.24    0.93
   7   6 -10    0.95    1.09
  -7  -6  10    0.90    0.89
   7   6  -9   19.19    1.21
   7  -6  -9   16.15    1.22
   7   6  -9   21.55    1.48
  -7  -6   9   18.45    1.31
  -7   6   9   22.11    1.53
   7   6  -8    1.50    0.87
   7  -6  -8    1.11    0.51
   7  -6  -8    1.31    0.73
   7   6  -8    1.28    1.01
  -7  -6   8    1.87    0.92
  -7   6   8    0.98    0.77
   7   6  -7    0.60    0.89
   7  -6  -7    0.19    0.67
   7  -6  -7   -0.31    0.71
   7  -6  -7    0.06    0.51
   7   6  -7    0.59    0.69
  -7   6   7   -0.53    0.95
  -7  -6   7   -0.24    0.92
   7   6  -6    5.24    0.91
   7  -6  -6    5.30    0.85
   7  -6  -6    5.32    0.89
   7  -6  -6    4.45    0.60
  -7  -6   6    6.92    1.01
  -7   6   6    5.32    1.07
   7   6  -5   26.59    1.46
   7  -6  -5   25.67    1.45
   7  -6  -5   20.09    1.29
  -7   6   5   22.71    1.29
  -7   6   5   24.87    1.47
  -7  -6   5   25.33    1.48
   7   6  -4    8.38    1.06
   7  -6  -4    6.98    0.96
   7  -6  -4    4.75    0.67
  -7   6   4    7.46    1.00
  -7   6   4    6.96    0.90
   7  -6  -3   31.27    1.67
   7  -6  -3   31.56    1.69
  -7   6   3   33.16    1.68
  -7   6   3   30.20    1.60
   7  -6  -2    5.54    0.99
   7   6  -2    4.39    0.78
  -7   6   2    4.48    0.75
  -7   6   2    4.11    0.82
   7   6  -1    1.03    0.97
   7  -6  -1    0.66    0.98
   7   6  -1   -0.01    0.67
  -7   6   1    0.00    0.81
   7   6   0    2.82    0.96
   7  -6   0    1.70    0.75
   7   6   0    0.85    0.79
  -7   6   0    2.18    0.68
   7   6   1   92.54    4.64
   7  -6   1   70.39    3.90
   7   6   1   84.89    4.43
   7   6   2    0.30    1.02
   7  -6   2    1.11    1.08
   7   6   2    0.95    1.01
   7   6   3    1.09    0.91
   7   6   3    1.17    0.80
   7  -6   3    1.17    1.23
   7   6   3    2.86    1.10
   7   6   4    0.41    0.92
   7   6   4    0.29    1.14
   7   6   5   26.31    1.32
   7   6   5   24.18    1.41
   7   7 -11    3.81    0.93
   7   7 -11    3.90    0.96
   7   7 -11    4.30    1.01
  -7  -7  11    2.72    0.82
   7   7 -10    5.71    0.94
   7   7 -10    6.44    1.06
  -7  -7  10    5.86    0.77
   7   7  -9   20.40    1.22
   7   7  -9   23.21    1.42
  -7  -7   9   20.18    1.28
   7   7  -8   27.52    1.50
  -7  -7   8   30.71    1.74
  -7   7   8   31.44    1.90
   7   7  -7    4.48    0.89
   7  -7  -7    2.92    0.61
  -7  -7   7    4.12    0.97
  -7   7   7    3.48    0.77
   7  -7  -6    0.35    0.49
   7   7  -6    0.61    0.94
   7  -7  -6    1.04    0.78
   7  -7  -6    0.49    0.85
  -7   7   6    0.13    0.71
  -7  -7   6    0.22    0.71
   7  -7  -5    2.10    0.64
   7   7  -5    2.59    0.70
   7  -7  -5    3.13    0.86
   7  -7  -5    1.60    0.54
   7  -7  -5    2.14    0.64
   7   7  -5    1.74    0.96
  -7   7   5    2.97    0.89
   7  -7  -4   75.16    3.00
   7   7  -4   58.99    2.37
   7  -7  -4   75.25    3.05
   7  -7  -4   67.62    2.84
  -7   7   4   81.87    3.22
   7  -7  -3    0.66    0.70
   7  -7  -3    0.52    0.95
   7  -7  -3    0.59    0.82
  -7   7   3    0.67    0.83
   7  -7  -2    2.36    0.71
   7   7  -2    1.29    0.97
   7  -7  -2    0.93    0.70
   7   7  -2    1.46    0.68
  -7   7   2    1.61    0.77
   7   7  -1    0.28    0.89
   7  -7  -1    1.43    0.95
   7   7  -1    0.74    0.82
  -7   7   1    0.10    0.67
   7  -7   0   53.72    2.19
   7   7   0   53.06    2.14
  -7   7   0   46.92    1.99
   7   7   1    0.58    1.04
   7  -7   1    1.08    1.10
   7   7   1    0.52    0.89
   7  -7   1   -0.22    0.61
   7   7   2    3.87    0.97
   7  -7   2    4.27    1.11
   7   7   2    3.16    0.91
   7   7   3    1.57    0.95
   7  -7   3    0.90    1.19
   7   7   3    1.48    1.06
   7   7   4    5.07    1.01
   7  -7   4    5.15    0.95
   7   7   4    5.29    1.05
   7   8 -10   11.38    0.90
  -7  -8  10   11.84    1.01
   7   8  -9    2.15    0.85
  -7  -8   9    2.69    0.88
   7   8  -8    0.05    0.98
  -7  -8   8    0.32    0.80
   7   8  -7    0.61    0.69
   7   8  -7    0.98    0.89
  -7   8   7    1.17    1.12
  -7  -8   7    0.10    0.63
   7   8  -6    0.12    0.94
   7  -8  -6   -0.24    0.64
   7   8  -6   -0.29    0.74
  -7   8   6    1.11    0.88
   7   8  -5   38.21    1.70
   7  -8  -5   32.22    1.60
   7   8  -5   35.67    1.78
  -7   8   5   34.07    1.64
   7  -8  -4    0.15    0.62
   7  -8  -4    0.22    0.78
   7   8  -4   -0.23    1.00
  -7   8   4    0.78    0.86
   7  -8  -3   24.56    1.20
   7  -8  -3   27.72    1.43
   7  -8  -3   27.72    1.43
  -7   8   3   29.22    1.44
   7   8  -2    0.60    0.72
   7  -8  -2    0.79    0.89
   7   8  -2    0.07    0.69
  -7   8   2    0.10    0.69
   7   8  -1    3.40    0.92
   7  -8  -1    2.92    0.97
   7   8  -1    2.89    0.79
  -7   8   1    2.43    0.68
   7   8   0    0.55    1.00
   7  -8   0   -0.79    1.01
   7   8   0   -0.09    0.81
  -7   8   0    0.28    0.69
   7   8   1   64.30    2.71
   7  -8   1   64.83    2.81
   7   8   1   48.55    2.56
   7   8   2    2.77    0.98
   7  -8   2    3.28    1.13
   7   8   2    2.09    0.92
   7   8   3    4.75    0.99
   7  -8   3    5.66    1.25
   7   8   3    6.15    1.14
   7   8   4    0.45    0.98
   7  -8   4    0.62    1.03
   7  -8   4    0.42    1.08
   7   8   4   -0.52    1.13
   7   9  -9    7.57    0.99
   7   9  -9    7.70    1.11
   7   9  -8   12.45    1.05
   7   9  -8   14.62    1.33
   7   9  -7   10.91    0.97
   7   9  -7   11.28    0.99
  -7   9   7   10.04    1.09
   7   9  -6    1.01    0.74
   7  -9  -6    0.75    0.61
   7   9  -6    0.80    0.75
  -7   9   6    1.67    0.86
   7   9  -5   -0.43    0.86
   7  -9  -5    0.51    0.81
   7   9  -5    0.10    0.91
  -7   9   5   -0.11    0.88
   7  -9  -4   83.89    4.03
   7   9  -4   86.61    4.10
  -7   9   4   86.64    3.97
   7   9  -3    1.22    0.93
   7  -9  -3   -0.47    0.78
  -7   9   3    0.15    0.83
   7   9  -2   -0.08    0.94
   7  -9  -2   -1.23    0.88
  -7   9   2    0.21    0.69
   7   9  -1    4.11    1.04
   7  -9  -1    3.38    1.04
   7   9  -1    2.76    0.80
  -7   9   1    2.64    0.74
   7   9   0   33.80    1.74
   7  -9   0   34.74    1.92
   7   9   0   30.40    1.64
   7   9   1    1.34    0.91
   7  -9   1    1.43    1.02
   7   9   1    1.23    0.81
   7   9   2    1.31    0.92
   7  -9   2    2.35    0.84
   7   9   2    1.65    0.74
   7   9   3   -0.61    1.00
   7  -9   3    0.24    1.07
   7   9   3   -0.83    0.91
   7  10  -8    2.28    0.92
   7  10  -8    3.40    1.09
   7  10  -7    3.01    1.02
   7  10  -7    3.09    0.76
  -7  10   7    2.52    0.99
   7  10  -6    4.73    0.82
   7  10  -6    4.39    0.90
  -7  10   6    5.28    1.04
   7 -10  -5   11.78    1.04
   7  10  -5   13.10    1.24
  -7  10   5   10.72    1.07
   7  10  -4    1.40    0.92
   7 -10  -4    2.10    0.82
   7  10  -4    0.72    0.79
  -7  10   4    1.34    0.76
   7  10  -3   25.28    1.55
   7 -10  -3   23.44    1.46
   7  10  -3   21.60    1.45
  -7  10   3   17.91    1.18
   7  10  -2    1.66    0.98
   7 -10  -2    0.40    0.71
  -7  10   2    1.20    0.63
   7  10  -1    0.38    0.72
   7 -10  -1    0.44    1.00
   7  10   0    1.52    0.95
   7 -10   0    0.45    0.96
   7  10   0    1.77    0.83
   7  10   1   15.83    1.11
   7 -10   1   16.90    1.26
   7  10   1   15.84    1.06
   7  11  -6    0.41    0.90
  -7  11   6    0.78    0.94
   7  11  -5    0.08    0.95
  -7  11   5    0.58    0.82
   7  11  -4   91.52    1.67
   7 -11  -4   84.59    1.84
   7  11  -4   74.04    3.99
  -7  11   4   68.26    3.77
   7  11  -3    0.87    0.73
   7 -11  -3    1.34    0.81
   7  11  -3    0.26    0.95
   7  11  -2   14.08    1.15
   7 -11  -2   12.07    1.11
   7  11  -2   11.66    1.19
   7  11  -1   -0.23    0.82
   7 -11  -1    0.69    1.01
   8   0 -12   21.30    1.45
  -8   0  12   24.78    1.82
   8   0 -11    0.24    0.70
   8   0 -11    0.30    0.79
   8   0 -11    0.27    0.78
  -8   0  11   -0.43    1.06
   8   0 -10    5.23    0.76
   8   0 -10    4.82    0.88
  -8   0  10    5.20    1.04
   8   0  -9   -0.41    0.66
   8   0  -9    0.04    0.80
  -8   0   9   -0.93    0.96
  -8   0   9    0.10    0.74
   8   0  -8  101.67    3.81
   8   0  -8  101.67    3.81
   8   0  -8  103.45    3.85
  -8   0   8   97.02    3.68
   8   0  -7    0.27    0.70
   8   0  -7   -0.42    0.75
  -8   0   7   -0.19    0.75
   8   0  -6    5.05    0.66
  -8   0   6    5.93    0.83
  -8   0   6    6.11    1.09
   8   0  -5   -0.66    0.89
   8   0  -5    0.61    0.62
  -8   0   5   -0.32    0.93
  -8   0   5   -0.46    0.82
   8   0  -4  356.66    9.01
   8   0  -4  337.74    9.08
   8   0  -4  295.64    8.77
  -8   0   4  330.38    9.08
  -8   0   4  334.76    9.15
   8   0  -3   -0.26    1.01
   8   0  -3    0.04    0.81
  -8   0   3   -0.73    0.96
  -8   0   3   -0.57    0.84
   8   0  -2  103.55    3.57
   8   0  -2  103.10    3.02
  -8   0   2  103.48    3.28
  -8   0   2  100.22    3.04
   8   0  -1    0.08    1.03
   8   0  -1   -0.16    0.79
  -8   0   1    0.39    0.67
   8   0   0  147.15    5.71
   8   0   0  118.73    4.76
   8   0   2   54.99    2.26
   8   0   3   -0.40    1.11
   8   0   4    5.57    1.15
   8   0   5    0.38    1.05
   8  -1 -12    1.29    0.74
   8   1 -12    0.94    0.92
  -8  -1  12    1.84    1.02
  -8   1  12    1.74    1.18
   8   1 -11    0.07    0.70
   8  -1 -11    0.13    0.76
   8   1 -11   -0.06    0.86
  -8  -1  11    0.40    0.78
  -8   1  11   -1.62    1.15
   8   1 -10    0.87    0.73
   8  -1 -10    1.22    0.64
   8   1 -10    1.29    0.78
   8  -1 -10    0.43    0.79
  -8  -1  10    1.37    0.72
  -8  -1  10    1.59    1.07
  -8   1  10    1.31    0.78
   8   1  -9   27.27    1.63
   8  -1  -9   27.73    1.64
   8   1  -9   29.96    1.81
   8  -1  -9   26.89    1.62
  -8  -1   9   27.19    1.66
  -8   1   9   26.68    1.59
  -8  -1   9   29.73    1.92
   8   1  -8    3.92    0.76
   8  -1  -8    3.86    0.71
   8   1  -8    4.00    0.92
   8  -1  -8    3.65    0.80
  -8  -1   8    3.20    0.83
  -8   1   8    3.17    0.70
  -8  -1   8    2.80    0.98
   8   1  -7    1.40    0.82
   8  -1  -7    0.93    0.74
   8   1  -7    0.07    0.68
   8  -1  -7    0.45    0.77
  -8  -1   7    0.31    0.84
  -8   1   7    0.45    0.75
  -8   1   7    1.81    1.03
   8   1  -6    4.25    0.77
   8  -1  -6    3.65    0.84
   8  -1  -6    2.68    0.63
  -8  -1   6    4.21    0.77
  -8   1   6    4.52    0.98
  -8   1   6    3.91    0.85
   8   1  -5    0.61    0.66
   8  -1  -5    0.95    0.82
   8  -1  -5    1.12    0.68
  -8   1   5    0.86    0.76
  -8  -1   5    1.33    0.79
  -8   1   5    2.18    0.94
  -8  -1   5    1.16    1.01
   8   1  -4    8.99    1.09
   8  -1  -4    7.93    1.01
   8   1  -4    8.17    0.78
   8  -1  -4    6.54    0.79
  -8   1   4    7.88    0.90
  -8   1   4    8.25    1.04
  -8  -1   4    9.11    1.10
  -8  -1   4    9.36    0.87
   8   1  -3   64.56    2.16
   8  -1  -3   62.78    2.13
   8  -1  -3   54.05    1.79
   8   1  -3   58.12    1.95
  -8   1   3   57.41    1.97
  -8   1   3   61.15    2.18
  -8  -1   3   56.37    1.92
  -8  -1   3   60.44    2.09
   8   1  -2    4.69    1.02
   8  -1  -2    5.04    1.01
   8  -1  -2    3.34    0.82
   8   1  -2    2.86    0.90
  -8   1   2    4.56    0.84
  -8  -1   2    4.34    1.00
  -8   1   2    4.20    0.97
   8   1  -1    1.26    0.97
   8  -1  -1    0.44    0.97
   8  -1  -1    0.96    0.82
  -8   1   1    0.92    0.88
   8  -1   0    5.93    1.00
   8  -1   0    4.67    0.80
   8  -1   1   39.70    2.29
   8  -1   1   39.16    2.23
   8   1   2    1.35    1.08
   8   1   3    1.76    1.08
   8  -1   3    1.99    1.10
   8   1   4    2.73    1.00
   8  -1   4    3.10    1.20
   8   1   5   19.10    1.30
   8  -1   5   19.96    1.30
   8  -2 -12    9.27    0.89
   8   2 -12   10.29    1.12
  -8  -2  12   10.79    1.25
  -8   2  12    9.93    1.03
   8   2 -11    0.74    0.68
   8  -2 -11    1.02    0.70
   8   2 -11    1.22    0.91
  -8  -2  11    0.76    1.05
  -8   2  11    0.91    0.87
   8   2 -10   -0.25    0.71
   8  -2 -10    0.40    0.53
   8  -2 -10    0.44    0.66
   8   2 -10    0.04    0.91
  -8  -2  10    0.25    0.68
  -8  -2  10   -0.63    1.00
   8   2  -9    0.27    0.76
   8  -2  -9   -0.18    0.66
   8   2  -9    0.53    0.66
   8  -2  -9   -0.02    0.67
  -8  -2   9   -0.02    0.72
  -8   2   9    0.49    0.73
  -8  -2   9    1.54    1.07
   8   2  -8   91.78    3.40
   8  -2  -8   87.12    3.34
   8   2  -8   96.04    3.68
   8  -2  -8   93.88    3.55
  -8   2   8   90.35    3.45
  -8   2   8   89.07    3.46
  -8  -2   8   94.10    3.60
  -8  -2   8   91.26    3.49
   8   2  -7    5.29    0.83
   8   2  -7    5.29    0.83
   8  -2  -7    5.10    0.81
   8   2  -7    4.58    0.94
   8  -2  -7    5.20    0.80
   8  -2  -7    3.94    0.70
  -8   2   7    4.36    1.09
  -8  -2   7    4.74    1.10
  -8  -2   7    4.89    0.88
  -8   2   7    4.88    0.80
   8   2  -6   15.98    0.91
   8  -2  -6   19.01    1.14
   8  -2  -6   16.61    0.97
  -8  -2   6   18.74    1.03
  -8   2   6   18.99    1.21
  -8   2   6   17.32    1.01
   8   2  -5   -0.76    0.84
   8  -2  -5   -0.29    0.83
   8  -2  -5   -0.02    0.70
  -8  -2   5   -0.35    0.75
  -8   2   5   -0.23    1.03
  -8   2   5    0.22    0.85
   8   2  -4    8.90    0.98
   8  -2  -4    8.84    0.99
   8  -2  -4    8.84    0.99
   8   2  -4    7.51    0.82
   8   2  -4    6.94    0.78
   8  -2  -4    6.02    0.73
  -8   2   4    8.17    1.03
  -8  -2   4    8.74    1.07
  -8  -2   4    7.85    0.94
  -8   2   4    8.89    0.93
   8   2  -3    8.35    1.02
   8  -2  -3    7.76    1.03
   8   2  -3    5.97    0.74
  -8   2   3    8.33    0.87
  -8   2   3    9.88    1.07
  -8  -2   3    8.07    1.05
   8   2  -2    5.98    0.95
   8  -2  -2    4.72    0.98
   8  -2  -2    4.31    0.83
  -8   2   2    4.94    0.93
  -8   2   2    4.07    0.85
  -8  -2   2    4.35    0.98
   8   2  -1    1.05    0.73
   8  -2  -1    1.04    0.98
   8  -2  -1    1.24    0.79
  -8   2   1    1.05    0.78
   8  -2   0   55.39    2.38
   8  -2   0   46.65    2.00
   8   2   1    1.87    0.99
   8  -2   1    0.83    1.10
   8  -2   1    0.37    0.75
   8   2   2    1.02    0.81
   8  -2   2   -0.07    0.72
   8   2   3    2.39    0.84
   8   2   4    6.87    1.17
   8  -2   4    6.33    0.95
   8   2   5   -0.71    1.07
   8  -2   5   -0.10    1.14
   8   3 -12    1.09    0.75
   8   3 -12    1.01    0.92
  -8   3  12    0.87    1.19
  -8  -3  12    0.66    0.96
   8   3 -11    2.09    0.77
   8   3 -11    2.11    0.79
   8   3 -11    2.20    0.95
   8  -3 -11    2.31    0.70
  -8  -3  11    3.11    1.08
   8   3 -10    0.22    0.84
   8   3 -10   -0.26    0.72
   8  -3 -10   -0.42    0.67
  -8  -3  10    0.21    1.06
   8   3  -9   22.41    1.27
   8  -3  -9   20.24    1.07
   8  -3  -9   21.25    1.11
   8   3  -9   22.22    1.16
  -8  -3   9   24.90    1.52
  -8   3   9   21.45    1.46
   8   3  -8   -0.18    0.61
   8  -3  -8   -0.11    0.72
   8   3  -8   -0.25    1.01
   8  -3  -8   -0.04    0.69
   8  -3  -8   -0.10    0.63
  -8  -3   8   -0.34    0.98
  -8   3   8    0.25    0.78
  -8   3   8    0.02    0.64
   8   3  -7   20.52    1.30
   8  -3  -7   15.66    1.06
   8  -3  -7   15.66    1.06
   8   3  -7   22.96    1.37
   8  -3  -7   15.23    1.11
   8  -3  -7   17.71    1.08
  -8  -3   7   21.56    1.43
  -8   3   7   20.40    1.35
  -8   3   7   18.76    1.12
   8   3  -6    0.10    0.85
   8  -3  -6    0.05    0.75
   8  -3  -6   -0.12    0.65
  -8   3   6   -0.09    0.76
  -8   3   6    0.16    0.98
  -8  -3   6    0.97    1.01
   8   3  -5   -0.12    0.93
   8  -3  -5    0.02    0.90
   8  -3  -5    0.14    0.70
  -8   3   5    0.01    0.70
  -8   3   5   -0.23    0.78
   8   3  -4    0.08    0.91
   8  -3  -4    0.13    0.84
   8  -3  -4   -0.09    0.63
  -8   3   4    0.30    0.85
  -8   3   4    0.36    0.77
   8   3  -3   29.51    1.36
   8  -3  -3   28.25    1.43
   8   3  -3   21.09    1.16
  -8   3   3   20.30    0.98
  -8   3   3   23.09    1.09
  -8  -3   3   21.46    1.07
   8   3  -2    0.21    0.91
   8  -3  -2    0.11    0.91
   8   3  -2   -0.33    0.69
  -8   3   2   -0.23    0.92
   8  -3  -1   16.79    1.31
   8   3  -1   12.26    1.04
  -8   3   1    9.76    0.83
   8  -3   0    0.47    1.02
   8  -3   0    0.47    1.02
   8   3   0   -1.38    0.83
   8  -3   0    0.21    0.71
  -8   3   0    0.42    0.86
   8   3   1   59.29    2.52
   8  -3   1   59.60    2.50
   8  -3   1   53.98    2.33
   8   3   1   60.53    2.56
   8   3   2   -0.02    1.08
   8  -3   2    1.43    1.10
   8  -3   2    0.53    0.72
   8   3   2    1.35    0.94
   8   3   3    2.88    1.09
   8   3   3    1.85    1.04
   8   3   4    1.60    0.79
   8  -3   4    1.20    0.86
   8   3   4    1.85    0.89
   8   3   5   14.14    1.22
   8  -3   5   13.39    1.28
   8   3   5   11.93    1.09
   8   4 -12   15.28    1.00
   8   4 -12   15.77    0.99
  -8  -4  12   15.91    1.24
   8   4 -11   -0.66    0.78
   8   4 -11   -0.02    1.05
  -8  -4  11    0.52    0.73
   8   4 -10   -0.36    0.76
   8  -4 -10   -0.02    0.66
   8   4 -10    0.05    0.71
  -8  -4  10   -0.02    1.10
  -8   4  10   -0.70    1.16
   8   4  -9    0.86    0.70
   8  -4  -9    0.94    0.59
   8  -4  -9    0.15    0.63
   8   4  -9    1.56    0.93
  -8  -4   9    0.51    0.78
  -8   4   9    1.44    1.04
   8   4  -8   51.05    2.06
   8  -4  -8   48.91    2.01
   8  -4  -8   46.69    1.97
   8  -4  -8   46.07    1.87
   8   4  -8   53.90    2.19
  -8  -4   8   51.48    2.16
  -8   4   8   51.95    2.24
   8   4  -7    0.69    0.65
   8  -4  -7   -0.01    0.76
   8   4  -7    0.02    0.71
   8  -4  -7   -0.39    0.78
   8  -4  -7    0.23    0.59
  -8  -4   7   -0.02    0.96
  -8   4   7   -0.87    0.98
  -8   4   7   -0.32    0.69
   8   4  -6   -0.05    0.90
   8  -4  -6   -0.12    0.74
   8  -4  -6   -0.32    0.61
   8  -4  -6    0.22    0.71
   8   4  -6    1.07    0.97
  -8  -4   6   -0.57    0.99
  -8   4   6    0.21    0.73
  -8   4   6   -0.43    0.66
   8   4  -5    5.24    0.94
   8  -4  -5    3.84    0.89
  -8   4   5    3.20    0.78
  -8  -4   5    5.37    1.07
  -8   4   5    3.60    0.97
   8   4  -4   43.17    2.13
   8  -4  -4   49.63    2.32
   8  -4  -4   37.52    1.82
  -8   4   4   38.97    1.78
  -8   4   4   49.06    2.27
  -8  -4   4   43.97    2.10
   8   4  -3    0.86    0.72
   8  -4  -3    0.86    0.96
   8   4  -3    0.31    0.60
  -8   4   3    0.42    0.93
  -8   4   3   -0.14    0.82
   8   4  -2    2.00    0.93
   8  -4  -2    2.61    0.96
   8   4  -2    1.39    0.71
  -8   4   2    1.63    0.87
   8  -4  -1    1.93    0.78
   8   4  -1    2.20    0.75
  -8   4   1    2.20    0.73
   8   4   0   50.05    2.75
   8  -4   0   44.49    2.59
   8   4   0   39.75    2.40
  -8   4   0   41.35    2.34
   8   4   1   -0.55    0.98
   8  -4   1    0.31    0.81
   8   4   1    0.26    0.86
   8   4   2    9.22    1.06
   8  -4   2    8.65    1.18
   8   4   2    9.29    1.08
   8   4   3   -0.44    0.86
   8   4   3   -1.00    1.04
   8   4   4   11.11    1.27
   8   4   4   11.30    1.37
   8   5 -11    1.05    0.78
   8   5 -11    1.40    1.02
  -8   5  11    1.43    1.14
  -8  -5  11    1.29    1.05
   8   5 -10   -0.46    0.77
   8   5 -10   -0.19    0.99
  -8   5  10    0.91    1.05
  -8  -5  10    0.55    0.94
   8   5  -9   37.33    1.76
   8   5  -9   41.89    2.01
  -8   5   9   40.48    2.02
  -8  -5   9   39.32    1.97
   8   5  -8    0.72    0.86
   8   5  -8    0.72    0.86
   8  -5  -8    0.18    0.65
   8  -5  -8   -0.10    0.58
   8   5  -8    0.06    0.75
  -8  -5   8    1.09    0.99
  -8   5   8    0.58    1.10
   8   5  -7   25.00    1.31
   8  -5  -7   22.70    1.18
   8   5  -7   27.30    1.51
   8  -5  -7   21.04    1.25
   8  -5  -7   22.00    1.18
  -8  -5   7   24.17    1.41
  -8   5   7   25.74    1.47
  -8   5   7   21.79    1.17
   8   5  -6    0.74    0.82
   8  -5  -6    0.98    0.76
   8  -5  -6    1.19    0.66
   8  -5  -6    0.94    0.77
   8   5  -6    1.94    0.99
  -8  -5   6    0.08    0.93
  -8   5   6    0.35    0.73
  -8   5   6    0.86    0.72
   8   5  -5   21.97    1.32
   8  -5  -5   20.36    1.34
   8  -5  -5   16.02    1.16
  -8   5   5   17.69    1.12
  -8   5   5   18.26    1.25
  -8  -5   5   19.46    1.38
   8   5  -4    3.95    0.91
   8  -5  -4    3.79    0.79
   8  -5  -4    3.11    0.73
  -8   5   4    3.43    0.88
  -8   5   4    4.09    0.95
  -8  -5   4    4.12    1.02
   8   5  -3  112.32    4.14
   8  -5  -3  111.05    4.25
   8  -5  -3   91.27    3.76
   8   5  -3   86.37    3.53
  -8   5   3  102.78    3.98
  -8   5   3  105.48    4.12
   8  -5  -2    1.09    0.76
   8   5  -2    0.91    0.68
  -8   5   2    0.35    0.85
   8   5  -1   16.11    1.23
   8  -5  -1   24.68    1.71
   8   5  -1   21.63    1.46
  -8   5   1   20.49    1.39
   8   5   0   -0.04    1.00
   8  -5   0    0.59    0.77
   8   5   0    0.07    0.92
  -8   5   0    0.66    0.71
   8   5   1   67.08    3.20
   8  -5   1   50.65    2.68
   8   5   1   56.80    2.91
   8   5   2    0.09    0.74
   8  -5   2    0.67    1.15
   8   5   2    0.77    0.96
   8   5   3    2.58    1.00
   8  -5   3    2.89    1.01
   8   5   3    3.83    1.06
   8   5   4    0.43    0.88
   8   5   4   -0.06    1.09
   8   6 -11    2.15    0.93
   8   6 -11    2.15    0.93
   8   6 -11    1.05    0.78
  -8   6  11    0.41    1.11
  -8  -6  11    1.77    0.99
   8   6 -10    0.46    0.89
   8   6 -10   -0.06    0.95
  -8   6  10    0.30    0.97
  -8  -6  10    1.15    0.89
   8   6  -9    5.49    1.00
   8   6  -9    5.25    1.14
  -8   6   9    3.96    0.92
  -8  -6   9    3.52    0.97
   8   6  -8   48.22    2.13
   8   6  -8   50.42    2.24
  -8   6   8   40.62    1.96
  -8  -6   8   48.09    2.19
   8   6  -7    1.09    0.90
   8  -6  -7    1.76    0.75
   8  -6  -7    0.13    0.77
   8   6  -7    0.84    1.07
  -8  -6   7    1.80    1.01
  -8   6   7    0.81    1.10
   8   6  -6    5.47    1.03
   8  -6  -6    4.62    0.90
   8   6  -6    4.55    0.95
   8  -6  -6    3.52    0.87
   8  -6  -6    3.50    0.60
  -8  -6   6    4.66    0.99
  -8   6   6    3.85    0.93
  -8   6   6    3.79    0.67
   8   6  -5    4.29    0.94
   8  -6  -5    3.84    0.85
   8  -6  -5    2.20    0.80
  -8   6   5    3.37    0.76
  -8   6   5    3.05    0.96
  -8  -6   5    3.29    1.00
   8   6  -4   48.31    2.61
   8  -6  -4   48.64    2.66
   8  -6  -4   36.68    2.21
  -8   6   4   40.09    2.28
  -8   6   4   42.76    2.42
   8  -6  -3    0.81    0.76
   8  -6  -3    0.55    0.85
  -8   6   3    0.12    0.90
   8  -6  -2    2.54    0.75
   8   6  -2    3.07    0.69
  -8   6   2    3.62    0.80
   8   6  -1    1.03    1.02
   8  -6  -1    0.54    0.99
   8   6  -1   -0.18    0.78
  -8   6   1   -0.11    0.73
   8   6   0   13.61    1.18
   8   6   0   13.61    1.18
   8  -6   0   14.29    1.28
   8  -6   0   14.29    1.28
   8   6   0   11.97    1.08
  -8   6   0   11.64    1.00
   8   6   1    0.16    0.92
   8  -6   1    0.32    1.08
   8   6   1    0.06    0.88
   8   6   2    0.21    1.08
   8  -6   2    0.97    0.85
   8   6   2    1.37    0.91
   8   6   3    0.26    1.03
   8  -6   3   -0.35    0.81
   8   6   3    0.32    0.99
   8   7 -10    0.83    0.89
   8   7 -10    0.02    1.07
  -8   7  10    0.23    0.94
  -8  -7  10    0.97    0.89
   8   7  -9   24.75    1.66
   8   7  -9   26.22    1.81
  -8   7   9   24.75    1.80
  -8  -7   9   23.99    1.66
   8   7  -8    1.75    0.78
   8   7  -8    2.44    1.04
  -8   7   8    1.69    1.18
  -8  -7   8    3.06    1.09
   8   7  -7   11.12    1.08
   8  -7  -7    9.23    0.83
  -8  -7   7   10.03    1.11
  -8   7   7    8.32    1.05
   8   7  -6    1.68    0.92
   8  -7  -6   -0.05    0.71
  -8  -7   6    0.17    1.03
  -8   7   6    0.50    0.94
   8   7  -5    3.46    0.75
   8  -7  -5    4.02    0.90
  -8   7   5    3.22    0.93
   8  -7  -4   -0.09    0.61
   8   7  -4   -0.28    0.93
   8  -7  -4   -0.55    0.87
  -8   7   4    0.36    0.80
   8  -7  -3   32.82    1.88
  -8   7   3   29.32    1.70
   8   7  -2    2.59    0.93
   8  -7  -2    0.90    0.94
   8   7  -2    1.40    0.66
  -8   7   2    1.45    0.83
   8   7  -1   -0.08    0.76
   8  -7  -1    0.49    1.00
   8   7  -1    0.71    0.72
  -8   7   1    0.17    0.68
   8   7   0    1.12    0.98
   8  -7   0   -0.18    0.79
   8   7   0    0.77    0.85
  -8   7   0   -0.12    0.69
   8   7   1   28.39    1.55
   8  -7   1   31.89    1.78
   8  -7   1   34.86    1.96
   8   7   1   32.78    1.87
   8   7   2    1.09    0.96
   8  -7   2    1.70    1.04
   8   7   2    0.80    0.87
   8   7   3   -0.71    0.89
   8  -7   3   -0.76    0.85
   8   7   3    0.40    0.85
   8   8  -9   -0.45    0.82
  -8  -8   9   -0.16    0.97
  -8   8   9   -0.01    1.04
   8   8  -8   52.59    2.94
  -8  -8   8   51.50    2.92
  -8   8   8   51.87    2.96
   8   8  -7   -0.10    1.00
  -8   8   7    1.06    0.93
   8   8  -6    0.02    0.95
   8  -8  -6   -0.08    0.77
   8   8  -6    0.16    0.76
  -8   8   6    0.07    1.01
   8   8  -5    1.67    1.03
   8  -8  -5    1.28    0.74
   8   8  -5    0.55    0.99
  -8   8   5    2.01    0.86
  -8   8   5    2.01    0.86
   8  -8  -4   61.44    2.64
  -8   8   4   57.59    2.49
   8  -8  -3    0.93    0.87
  -8   8   3    0.89    0.79
   8   8  -2    2.56    0.76
   8  -8  -2    3.59    0.87
  -8   8   2    3.04    0.81
   8   8  -1    1.53    0.99
   8  -8  -1    1.20    0.95
  -8   8   1    1.22    0.73
   8   8   0   20.54    1.35
   8  -8   0   18.68    1.37
   8   8   0   19.59    1.31
   8   8   1    0.57    1.01
   8  -8   1    1.10    1.03
   8   8   1    1.51    0.90
   8   8   2    7.14    0.95
   8  -8   2    7.45    1.05
   8   8   2    7.27    0.92
   8   9  -8    0.99    0.90
   8   9  -8   -0.18    1.01
  -8   9   8    1.21    0.94
   8   9  -7   10.94    1.12
   8   9  -7   10.16    1.18
  -8   9   7   11.92    1.29
   8   9  -6    0.92    1.02
   8   9  -6    0.28    0.83
  -8   9   6    0.09    0.95
   8   9  -5    3.56    0.91
   8  -9  -5    2.32    0.79
   8   9  -5    2.96    1.06
  -8   9   5    2.28    0.80
   8  -9  -4    0.28    0.79
   8   9  -4    0.90    0.76
  -8   9   4    0.99    0.79
   8   9  -3   22.33    1.32
   8  -9  -3   25.69    1.55
  -8   9   3   26.69    1.56
   8   9  -2    1.91    0.92
   8  -9  -2    1.71    0.94
  -8   9   2    2.08    0.72
   8   9  -1    0.35    0.97
   8  -9  -1    1.65    1.09
   8   9   0    2.02    0.91
   8  -9   0    3.47    1.07
   8  10  -6    0.41    0.99
   8  10  -6   -0.13    0.98
  -8  10   6    0.92    0.89
   8  10  -5    0.82    0.89
  -8  10   5    0.68    0.90
   8 -10  -4   18.06    1.11
   8  10  -4   19.31    1.24
  -8  10   4   16.71    1.08
   8  10  -3    0.43    1.03
   8  10  -3    0.45    0.95
   8 -10  -3    0.88    0.83
   8  10  -2    2.56    0.89
   8 -10  -2    3.38    1.01
   8  10  -1    1.99    0.74
   8 -10  -1    1.04    1.02
   9   0 -12    0.28    0.77
  -9   0  12   -1.13    1.02
   9   0 -11    2.32    0.83
  -9   0  11    0.65    1.15
   9   0 -10    0.19    0.69
   9   0 -10    0.43    0.79
  -9   0  10   -0.21    1.06
   9   0  -9   29.37    1.62
   9   0  -9   25.37    1.53
  -9   0   9   26.35    1.75
  -9   0   9   25.47    1.48
   9   0  -8    0.21    0.85
   9   0  -8    0.21    0.85
   9   0  -8   -0.78    0.81
  -9   0   8   -0.18    0.68
   9   0  -7   73.05    2.86
   9   0  -7   67.60    2.78
  -9   0   7   69.05    2.64
  -9   0   7   67.01    2.65
   9   0  -6    0.56    0.89
  -9   0   6   -0.10    0.95
   9   0  -5   82.38    3.18
  -9   0   5   72.06    2.98
   9   0  -4    0.54    0.95
  -9   0   4    0.56    0.91
   9   0  -3  102.11    5.69
  -9   0   3  132.64    2.39
   9   0  -2    0.04    0.93
  -9   0   2    0.80    0.91
   9   0  -1   28.94    1.53
   9   0   0    1.59    1.01
   9   0   2   -0.14    1.09
   9   0   3   -0.08    0.82
   9  -1 -12   15.37    0.99
   9   1 -12   16.94    1.11
  -9  -1  12   16.95    1.28
  -9   1  12   17.57    1.37
   9   1 -11   -0.24    0.71
   9  -1 -11    0.78    0.75
   9   1 -11   -0.03    0.88
  -9  -1  11    0.12    1.00
  -9   1  11    1.28    1.09
   9   1 -10    1.67    0.72
   9  -1 -10    1.95    0.66
   9  -1 -10    1.88    0.75
   9   1 -10    2.33    0.87
  -9  -1  10    1.85    1.11
  -9   1  10    0.71    1.13
   9   1  -9    0.40    0.80
   9  -1  -9    0.28    0.75
   9   1  -9    0.64    0.90
   9  -1  -9    0.52    0.76
  -9  -1   9    0.84    1.04
   9   1  -8   15.96    1.21
   9  -1  -8   16.32    1.18
   9   1  -8   15.59    1.12
   9  -1  -8   15.73    1.17
  -9   1   8   14.13    0.99
  -9  -1   8   15.45    1.26
  -9   1   8   16.15    1.26
   9   1  -7   17.47    1.08
   9  -1  -7   18.53    1.12
   9   1  -7   19.32    1.22
   9  -1  -7   16.52    1.11
  -9   1   7   17.81    1.10
  -9   1   7   18.42    1.31
   9   1  -6   -0.05    0.89
   9  -1  -6    0.66    0.71
  -9   1   6    0.50    0.79
  -9  -1   6   -0.07    0.97
  -9   1   6    0.98    0.93
   9   1  -5    6.34    1.00
   9  -1  -5    6.49    1.06
  -9  -1   5    6.70    1.10
  -9   1   5    5.30    1.08
   9   1  -4   61.94    3.35
   9  -1  -4   58.99    3.36
  -9  -1   4   53.96    2.88
  -9   1   4   62.32    3.32
   9   1  -3    2.65    0.78
   9  -1  -3    3.06    0.72
  -9  -1   3    4.09    0.76
  -9   1   3    4.17    1.08
   9   1  -2   -0.05    1.04
   9  -1  -2   -0.59    0.94
  -9  -1   2   -0.32    0.94
  -9   1   2    0.36    0.89
   9   1  -1    1.12    0.94
   9  -1  -1    0.80    1.00
  -9   1   1    1.59    0.91
   9  -1   0   17.34    1.43
   9  -1   1    5.85    0.89
   9   1   2    1.85    1.15
   9   1   3    7.54    1.25
   9  -1   3    7.56    1.19
   9   2 -11    5.54    0.87
   9   2 -11    5.69    1.05
   9  -2 -11    5.68    0.84
  -9  -2  11    6.94    1.05
   9   2 -10    3.59    0.78
   9   2 -10    4.17    1.03
   9  -2 -10    3.84    0.67
  -9  -2  10    4.58    0.89
   9   2  -9    2.43    0.79
   9  -2  -9    1.83    0.73
   9  -2  -9    1.80    0.72
   9   2  -9    3.75    1.05
  -9  -2   9    2.69    0.98
  -9   2   9    1.88    0.79
   9   2  -8    0.61    0.87
   9  -2  -8    0.32    0.76
   9   2  -8   -0.11    0.69
   9  -2  -8    0.29    0.73
  -9   2   8    0.34    0.77
  -9  -2   8   -0.13    0.78
  -9   2   8    0.43    1.13
   9   2  -7    1.23    0.84
   9  -2  -7    0.51    0.76
   9  -2  -7   -0.27    0.84
   9   2  -7   -0.54    0.97
  -9   2   7   -0.50    0.72
  -9  -2   7   -0.13    0.93
  -9   2   7    0.61    1.00
   9   2  -6    1.17    0.86
   9  -2  -6    1.30    0.81
  -9   2   6    2.11    0.81
  -9   2   6    1.99    1.01
   9   2  -5   15.57    1.23
   9  -2  -5   13.28    1.21
  -9  -2   5   11.65    1.19
  -9   2   5   13.06    1.24
   9   2  -4    2.37    0.95
   9  -2  -4    2.26    0.72
   9  -2  -4    1.98    0.62
   9   2  -4    2.45    0.99
  -9  -2   4    3.25    0.97
  -9   2   4    3.54    1.03
   9   2  -3   43.11    2.41
   9  -2  -3   43.59    2.41
   9   2  -3   34.32    2.05
  -9   2   3   39.89    2.34
  -9  -2   3   38.14    2.18
   9   2  -2    0.17    0.73
   9  -2  -2    0.21    0.89
  -9   2   2    1.15    0.84
   9   2  -1    2.34    1.03
   9  -2  -1    3.51    1.09
  -9   2   1    1.42    0.93
   9  -2   0    2.22    0.83
   9   2   1   45.76    2.19
   9  -2   1   43.39    2.14
   9   2   2    0.12    1.10
   9   2   3   -0.28    1.13
   9   3 -11    0.13    0.78
   9   3 -11    0.67    0.81
  -9  -3  11   -1.23    0.99
   9   3 -10    0.47    0.70
   9  -3 -10    0.20    0.65
   9   3 -10    0.42    0.95
  -9  -3  10    0.06    1.10
  -9   3  10    1.87    1.13
   9   3  -9   -0.66    0.86
   9  -3  -9   -0.02    0.62
   9  -3  -9    0.42    0.72
   9   3  -9    0.78    1.00
  -9  -3   9   -0.22    0.78
  -9   3   9    0.69    1.13
   9   3  -8    9.45    0.97
   9  -3  -8    9.53    0.93
   9  -3  -8    8.38    0.80
   9   3  -8   10.56    1.14
  -9  -3   8   12.20    1.34
  -9   3   8    9.11    1.14
   9   3  -7   -0.21    0.84
   9  -3  -7   -0.52    0.76
   9  -3  -7    0.40    0.71
   9   3  -7    1.04    1.04
  -9   3   7    0.17    0.72
  -9  -3   7    0.35    1.10
  -9   3   7    0.48    1.01
   9   3  -6    6.99    1.03
   9  -3  -6    6.18    0.99
  -9   3   6    6.01    0.85
  -9  -3   6    7.57    1.10
  -9   3   6    5.89    0.83
   9   3  -5   -0.49    0.66
   9  -3  -5   -0.79    0.79
  -9   3   5   -0.52    0.96
   9   3  -4   93.69    4.86
   9  -3  -4   96.47    4.85
   9  -3  -4   70.69    3.80
  -9   3   4   89.61    4.64
  -9  -3   4   76.15    3.91
   9   3  -3    0.76    0.98
   9  -3  -3    1.53    0.96
   9   3  -3    0.51    0.58
  -9   3   3    0.55    0.70
  -9  -3   3    0.66    0.76
   9   3  -2    0.80    0.95
   9  -3  -2    1.27    0.99
   9   3  -2    0.30    0.71
  -9   3   2    0.19    0.75
   9  -3  -1    1.66    1.06
   9   3  -1    1.48    0.79
  -9   3   1    1.20    0.83
   9  -3   0   15.77    1.32
   9   3   0   12.49    1.14
   9   3   1    1.54    1.11
   9  -3   1    1.01    1.08
   9   3   1    1.37    0.94
   9   3   2    1.43    1.13
   9  -3   2    2.88    1.15
   9   3   2    1.32    0.91
   9   3   3    0.07    1.16
   9   3   3    0.85    1.04
   9   4 -11    1.19    0.83
   9   4 -11    1.00    0.89
   9   4 -11    1.00    0.89
  -9  -4  11    0.84    1.00
  -9   4  11    0.82    0.91
   9   4 -10    0.12    0.77
   9   4 -10    0.19    1.11
  -9   4  10    0.59    1.17
  -9  -4  10    0.02    1.13
   9   4  -9   19.24    1.24
   9  -4  -9   16.51    1.08
   9   4  -9   19.29    1.25
  -9  -4   9   21.14    1.52
  -9   4   9   19.07    1.46
   9   4  -8    2.51    0.91
   9  -4  -8    1.41    0.78
   9  -4  -8    1.45    0.63
   9   4  -8    2.88    1.00
  -9  -4   8    1.53    1.12
  -9   4   8    1.72    0.79
   9   4  -7    3.11    0.90
   9  -4  -7    2.04    0.76
   9  -4  -7    2.12    0.66
   9   4  -7    2.85    1.08
  -9  -4   7    0.96    1.09
  -9   4   7    2.91    0.97
   9   4  -6   -1.25    0.87
   9  -4  -6    0.43    0.81
  -9   4   6    0.01    0.74
  -9  -4   6   -0.25    0.77
  -9   4   6   -0.29    0.94
   9   4  -5   10.99    1.06
   9  -4  -5   10.70    1.04
  -9  -4   5   10.33    1.14
  -9   4   5    9.40    1.02
   9   4  -4   -0.22    0.92
   9  -4  -4    0.28    0.89
   9  -4  -4    0.12    0.73
  -9   4   4    1.03    0.91
   9   4  -3   60.26    2.36
   9  -4  -3   57.38    2.30
  -9   4   3   51.87    2.21
   9   4  -2    0.67    0.98
   9  -4  -2    0.67    1.00
   9   4  -2    0.44    0.71
  -9   4   2    1.23    0.90
   9  -4  -1    0.01    0.99
   9   4  -1    0.29    0.66
  -9   4   1    0.34    0.82
   9   4   0    0.42    1.08
   9  -4   0    0.56    1.07
   9   4   0   -0.40    0.83
   9   4   1   49.32    2.63
   9  -4   1   62.08    2.96
   9   4   1   51.03    2.64
   9   4   2   -0.52    1.12
   9  -4   2    0.11    1.08
   9   4   2   -0.53    0.91
   9   5 -10    0.64    0.78
   9   5 -10    0.96    0.78
  -9   5  10    1.10    1.07
  -9  -5  10    1.06    1.09
   9   5  -9    0.67    0.89
   9   5  -9    1.35    1.13
  -9   5   9    0.64    1.10
  -9  -5   9    0.67    1.08
   9   5  -8   53.61    2.61
   9  -5  -8   48.32    2.44
   9   5  -8   54.39    2.63
  -9   5   8   49.06    2.46
  -9  -5   8   54.37    2.68
   9   5  -7    0.98    0.94
   9  -5  -7    1.23    0.70
   9  -5  -7    0.85    0.65
   9   5  -7    0.89    1.04
  -9  -5   7    0.79    1.08
  -9   5   7    1.71    0.99
   9   5  -6   11.25    1.10
   9  -5  -6   12.23    1.14
   9  -5  -6   12.12    1.15
   9   5  -6   11.09    1.22
  -9   5   6   10.12    0.96
  -9   5   6    8.79    1.03
  -9  -5   6    9.86    1.19
   9   5  -5    1.31    1.01
   9  -5  -5    0.24    0.82
  -9  -5   5    0.39    1.01
  -9   5   5   -0.11    0.88
   9   5  -4   99.87    4.56
   9  -5  -4   92.52    4.43
  -9   5   4   87.90    4.14
   9   5  -3   -1.46    0.98
   9  -5  -3   -0.48    0.82
   9  -5  -3   -0.16    0.68
  -9   5   3   -0.81    0.81
   9  -5  -2    2.24    1.13
  -9   5   2    1.39    0.83
   9  -5  -1    1.53    0.99
  -9   5   1    0.19    0.78
   9   5   0   43.50    2.15
   9  -5   0   55.67    2.70
   9   5   0   41.19    2.23
   9   5   1    0.72    0.88
   9  -5   1    0.68    1.05
   9   5   1   -0.18    0.85
   9   5   2   14.49    1.02
   9  -5   2   16.04    1.17
   9   5   2   18.58    1.25
   9   6 -10   -0.14    0.82
   9   6 -10    1.03    1.07
  -9   6  10    0.13    1.12
  -9  -6  10    0.24    0.75
   9   6  -9    5.14    0.75
   9   6  -9    6.05    1.08
  -9   6   9    6.38    1.11
  -9  -6   9    4.98    1.02
   9   6  -8    2.15    0.84
   9   6  -8    2.32    1.06
  -9   6   8    1.82    1.10
  -9  -6   8    1.52    1.13
   9   6  -7    9.52    1.11
   9  -6  -7    7.83    0.86
   9   6  -7   10.41    1.19
  -9   6   7    8.48    1.15
  -9  -6   7    8.58    1.17
   9   6  -6    2.74    0.95
   9  -6  -6    2.03    0.90
   9   6  -6    1.96    0.79
  -9   6   6    0.63    0.86
  -9  -6   6    2.14    1.08
   9   6  -5   12.48    1.14
   9  -6  -5   11.57    1.03
  -9   6   5   11.08    1.12
  -9   6   5   11.08    1.12
   9   6  -4    0.62    1.00
   9  -6  -4    0.70    0.91
  -9   6   4   -0.70    0.85
   9   6  -3   10.38    1.10
   9  -6  -3   12.78    1.16
  -9   6   3   12.41    1.04
   9  -6  -2    0.33    1.01
  -9   6   2   -0.80    0.87
   9   6  -1    2.67    0.95
   9   6  -1    2.73    0.95
   9  -6  -1    2.62    1.10
  -9   6   1    2.73    0.78
   9   6   0   -0.16    0.83
   9  -6   0    0.49    1.01
   9   6   1   37.52    1.69
   9  -6   1   37.19    1.67
   9   7  -9    1.27    0.93
   9   7  -9    0.44    1.08
   9   7  -9    0.45    1.08
  -9  -7   9    1.11    1.05
  -9   7   9   -0.24    0.99
   9   7  -8   18.78    1.30
   9   7  -8   23.39    1.73
  -9   7   8   22.43    1.63
  -9  -7   8   20.87    1.42
   9   7  -7    1.24    1.03
   9   7  -7   -0.16    0.99
  -9   7   7    0.22    0.98
  -9  -7   7   -0.08    1.07
   9   7  -6    1.19    1.02
   9  -7  -6   -0.08    0.73
  -9   7   6    0.08    0.86
   9   7  -5    0.78    0.73
   9  -7  -5    0.71    0.91
  -9   7   5    0.09    0.92
   9   7  -4   41.60    2.11
   9  -7  -4   33.85    1.82
  -9   7   4   34.94    1.93
   9  -7  -3    0.18    0.98
  -9   7   3    0.05    0.79
   9   7  -2   -0.52    0.93
   9  -7  -2    0.98    0.97
  -9   7   2    0.23    0.76
   9   7  -1    1.41    0.97
   9  -7  -1    1.19    1.05
   9  -7  -1    1.19    1.05
  -9   7   1    1.27    0.81
   9   7   0   18.62    1.21
   9  -7   0   16.89    1.21
   9   8  -7    6.25    1.04
  -9   8   7    6.28    1.04
   9   8  -6    2.37    0.77
  -9   8   6    3.32    0.88
   9   8  -5    2.64    0.96
   9  -8  -5    3.18    0.81
   9   8  -5    2.74    0.87
  -9   8   5    2.04    0.91
   9  -8  -4    0.30    0.68
  -9   8   4   -0.51    0.82
   9  -8  -3   17.33    1.42
  -9   8   3   14.55    1.14
   9   8  -2   -1.01    0.88
   9  -8  -2    0.31    0.97
  -9   8   2    0.78    0.75
   9   8  -1    2.20    1.04
   9  -8  -1    0.71    1.02
   9   9  -5    2.49    0.80
   9  -9  -5    3.26    0.80
   9   9  -5    4.06    1.13
  -9   9   5    2.42    0.83
   9  -9  -4   12.36    1.00
  -9   9   4   12.68    0.99
  10   0 -10    6.22    0.89
  10   0 -10    6.22    0.89
  10   0 -10    6.12    0.97
  10   0  -9   -0.37    0.73
  10   0  -9   -0.04    0.86
  10   0  -8   92.60    1.73
  10   0  -8   89.44    1.85
 -10   0   8   78.22    3.54
  10   0  -7   -0.56    0.88
  10   0  -7    0.59    0.80
 -10   0   7    0.59    1.13
  10   0  -6    4.80    0.90
 -10   0   6    5.17    1.04
  10   0  -5    0.53    1.02
 -10   0   5    0.25    0.96
  10   0  -4   57.36    2.58
 -10   0   4   69.46    3.06
  10   0  -3    0.42    1.12
 -10   0   3    0.84    1.06
  10   0  -2    0.59    1.06
 -10   0   2    0.54    1.00
  10   0  -1   -0.50    1.13
  10   0   0   16.95    1.36
  10   1 -10   18.92    1.35
  10   1 -10   18.34    1.35
  10  -1 -10   16.99    1.26
 -10  -1  10   17.68    1.45
  10   1  -9   17.63    1.22
  10  -1  -9   15.79    1.12
  10  -1  -9   14.32    1.09
  10   1  -9   16.85    1.25
 -10  -1   9   17.44    1.45
 -10   1   9   13.67    1.08
  10   1  -8    6.04    0.96
  10  -1  -8    5.14    0.88
  10   1  -8    6.14    1.00
  10  -1  -8    4.07    0.82
 -10   1   8    5.85    1.13
  10   1  -7   14.00    1.09
  10  -1  -7   13.62    1.11
  10  -1  -7   12.02    1.01
  10   1  -7   13.89    1.13
 -10  -1   7   11.47    1.20
 -10   1   7   13.02    1.07
  10   1  -6    0.37    1.03
  10  -1  -6   -0.86    0.77
 -10  -1   6   -0.85    0.81
 -10   1   6   -0.30    1.07
  10   1  -5    3.88    1.00
  10  -1  -5    3.63    0.90
 -10  -1   5    2.99    0.81
 -10   1   5    2.15    1.08
  10   1  -4    1.22    1.01
  10  -1  -4    1.50    1.18
 -10  -1   4   -1.22    1.06
 -10   1   4    0.91    0.97
  10   1  -3   31.77    1.66
  10  -1  -3   23.94    1.37
 -10  -1   3   25.66    1.43
 -10   1   3   31.77    1.77
  10   1  -2    3.84    1.05
  10  -1  -2    3.70    1.09
 -10   1   2    3.18    0.98
  10   1  -1    4.04    1.03
  10  -1  -1    3.86    1.08
  10   1   0   10.52    1.26
  10  -1   0    8.84    1.24
  10  -1   1   50.30    1.95
  10   2 -10    2.97    0.88
  10  -2 -10    1.93    0.66
  10   2 -10    3.67    1.02
 -10  -2  10    3.42    1.12
 -10   2  10    2.51    0.93
  10   2  -9   -0.36    0.82
  10  -2  -9   -0.31    0.71
  10  -2  -9    0.30    0.78
  10   2  -9   -0.35    0.94
 -10  -2   9    0.35    1.20
 -10   2   9    0.30    1.09
  10   2  -8   47.56    2.32
  10  -2  -8   39.74    2.01
  10  -2  -8   39.73    2.00
  10   2  -8   47.03    2.36
 -10  -2   8   45.63    2.35
 -10   2   8   45.95    2.38
  10   2  -7    3.30    0.70
  10  -2  -7    4.31    0.91
  10   2  -7    3.36    1.15
  10  -2  -7    3.39    0.87
 -10   2   7    4.87    1.12
  10   2  -6   -0.37    0.87
  10  -2  -6    0.29    0.88
 -10   2   6    0.24    0.98
  10   2  -5   -0.12    0.93
  10  -2  -5   -0.22    0.84
 -10  -2   5   -0.97    1.05
 -10   2   5   -0.24    1.01
  10   2  -4   37.40    1.81
  10  -2  -4   34.15    1.75
 -10  -2   4   33.03    1.69
 -10   2   4   29.96    1.61
  10   2  -3    0.73    0.75
  10  -2  -3   -0.28    1.10
 -10  -2   3    0.19    1.00
 -10   2   3   -0.36    0.87
  10   2  -2    1.18    0.98
  10  -2  -2    1.96    0.81
 -10   2   2    1.23    0.87
  10   2  -1    0.40    0.83
  10  -2  -1    0.32    0.81
  10  -2   0   10.76    1.21
  10   2   1    4.16    1.09
  10  -2   1    3.87    0.98
  10   3 -10   -0.20    0.90
  10   3 -10   -0.03    1.00
 -10   3  10    0.59    1.00
 -10  -3  10    0.27    1.06
  10   3  -9    1.42    0.93
  10  -3  -9    0.75    0.67
  10   3  -9    1.20    0.80
 -10  -3   9    2.08    0.79
 -10   3   9    1.20    1.09
  10   3  -8   -0.40    0.78
  10   3  -8   -0.40    0.78
  10  -3  -8   -0.43    0.73
  10  -3  -8   -0.23    0.75
  10   3  -8   -0.18    0.91
 -10  -3   8    0.91    1.17
 -10   3   8   -0.72    0.80
  10   3  -7   19.38    1.27
  10  -3  -7   19.04    1.29
  10   3  -7   20.60    1.53
  10  -3  -7   15.85    1.17
 -10  -3   7   20.74    1.50
 -10   3   7   20.34    1.50
  10   3  -6    1.58    0.95
  10  -3  -6    0.90    0.93
 -10   3   6    0.77    0.80
  10   3  -5   -0.83    0.94
  10  -3  -5    0.29    0.89
 -10   3   5    1.30    1.02
  10   3  -4    0.27    1.00
  10  -3  -4   -1.44    0.93
 -10  -3   4   -0.23    0.81
 -10   3   4    0.89    0.86
  10   3  -3   17.41    1.37
  10  -3  -3   17.89    1.36
 -10   3   3   17.12    1.35
  10   3  -2    0.76    0.81
  10  -3  -2    1.46    0.78
 -10   3   2    0.77    0.85
  10  -3  -1    2.68    0.85
  10  -3   0    1.79    1.13
  10   4  -9    0.26    0.82
  10   4  -9    0.12    0.99
 -10   4   9   -0.06    1.08
 -10  -4   9   -0.01    1.09
  10   4  -8   39.52    2.26
  10  -4  -8   41.16    2.43
  10   4  -8   46.80    2.73
 -10   4   8   40.81    2.47
 -10  -4   8   44.18    2.54
  10   4  -7    0.73    0.85
  10  -4  -7    0.83    0.79
  10  -4  -7    0.41    0.67
  10   4  -7   -0.23    1.10
 -10  -4   7    0.17    0.84
 -10   4   7    0.91    0.97
  10   4  -6    1.34    0.94
  10  -4  -6    1.32    0.92
 -10  -4   6    1.24    1.11
 -10   4   6    1.86    0.91
  10   4  -5    0.57    0.75
  10  -4  -5    0.39    0.89
 -10   4   5    0.97    1.00
  10   4  -4   41.54    2.13
  10  -4  -4   34.85    1.95
 -10   4   4   35.54    2.03
  10   4  -3   -0.29    1.03
  10  -4  -3    0.49    1.02
 -10   4   3    0.90    0.92
  10   4  -2    5.58    1.05
  10  -4  -2    4.95    0.98
 -10   4   2    6.02    0.95
  10  -4  -1    0.20    0.99
 -10   4   1    1.12    0.87
  10   4   0    5.32    1.04
  10  -4   0    6.26    1.27
  10   5  -9   28.44    1.32
  10   5  -9   26.84    1.40
 -10   5   9   27.70    1.50
 -10  -5   9   26.95    1.42
  10   5  -8    0.21    0.68
  10   5  -8    0.69    0.91
 -10   5   8    0.49    1.01
 -10  -5   8    0.22    1.03
  10   5  -7   19.15    1.44
  10  -5  -7   16.38    1.26
  10   5  -7   18.75    1.35
 -10   5   7   18.83    1.59
 -10  -5   7   17.97    1.56
  10   5  -6    0.39    0.89
  10  -5  -6    0.19    0.80
 -10  -5   6   -0.46    1.04
 -10   5   6    0.27    0.96
  10   5  -5    2.24    0.98
  10  -5  -5    1.68    0.69
 -10   5   5    1.86    0.97
  10   5  -4    0.07    0.95
  10  -5  -4    0.94    0.75
 -10   5   4    1.39    0.92
  10   5  -3   60.86    3.30
  10  -5  -3   57.14    3.25
 -10   5   3   56.55    3.27
  10  -5  -2   -0.32    1.10
 -10   5   2    0.61    0.84
  10  -5  -1   -0.08    1.06
 -10   5   1   -0.40    0.84
  10   6  -8   39.69    1.57
  10   6  -8   38.71    1.81
 -10   6   8   36.13    1.61
 -10  -6   8   38.71    1.77
  10   6  -7    3.23    0.99
  10   6  -7    3.07    1.08
 -10   6   7    3.03    1.01
 -10  -6   7    3.13    1.05
  10   6  -6    2.36    1.00
  10  -6  -6    1.74    0.79
  10   6  -6    1.81    1.12
  10   6  -6    0.96    1.03
 -10   6   6    1.50    0.75
  10   6  -5    0.89    0.73
  10  -6  -5   -0.07    0.90
 -10   6   5    0.12    0.95
 -10   6   5    0.11    0.95
  10   6  -4   23.79    1.68
  10  -6  -4   23.85    1.64
 -10   6   4   19.51    1.48
  10   6  -3    0.10    0.74
  10  -6  -3   -0.59    0.97
 -10   6   3    0.35    0.86
  10  -6  -2    1.91    0.79
 -10   6   2    1.93    0.90
  10   7  -6    2.29    0.96
  10  -7  -6    2.48    0.89
  10   7  -6    0.85    1.12
 -10   7   6    1.30    0.74
  10   7  -5    2.27    0.98
  10  -7  -5    2.18    0.80
 -10   7   5    2.01    0.91
  10   7  -4    1.32    1.02
  10  -7  -4    0.77    0.92
 -10   7   4    1.48    0.93
  11   0  -8   -0.20    0.90
  11   0  -8   -0.06    0.84
 -11   0   8   -0.29    1.00
  11   0  -7   13.12    1.19
 -11   0   7   11.56    1.30
  11   0  -6    0.02    0.94
 -11   0   6   -0.12    0.79
  11   0  -5    0.42    0.93
 -11   0   5    0.77    1.01
  11   0  -4    0.01    0.98
 -11   0   4   -0.08    0.93
  11   0  -3   22.09    1.32
 -11   0   3   19.32    1.31
  11   0  -2    0.08    0.93
  11   1  -8   31.50    1.37
  11  -1  -8   29.79    1.40
  11   1  -8   26.88    1.24
  11  -1  -8   28.42    1.38
 -11   1   8   31.40    1.59
  11   1  -7    6.12    0.96
  11  -1  -7    6.05    0.97
 -11  -1   7    5.42    0.86
 -11   1   7    4.89    0.86
  11   1  -6    0.06    0.91
  11  -1  -6    0.11    0.92
 -11  -1   6    0.00    1.10
 -11   1   6   -0.68    1.16
  11   1  -5    0.74    0.74
  11  -1  -5    0.59    0.98
 -11  -1   5    0.79    0.92
 -11   1   5    0.75    1.14
  11   1  -4   14.75    1.41
  11  -1  -4   14.56    1.32
 -11  -1   4   13.06    1.28
 -11   1   4   12.02    1.21
  11   1  -3    2.67    1.02
  11  -1  -3    3.10    0.96
 -11   1   3    2.60    0.98
  11   1  -2   11.47    1.18
  11  -1  -2    8.36    0.92
  11   2  -8    0.14    0.70
  11  -2  -8    0.42    0.81
  11  -2  -8    0.39    0.75
  11   2  -8    0.66    0.98
 -11   2   8    1.49    1.20
  11   2  -7   18.10    1.09
  11  -2  -7   17.09    1.21
 -11   2   7   17.14    1.29
  11   2  -6    0.37    0.72
  11  -2  -6    0.17    0.88
 -11  -2   6   -0.32    0.92
 -11   2   6    0.60    1.04
  11   2  -5    2.25    0.90
  11  -2  -5    1.91    0.99
 -11  -2   5    1.15    1.01
 -11   2   5    1.88    1.12
  11   2  -4    0.23    0.75
  11  -2  -4    1.30    0.98
 -11  -2   4   -0.19    1.03
 -11   2   4   -0.05    0.89
  11   2  -3   26.94    1.37
  11  -2  -3   29.14    1.41
 -11   2   3   25.40    1.37
  11   3  -7    0.43    0.84
  11  -3  -7    0.82    0.73
  11   3  -7    0.06    1.09
  11  -3  -7    0.67    0.76
 -11   3   7   -0.70    0.79
  11   3  -6    3.67    0.87
  11  -3  -6    2.75    0.88
 -11   3   6    1.72    1.05
  11   3  -5    0.41    0.97
  11  -3  -5    0.26    0.97
 -11  -3   5    0.20    1.06
 -11   3   5    0.94    0.99
  11   3  -4    6.52    1.00
  11  -3  -4    7.30    1.07
 -11   3   4    5.53    1.05
  11   3  -3    0.57    1.06
  11  -3  -3    0.59    1.01
 -11   3   3    0.41    1.01
  11   4  -5    5.04    0.99
  11  -4  -5    4.39    0.94
 -11   4   5    4.12    1.03
;
loop_
_symmetry_equiv_pos_site_id
_space_group_symop_operation_xyz
1 +X,+Y,+Z
2 1/2-X,+Y,1/2-Z
3 -X,-Y,-Z
4 1/2+X,-Y,1/2+Z
loop_
_atom_site_label
_atom_site_type_symbol
_atom_site_fract_x
_atom_site_fract_y
_atom_site_fract_z
_atom_site_U_iso_or_equiv
_atom_site_adp_type
_atom_site_occupancy
_atom_site_site_symmetry_multiplicity
_atom_site_calc_flag
_atom_site_refinement_flags
_atom_site_disorder_assembly
_atom_site_disorder_group
Co1 Co 0.75 0.25019(3) 0.25 0.01694(17) Uani 1 2 d . . .
Cl1 Cl 0.72933(8) 0.24767(4) 0.47284(6) 0.02231(19) Uani 1 4 d . . .
O1 O 0.6598(3) 0.02362(19) 0.6069(3) 0.0446(6) Uani 1 4 d . . .
N1 N 1.0087(3) 0.29729(17) 0.3412(2) 0.0191(4) Uani 1 4 d . . .
N2 N 0.75 0.4342(2) 0.25 0.0156(5) Uani 1 2 d . . .
N3 N 0.75 1.0606(2) 0.25 0.0166(6) Uani 1 2 d . . .
C1 C 1.1380(3) 0.2227(2) 0.3813(3) 0.0232(5) Uani 1 4 d . . .
C2 C 1.2990(3) 0.25997(19) 0.4269(3) 0.0201(5) Uani 1 4 d . . .
C3 C 1.3302(3) 0.3807(2) 0.4345(3) 0.0200(5) Uani 1 4 d . . .
C4 C 1.1994(3) 0.4593(2) 0.3957(3) 0.0200(5) Uani 1 4 d . . .
C5 C 1.0405(3) 0.41505(19) 0.3481(2) 0.0160(5) Uani 1 4 d . . .
C6 C 0.75 0.6792(3) 0.25 0.0153(6) Uani 1 2 d . . .
C7 C 0.8980(3) 0.6160(2) 0.3012(2) 0.0162(5) Uani 1 4 d . . .
C8 C 0.8930(3) 0.49265(19) 0.2987(2) 0.0155(5) Uani 1 4 d . . .
C9 C 0.75 0.8107(3) 0.25 0.0152(6) Uani 1 2 d . . .
C10 C 0.8703(4) 0.8751(2) 0.2250(3) 0.0156(6) Uani 0.8 4 d . . .
C11 C 0.8699(15) 0.8757(11) 0.3523(13) 0.022(2) Uani 0.2 4 d . . .
C12 C 0.8633(4) 0.9977(2) 0.2218(3) 0.0171(6) Uani 0.8 4 d . . .
C13 C 0.8612(16) 1.0000(10) 0.3515(13) 0.022(3) Uani 0.2 4 d . . .
H1 H 1.11701 0.14001 0.37798 0.0279 Uiso 1 4 calc R . .
H2 H 1.38657 0.20437 0.45253 0.0241 Uiso 1 4 calc R . .
H3 H 1.43988 0.40924 0.46579 0.0240 Uiso 1 4 calc R . .
H4 H 1.21831 0.54226 0.40177 0.0240 Uiso 1 4 calc R . .
H7 H 1.00023 0.65656 0.33695 0.0194 Uiso 1 4 calc R . .
loop_
_atom_site_aniso_label
_atom_site_aniso_U_11
_atom_site_aniso_U_22
_atom_site_aniso_U_33
_atom_site_aniso_U_12
_atom_site_aniso_U_13
_atom_site_aniso_U_23
Co1 0.0135(3) 0.0086(3) 0.0255(3) 0.0000 0.0042(2) 0.0000
Cl1 0.0221(4) 0.0164(4) 0.0269(4) -0.0019(2) 0.0077(3) -0.0050(2)
O1 0.0511(15) 0.0288(11) 0.0621(16) 0.0003(10) 0.0308(12) 0.0023(10)
N1 0.0157(11) 0.0121(10) 0.0267(11) 0.0000(8) 0.0050(9) -0.0003(8)
N2 0.0150(13) 0.0099(12) 0.0208(14) 0.0000 0.0055(11) 0.0000
N3 0.0151(14) 0.0120(13) 0.0211(14) 0.0000 0.0053(11) 0.0000
C1 0.0196(13) 0.0136(11) 0.0328(14) 0.0020(10) 0.0062(11) 0.0010(10)
C2 0.0168(12) 0.0168(12) 0.0232(13) 0.0032(9) 0.0039(10) -0.0004(9)
C3 0.0134(11) 0.0187(12) 0.0254(12) -0.0012(9) 0.0048(9) -0.0016(10)
C4 0.0198(13) 0.0140(11) 0.0238(12) -0.0015(9) 0.0060(10) -0.0017(10)
C5 0.0157(11) 0.0134(11) 0.0173(11) 0.0006(8) 0.0046(9) -0.0001(9)
C6 0.0189(17) 0.0111(14) 0.0165(16) 0.0000 0.0075(13) 0.0000
C7 0.0149(11) 0.0137(10) 0.0187(11) -0.0027(9) 0.0053(9) -0.0014(9)
C8 0.0138(12) 0.0155(11) 0.0151(11) -0.0003(9) 0.0032(9) -0.0001(9)
C9 0.0149(16) 0.0145(16) 0.0139(15) 0.0000 0.0030(13) 0.0000
C10 0.0152(14) 0.0126(13) 0.0170(14) -0.0008(11) 0.0041(11) 0.0010(11)
C11 0.021(6) 0.021(6) 0.022(6) -0.002(5) 0.006(5) -0.000(5)
C12 0.0193(15) 0.0116(13) 0.0198(15) 0.0011(11) 0.0071(12) -0.0011(11)
C13 0.023(7) 0.014(6) 0.029(7) 0.001(5) 0.011(6) -0.006(5)
loop_
_atom_type_symbol
_atom_type_description
_atom_type_scat_dispersion_real
_atom_type_scat_dispersion_imag
_atom_type_scat_source
H H 0.0000 0.0000
;
International Tables for Crystallography
(Vol. C, Table 6.1.1.4)
;
Co Co 0.3494 0.9721
;
International Tables for Crystallography
(Vol. C, Tables 4.2.6.8 and 6.1.1.4)
;
N N 0.0061 0.0033
;
International Tables for Crystallography
(Vol. C, Tables 4.2.6.8 and 6.1.1.4)
;
O O 0.0106 0.0060
;
International Tables for Crystallography
(Vol. C, Tables 4.2.6.8 and 6.1.1.4)
;
Cl Cl 0.1484 0.1585
;
International Tables for Crystallography
(Vol. C, Tables 4.2.6.8 and 6.1.1.4)
;
C C 0.0033 0.0016
;
International Tables for Crystallography
(Vol. C, Tables 4.2.6.8 and 6.1.1.4)
;
loop_
_geom_angle_atom_site_label_1
_geom_angle_atom_site_label_2
_geom_angle_atom_site_label_3
_geom_angle
_geom_angle_publ_flag
_geom_angle_site_symmetry_1
_geom_angle_site_symmetry_2
_geom_angle_site_symmetry_3
Cl1 Co1 Cl1 178.67(2) yes . . 2_655
Cl1 Co1 N1 91.71(7) yes . . .
Cl1 Co1 N1 88.61(7) yes . . 2_655
Cl1 Co1 N2 90.665(13) yes . . .
Cl1 Co1 N3 89.335(13) yes . . 1_545
Cl1 Co1 N1 88.61(7) yes 2_655 . .
Cl1 Co1 N1 91.71(7) yes 2_655 . 2_655
Cl1 Co1 N2 90.665(13) yes 2_655 . .
Cl1 Co1 N3 89.335(13) yes 2_655 . 1_545
N1 Co1 N1 151.66(7) yes . . 2_655
N1 Co1 N2 75.83(5) yes . . .
N1 Co1 N3 104.17(5) yes . . 1_545
N1 Co1 N2 75.83(5) yes 2_655 . .
N1 Co1 N3 104.17(5) yes 2_655 . 1_545
N2 Co1 N3 180.000 yes . . 1_545
Co1 N1 C1 127.06(16) yes . . .
Co1 N1 C5 115.09(15) yes . . .
C1 N1 C5 117.6(2) yes . . .
Co1 N2 C8 119.56(13) yes . . .
Co1 N2 C8 119.56(13) yes . . 2_655
C8 N2 C8 120.9(2) yes . . 2_655
Co1 N3 C12 121.68(15) yes 1_565 . .
Co1 N3 C12 121.68(15) yes 1_565 . 2_655
Co1 N3 C13 120.9(5) yes 1_565 . .
Co1 N3 C13 120.9(5) yes 1_565 . 2_655
C12 N3 C12 116.6(2) yes . . 2_655
C12 N3 C13 62.3(7) yes . . .
C12 N3 C13 85.7(7) yes . . 2_655
C12 N3 C13 85.7(7) yes 2_655 . .
C12 N3 C13 62.3(7) yes 2_655 . 2_655
C13 N3 C13 118.3(7) yes . . 2_655
N1 C1 C2 123.5(2) yes . . .
C1 C2 C3 118.4(2) yes . . .
C2 C3 C4 119.2(2) yes . . .
C3 C4 C5 119.1(2) yes . . .
N1 C5 C4 122.2(2) yes . . .
N1 C5 C8 115.1(2) yes . . .
C4 C5 C8 122.7(2) yes . . .
C7 C6 C7 118.7(3) yes . . 2_655
C7 C6 C9 120.64(15) yes . . .
C7 C6 C9 120.64(15) yes 2_655 . .
C6 C7 C8 118.9(2) yes . . .
N2 C8 C5 114.31(19) yes . . .
N2 C8 C7 121.3(2) yes . . .
C5 C8 C7 124.4(2) yes . . .
C6 C9 C10 121.44(17) yes . . .
C6 C9 C10 121.44(17) yes . . 2_655
C6 C9 C11 121.7(5) yes . . .
C6 C9 C11 121.7(5) yes . . 2_655
C10 C9 C10 117.1(3) yes . . 2_655
C10 C9 C11 58.2(6) yes . . .
C10 C9 C11 88.8(6) yes . . 2_655
C10 C9 C11 88.8(6) yes 2_655 . .
C10 C9 C11 58.2(6) yes 2_655 . 2_655
C11 C9 C11 116.6(7) yes . . 2_655
C9 C10 C11 61.0(5) yes . . .
C9 C10 C11 45.6(4) yes . . 2_655
C9 C10 C12 119.7(3) yes . . .
C9 C10 C13 90.4(5) yes . . .
C11 C10 C11 89.9(7) yes . . 2_655
C11 C10 C12 90.2(6) yes . . .
C11 C10 C13 45.4(7) yes . . .
C11 C10 C12 87.5(4) yes 2_655 . .
C11 C10 C13 87.8(6) yes 2_655 . .
C12 C10 C13 44.8(4) yes . . .
C9 C11 C10 60.9(5) yes . . .
C9 C11 C10 45.6(4) yes . . 2_655
C9 C11 C12 90.6(6) yes . . .
C9 C11 C13 119.8(9) yes . . .
C10 C11 C10 90.1(6) yes . . 2_655
C10 C11 C12 45.5(4) yes . . .
C10 C11 C13 91.1(10) yes . . .
C10 C11 C12 88.5(5) yes 2_655 . .
C10 C11 C13 87.3(8) yes 2_655 . .
C12 C11 C13 45.6(7) yes . . .
N3 C12 C10 123.3(3) yes . . .
N3 C12 C11 91.9(5) yes . . .
N3 C12 C13 58.2(5) yes . . .
N3 C12 C13 46.7(4) yes . . 2_655
C10 C12 C11 44.3(4) yes . . .
C10 C12 C13 90.6(5) yes . . .
C10 C12 C13 93.2(4) yes . . 2_655
C11 C12 C13 46.3(6) yes . . .
C11 C12 C13 92.4(6) yes . . 2_655
C13 C12 C13 89.7(7) yes . . 2_655
N3 C13 C10 91.4(7) yes . . .
N3 C13 C11 122.6(9) yes . . .
N3 C13 C12 59.5(6) yes . . .
N3 C13 C12 47.6(4) yes . . 2_655
C10 C13 C11 43.4(7) yes . . .
C10 C13 C12 44.6(4) yes . . .
C10 C13 C12 91.3(5) yes . . 2_655
C11 C13 C12 88.0(10) yes . . .
C11 C13 C12 92.1(8) yes . . 2_655
C12 C13 C12 90.3(6) yes . . 2_655
loop_
_geom_bond_atom_site_label_1
_geom_bond_atom_site_label_2
_geom_bond_distance
_geom_bond_publ_flag
_geom_bond_site_symmetry_1
_geom_bond_site_symmetry_2
Co1 Cl1 2.4516(7) yes . .
Co1 Cl1 2.4516(7) yes . 2_655
Co1 N1 2.173(2) yes . .
Co1 N1 2.173(2) yes . 2_655
Co1 N2 2.079(2) yes . .
Co1 N3 2.142(2) yes . 1_545
N1 C1 1.348(3) yes . .
N1 C5 1.356(3) yes . .
N2 C8 1.338(2) yes . .
N2 C8 1.338(2) yes . 2_655
N3 C12 1.352(4) yes . .
N3 C12 1.352(4) yes . 2_655
N3 C13 1.334(11) yes . .
N3 C13 1.334(11) yes . 2_655
C1 C2 1.378(4) yes . .
C2 C3 1.388(3) yes . .
C3 C4 1.386(3) yes . .
C4 C5 1.386(3) yes . .
C5 C8 1.487(3) yes . .
C6 C7 1.401(3) yes . .
C6 C7 1.401(3) yes . 2_655
C6 C9 1.485(5) yes . .
C7 C8 1.394(3) yes . .
C9 C10 1.396(4) yes . .
C9 C10 1.396(4) yes . 2_655
C9 C11 1.397(11) yes . .
C9 C11 1.397(11) yes . 2_655
C10 C11 1.357(15) yes . .
C10 C11 1.955(13) yes . 2_655
C10 C12 1.386(4) yes . .
C10 C13 1.974(14) yes . .
C11 C12 1.943(14) yes . .
C11 C13 1.406(17) yes . .
C12 C13 1.390(16) yes . .
C12 C13 1.827(13) yes . 2_655
