#------------------------------------------------------------------------------
#$Date: 2019-11-07 05:54:09 +0200 (Thu, 07 Nov 2019) $
#$Revision: 223439 $
#$URL: file:///home/coder/svn-repositories/cod/cif/7/23/49/7234975.cif $
#------------------------------------------------------------------------------
#
# This file is available in the Crystallography Open Database (COD),
# http://www.crystallography.net/
#
# All data on this site have been placed in the public domain by the
# contributors.
#
data_7234975
loop_
_publ_author_name
'Kondou, Shinji'
'Thomas, Morgan L.'
'Mandai, Toshihiko'
'Ueno, Kazuhide'
'Dokko, Kaoru'
'Watanabe, Masayoshi'
_publ_section_title
;
 Ionic transport in highly concentrated lithium bis(fluorosulfonyl)amide
 electrolytes with keto ester solvents: structural implications for ion
 hopping conduction in liquid electrolytes.
;
_journal_issue                   9
_journal_name_full               'Physical chemistry chemical physics : PCCP'
_journal_page_first              5097
_journal_page_last               5105
_journal_paper_doi               10.1039/c9cp00425d
_journal_volume                  21
_journal_year                    2019
_chemical_formula_moiety         'C4 H6 F4 Li2 N2 O11 S4'
_chemical_formula_sum            'C4 H6 F4 Li2 N2 O11 S4'
_chemical_formula_weight         476.23
_chemical_name_systematic        Li[FSA]:MP=1:0.5
_space_group_crystal_system      triclinic
_space_group_IT_number           2
_space_group_name_Hall           '-P 1'
_space_group_name_H-M_alt        'P -1'
_symmetry_Int_Tables_number      2
_symmetry_space_group_name_Hall  '-P 1'
_symmetry_space_group_name_H-M   'P -1'
_audit_update_record
;
2018-12-21 deposited with the CCDC.
2019-02-06 downloaded from the CCDC.
;
_cell_angle_alpha                76.512(7)
_cell_angle_beta                 76.556(7)
_cell_angle_gamma                71.936(7)
_cell_formula_units_Z            2
_cell_length_a                   7.3617(6)
_cell_length_b                   9.6029(8)
_cell_length_c                   13.0788(10)
_cell_measurement_reflns_used    3900
_cell_measurement_temperature    223
_cell_measurement_theta_max      27.4840
_cell_measurement_theta_min      3.0000
_cell_volume                     841.85(12)
_diffrn_ambient_temperature      223
_diffrn_measured_fraction_theta_full 0.9980
_diffrn_measured_fraction_theta_max 0.8768
_diffrn_measurement_device       'four-circle diffractometer'
_diffrn_measurement_device_type  'XtaLAB Pro: Kappa dual home/near'
_diffrn_radiation_type           'Mo K\a'
_diffrn_radiation_wavelength     0.71073
_diffrn_reflns_av_R_equivalents  0.0325
_diffrn_reflns_av_unetI/netI     0.0353
_diffrn_reflns_limit_h_max       9
_diffrn_reflns_limit_h_min       -9
_diffrn_reflns_limit_k_max       12
_diffrn_reflns_limit_k_min       -11
_diffrn_reflns_limit_l_max       16
_diffrn_reflns_limit_l_min       -16
_diffrn_reflns_number            12731
_diffrn_reflns_theta_full        28.2543
_diffrn_reflns_theta_max         28.25
_diffrn_reflns_theta_min         2.96
_exptl_absorpt_coefficient_mu    0.662
_exptl_crystal_density_diffrn    1.8786
_exptl_crystal_description       needle
_exptl_crystal_F_000             477.3965
_refine_diff_density_max         0.9155
_refine_diff_density_min         -0.4531
_refine_diff_density_rms         0.1219
_refine_ls_d_res_high            0.7507
_refine_ls_d_res_low             6.8930
_refine_ls_goodness_of_fit_ref   1.1084
_refine_ls_matrix_type           full
_refine_ls_number_constraints    8
_refine_ls_number_parameters     246
_refine_ls_number_reflns         3657
_refine_ls_number_restraints     0
_refine_ls_restrained_S_all      1.1084
_refine_ls_R_factor_all          0.0762
_refine_ls_R_factor_gt           0.0520
_refine_ls_shift/su_max          0.0001
_refine_ls_shift/su_mean         0.0000
_refine_ls_structure_factor_coef Fsqd
_refine_ls_weighting_details
'w=1/[\s^2^(Fo^2^)+(0.0570P)^2^+1.9069P] where P=(Fo^2^+2Fc^2^)/3'
_refine_ls_weighting_scheme      calc
_refine_ls_wR_factor_gt          0.1364
_refine_ls_wR_factor_ref         0.1553
_reflns_Friedel_coverage         0.0
_reflns_limit_h_max              9
_reflns_limit_h_min              -9
_reflns_limit_k_max              12
_reflns_limit_k_min              -12
_reflns_limit_l_max              16
_reflns_limit_l_min              0
_reflns_number_gt                2657
_reflns_number_total             3657
_reflns_threshold_expression     I>=2u(I)
_cod_data_source_file            c9cp00425d2.cif
_cod_data_source_block           exp_291
_cod_database_code               7234975
_iucr_refine_fcf_details
;
data_exp_291_CCDC1
_computing_structure_refinement   'olex2.refine (Bourhis et al., 2015)'
_shelx_refln_list_code            4
loop_
  _space_group_symop_id
  _space_group_symop_operation_xyz
  1  x,y,z
  2  -x,-y,-z

_space_group_crystal_system       triclinic
_space_group_IT_number            2
_space_group_name_H-M_alt         'P -1'
_space_group_name_Hall            '-P 1'
_symmetry_space_group_name_H-M    'P -1'
_symmetry_space_group_name_Hall   '-P 1'
_symmetry_Int_Tables_number       2
_cell_length_a                    7.3617(6)
_cell_length_b                    9.6029(8)
_cell_length_c                    13.0788(10)
_cell_angle_alpha                 76.512(7)
_cell_angle_beta                  76.556(7)
_cell_angle_gamma                 71.936(7)
_cell_volume                      841.85(12)
loop_
  _refln_index_h
  _refln_index_k
  _refln_index_l
  _refln_F_squared_calc
  _refln_F_squared_meas
  _refln_F_squared_sigma
  _refln_F_squared_weight
  _refln_observed_status
-9 -2 1 134.086 97.376 11.931 18.379 o
-9 -1 1 29.726 21.618 11.482 41.848 o
-8 -7 1 3.210 9.013 18.410 22.283 o
-8 -7 2 21.535 13.984 18.667 20.143 o
-8 -7 3 46.731 51.639 19.276 16.489 o
-8 -6 1 6.693 -0.706 16.454 27.831 o
-8 -6 2 8.131 6.479 16.807 26.163 o
-8 -6 3 231.626 212.617 19.148 8.088 o
-8 -6 4 130.674 111.104 18.122 12.635 o
-8 -5 1 5.489 -1.924 14.786 34.449 o
-8 -5 2 27.817 43.973 15.460 25.412 o
-8 -5 3 13.450 19.212 15.267 29.538 o
-8 -5 4 63.248 81.339 16.037 19.199 o
-8 -4 1 45.805 36.959 7.202 55.700 o
-8 -4 2 0.938 6.671 13.118 43.781 o
-8 -4 3 478.782 427.480 20.752 3.880 o
-8 -4 4 127.115 113.317 14.882 15.428 o
-8 -3 1 250.005 251.147 11.148 9.652 o
-8 -3 2 74.803 73.482 7.548 35.867 o
-8 -3 3 37.569 31.721 13.054 32.061 o
-8 -3 4 33.120 34.608 13.214 32.069 o
-8 -2 1 1.540 8.281 5.858 186.932 o
-8 -2 2 18.886 28.397 5.984 97.846 o
-8 -2 3 174.314 196.485 9.538 14.271 o
-8 -2 4 0.536 4.607 8.131 111.477 o
-8 -1 1 268.941 280.606 10.621 8.885 o
-8 -1 2 40.081 34.294 6.535 64.675 o
-8 -1 3 179.996 184.308 8.008 15.035 o
-8 -1 4 48.311 51.863 11.194 34.147 o
-8 -1 5 34.863 44.262 11.290 37.991 o
-8 -1 6 85.247 85.092 11.867 23.781 o
-8 0 1 45.009 27.942 7.888 54.656 o
-8 0 2 5.280 3.503 6.471 152.767 o
-8 0 3 23.634 53.531 11.033 41.026 o
-8 0 4 6.870 11.130 10.713 59.432 o
-8 0 5 52.538 59.272 11.482 31.591 o
-8 1 1 17.193 15.923 6.646 100.867 o
-8 1 2 29.951 30.053 11.098 42.418 o
-8 2 1 3.542 -9.301 11.226 59.547 o
-7 -10 1 17.035 15.973 21.425 15.807 o
-7 -9 1 2.175 3.160 7.668 122.225 o
-7 -9 2 4.804 4.309 9.731 75.030 o
-7 -8 1 40.981 33.834 7.193 59.711 o
-7 -8 2 71.712 80.646 7.646 35.494 o
-7 -8 3 0.280 -1.254 9.895 79.106 o
-7 -8 4 3.405 12.509 8.281 95.987 o
-7 -7 1 279.653 259.022 11.343 8.729 o
-7 -7 2 110.497 115.073 7.555 24.958 o
-7 -7 3 0.247 -5.892 6.890 162.651 o
-7 -7 4 27.874 32.956 7.179 70.185 o
-7 -6 1 38.750 37.047 8.073 54.465 o
-7 -6 2 145.571 131.471 15.620 13.470 o
-7 -6 3 0.259 9.013 14.658 35.183 o
-7 -6 4 6.598 -2.316 8.847 89.644 o
-7 -6 5 37.413 41.628 9.349 46.736 o
-7 -6 6 7.562 -6.960 11.931 51.121 o
-7 -5 1 860.038 789.177 29.572 1.639 o
-7 -5 2 124.198 117.935 14.080 16.210 o
-7 -5 3 11.201 11.675 12.894 41.276 o
-7 -5 4 85.269 89.614 13.824 20.409 o
-7 -5 5 77.669 96.254 14.369 19.971 o
-7 -5 6 2.309 4.490 13.952 38.773 o
-7 -4 1 5.011 -0.288 5.165 234.959 o
-7 -4 2 5.347 -1.767 5.959 183.539 o
-7 -4 3 0.228 -1.411 11.194 61.894 o
-7 -4 4 9.360 8.115 11.579 51.349 o
-7 -4 5 127.074 151.036 13.343 15.709 o
-7 -4 6 0.187 5.324 12.060 52.144 o
-7 -4 7 12.087 4.619 12.797 42.622 o
-7 -3 1 520.910 527.363 17.072 3.570 o
-7 -3 2 12.817 13.069 5.132 150.991 o
-7 -3 3 175.307 161.978 8.484 15.780 o
-7 -3 4 38.720 32.010 10.969 40.024 o
-7 -3 5 0.664 -1.924 10.937 64.526 o
-7 -3 6 19.489 30.278 11.579 43.229 o
-7 -3 7 13.916 21.040 11.963 44.405 o
-7 -3 8 35.782 42.305 12.733 32.498 o
-7 -2 1 119.948 117.524 6.216 24.920 o
-7 -2 2 159.677 173.437 6.009 17.789 o
-7 -2 3 223.118 238.689 9.926 11.055 o
-7 -2 4 146.130 155.843 6.537 19.432 o
-7 -2 5 210.330 227.316 17.352 8.992 o
-7 -2 6 10.342 7.441 11.001 55.846 o
-7 -2 7 0.315 1.475 11.194 61.381 o
-7 -2 8 7.537 2.309 12.028 49.885 o
-7 -1 1 220.260 220.147 7.444 12.282 o
-7 -1 2 3.254 -0.828 4.636 303.140 o
-7 -1 3 51.986 50.514 4.285 62.104 o
-7 -1 4 38.484 34.296 4.635 80.404 o
-7 -1 5 15.887 11.991 9.382 66.710 o
-7 -1 6 1.414 2.673 7.042 146.408 o
-7 -1 7 4.883 11.841 7.251 116.925 o
-7 -1 8 170.677 174.450 13.856 12.622 o
-7 0 1 387.837 359.381 9.245 6.112 o
-7 0 2 151.248 161.114 5.044 19.546 o
-7 0 3 190.961 186.692 6.041 15.105 o
-7 0 4 82.058 84.180 6.280 35.412 o
-7 0 5 232.080 222.272 9.315 11.215 o
-7 0 6 0.215 2.432 7.137 147.323 o
-7 0 7 1.923 6.726 7.320 128.828 o
-7 1 1 164.491 161.211 6.796 17.488 o
-7 1 2 0.033 3.485 5.473 241.309 o
-7 1 3 4.079 -0.087 5.791 200.597 o
-7 1 4 198.444 186.496 7.418 14.168 o
-7 1 5 43.307 36.242 6.316 62.974 o
-7 1 6 18.774 21.657 7.562 80.900 o
-7 1 7 17.500 19.065 7.348 86.937 o
-7 2 1 394.977 359.218 20.833 4.737 o
-7 2 2 168.518 182.789 13.503 12.737 o
-7 2 3 0.183 -2.470 7.713 130.140 o
-7 2 4 2.763 1.814 6.375 171.484 o
-7 2 5 54.446 41.319 5.680 57.205 o
-7 2 6 1.278 9.639 6.446 157.472 o
-7 2 7 11.760 11.478 7.750 93.942 o
-7 3 1 10.393 1.014 5.370 181.326 o
-7 3 2 35.494 38.026 5.492 74.932 o
-7 3 3 18.635 20.860 8.251 73.164 o
-7 3 4 113.839 101.667 9.036 23.546 o
-7 3 5 57.148 55.785 8.753 39.830 o
-7 3 6 28.587 24.508 8.728 59.559 o
-7 4 1 83.002 79.808 17.063 16.567 o
-7 4 2 25.643 33.068 12.701 35.738 o
-7 4 3 8.015 -10.937 12.477 46.841 o
-7 4 4 0.006 -18.218 12.733 47.940 o
-6 -10 1 0.170 0.989 10.833 65.768 o
-6 -9 1 10.497 7.113 6.995 115.868 o
-6 -9 2 0.345 -8.496 7.140 151.185 o
-6 -9 3 1.126 -6.788 7.231 144.703 o
-6 -9 4 26.944 32.745 8.185 62.297 o
-6 -9 5 34.232 40.214 8.348 54.345 o
-6 -8 1 16.199 14.963 6.516 105.943 o
-6 -8 2 12.216 6.882 5.599 150.617 o
-6 -8 3 91.939 81.531 6.061 33.670 o
-6 -8 4 98.062 88.412 6.259 31.186 o
-6 -8 5 4.424 7.883 7.826 107.988 o
-6 -7 1 46.707 52.848 5.109 61.309 o
-6 -7 2 3.817 -0.219 4.951 264.553 o
-6 -7 3 2.371 -4.809 4.999 277.465 o
-6 -7 4 24.030 10.552 5.052 121.416 o
-6 -7 5 43.739 37.747 5.617 66.548 o
-6 -7 6 0.951 -7.629 6.160 198.528 o
-6 -6 1 115.596 113.349 4.359 27.678 o
-6 -6 2 11.196 8.168 4.106 212.255 o
-6 -6 3 311.441 311.880 6.628 8.153 o
-6 -6 4 48.526 38.060 4.908 66.690 o
-6 -6 5 82.290 84.263 5.263 37.332 o
-6 -6 6 1.556 -3.467 8.283 110.113 o
-6 -6 7 66.009 58.182 11.579 29.003 o
-6 -6 8 30.490 19.244 11.739 40.672 o
-6 -5 1 100.557 102.687 4.011 32.055 o
-6 -5 2 63.763 66.560 4.012 50.785 o
-6 -5 3 0.772 -2.021 4.479 369.466 o
-6 -5 4 17.091 14.840 5.575 123.166 o
-6 -5 5 126.500 122.653 6.373 23.532 o
-6 -5 6 14.938 10.749 5.681 132.434 o
-6 -5 7 47.920 39.049 8.058 49.438 o
-6 -5 8 35.691 24.023 10.937 42.350 o
-6 -5 9 1.822 6.222 11.450 56.567 o
-6 -4 1 149.723 129.420 4.962 21.379 o
-6 -4 2 23.799 31.590 4.229 110.287 o
-6 -4 3 584.620 581.893 10.217 3.345 o
-6 -4 4 149.483 146.679 5.211 20.344 o
-6 -4 5 269.451 281.969 6.097 9.691 o
-6 -4 6 68.166 58.538 4.765 48.499 o
-6 -4 7 26.443 35.353 7.340 68.925 o
-6 -4 8 0.093 6.389 7.451 130.179 o
-6 -4 9 91.040 72.294 11.386 24.702 o
-6 -3 1 125.800 124.422 3.875 25.482 o
-6 -3 2 3.612 1.365 3.487 440.470 o
-6 -3 3 192.119 176.590 5.075 15.680 o
-6 -3 4 0.059 -0.809 2.999 857.097 o
-6 -3 5 166.115 161.521 5.408 18.032 o
-6 -3 6 146.581 153.300 5.321 20.241 o
-6 -3 7 80.668 86.209 7.139 33.735 o
-6 -3 8 15.584 7.601 10.135 60.771 o
-6 -3 10 36.006 22.676 9.975 47.712 o
-6 -2 1 67.915 57.098 3.755 51.765 o
-6 -2 2 123.687 127.552 4.267 25.299 o
-6 -2 3 135.076 134.649 4.121 23.313 o
-6 -2 4 118.815 131.134 3.878 26.040 o
-6 -2 5 208.454 220.027 4.644 13.570 o
-6 -2 6 54.402 56.688 6.444 49.640 o
-6 -2 7 22.094 23.574 9.558 57.121 o
-6 -2 8 61.659 64.885 10.232 32.785 o
-6 -2 9 9.270 23.093 10.167 59.581 o
-6 -1 1 428.173 441.607 7.476 5.221 o
-6 -1 2 300.592 308.305 5.129 8.609 o
-6 -1 3 901.030 896.438 11.581 1.736 o
-6 -1 4 16.234 14.057 3.333 187.478 o
-6 -1 5 128.014 115.333 4.150 25.651 o
-6 -1 6 197.895 196.801 6.520 14.239 o
-6 -1 7 52.524 51.052 5.190 57.599 o
-6 -1 8 97.574 100.584 10.713 23.252 o
-6 -1 9 0.084 -11.322 10.039 77.046 o
-6 -1 10 7.937 3.945 10.135 67.322 o
-6 0 1 19.039 5.186 3.805 182.243 o
-6 0 2 900.150 835.594 10.059 1.814 o
-6 0 3 40.587 32.208 2.770 92.118 o
-6 0 4 185.734 192.126 4.212 15.844 o
-6 0 5 237.475 233.473 5.436 11.761 o
-6 0 6 220.981 206.856 5.858 12.985 o
-6 0 7 45.748 48.558 4.575 66.421 o
-6 0 8 91.013 86.856 7.157 31.315 o
-6 0 9 0.073 16.422 10.424 65.163 o
-6 0 10 0.001 -1.572 10.520 70.234 o
-6 1 1 58.059 47.239 3.722 61.053 o
-6 1 2 9.317 1.223 2.874 369.723 o
-6 1 3 151.005 131.893 4.767 21.211 o
-6 1 4 1.277 -3.052 3.244 639.706 o
-6 1 5 6.709 7.955 3.691 284.012 o
-6 1 6 53.925 71.529 4.841 52.146 o
-6 1 7 40.648 42.350 7.578 54.921 o
-6 1 8 209.576 204.714 7.201 13.201 o
-6 1 9 7.867 -10.456 11.450 55.051 o
-6 1 10 35.308 56.161 11.899 34.096 o
-6 2 1 279.530 277.651 6.806 9.356 o
-6 2 2 492.700 478.544 9.387 4.338 o
-6 2 3 23.223 13.597 6.137 100.780 o
-6 2 4 306.072 279.230 6.755 8.647 o
-6 2 5 85.938 72.281 5.938 36.673 o
-6 2 6 9.297 2.014 7.100 122.096 o
-6 2 7 48.616 46.329 5.755 58.975 o
-6 2 8 2.995 -1.045 5.730 212.063 o
-6 3 1 184.711 187.431 5.366 15.715 o
-6 3 2 68.278 76.350 4.422 45.394 o
-6 3 3 9.875 9.379 4.616 193.711 o
-6 3 4 38.441 39.349 4.679 77.230 o
-6 3 5 5.357 1.803 4.107 312.459 o
-6 3 6 53.565 51.669 7.726 45.799 o
-6 3 7 19.111 6.687 15.251 29.684 o
-6 3 8 116.512 115.177 12.252 18.722 o
-6 4 1 236.495 249.367 7.198 11.116 o
-6 4 2 100.756 109.266 4.426 30.848 o
-6 4 3 36.372 44.054 4.015 81.578 o
-6 4 4 28.951 24.232 4.960 98.094 o
-6 4 5 47.853 47.889 5.110 62.274 o
-6 4 6 8.537 7.458 5.431 171.585 o
-6 4 7 19.341 10.629 6.457 105.164 o
-6 4 8 7.821 5.196 12.028 49.177 o
-6 5 1 132.556 135.547 5.464 22.698 o
-6 5 2 87.097 72.307 5.113 37.963 o
-6 5 3 41.339 41.805 4.932 71.285 o
-6 5 4 63.655 66.000 5.115 47.830 o
-6 5 5 7.570 11.886 6.757 123.188 o
-6 5 6 5.762 8.356 6.719 134.183 o
-6 6 1 16.727 20.645 7.742 81.496 o
-6 6 2 10.445 -2.223 9.093 80.873 o
-6 6 3 12.966 8.742 7.931 91.055 o
-6 6 4 0.083 -7.426 7.996 121.390 o
-6 6 5 28.807 18.378 12.220 38.921 o
-5 -10 1 247.889 234.033 10.472 10.151 o
-5 -10 2 6.083 1.616 12.268 48.785 o
-5 -10 3 94.105 81.788 13.695 20.164 o
-5 -10 4 8.135 21.586 13.182 39.189 o
-5 -9 1 68.891 68.912 5.782 43.130 o
-5 -9 2 0.802 12.899 6.380 155.477 o
-5 -9 3 43.854 49.789 9.502 42.128 o
-5 -9 4 21.473 13.703 8.186 74.618 o
-5 -9 5 5.689 1.443 12.028 50.847 o
-5 -8 1 563.223 521.983 20.559 3.171 o
-5 -8 2 4.446 -0.976 5.982 187.473 o
-5 -8 3 230.055 219.326 7.537 11.863 o
-5 -8 4 4.888 -2.453 6.594 156.310 o
-5 -8 5 11.599 16.521 5.840 129.732 o
-5 -8 6 30.736 32.050 6.099 77.888 o
-5 -7 1 409.767 390.367 8.711 5.661 o
-5 -7 2 23.610 15.562 3.873 137.996 o
-5 -7 3 4.173 7.423 3.823 314.384 o
-5 -7 4 162.569 156.419 4.540 18.941 o
-5 -7 5 30.646 28.085 4.333 99.067 o
-5 -7 6 130.786 118.002 6.259 23.383 o
-5 -7 7 149.768 153.120 12.862 14.748 o
-5 -7 8 4.720 5.164 11.611 53.917 o
-5 -6 1 738.515 703.639 9.408 2.436 o
-5 -6 2 453.946 440.617 6.715 4.988 o
-5 -6 3 949.031 872.587 11.468 1.667 o
-5 -6 4 22.514 20.731 3.817 134.183 o
-5 -6 5 15.955 9.728 5.649 131.740 o
-5 -6 6 0.280 2.790 4.211 391.222 o
-5 -6 7 1.768 0.066 6.992 151.857 o
-5 -6 8 53.617 57.348 11.098 32.723 o
-5 -6 9 51.195 62.480 11.771 30.704 o
-5 -5 1 1046.880 1062.450 14.652 1.337 o
-5 -5 2 12.616 6.675 3.120 255.854 o
-5 -5 3 293.384 278.752 4.976 9.196 o
-5 -5 4 1143.980 1134.410 10.120 1.195 o
-5 -5 5 1.759 -0.459 3.804 465.048 o
-5 -5 6 236.392 222.103 7.900 11.459 o
-5 -5 7 299.350 280.012 10.841 8.142 o
-5 -5 8 100.076 94.874 10.681 23.342 o
-5 -5 9 37.873 46.411 10.713 39.300 o
-5 -5 10 13.019 -3.592 11.194 54.704 o
-5 -4 1 855.548 866.335 15.996 1.811 o
-5 -4 2 910.042 935.355 11.580 1.680 o
-5 -4 3 1360.980 1323.280 18.618 0.881 o
-5 -4 4 77.827 81.414 3.313 42.723 o
-5 -4 5 196.076 180.470 5.365 15.209 o
-5 -4 6 25.043 27.271 3.675 119.892 o
-5 -4 7 207.998 210.518 5.563 13.617 o
-5 -4 8 224.519 224.899 8.890 11.579 o
-5 -4 9 3.101 20.046 9.590 71.378 o
-5 -4 10 257.297 257.649 14.145 8.578 o
-5 -3 1 1315.650 1306.110 31.062 0.858 o
-5 -3 2 8.355 -1.453 3.648 323.482 o
-5 -3 3 363.021 361.704 8.426 6.535 o
-5 -3 4 1297.440 1345.610 18.166 0.921 o
-5 -3 5 42.771 40.678 2.782 82.943 o
-5 -3 6 602.815 610.738 9.517 3.191 o
-5 -3 7 24.439 11.837 3.472 149.541 o
-5 -3 8 17.527 10.535 4.899 144.682 o
-5 -3 9 1.997 -4.408 6.146 192.797 o
-5 -3 10 4.541 -3.347 13.118 43.697 o
-5 -3 11 5.098 5.356 10.328 66.646 o
-5 -2 1 84.459 97.908 3.821 37.033 o
-5 -2 2 278.700 289.706 5.493 9.393 o
-5 -2 3 1103.860 1147.130 15.502 1.208 o
-5 -2 4 1649.450 1719.230 20.952 0.611 o
-5 -2 5 20.250 17.098 2.841 169.431 o
-5 -2 6 391.840 451.756 7.788 5.565 o
-5 -2 7 373.117 384.859 10.897 5.982 o
-5 -2 8 114.105 117.842 6.487 25.465 o
-5 -2 9 2.271 -3.762 6.559 169.293 o
-5 -2 10 290.323 285.684 9.718 8.486 o
-5 -2 11 14.930 20.976 9.783 60.284 o
-5 -1 1 417.144 427.945 6.447 5.479 o
-5 -1 2 51.652 42.764 3.136 70.424 o
-5 -1 3 560.754 614.427 7.581 3.457 o
-5 -1 4 64.530 69.207 2.996 52.105 o
-5 -1 5 1.626 4.181 2.791 620.212 o
-5 -1 6 545.451 576.315 10.546 3.575 o
-5 -1 7 153.017 144.887 5.373 19.989 o
-5 -1 8 21.770 30.522 5.226 101.786 o
-5 -1 9 43.361 25.445 5.465 73.541 o
-5 -1 10 19.735 21.415 5.841 104.829 o
-5 0 1 68.853 62.175 3.948 49.494 o
-5 0 2 819.066 853.245 18.869 1.860 o
-5 0 3 196.365 168.898 4.944 15.695 o
-5 0 4 2001.540 2045.190 24.927 0.440 o
-5 0 5 303.871 303.991 5.271 8.567 o
-5 0 6 947.066 1018.610 15.226 1.511 o
-5 0 7 154.946 167.849 4.993 18.915 o
-5 0 8 65.400 87.699 5.199 42.444 o
-5 0 9 0.002 2.467 4.360 377.667 o
-5 0 10 155.072 206.363 12.348 13.470 o
-5 0 11 5.182 6.671 9.430 77.847 o
-5 1 1 151.323 130.158 6.300 20.328 o
-5 1 2 547.913 507.764 8.783 3.840 o
-5 1 3 273.509 251.983 5.625 10.096 o
-5 1 4 0.105 6.567 2.913 606.884 o
-5 1 5 199.601 209.531 4.466 14.379 o
-5 1 6 54.205 65.862 3.585 57.757 o
-5 1 7 260.818 243.114 9.848 9.788 o
-5 1 8 40.958 37.184 3.183 85.464 o
-5 1 9 60.333 64.680 4.930 50.307 o
-5 1 10 55.970 52.761 9.718 37.206 o
-5 1 11 147.760 145.487 11.418 16.165 o
-5 2 1 21.710 18.333 4.026 136.761 o
-5 2 2 445.513 444.652 12.132 4.740 o
-5 2 3 44.967 30.236 3.148 84.952 o
-5 2 4 1385.200 1385.910 19.293 0.840 o
-5 2 5 10.123 8.882 2.632 301.871 o
-5 2 6 439.343 428.817 6.796 5.202 o
-5 2 7 81.151 72.538 3.818 42.304 o
-5 2 8 68.504 71.264 4.644 45.831 o
-5 2 9 0.002 -0.923 5.008 309.941 o
-5 2 10 23.567 38.296 10.360 47.322 o
-5 2 11 5.679 16.775 10.456 60.968 o
-5 3 1 36.258 34.782 2.955 95.863 o
-5 3 2 226.512 202.556 3.941 13.235 o
-5 3 3 1.881 0.523 3.086 634.406 o
-5 3 4 1.057 1.226 2.769 793.608 o
-5 3 5 385.117 409.332 5.716 6.051 o
-5 3 6 50.453 35.616 3.578 73.122 o
-5 3 7 365.417 352.922 8.052 6.601 o
-5 3 8 3.832 8.454 5.594 186.714 o
-5 3 9 33.380 35.377 7.341 63.418 o
-5 3 10 49.442 52.473 11.450 32.996 o
-5 4 1 74.004 86.197 4.120 41.873 o
-5 4 2 8.885 3.634 3.471 301.110 o
-5 4 3 40.952 35.167 3.528 84.666 o
-5 4 4 386.995 347.696 6.663 6.417 o
-5 4 5 47.138 33.478 4.552 72.096 o
-5 4 6 15.242 11.003 4.075 178.309 o
-5 4 7 24.259 28.591 4.184 113.205 o
-5 4 8 36.814 24.278 6.985 67.898 o
-5 4 9 0.076 -1.871 8.820 99.792 o
-5 5 1 0.265 -2.959 3.952 487.173 o
-5 5 2 1.198 -0.993 3.976 448.452 o
-5 5 3 6.765 -0.046 3.663 352.016 o
-5 5 4 61.429 63.576 4.515 51.332 o
-5 5 5 127.513 127.060 6.440 23.065 o
-5 5 6 20.922 20.618 7.365 81.525 o
-5 5 7 329.602 322.532 9.523 7.316 o
-5 5 8 28.061 15.716 10.584 48.719 o
-5 5 9 55.120 43.620 10.296 36.607 o
-5 6 1 37.954 47.903 5.245 69.565 o
-5 6 2 0.274 -0.901 4.634 356.185 o
-5 6 3 76.344 75.735 5.367 40.312 o
-5 6 4 6.644 5.791 5.058 205.440 o
-5 6 5 31.051 33.701 5.215 85.046 o
-5 6 6 20.006 31.576 6.065 92.384 o
-5 6 7 11.918 7.126 7.243 107.238 o
-5 6 8 14.686 -0.994 10.873 56.655 o
-5 7 1 0.075 -5.023 7.337 144.152 o
-5 7 2 1.050 2.995 6.101 192.076 o
-5 7 3 44.068 37.667 6.527 60.596 o
-5 7 4 33.593 30.889 8.042 59.575 o
-5 7 5 72.055 77.073 11.739 26.257 o
-5 7 6 2.567 26.493 11.226 53.066 o
-5 7 7 86.375 91.154 12.284 22.611 o
-4 -11 1 46.029 36.981 13.214 29.595 o
-4 -11 2 89.843 142.664 14.786 16.861 o
-4 -10 1 11.150 -0.100 7.807 103.217 o
-4 -10 2 34.212 29.180 8.143 58.981 o
-4 -10 3 22.735 36.917 12.156 38.370 o
-4 -10 4 4.935 -6.736 12.188 50.196 o
-4 -10 5 15.405 25.659 12.509 40.169 o
-4 -9 1 20.615 29.296 3.901 125.698 o
-4 -9 2 0.249 0.482 5.209 279.999 o
-4 -9 3 0.847 -3.624 10.809 65.925 o
-4 -9 4 0.581 -2.213 11.290 60.632 o
-4 -9 5 26.724 30.237 8.107 64.004 o
-4 -9 6 18.779 29.059 11.514 44.034 o
-4 -8 1 3.303 -3.036 3.401 492.490 o
-4 -8 2 244.342 222.662 8.577 10.974 o
-4 -8 3 146.058 158.167 8.412 18.071 o
-4 -8 4 94.555 96.864 5.220 32.587 o
-4 -8 5 11.097 9.899 5.535 151.225 o
-4 -8 6 24.008 24.948 7.683 72.421 o
-4 -8 7 42.351 48.880 11.803 33.700 o
-4 -7 1 0.060 4.875 3.339 542.305 o
-4 -7 2 7.834 5.865 5.337 183.603 o
-4 -7 3 204.631 190.535 4.767 14.562 o
-4 -7 4 140.949 125.773 4.538 22.883 o
-4 -7 5 2.440 -3.851 3.831 437.064 o
-4 -7 6 44.547 42.412 4.893 68.321 o
-4 -7 7 8.569 7.079 5.569 166.725 o
-4 -7 8 43.916 38.617 11.354 36.144 o
-4 -7 9 10.141 11.258 11.899 47.982 o
-4 -6 1 254.051 256.044 6.200 10.577 o
-4 -6 2 1360.170 1304.270 19.884 0.883 o
-4 -6 3 132.309 143.001 4.021 23.188 o
-4 -6 4 34.296 33.538 3.256 98.049 o
-4 -6 5 78.118 92.000 4.585 38.665 o
-4 -6 6 218.315 233.872 5.822 12.491 o
-4 -6 7 77.053 77.784 4.095 42.344 o
-4 -6 8 99.552 110.879 11.354 21.555 o
-4 -6 9 0.742 3.207 10.777 65.251 o
-4 -6 10 280.682 279.491 15.845 7.469 o
-4 -5 1 15.246 20.434 3.175 179.174 o
-4 -5 2 11.094 14.559 2.826 244.186 o
-4 -5 3 177.702 170.019 3.662 17.389 o
-4 -5 4 279.988 282.718 6.507 9.318 o
-4 -5 5 61.377 68.588 3.270 53.414 o
-4 -5 6 421.708 436.315 6.356 5.380 o
-4 -5 7 10.613 6.097 2.889 299.176 o
-4 -5 8 19.757 23.977 4.190 130.932 o
-4 -5 9 69.285 71.364 10.392 30.206 o
-4 -5 10 15.988 10.649 10.392 57.265 o
-4 -5 11 22.616 17.256 10.937 48.356 o
-4 -4 1 51.187 35.671 4.823 65.942 o
-4 -4 2 2962.160 2911.110 39.757 0.220 o
-4 -4 3 0.287 -2.396 2.417 1252.140 o
-4 -4 4 0.024 1.182 2.612 1021.920 o
-4 -4 5 185.811 198.288 5.024 15.402 o
-4 -4 6 146.424 143.626 5.137 20.863 o
-4 -4 7 380.812 339.377 10.870 6.192 o
-4 -4 8 358.511 350.977 7.373 6.790 o
-4 -4 9 20.211 25.986 7.521 77.444 o
-4 -4 10 125.391 129.097 10.873 18.878 o
-4 -4 11 9.383 3.693 9.141 79.306 o
-4 -3 1 29.509 50.986 2.102 98.760 o
-4 -3 2 1317.840 1260.510 18.644 0.936 o
-4 -3 3 289.825 286.665 5.331 9.146 o
-4 -3 4 154.189 154.756 3.055 20.396 o
-4 -3 5 250.641 253.101 4.855 10.972 o
-4 -3 6 350.018 337.173 5.788 7.191 o
-4 -3 7 0.306 -5.002 2.883 893.308 o
-4 -3 8 56.276 65.631 3.825 55.785 o
-4 -3 9 156.866 126.389 5.403 20.518 o
-4 -3 10 17.530 20.268 6.229 103.542 o
-4 -3 11 175.932 170.563 8.287 15.570 o
-4 -3 12 9.460 16.294 10.584 57.640 o
-4 -2 1 2302.520 2565.770 36.329 0.318 o
-4 -2 2 29.287 25.272 2.553 124.673 o
-4 -2 3 231.146 276.518 5.474 11.159 o
-4 -2 4 39.813 51.925 2.144 82.293 o
-4 -2 5 47.132 57.961 2.786 68.861 o
-4 -2 6 89.061 100.565 3.153 36.136 o
-4 -2 7 639.999 641.062 14.196 2.822 o
-4 -2 8 120.823 121.238 5.703 25.018 o
-4 -2 9 466.197 449.771 10.810 4.614 o
-4 -2 10 100.181 102.839 5.279 30.632 o
-4 -2 11 0.099 2.822 9.077 92.195 o
-4 -2 12 11.009 4.138 10.039 66.067 o
-4 -2 13 20.041 3.977 11.001 51.914 o
-4 -1 1 231.548 197.152 3.981 13.112 o
-4 -1 2 1753.820 1771.970 21.495 0.560 o
-4 -1 3 2115.280 2146.340 25.915 0.401 o
-4 -1 4 889.373 1012.530 11.768 1.645 o
-4 -1 5 651.171 698.007 8.971 2.780 o
-4 -1 6 27.608 44.078 3.117 101.764 o
-4 -1 7 98.003 118.220 3.666 31.242 o
-4 -1 8 21.696 26.165 2.838 143.911 o
-4 -1 9 28.734 26.008 3.465 115.027 o
-4 -1 10 60.953 56.060 6.283 47.389 o
-4 -1 11 212.493 209.788 16.133 9.606 o
-4 -1 12 0.411 5.004 9.526 82.293 o
-4 -1 13 92.980 89.935 11.226 23.637 o
-4 0 1 1169.830 1218.200 22.639 1.059 o
-4 0 2 216.159 267.916 6.220 11.764 o
-4 0 3 641.625 631.575 9.586 2.953 o
-4 0 4 234.029 222.715 3.697 12.438 o
-4 0 5 1191.620 1218.260 16.927 1.071 o
-4 0 6 876.421 956.696 12.986 1.712 o
-4 0 7 379.575 396.335 5.615 6.229 o
-4 0 8 21.575 28.842 3.144 135.157 o
-4 0 9 695.571 755.401 10.529 2.477 o
-4 0 10 460.658 446.499 13.567 4.497 o
-4 0 11 39.930 42.532 6.042 64.938 o
-4 0 12 65.726 65.783 9.750 33.151 o
-4 1 1 1.337 2.385 2.410 860.816 o
-4 1 2 657.025 598.887 9.732 2.954 o
-4 1 3 1756.100 1765.580 28.184 0.547 o
-4 1 4 602.197 609.207 9.269 3.205 o
-4 1 5 93.863 108.174 3.406 33.610 o
-4 1 6 1.614 4.832 2.624 645.944 o
-4 1 7 255.927 237.209 6.198 10.841 o
-4 1 8 47.774 43.237 2.386 77.070 o
-4 1 9 2.430 -6.142 2.598 789.461 o
-4 1 10 0.083 -3.347 4.761 341.278 o
-4 1 11 18.021 12.421 5.719 120.778 o
-4 1 12 67.879 67.002 9.750 32.553 o
-4 2 1 1136.250 1121.710 22.398 1.140 o
-4 2 2 237.820 207.407 5.573 12.268 o
-4 2 3 2489.100 2597.510 70.245 0.255 o
-4 2 4 1125.880 1066.350 15.756 1.228 o
-4 2 5 781.816 780.846 34.148 1.675 o
-4 2 6 330.475 287.332 6.173 8.052 o
-4 2 7 111.402 144.920 3.710 26.235 o
-4 2 8 2.385 2.928 3.581 438.147 o
-4 2 9 408.495 440.975 9.055 5.351 o
-4 2 10 230.961 267.432 13.311 9.334 o
-4 2 11 23.033 29.348 9.205 57.698 o
-4 2 12 17.020 13.984 9.301 65.945 o
-4 3 1 158.833 159.717 3.740 19.449 o
-4 3 2 252.106 259.894 4.219 10.884 o
-4 3 3 3.026 -4.410 2.827 655.812 o
-4 3 4 653.495 689.011 10.625 2.757 o
-4 3 5 2.333 -2.644 2.532 828.108 o
-4 3 6 10.990 17.396 1.896 266.364 o
-4 3 7 252.366 223.350 11.155 9.984 o
-4 3 8 72.592 75.441 4.680 43.255 o
-4 3 9 3.520 6.294 6.095 170.126 o
-4 3 10 0.914 13.567 9.526 77.257 o
-4 3 11 20.026 23.157 9.783 56.608 o
-4 3 12 23.113 14.529 9.911 56.257 o
-4 3 13 121.052 122.458 11.931 18.418 o
-4 4 1 907.904 874.844 13.288 1.728 o
-4 4 2 90.916 88.263 4.162 36.099 o
-4 4 3 1489.450 1518.330 18.484 0.740 o
-4 4 4 301.415 324.590 5.657 8.341 o
-4 4 5 395.988 391.463 6.161 6.000 o
-4 4 6 55.811 63.297 3.162 58.789 o
-4 4 7 0.487 -4.511 3.802 515.567 o
-4 4 8 51.163 56.492 5.291 56.308 o
-4 4 9 44.069 35.915 6.352 62.312 o
-4 4 10 32.456 32.836 6.342 73.472 o
-4 4 11 55.162 58.759 11.290 31.695 o
-4 4 12 0.085 15.748 10.937 59.872 o
-4 5 1 130.351 120.138 4.292 24.848 o
-4 5 2 0.053 -2.280 3.674 573.120 o
-4 5 3 104.856 89.291 3.800 32.832 o
-4 5 4 915.082 901.708 13.824 1.682 o
-4 5 5 88.096 73.756 4.602 38.368 o
-4 5 6 306.912 321.018 8.388 7.932 o
-4 5 7 133.859 130.452 5.942 22.491 o
-4 5 8 6.341 6.073 6.361 148.038 o
-4 5 9 14.346 18.127 6.616 104.596 o
-4 5 10 16.108 19.629 10.713 52.280 o
-4 6 1 27.193 36.747 4.817 92.393 o
-4 6 2 43.333 40.949 4.889 70.097 o
-4 6 3 406.698 388.464 9.129 5.680 o
-4 6 4 0.074 -4.863 4.013 479.884 o
-4 6 5 52.636 46.369 6.609 52.394 o
-4 6 6 0.360 -8.692 9.077 93.825 o
-4 6 7 14.606 12.563 6.421 113.623 o
-4 6 8 2.621 -0.385 10.472 68.786 o
-4 6 9 7.424 12.430 7.266 110.423 o
-4 7 1 84.553 73.056 6.409 35.961 o
-4 7 2 51.565 52.497 5.865 54.721 o
-4 7 3 105.288 93.649 8.307 26.280 o
-4 7 4 72.698 61.378 5.933 42.695 o
-4 7 5 69.132 58.837 7.299 40.364 o
-4 7 6 233.784 205.208 13.439 10.074 o
-4 7 8 43.691 47.726 10.777 37.263 o
-4 7 9 48.489 39.643 10.937 36.460 o
-4 8 1 0.176 -2.875 7.988 121.395 o
-4 8 2 7.090 14.772 7.338 107.148 o
-4 8 3 53.019 49.605 7.809 46.090 o
-4 8 4 41.946 56.696 6.517 55.938 o
-4 8 5 0.564 -10.007 11.033 63.479 o
-4 9 1 10.191 18.507 10.969 53.392 o
-3 -11 1 1.049 -2.248 6.221 194.136 o
-3 -11 2 12.015 17.005 7.614 91.817 o
-3 -11 3 5.106 -9.590 13.022 44.141 o
-3 -10 1 23.904 28.605 6.418 84.618 o
-3 -10 2 10.076 18.184 7.129 102.664 o
-3 -10 3 8.059 13.359 5.620 153.530 o
-3 -10 4 13.080 10.135 11.707 48.402 o
-3 -10 5 0.015 8.179 11.931 52.664 o
-3 -9 1 16.646 19.090 5.823 113.997 o
-3 -9 2 46.472 44.176 4.517 67.982 o
-3 -9 3 47.274 43.971 4.455 67.700 o
-3 -9 4 35.441 28.235 5.890 76.785 o
-3 -9 5 22.461 23.991 10.520 49.767 o
-3 -9 6 27.890 25.462 7.990 65.956 o
-3 -8 1 47.902 62.931 4.003 61.687 o
-3 -8 2 103.725 117.578 5.067 28.748 o
-3 -8 3 0.504 14.401 5.947 171.777 o
-3 -8 4 47.137 34.684 5.686 64.612 o
-3 -8 5 34.148 33.724 6.931 66.642 o
-3 -8 6 0.421 -1.169 7.011 156.419 o
-3 -8 7 27.512 26.186 7.392 71.549 o
-3 -8 8 100.045 118.256 13.054 18.990 o
-3 -7 1 10.661 9.600 3.194 257.393 o
-3 -7 2 44.814 44.347 3.323 75.705 o
-3 -7 3 84.704 93.083 6.495 33.233 o
-3 -7 4 145.682 127.849 3.742 22.604 o
-3 -7 5 174.150 191.333 5.544 16.233 o
-3 -7 6 2.206 3.076 6.976 145.445 o
-3 -7 7 234.368 212.708 8.835 11.452 o
-3 -7 8 83.822 76.079 11.258 25.646 o
-3 -7 9 45.746 45.641 11.611 33.980 o
-3 -6 1 427.569 379.393 8.460 5.527 o
-3 -6 2 599.180 617.764 16.126 2.984 o
-3 -6 3 18.345 25.273 2.941 157.296 o
-3 -6 4 2.640 5.893 2.912 497.456 o
-3 -6 5 45.680 49.015 3.625 71.002 o
-3 -6 6 47.964 58.190 3.286 66.252 o
-3 -6 7 261.465 251.129 6.182 10.414 o
-3 -6 8 35.530 49.549 6.454 62.905 o
-3 -6 9 4.055 -2.470 10.232 70.754 o
-3 -6 10 141.354 130.701 12.477 16.190 o
-3 -6 11 27.679 32.555 11.643 40.022 o
-3 -5 1 39.416 39.253 2.944 87.578 o
-3 -5 2 95.183 101.002 4.808 32.529 o
-3 -5 3 45.609 30.910 2.452 87.319 o
-3 -5 4 331.147 327.148 7.249 7.512 o
-3 -5 5 348.583 343.909 5.624 7.167 o
-3 -5 6 154.217 149.587 3.728 20.416 o
-3 -5 7 257.624 245.176 4.251 10.947 o
-3 -5 8 41.320 41.691 3.592 79.722 o
-3 -5 9 218.970 228.590 12.797 10.395 o
-3 -5 10 68.930 76.400 10.649 29.207 o
-3 -5 11 11.445 11.980 7.575 97.186 o
-3 -5 12 98.514 91.410 12.124 21.571 o
-3 -4 1 4.220 5.857 2.819 454.365 o
-3 -4 2 441.548 452.151 7.222 5.033 o
-3 -4 3 378.270 406.028 6.620 6.118 o
-3 -4 4 15.766 21.957 2.558 186.964 o
-3 -4 5 28.669 35.681 2.472 113.714 o
-3 -4 6 440.272 408.536 5.720 5.354 o
-3 -4 7 340.178 350.460 5.132 7.299 o
-3 -4 8 5.606 5.049 3.114 386.212 o
-3 -4 9 315.154 305.048 8.782 7.872 o
-3 -4 10 311.406 287.962 8.066 8.240 o
-3 -4 11 164.401 135.250 8.127 17.718 o
-3 -4 12 133.185 130.145 8.413 20.480 o
-3 -3 1 952.993 949.005 11.719 1.588 o
-3 -3 2 27.128 26.163 1.953 135.741 o
-3 -3 3 3.686 1.547 1.951 817.929 o
-3 -3 4 788.853 793.725 10.717 2.129 o
-3 -3 5 690.136 680.151 9.415 2.653 o
-3 -3 6 738.165 788.927 10.822 2.280 o
-3 -3 7 49.718 46.560 3.244 70.018 o
-3 -3 8 13.563 12.773 2.811 229.717 o
-3 -3 9 262.581 242.825 5.754 10.588 o
-3 -3 10 7.865 6.034 3.986 260.046 o
-3 -3 11 23.869 20.719 5.183 107.855 o
-3 -3 12 8.079 7.744 9.141 78.551 o
-3 -2 1 9.895 19.153 1.795 272.542 o
-3 -2 2 32.403 25.936 1.942 120.666 o
-3 -2 3 521.505 539.980 8.880 3.907 o
-3 -2 4 46.621 45.828 2.407 76.833 o
-3 -2 5 28.320 32.534 2.350 119.450 o
-3 -2 6 290.907 289.018 4.611 9.162 o
-3 -2 7 698.257 738.660 14.497 2.420 o
-3 -2 8 53.467 43.848 2.889 69.161 o
-3 -2 9 982.550 1040.200 14.392 1.446 o
-3 -2 10 278.945 260.048 5.931 9.759 o
-3 -2 11 125.643 117.957 9.654 20.613 o
-3 -2 12 85.236 103.695 10.745 24.533 o
-3 -2 13 26.535 30.438 10.649 45.999 o
-3 -1 1 887.372 947.872 12.568 1.703 o
-3 -1 2 202.479 161.797 2.810 16.058 o
-3 -1 3 448.175 519.276 6.132 4.681 o
-3 -1 4 190.389 233.269 3.207 14.484 o
-3 -1 5 42.227 42.460 2.364 84.428 o
-3 -1 6 130.668 155.465 3.401 22.917 o
-3 -1 7 27.091 28.637 3.069 120.445 o
-3 -1 8 14.630 27.321 2.873 171.312 o
-3 -1 9 4.864 7.701 2.555 438.820 o
-3 -1 10 703.938 693.679 19.046 2.361 o
-3 -1 11 119.089 114.701 5.128 26.302 o
-3 -1 12 0.047 7.634 8.981 90.824 o
-3 -1 13 154.752 178.908 12.477 14.077 o
-3 -1 14 16.501 22.901 11.226 47.782 o
-3 0 1 1366.900 1192.810 22.227 0.909 o
-3 0 2 113.184 142.246 2.702 26.745 o
-3 0 3 110.600 121.959 2.266 29.250 o
-3 0 4 128.992 159.548 3.031 23.032 o
-3 0 5 261.441 328.928 5.418 9.336 o
-3 0 6 18.584 6.320 1.761 247.347 o
-3 0 7 1393.840 1461.520 17.414 0.816 o
-3 0 8 18.402 19.014 2.125 189.032 o
-3 0 9 207.476 230.777 5.986 13.026 o
-3 0 10 5.783 12.080 2.623 351.527 o
-3 0 11 117.122 120.916 4.502 26.663 o
-3 0 12 85.773 113.014 6.798 30.328 o
-3 0 13 0.258 5.517 9.943 75.683 o
-3 0 14 15.758 16.839 10.969 51.172 o
-3 1 1 345.047 270.159 4.453 8.072 o
-3 1 2 761.831 744.805 10.981 2.273 o
-3 1 3 555.004 523.302 11.555 3.642 o
-3 1 4 194.521 180.046 3.335 15.873 o
-3 1 5 20.287 18.074 1.879 184.857 o
-3 1 6 13.448 9.987 2.175 271.155 o
-3 1 7 543.016 576.436 7.406 3.686 o
-3 1 8 222.327 263.979 3.741 12.040 o
-3 1 9 6.620 3.464 2.138 508.401 o
-3 1 10 1220.870 1268.340 23.592 0.986 o
-3 1 11 245.208 259.738 7.421 10.576 o
-3 1 12 39.368 42.577 5.425 69.498 o
-3 1 13 202.381 265.668 13.792 9.984 o
-3 1 14 11.600 15.299 10.777 55.072 o
-3 2 1 81.842 68.638 2.839 44.366 o
-3 2 2 42.339 34.700 2.684 88.104 o
-3 2 3 54.213 60.107 2.916 61.752 o
-3 2 4 506.062 441.242 14.267 4.114 o
-3 2 5 488.840 453.768 6.999 4.577 o
-3 2 6 64.288 73.320 2.505 52.060 o
-3 2 7 603.000 692.378 11.056 2.956 o
-3 2 8 4.647 8.252 2.587 432.839 o
-3 2 9 69.527 93.153 3.774 42.876 o
-3 2 10 207.068 183.851 6.022 14.252 o
-3 2 11 15.741 23.019 4.860 131.009 o
-3 2 12 15.295 28.892 6.135 101.319 o
-3 2 13 8.051 10.424 9.494 72.480 o
-3 3 1 345.784 371.194 6.851 6.879 o
-3 3 2 371.450 402.212 8.583 6.098 o
-3 3 3 277.474 271.803 5.447 9.694 o
-3 3 4 88.183 80.119 3.570 38.961 o
-3 3 5 67.597 50.639 2.122 57.544 o
-3 3 6 213.854 207.413 8.590 12.476 o
-3 3 7 214.104 209.018 5.773 13.290 o
-3 3 8 2.488 1.274 3.734 433.531 o
-3 3 9 10.398 6.967 5.116 176.252 o
-3 3 10 165.478 167.442 7.745 16.666 o
-3 3 11 57.306 42.820 4.737 59.135 o
-3 3 12 93.723 93.495 9.398 26.317 o
-3 3 13 123.052 146.609 11.098 18.143 o
-3 4 1 41.209 219.688 5.926 29.887 o
-3 4 2 2445.770 2440.740 44.824 0.298 o
-3 4 3 67.988 66.952 3.496 49.806 o
-3 4 4 99.516 106.792 4.214 31.611 o
-3 4 5 170.302 175.115 5.037 17.306 o
-3 4 6 0.013 3.559 1.713 1489.400 o
-3 4 7 103.879 125.544 8.329 24.191 o
-3 4 8 198.742 207.253 8.975 13.022 o
-3 4 9 71.806 80.909 4.781 42.301 o
-3 4 10 50.645 38.970 9.045 43.655 o
-3 4 11 1.442 2.387 6.258 182.820 o
-3 4 12 12.902 5.356 8.981 77.108 o
-3 4 13 46.955 36.051 9.783 42.154 o
-3 4 14 71.172 60.555 10.584 30.382 o
-3 5 1 244.787 258.897 5.225 11.022 o
-3 5 2 48.665 53.533 4.219 63.762 o
-3 5 3 39.787 30.927 3.526 89.268 o
-3 5 4 49.406 43.028 3.859 69.211 o
-3 5 5 23.501 22.915 4.012 124.770 o
-3 5 6 67.415 56.583 5.629 46.665 o
-3 5 7 3.042 1.786 6.816 150.999 o
-3 5 8 0.883 0.203 6.268 191.713 o
-3 5 9 20.761 13.945 4.903 128.681 o
-3 5 10 11.937 3.204 5.987 145.775 o
-3 5 11 2.338 -2.245 9.879 77.292 o
-3 5 12 85.553 94.842 11.322 24.084 o
-3 6 1 16.582 96.453 6.040 62.218 o
-3 6 2 804.572 834.582 25.444 1.785 o
-3 6 3 291.805 316.464 7.768 8.405 o
-3 6 4 322.597 297.236 7.389 7.979 o
-3 6 5 172.582 205.878 5.394 15.898 o
-3 6 6 10.608 0.542 8.676 87.072 o
-3 6 7 4.633 -8.788 9.750 76.969 o
-3 6 8 11.964 10.776 6.798 113.130 o
-3 6 9 38.866 46.041 7.268 56.728 o
-3 6 10 55.491 49.650 10.873 33.850 o
-3 6 11 13.054 25.980 11.033 49.885 o
-3 7 1 122.467 117.082 5.450 25.311 o
-3 7 2 2.065 3.798 4.087 357.189 o
-3 7 3 91.313 94.798 5.539 33.107 o
-3 7 4 92.357 78.738 5.049 35.657 o
-3 7 5 158.976 155.675 7.846 17.524 o
-3 7 6 27.003 31.196 6.554 77.942 o
-3 7 7 28.962 24.216 9.398 54.373 o
-3 7 8 8.486 3.175 9.783 71.544 o
-3 7 9 1.575 -5.196 10.713 66.571 o
-3 8 1 18.526 29.302 5.239 109.152 o
-3 8 2 80.255 105.434 6.083 33.568 o
-3 8 3 26.878 14.274 5.090 109.754 o
-3 8 4 48.258 42.634 7.120 53.196 o
-3 8 5 4.541 9.745 7.008 127.003 o
-3 8 6 6.590 10.572 7.075 118.935 o
-3 8 7 12.108 8.675 7.325 103.717 o
-3 9 1 0.277 9.674 5.761 195.642 o
-3 9 2 99.414 113.003 11.370 21.439 o
-3 9 3 56.425 60.187 6.527 47.575 o
-3 9 4 15.012 11.964 10.023 60.830 o
-3 9 5 52.798 51.491 8.266 43.896 o
-3 10 1 3.062 4.009 10.873 62.336 o
-3 10 2 26.721 36.179 11.707 39.475 o
-2 -12 1 17.445 21.874 11.258 47.402 o
-2 -12 2 1.225 4.170 11.066 61.367 o
-2 -11 1 10.079 14.599 6.314 124.588 o
-2 -11 2 51.543 60.400 6.755 48.830 o
-2 -11 3 9.053 4.095 7.688 105.916 o
-2 -11 4 107.479 145.102 14.497 16.000 o
-2 -10 1 57.528 65.653 6.633 45.551 o
-2 -10 2 1.971 2.839 5.634 215.508 o
-2 -10 3 0.764 -3.707 6.665 171.244 o
-2 -10 4 21.049 17.841 5.879 105.099 o
-2 -10 5 45.375 47.084 11.899 32.929 o
-2 -10 6 13.825 12.669 11.771 47.175 o
-2 -9 1 6.041 4.057 5.813 176.077 o
-2 -9 2 267.107 245.993 10.051 9.519 o
-2 -9 3 3.714 -1.857 4.534 307.234 o
-2 -9 4 4.597 -0.610 5.210 235.416 o
-2 -9 5 0.323 3.574 6.039 198.520 o
-2 -9 6 24.965 21.778 10.264 50.880 o
-2 -8 1 41.992 35.663 4.576 76.089 o
-2 -8 2 152.523 168.255 6.415 18.383 o
-2 -8 3 11.740 14.149 4.387 177.970 o
-2 -8 4 8.392 9.145 4.340 218.606 o
-2 -8 5 264.130 268.456 12.236 8.781 o
-2 -8 6 71.167 78.017 7.288 36.893 o
-2 -8 7 0.014 -8.481 6.960 160.430 o
-2 -8 8 26.699 38.649 11.547 39.886 o
-2 -7 1 1.437 0.537 5.769 219.237 o
-2 -7 2 817.868 839.648 19.328 1.869 o
-2 -7 3 103.926 109.578 6.239 28.057 o
-2 -7 4 99.693 77.587 5.563 33.121 o
-2 -7 5 357.113 360.679 10.982 6.367 o
-2 -7 6 0.755 -1.654 6.511 179.299 o
-2 -7 7 59.578 64.388 6.705 44.731 o
-2 -7 8 55.547 52.034 6.703 49.127 o
-2 -7 9 53.389 68.638 11.579 30.285 o
-2 -7 10 12.695 23.574 11.771 45.578 o
-2 -6 1 32.249 24.949 2.758 115.419 o
-2 -6 2 1427.700 1471.500 41.053 0.695 o
-2 -6 3 4.855 0.534 3.104 480.370 o
-2 -6 4 51.801 50.840 5.858 55.093 o
-2 -6 5 511.128 562.659 10.258 3.850 o
-2 -6 6 17.821 18.086 3.257 169.721 o
-2 -6 7 5.873 5.144 2.786 417.863 o
-2 -6 8 5.858 5.408 5.831 172.765 o
-2 -6 9 0.837 -5.581 10.071 75.841 o
-2 -6 10 7.643 7.569 10.424 63.004 o
-2 -6 11 0.316 -5.164 11.226 61.487 o
-2 -5 1 215.169 250.797 5.973 12.221 o
-2 -5 2 10.042 6.067 2.217 356.794 o
-2 -5 3 336.217 299.092 6.255 7.794 o
-2 -5 4 119.170 101.971 3.385 28.837 o
-2 -5 5 506.720 526.620 10.722 3.987 o
-2 -5 6 149.911 153.317 3.852 20.620 o
-2 -5 7 163.230 152.313 5.373 18.689 o
-2 -5 8 202.161 205.995 5.213 14.145 o
-2 -5 9 500.621 517.335 34.656 2.592 o
-2 -5 10 0.134 -1.969 6.570 179.398 o
-2 -5 11 91.371 93.454 14.626 18.641 o
-2 -5 12 40.781 53.307 11.258 35.489 o
-2 -5 13 10.945 11.033 11.450 50.996 o
-2 -4 1 457.075 521.432 10.452 4.403 o
-2 -4 2 1412.360 1415.050 27.711 0.781 o
-2 -4 3 587.701 557.179 9.453 3.418 o
-2 -4 4 1683.930 1692.980 24.306 0.596 o
-2 -4 5 101.428 97.701 2.903 33.495 o
-2 -4 6 171.583 162.242 3.649 18.215 o
-2 -4 7 146.380 146.792 3.188 21.636 o
-2 -4 8 45.856 45.890 2.934 75.536 o
-2 -4 9 123.881 120.203 3.440 26.387 o
-2 -4 10 4.251 3.526 5.086 231.600 o
-2 -4 11 0.544 -1.467 6.667 172.184 o
-2 -4 12 21.257 17.302 7.199 85.285 o
-2 -4 13 12.650 16.935 10.392 57.375 o
-2 -3 1 0.298 -3.345 2.023 1738.660 o
-2 -3 2 265.437 304.871 6.176 9.463 o
-2 -3 3 136.658 111.046 3.119 25.291 o
-2 -3 4 605.049 564.755 8.494 3.326 o
-2 -3 5 117.630 121.650 2.561 27.822 o
-2 -3 6 32.075 27.200 2.084 118.825 o
-2 -3 7 446.743 437.041 6.251 5.102 o
-2 -3 8 200.119 193.102 4.536 14.813 o
-2 -3 9 482.861 454.954 11.370 4.415 o
-2 -3 10 29.339 22.058 3.054 123.391 o
-2 -3 11 182.851 182.344 8.287 14.794 o
-2 -3 12 25.289 35.933 25.739 10.793 o
-2 -3 13 36.995 42.748 7.314 58.614 o
-2 -2 1 214.856 159.280 3.175 15.252 o
-2 -2 2 1524.470 1360.780 26.333 0.739 o
-2 -2 3 771.194 771.902 13.433 2.169 o
-2 -2 4 651.697 727.948 11.607 2.667 o
-2 -2 5 50.792 52.339 1.535 71.483 o
-2 -2 6 45.320 32.928 2.072 87.984 o
-2 -2 7 52.293 59.716 2.458 64.661 o
-2 -2 8 287.693 303.504 7.408 8.711 o
-2 -2 9 238.115 208.908 10.909 10.738 o
-2 -2 10 14.838 22.761 2.870 182.651 o
-2 -2 11 54.279 51.535 4.835 57.842 o
-2 -2 12 196.438 185.103 7.977 14.093 o
-2 -2 13 37.901 34.896 10.135 43.790 o
-2 -2 14 0.255 -3.560 11.098 62.952 o
-2 -1 1 311.078 356.525 4.601 7.860 o
-2 -1 2 236.534 241.495 3.594 11.934 o
-2 -1 3 113.225 78.485 1.752 33.731 o
-2 -1 4 49.704 51.196 1.856 72.405 o
-2 -1 5 758.599 833.224 15.234 2.090 o
-2 -1 6 66.764 90.045 3.315 45.422 o
-2 -1 7 149.346 168.376 3.342 20.097 o
-2 -1 8 0.850 3.793 1.805 1150.020 o
-2 -1 9 150.395 127.479 10.413 17.396 o
-2 -1 10 123.217 123.216 3.714 26.079 o
-2 -1 11 22.980 27.799 3.007 134.287 o
-2 -1 12 313.362 313.687 9.737 7.683 o
-2 -1 13 70.189 73.096 10.456 29.730 o
-2 -1 14 2.081 12.605 10.841 60.593 o
-2 0 1 1729.950 1932.810 30.634 0.523 o
-2 0 2 660.054 809.635 9.900 2.517 o
-2 0 3 98.581 107.191 2.937 33.006 o
-2 0 4 1402.840 1483.000 24.794 0.779 o
-2 0 5 66.591 75.844 1.774 51.215 o
-2 0 6 915.879 1271.690 17.351 1.352 o
-2 0 7 204.406 242.531 3.470 13.422 o
-2 0 8 3385.600 3643.640 44.931 0.163 o
-2 0 9 435.804 478.036 8.905 4.875 o
-2 0 10 91.638 93.956 3.017 36.484 o
-2 0 11 146.362 186.191 3.930 19.306 o
-2 0 12 13.101 16.329 3.291 201.821 o
-2 0 13 47.606 54.814 9.975 38.295 o
-2 0 14 61.720 67.323 11.258 29.768 o
-2 0 15 48.114 44.166 12.060 32.149 o
-2 1 1 0.984 -4.366 2.760 876.383 o
-2 1 2 155.906 158.423 3.704 19.809 o
-2 1 3 251.723 306.273 4.432 10.083 o
-2 1 4 39.162 69.061 2.143 73.252 o
-2 1 5 3318.720 3606.230 43.046 0.168 o
-2 1 6 1481.620 1688.300 18.973 0.699 o
-2 1 7 2.627 4.557 1.412 940.429 o
-2 1 8 444.992 441.877 5.190 5.135 o
-2 1 9 6.797 5.467 1.551 530.563 o
-2 1 10 372.929 354.134 12.534 6.012 o
-2 1 11 8.858 15.070 3.410 236.591 o
-2 1 12 333.677 378.429 10.432 6.654 o
-2 1 13 41.292 46.824 6.232 61.142 o
-2 1 14 20.529 34.030 10.424 49.066 o
-2 1 15 1.243 12.413 11.547 54.407 o
-2 2 1 398.450 309.124 4.998 6.647 o
-2 2 2 59.058 49.511 2.422 63.428 o
-2 2 3 190.232 151.212 3.280 17.246 o
-2 2 4 38.328 28.692 1.547 105.961 o
-2 2 5 521.464 563.913 7.551 3.867 o
-2 2 6 46.573 34.017 1.852 86.281 o
-2 2 7 75.420 72.225 2.063 47.398 o
-2 2 8 1146.590 1218.760 16.078 1.120 o
-2 2 9 300.010 334.061 5.848 8.245 o
-2 2 10 18.342 18.645 2.955 172.710 o
-2 2 11 33.059 46.420 4.217 82.797 o
-2 2 12 0.090 -2.119 4.047 471.360 o
-2 2 13 20.285 16.301 5.830 109.007 o
-2 2 14 74.180 75.374 11.001 27.633 o
-2 2 15 25.601 35.570 11.771 39.573 o
-2 3 1 369.648 373.816 8.254 6.357 o
-2 3 2 131.070 139.302 3.102 24.070 o
-2 3 3 14.002 19.041 2.104 221.278 o
-2 3 4 0.027 -4.247 1.444 3670.090 o
-2 3 5 1343.020 1371.510 15.520 0.887 o
-2 3 6 30.467 29.091 2.373 118.173 o
-2 3 7 16.026 24.305 2.800 173.478 o
-2 3 8 79.318 98.595 4.204 37.909 o
-2 3 9 127.352 88.360 4.145 27.990 o
-2 3 10 333.549 380.673 7.153 6.982 o
-2 3 11 1.725 -8.568 3.986 429.859 o
-2 3 12 237.556 264.566 7.345 10.773 o
-2 3 13 10.095 16.010 4.972 161.260 o
-2 3 14 39.856 42.045 5.424 69.305 o
-2 4 1 233.077 211.570 6.349 12.206 o
-2 4 2 9.704 1.706 3.512 299.940 o
-2 4 3 602.822 490.718 11.876 3.443 o
-2 4 4 310.437 263.776 5.876 8.841 o
-2 4 5 117.321 101.831 3.373 29.212 o
-2 4 6 971.674 996.997 16.306 1.479 o
-2 4 7 0.011 -5.730 3.652 582.228 o
-2 4 8 80.417 105.498 4.568 36.029 o
-2 4 9 0.180 0.535 3.713 541.475 o
-2 4 10 30.927 29.891 3.988 100.619 o
-2 4 11 21.094 17.587 4.771 125.281 o
-2 4 12 0.973 -1.860 5.011 294.965 o
-2 4 13 1.641 3.181 6.365 174.152 o
-2 4 14 10.444 13.736 6.742 114.487 o
-2 5 1 39.449 48.829 3.633 77.519 o
-2 5 2 155.800 136.402 8.852 17.847 o
-2 5 3 11.102 7.871 3.775 230.690 o
-2 5 4 7.778 4.450 1.465 517.994 o
-2 5 5 139.218 139.260 4.193 22.463 o
-2 5 6 650.509 618.724 9.576 2.942 o
-2 5 7 0.097 -6.740 4.085 462.494 o
-2 5 8 63.339 62.101 4.545 50.636 o
-2 5 9 186.638 193.131 6.286 15.084 o
-2 5 10 45.128 48.194 4.332 68.377 o
-2 5 11 0.144 -1.773 6.503 183.004 o
-2 5 12 157.652 170.664 8.434 16.708 o
-2 5 13 1.956 18.313 6.961 123.870 o
-2 5 14 14.733 27.081 10.328 54.071 o
-2 6 1 300.644 334.562 12.990 7.200 o
-2 6 2 266.345 282.951 13.038 8.372 o
-2 6 3 48.995 33.618 7.239 54.623 o
-2 6 4 0.713 3.506 3.103 608.482 o
-2 6 5 140.738 136.343 3.884 22.619 o
-2 6 6 208.249 180.753 9.463 13.001 o
-2 6 7 0.004 -1.092 3.780 543.933 o
-2 6 8 17.828 17.626 5.019 129.383 o
-2 6 9 67.698 53.017 5.211 48.665 o
-2 6 10 9.217 6.462 6.629 129.575 o
-2 6 11 20.163 12.645 7.042 92.239 o
-2 6 12 24.375 24.493 7.472 74.509 o
-2 6 13 1.099 2.047 7.614 128.111 o
-2 7 1 123.139 136.570 8.788 20.813 o
-2 7 2 3.014 2.755 3.542 428.165 o
-2 7 3 0.612 6.204 3.018 561.345 o
-2 7 4 98.372 85.438 4.704 33.764 o
-2 7 5 4.333 3.277 3.282 422.090 o
-2 7 6 35.653 29.862 4.037 92.216 o
-2 7 7 6.543 -3.789 5.298 213.279 o
-2 7 8 272.871 279.060 12.829 8.319 o
-2 7 9 41.226 42.517 6.249 62.628 o
-2 7 10 0.091 6.949 6.564 163.165 o
-2 7 11 31.862 46.747 7.983 56.186 o
-2 8 1 54.953 66.363 6.181 48.142 o
-2 8 2 38.220 35.997 5.636 72.110 o
-2 8 3 35.494 28.739 7.185 65.544 o
-2 8 4 22.233 23.055 5.536 103.359 o
-2 8 5 106.061 119.475 10.873 21.084 o
-2 8 6 0.755 5.164 9.494 82.351 o
-2 8 7 29.420 20.655 9.558 53.919 o
-2 8 8 7.795 8.871 6.901 122.623 o
-2 8 9 1.136 -5.260 7.377 139.141 o
-2 8 10 2.544 8.227 7.383 123.311 o
-2 9 1 0.734 -2.528 6.463 182.030 o
-2 9 2 8.867 15.139 8.403 84.583 o
-2 9 3 7.771 3.889 6.241 151.129 o
-2 9 4 16.071 6.190 10.392 58.495 o
-2 9 5 3.297 5.613 10.424 66.739 o
-2 9 6 4.065 3.336 10.424 67.014 o
-2 9 7 5.132 -6.190 10.649 64.803 o
-2 9 8 168.258 170.280 13.054 13.282 o
-2 9 9 33.912 50.933 11.354 37.105 o
-2 9 10 0.068 20.431 10.937 58.513 o
-2 10 1 28.176 41.037 7.199 66.355 o
-2 10 2 3.307 10.488 10.360 65.707 o
-2 11 1 26.545 37.077 11.579 40.004 o
-1 -11 1 73.946 79.745 6.934 36.759 o
-1 -11 2 8.215 4.506 6.659 134.479 o
-1 -11 3 27.023 30.278 10.392 47.353 o
-1 -11 4 18.154 22.452 10.745 50.461 o
-1 -10 1 0.454 -10.756 5.310 270.178 o
-1 -10 2 40.262 49.151 8.055 50.678 o
-1 -10 3 29.529 39.148 6.051 75.828 o
-1 -10 4 1.391 0.176 6.031 203.204 o
-1 -10 5 5.232 8.912 7.256 119.400 o
-1 -10 6 8.424 5.517 11.450 53.422 o
-1 -9 1 9.866 -0.441 6.481 142.154 o
-1 -9 2 1.056 0.959 4.741 318.163 o
-1 -9 3 205.306 213.514 8.686 12.686 o
-1 -9 4 27.773 29.215 5.488 89.771 o
-1 -9 5 0.278 2.410 5.500 241.843 o
-1 -9 6 21.530 17.480 10.392 52.595 o
-1 -9 7 19.675 5.517 10.360 56.917 o
-1 -8 1 143.943 145.245 4.932 21.161 o
-1 -8 2 87.857 88.159 4.267 36.830 o
-1 -8 3 83.467 97.780 4.367 36.559 o
-1 -8 4 7.935 4.685 4.189 252.680 o
-1 -8 5 65.085 77.050 8.114 36.487 o
-1 -8 6 0.004 -1.255 6.517 183.014 o
-1 -8 7 20.734 22.965 9.301 60.272 o
-1 -8 8 51.427 91.475 12.092 27.432 o
-1 -7 1 263.734 246.213 5.378 10.551 o
-1 -7 2 11.095 9.020 3.651 231.917 o
-1 -7 3 589.174 585.803 12.870 3.225 o
-1 -7 4 0.272 -0.065 5.474 256.419 o
-1 -7 5 32.574 28.998 3.936 98.986 o
-1 -7 6 17.066 22.575 6.076 104.869 o
-1 -7 7 40.980 38.858 5.093 71.974 o
-1 -7 8 14.203 14.914 11.082 51.474 o
-1 -7 9 108.491 101.977 7.858 25.808 o
-1 -7 10 11.462 24.496 7.820 84.389 o
-1 -6 1 1216.720 1259.900 18.359 1.022 o
-1 -6 2 157.756 146.767 6.231 18.969 o
-1 -6 3 1232.170 1259.960 27.637 0.955 o
-1 -6 4 170.836 164.221 8.516 15.980 o
-1 -6 5 203.685 195.926 6.304 14.017 o
-1 -6 6 43.130 32.726 4.529 76.771 o
-1 -6 7 176.704 168.720 5.187 17.003 o
-1 -6 8 8.232 14.359 4.529 192.206 o
-1 -6 9 20.361 18.914 4.821 124.512 o
-1 -6 10 29.735 40.286 7.139 65.898 o
-1 -6 11 12.317 14.955 12.092 45.209 o
-1 -5 1 2158.630 2152.860 28.084 0.388 o
-1 -5 2 1153.560 1182.420 22.209 1.094 o
-1 -5 3 819.352 772.452 15.955 2.001 o
-1 -5 4 232.314 221.810 8.976 11.316 o
-1 -5 5 12.063 7.713 2.651 281.342 o
-1 -5 6 111.670 122.613 5.566 26.433 o
-1 -5 7 0.168 -3.043 4.180 439.531 o
-1 -5 8 52.489 61.134 3.922 59.371 o
-1 -5 9 386.763 393.383 11.522 5.691 o
-1 -5 10 0.887 6.639 9.173 86.833 o
-1 -5 11 226.102 238.084 13.567 9.780 o
-1 -5 12 2.913 8.692 10.777 61.966 o
-1 -5 13 48.039 46.090 11.771 32.907 o
-1 -4 1 4466.230 4661.610 65.784 0.098 o
-1 -4 2 222.858 217.886 6.588 12.454 o
-1 -4 3 1302.650 1335.900 24.739 0.891 o
-1 -4 4 493.321 480.152 9.525 4.320 o
-1 -4 5 119.179 104.062 2.615 29.134 o
-1 -4 6 11.466 11.675 1.562 312.546 o
-1 -4 7 511.556 489.653 11.079 4.069 o
-1 -4 8 59.287 58.026 3.351 57.692 o
-1 -4 9 69.244 78.090 3.473 46.644 o
-1 -4 10 28.624 17.995 6.314 86.626 o
-1 -4 11 5.447 13.728 9.109 78.643 o
-1 -4 12 62.544 48.834 7.133 45.105 o
-1 -4 13 65.181 65.848 10.937 30.102 o
-1 -4 14 62.996 77.619 12.156 26.607 o
-1 -3 1 15.100 19.013 1.940 216.423 o
-1 -3 2 1595.650 1903.580 30.218 0.575 o
-1 -3 3 59.800 50.553 2.061 63.275 o
-1 -3 4 674.826 617.427 11.931 2.787 o
-1 -3 5 218.094 182.531 3.544 14.289 o
-1 -3 6 55.487 46.095 2.321 68.111 o
-1 -3 7 10.276 11.122 2.278 302.652 o
-1 -3 8 106.297 93.394 2.558 33.102 o
-1 -3 9 497.388 395.989 28.585 3.240 o
-1 -3 10 339.474 330.795 6.952 7.346 o
-1 -3 11 546.816 531.122 10.768 3.699 o
-1 -3 12 23.034 6.863 5.328 123.310 o
-1 -3 13 37.507 26.772 10.889 41.566 o
-1 -3 14 13.554 6.928 10.264 61.017 o
-1 -2 1 14435.900 15152.900 337.167 0.009 o
-1 -2 2 1253.290 1092.740 20.776 1.051 o
-1 -2 3 1713.700 1646.440 23.486 0.595 o
-1 -2 4 651.567 653.982 8.721 2.876 o
-1 -2 5 29.621 32.569 1.775 120.421 o
-1 -2 6 0.987 2.748 1.392 1571.350 o
-1 -2 7 587.037 484.695 15.463 3.400 o
-1 -2 8 252.934 204.695 13.438 9.544 o
-1 -2 9 66.306 56.673 5.073 48.894 o
-1 -2 10 16.293 14.352 2.432 212.717 o
-1 -2 11 177.174 181.794 5.107 16.517 o
-1 -2 12 383.398 356.351 8.837 6.232 o
-1 -2 13 18.418 18.351 6.507 98.998 o
-1 -2 14 28.965 34.832 11.290 41.013 o
-1 -1 1 672.640 767.217 13.026 2.489 o
-1 -1 2 19187.400 21586.300 364.866 0.005 o
-1 -1 3 4.639 12.466 0.967 520.800 o
-1 -1 4 91.078 147.926 2.581 30.389 o
-1 -1 5 26.864 45.068 2.355 108.163 o
-1 -1 6 868.580 915.956 27.567 1.559 o
-1 -1 7 12.943 11.899 2.097 268.704 o
-1 -1 8 113.258 122.550 2.860 28.366 o
-1 -1 9 289.045 280.320 6.694 9.077 o
-1 -1 10 833.568 832.907 12.367 1.944 o
-1 -1 11 324.629 323.988 5.724 7.826 o
-1 -1 12 133.053 138.580 5.552 22.391 o
-1 -1 13 10.631 8.950 6.134 135.980 o
-1 -1 14 25.076 32.812 10.809 45.180 o
-1 0 1 6669.800 7433.330 104.699 0.043 o
-1 0 2 230.241 355.420 4.146 10.017 o
-1 0 3 12785.900 15800.200 222.152 0.011 o
-1 0 4 565.032 502.303 7.335 3.786 o
-1 0 5 859.647 796.937 12.385 1.925 o
-1 0 6 1.877 6.828 1.085 978.457 o
-1 0 7 2.197 7.137 2.060 668.876 o
-1 0 8 131.856 126.856 3.216 24.783 o
-1 0 9 70.576 63.328 2.881 50.685 o
-1 0 10 58.355 58.359 3.184 58.676 o
-1 0 11 81.351 95.643 3.724 38.451 o
-1 0 12 295.599 336.534 7.139 8.171 o
-1 0 13 1.887 -7.842 6.559 171.120 o
-1 0 14 39.438 38.841 10.552 40.660 o
-1 0 15 2.751 3.368 11.322 58.072 o
-1 1 1 0.813 28.361 3.544 243.326 o
-1 1 2 20372.800 20814.900 247.053 0.005 o
-1 1 3 671.239 849.195 10.247 2.405 o
-1 1 4 9.256 4.979 1.211 468.346 o
-1 1 5 309.951 375.612 5.467 7.618 o
-1 1 6 3663.170 4025.410 51.643 0.138 o
-1 1 7 224.459 264.815 4.251 11.857 o
-1 1 8 281.869 257.874 14.155 8.045 o
-1 1 9 5.803 5.466 2.388 466.585 o
-1 1 10 278.868 286.670 5.083 9.481 o
-1 1 11 306.665 323.184 8.282 7.929 o
-1 1 12 987.949 1000.410 17.009 1.445 o
-1 1 13 2.422 2.933 4.646 292.793 o
-1 1 14 9.353 23.510 10.296 58.236 o
-1 1 15 23.615 41.632 11.514 40.503 o
-1 2 1 1287.120 1251.070 20.042 0.958 o
-1 2 2 579.212 546.461 8.435 3.527 o
-1 2 3 8049.400 8476.890 96.463 0.032 o
-1 2 4 1553.610 1798.540 23.360 0.629 o
-1 2 5 160.255 203.264 4.069 17.332 o
-1 2 6 109.394 113.531 3.413 29.586 o
-1 2 7 314.276 253.932 6.024 8.851 o
-1 2 8 422.272 430.344 10.181 5.180 o
-1 2 9 2.192 18.314 4.253 237.708 o
-1 2 10 185.443 214.373 6.665 14.394 o
-1 2 11 15.555 17.531 2.457 205.586 o
-1 2 12 3.953 7.932 4.592 248.825 o
-1 2 13 4.568 -2.425 5.747 200.007 o
-1 2 14 179.552 172.275 7.775 15.543 o
-1 2 15 7.252 -9.815 11.386 55.946 o
-1 2 16 13.653 8.917 12.252 44.773 o
-1 3 1 1380.560 1170.430 25.785 0.889 o
-1 3 2 106.749 110.770 2.189 31.236 o
-1 3 3 61.839 68.636 1.999 55.690 o
-1 3 4 4398.260 4520.390 49.949 0.104 o
-1 3 5 189.767 205.372 3.121 15.393 o
-1 3 6 1970.190 2160.090 30.773 0.426 o
-1 3 7 561.179 512.100 11.277 3.649 o
-1 3 8 2.712 8.694 2.507 507.048 o
-1 3 9 135.048 156.714 6.033 20.816 o
-1 3 10 173.000 204.042 6.376 15.563 o
-1 3 11 217.120 238.321 7.280 12.075 o
-1 3 12 520.476 538.819 18.320 3.470 o
-1 3 13 12.612 9.663 4.871 167.750 o
-1 3 14 58.652 53.822 5.270 52.838 o
-1 3 15 6.052 9.815 11.033 57.223 o
-1 3 16 43.632 45.192 12.701 30.865 o
-1 4 1 372.035 313.163 6.626 6.945 o
-1 4 2 1302.360 1195.180 15.637 0.988 o
-1 4 3 935.296 909.133 11.985 1.654 o
-1 4 4 1671.440 1542.330 21.970 0.637 o
-1 4 5 0.369 -3.933 1.099 4634.250 o
-1 4 6 0.109 -1.268 2.102 1705.230 o
-1 4 7 695.939 678.441 10.945 2.606 o
-1 4 8 140.435 150.719 4.199 21.641 o
-1 4 9 10.832 10.604 2.786 271.346 o
-1 4 10 148.396 143.166 6.673 19.728 o
-1 4 11 0.145 -2.764 9.125 93.148 o
-1 4 12 0.496 -2.739 6.222 197.581 o
-1 4 13 27.535 35.010 5.226 88.842 o
-1 4 14 81.744 83.319 6.023 36.131 o
-1 4 15 11.530 3.128 8.965 79.924 o
-1 5 1 592.374 551.536 13.200 3.286 o
-1 5 2 99.314 93.876 2.949 34.472 o
-1 5 3 0.568 -10.060 3.027 786.598 o
-1 5 4 3332.840 3132.440 49.281 0.180 o
-1 5 5 87.138 71.171 2.505 42.239 o
-1 5 6 116.170 129.465 3.991 26.517 o
-1 5 7 40.742 39.256 3.498 82.482 o
-1 5 8 99.931 83.240 3.735 34.885 o
-1 5 9 380.803 423.483 13.388 5.400 o
-1 5 10 64.896 77.778 4.583 46.134 o
-1 5 11 54.143 65.907 5.021 52.922 o
-1 5 12 48.889 46.617 6.793 53.445 o
-1 5 13 15.550 13.488 7.108 97.678 o
-1 5 14 112.327 105.906 8.451 24.218 o
-1 5 15 31.991 50.987 9.702 45.198 o
-1 6 1 7.147 -12.962 10.007 71.118 o
-1 6 2 1379.020 1426.400 22.963 0.818 o
-1 6 3 37.745 29.516 4.928 81.816 o
-1 6 4 1452.830 1375.500 22.054 0.791 o
-1 6 5 1042.130 1038.270 27.948 1.237 o
-1 6 6 352.433 350.032 7.253 6.911 o
-1 6 7 489.701 505.254 10.198 4.217 o
-1 6 8 1.886 1.399 4.038 396.552 o
-1 6 9 4.333 6.624 3.724 328.385 o
-1 6 10 38.176 48.143 4.059 76.811 o
-1 6 11 3.633 -4.025 6.499 165.808 o
-1 6 12 17.136 6.686 6.957 103.586 o
-1 6 13 17.285 10.488 10.745 53.675 o
-1 6 14 3.550 1.155 11.418 57.304 o
-1 7 1 3.460 9.943 6.703 139.411 o
-1 7 2 87.308 110.286 6.992 29.981 o
-1 7 3 96.336 102.465 9.523 25.098 o
-1 7 4 251.422 229.231 4.925 11.381 o
-1 7 5 346.272 319.227 7.110 7.312 o
-1 7 6 1.747 2.276 2.747 692.468 o
-1 7 7 161.771 125.609 3.760 20.871 o
-1 7 8 88.969 102.953 4.023 34.826 o
-1 7 9 134.404 123.357 8.634 20.493 o
-1 7 10 14.952 18.793 5.299 129.793 o
-1 7 11 16.346 13.834 6.465 107.732 o
-1 7 12 53.742 65.880 11.675 30.206 o
-1 7 13 34.800 52.826 12.124 33.765 o
-1 8 1 0.359 51.806 33.774 6.615 o
-1 8 2 499.279 513.945 22.035 3.421 o
-1 8 3 23.566 29.967 3.658 120.451 o
-1 8 4 94.899 98.736 3.680 34.245 o
-1 8 5 244.518 242.740 6.930 11.004 o
-1 8 6 525.167 479.205 13.137 3.908 o
-1 8 7 158.385 156.167 11.322 15.256 o
-1 8 8 16.976 2.021 9.205 71.930 o
-1 8 9 0.554 0.065 6.618 174.486 o
-1 8 10 0.425 3.671 6.950 151.852 o
-1 8 11 8.092 31.707 9.766 61.375 o
-1 9 1 1.740 0.571 4.869 295.678 o
-1 9 2 22.488 17.053 5.848 103.619 o
-1 9 3 11.657 -3.677 4.835 202.452 o
-1 9 4 0.011 4.927 6.049 195.550 o
-1 9 5 379.397 431.507 10.070 5.677 o
-1 9 6 21.506 11.615 7.217 88.454 o
-1 9 7 74.277 64.742 7.461 37.433 o
-1 9 8 4.382 14.914 10.328 63.759 o
-1 9 9 4.985 -0.321 10.232 69.992 o
-1 9 10 21.017 11.418 10.584 52.866 o
-1 9 11 32.118 27.680 10.616 44.627 o
-1 10 1 0.828 9.314 5.769 192.908 o
-1 10 2 36.569 62.352 9.686 41.664 o
-1 10 3 1.111 7.602 6.994 140.833 o
-1 10 4 36.160 47.117 11.290 37.277 o
-1 10 5 6.700 16.775 11.322 52.630 o
-1 10 6 9.454 12.541 11.386 51.824 o
-1 10 7 17.568 26.076 8.029 74.230 o
-1 10 8 15.364 20.752 11.643 45.932 o
-1 10 9 0.014 -15.909 11.771 56.093 o
-1 10 10 0.004 -6.479 11.803 55.794 o
-1 11 1 0.001 8.403 10.969 61.844 o
0 -11 1 1.782 -1.190 7.946 118.834 o
0 -10 1 26.780 36.312 5.973 81.210 o
0 -10 2 3.502 2.129 6.033 184.078 o
0 -10 3 3.028 2.771 6.027 185.216 o
0 -10 4 0.002 -2.887 6.191 202.823 o
0 -10 5 85.918 91.452 8.320 29.715 o
0 -10 6 1.283 -4.041 11.867 54.562 o
0 -9 1 9.127 6.750 5.263 177.395 o
0 -9 2 9.739 11.606 5.008 172.010 o
0 -9 3 70.794 73.242 8.267 35.085 o
0 -9 4 11.696 8.701 5.546 150.856 o
0 -9 5 5.011 1.242 6.717 148.546 o
0 -9 6 10.398 22.344 7.671 89.405 o
0 -9 7 66.787 59.112 11.226 29.681 o
0 -8 1 91.640 97.779 4.217 34.558 o
0 -8 2 36.310 48.898 3.614 81.283 o
0 -8 3 2.529 9.003 3.512 364.220 o
0 -8 4 18.658 15.461 3.794 158.821 o
0 -8 5 250.991 269.772 6.079 10.470 o
0 -8 6 22.743 21.419 4.828 115.241 o
0 -8 7 206.515 203.957 12.092 11.503 o
0 -8 8 11.781 14.000 7.778 91.579 o
0 -8 9 50.191 55.071 11.098 33.696 o
0 -7 1 17.707 1.903 3.427 216.107 o
0 -7 2 3.478 1.355 3.057 530.509 o
0 -7 3 261.785 280.219 4.977 10.110 o
0 -7 4 24.333 15.873 3.205 147.224 o
0 -7 5 47.903 49.655 3.498 69.200 o
0 -7 6 151.342 130.801 6.961 19.839 o
0 -7 7 3.453 -0.679 5.872 199.898 o
0 -7 8 106.843 104.623 6.509 27.638 o
0 -7 9 20.853 22.970 7.240 81.792 o
0 -7 10 110.287 103.986 17.593 14.036 o
0 -6 1 370.402 400.929 7.714 6.191 o
0 -6 2 6.232 -2.066 3.173 430.720 o
0 -6 3 137.051 112.593 3.911 24.673 o
0 -6 4 155.057 154.632 3.845 20.027 o
0 -6 5 446.872 481.349 18.860 4.065 o
0 -6 6 160.795 148.120 14.958 12.914 o
0 -6 7 710.483 748.679 12.560 2.402 o
0 -6 8 18.195 10.978 3.101 191.777 o
0 -6 9 11.726 16.675 4.962 153.303 o
0 -6 10 0.992 3.012 7.249 139.487 o
0 -6 11 14.699 5.136 9.366 70.605 o
0 -5 1 660.527 655.750 9.973 2.810 o
0 -5 2 2073.060 1951.040 31.244 0.426 o
0 -5 3 0.602 -6.947 2.323 1261.600 o
0 -5 4 18.759 7.604 2.451 219.450 o
0 -5 5 513.802 492.075 8.108 4.168 o
0 -5 6 164.686 183.201 4.897 17.483 o
0 -5 7 20.693 19.577 2.565 166.559 o
0 -5 8 1162.610 1218.860 16.341 1.102 o
0 -5 9 53.319 50.302 4.618 59.809 o
0 -5 10 459.879 466.353 15.203 4.305 o
0 -5 11 126.469 135.461 8.171 21.119 o
0 -5 12 86.386 70.612 7.822 32.762 o
0 -5 13 5.967 4.073 11.226 57.036 o
0 -4 1 73.256 77.630 3.253 45.408 o
0 -4 2 988.864 957.788 11.812 1.520 o
0 -4 3 237.347 208.564 5.493 12.281 o
0 -4 4 0.076 -3.965 1.818 2286.000 o
0 -4 5 30.685 22.910 3.583 112.702 o
0 -4 6 284.700 269.503 4.762 9.598 o
0 -4 7 986.477 964.611 14.048 1.501 o
0 -4 8 205.321 212.586 4.627 13.938 o
0 -4 9 183.597 184.508 4.464 16.179 o
0 -4 10 78.664 73.752 4.573 41.555 o
0 -4 11 8.067 9.448 4.952 189.501 o
0 -4 12 1.163 3.688 9.686 79.595 o
0 -4 13 7.071 9.590 10.328 63.741 o
0 -4 14 70.527 78.838 11.707 26.415 o
0 -3 1 379.223 359.759 7.541 6.377 o
0 -3 2 2171.750 2062.040 29.327 0.394 o
0 -3 3 15.156 18.367 2.214 211.805 o
0 -3 4 0.236 4.331 1.469 1489.750 o
0 -3 5 940.634 898.952 11.093 1.661 o
0 -3 6 706.601 677.490 8.449 2.610 o
0 -3 7 48.504 45.960 2.404 74.722 o
0 -3 8 1589.920 1607.520 25.644 0.649 o
0 -3 9 13.814 2.972 4.182 208.547 o
0 -3 10 1617.510 1600.020 30.202 0.626 o
0 -3 11 132.527 125.922 5.613 23.191 o
0 -3 12 177.720 172.629 7.594 15.736 o
0 -3 13 18.956 43.813 9.783 51.803 o
0 -3 14 51.906 63.731 10.520 34.198 o
0 -2 1 102.194 132.447 5.538 27.206 o
0 -2 2 2903.260 2752.050 43.412 0.230 o
0 -2 3 1243.560 1210.560 19.268 1.015 o
0 -2 4 44.920 36.330 1.558 87.964 o
0 -2 5 22.857 46.645 1.949 118.528 o
0 -2 6 110.470 78.776 2.189 34.135 o
0 -2 7 822.992 737.781 19.802 1.964 o
0 -2 8 2136.370 2125.960 48.149 0.367 o
0 -2 9 277.032 276.735 8.445 9.161 o
0 -2 10 26.684 15.028 5.374 104.989 o
0 -2 11 76.580 77.343 5.035 40.690 o
0 -2 12 62.456 64.439 4.411 50.887 o
0 -2 13 56.866 64.442 4.746 52.795 o
0 -2 14 142.366 138.695 8.174 19.401 o
0 -1 1 1.273 24.551 1.482 394.871 o
0 -1 2 1.019 17.349 1.690 507.516 o
0 -1 3 6370.030 6773.520 95.920 0.049 o
0 -1 4 661.875 583.973 8.607 2.990 o
0 -1 5 166.913 115.136 7.317 18.883 o
0 -1 6 238.159 233.230 4.560 11.895 o
0 -1 7 261.169 267.971 8.949 9.622 o
0 -1 8 234.834 223.161 6.225 11.916 o
0 -1 9 118.285 105.437 4.855 27.451 o
0 -1 10 2616.010 2393.030 157.537 0.153 o
0 -1 11 19.630 22.070 2.713 162.953 o
0 -1 12 154.438 157.677 5.876 18.976 o
0 -1 13 9.899 5.910 5.008 186.611 o
0 -1 14 0.200 3.543 6.612 168.150 o
0 -1 15 33.963 43.877 11.996 35.418 o
0 0 2 2689.520 2978.250 93.784 0.198 o
0 0 3 2446.780 2415.060 44.048 0.301 o
0 0 4 224.973 226.728 4.682 12.593 o
0 0 5 379.511 370.829 9.694 6.107 o
0 0 6 469.964 442.289 8.652 4.731 o
0 0 7 67.720 61.349 2.878 52.757 o
0 0 8 368.535 330.745 6.039 6.899 o
0 0 9 10.637 12.595 2.489 276.267 o
0 0 10 1461.320 1464.410 20.464 0.766 o
0 0 11 429.973 446.057 10.684 4.983 o
0 0 12 155.612 151.074 3.992 20.090 o
0 0 13 266.577 283.493 9.279 9.190 o
0 0 14 85.787 88.304 7.858 30.931 o
0 0 15 0.100 -12.605 11.226 61.620 o
0 1 2 758.771 671.991 12.722 2.367 o
0 1 3 16371.600 17972.000 281.516 0.007 o
0 1 4 436.498 513.147 6.772 4.797 o
0 1 5 245.619 185.932 3.787 12.738 o
0 1 6 36.156 41.638 2.374 93.937 o
0 1 7 42.411 46.607 2.630 80.395 o
0 1 8 796.864 791.799 18.892 1.979 o
0 1 9 238.140 247.884 7.032 11.120 o
0 1 10 653.732 713.311 14.011 2.631 o
0 1 11 332.065 342.699 8.138 7.251 o
0 1 12 52.865 55.852 3.807 61.389 o
0 1 13 160.688 143.380 6.171 18.893 o
0 1 14 92.252 101.321 11.194 23.103 o
0 1 15 7.696 16.390 11.450 51.249 o
0 2 0 30336.100 31803.200 577.275 0.002 o
0 2 1 577.960 615.660 13.993 3.167 o
0 2 2 6494.340 6880.630 88.575 0.048 o
0 2 3 508.108 518.285 7.590 4.129 o
0 2 4 49.571 64.622 1.753 66.527 o
0 2 5 628.328 675.990 10.602 2.891 o
0 2 6 53.454 65.961 2.333 61.639 o
0 2 7 62.954 61.010 1.797 57.731 o
0 2 8 175.980 151.425 5.147 17.751 o
0 2 9 0.908 0.807 2.677 879.510 o
0 2 10 2314.400 2399.670 53.793 0.309 o
0 2 11 1166.060 1167.120 25.366 1.067 o
0 2 12 96.381 105.049 4.879 31.714 o
0 2 13 82.087 91.841 16.887 16.484 o
0 2 14 55.712 54.340 8.933 39.849 o
0 2 15 11.763 11.579 10.969 54.327 o
0 2 16 3.663 3.175 12.156 50.318 o
0 3 0 3420.400 3481.110 63.424 0.159 o
0 3 1 3294.140 3439.110 62.763 0.167 o
0 3 2 749.347 691.516 10.028 2.411 o
0 3 3 1901.640 1936.190 24.974 0.481 o
0 3 4 172.915 201.250 5.175 16.109 o
0 3 5 296.560 355.412 14.111 6.899 o
0 3 6 91.751 85.149 2.416 38.359 o
0 3 7 141.213 126.319 3.202 23.530 o
0 3 8 329.808 306.704 5.510 7.919 o
0 3 9 487.869 448.396 14.012 4.240 o
0 3 10 43.412 39.990 3.966 76.103 o
0 3 11 683.115 657.287 11.634 2.681 o
0 3 12 6.753 2.665 2.208 509.724 o
0 3 13 226.189 202.023 9.647 11.714 o
0 3 14 150.095 155.847 11.963 15.300 o
0 3 15 26.361 28.931 11.482 41.757 o
0 3 16 4.096 -3.368 12.509 48.072 o
0 4 0 149.807 220.097 6.677 16.455 o
0 4 1 5875.930 6171.640 112.304 0.056 o
0 4 2 2350.350 2343.670 30.389 0.333 o
0 4 3 1932.620 1826.990 25.990 0.486 o
0 4 4 23.228 25.530 1.764 153.201 o
0 4 5 835.577 785.943 16.994 1.929 o
0 4 6 266.464 245.988 4.370 10.602 o
0 4 7 429.421 434.695 6.829 5.278 o
0 4 8 918.899 880.463 12.909 1.704 o
0 4 9 101.163 113.125 3.566 31.200 o
0 4 10 161.419 157.296 5.971 18.332 o
0 4 11 380.056 357.444 7.148 6.413 o
0 4 12 14.496 14.136 5.558 131.806 o
0 4 13 10.333 8.829 8.142 91.066 o
0 4 14 27.175 36.083 10.841 43.680 o
0 4 15 16.517 5.196 11.771 47.576 o
0 4 16 0.435 8.275 12.829 45.607 o
0 5 0 3114.570 3054.490 48.359 0.198 o
0 5 1 1745.350 1679.030 34.534 0.550 o
0 5 2 1047.000 962.373 15.723 1.398 o
0 5 3 992.712 915.016 14.900 1.524 o
0 5 4 137.780 125.447 3.151 24.077 o
0 5 5 696.672 748.261 11.676 2.465 o
0 5 6 1.275 1.601 1.809 1313.800 o
0 5 7 29.729 15.111 2.989 133.243 o
0 5 8 8.294 3.606 3.197 335.015 o
0 5 9 345.111 353.134 6.888 7.044 o
0 5 10 219.908 242.058 6.427 12.098 o
0 5 11 796.311 821.549 19.484 1.935 o
0 5 12 71.916 52.492 4.810 48.032 o
0 5 13 128.232 120.758 7.378 22.495 o
0 5 14 55.368 59.561 11.386 31.299 o
0 5 15 47.193 28.674 12.220 33.359 o
0 5 16 2.996 4.330 13.118 43.502 o
0 6 0 223.225 157.323 5.410 14.273 o
0 6 1 2208.220 2222.080 41.232 0.356 o
0 6 2 61.683 43.983 4.554 56.648 o
0 6 3 1744.390 1758.700 28.196 0.553 o
0 6 4 269.363 232.631 4.829 10.673 o
0 6 5 62.556 56.516 2.734 57.653 o
0 6 6 240.583 203.478 4.051 12.522 o
0 6 7 248.839 269.776 7.306 10.313 o
0 6 8 183.140 197.214 5.866 15.326 o
0 6 9 0.773 -1.419 4.321 395.481 o
0 6 10 12.271 14.090 5.108 151.858 o
0 6 11 47.846 37.086 5.980 61.439 o
0 6 12 71.002 65.577 6.458 41.085 o
0 6 13 16.929 21.303 6.658 96.570 o
0 6 14 0.962 4.522 11.386 58.114 o
0 6 15 0.364 2.662 11.098 62.030 o
0 7 0 1329.000 1236.160 10.680 0.964 o
0 7 1 434.320 427.739 12.203 4.922 o
0 7 2 21.772 2.200 5.802 122.432 o
0 7 3 1933.030 1727.330 82.923 0.358 o
0 7 4 178.685 168.588 3.576 17.392 o
0 7 5 187.965 160.854 3.697 16.941 o
0 7 6 32.083 22.214 2.214 124.375 o
0 7 7 0.601 -0.855 2.280 1303.630 o
0 7 8 0.013 -0.328 2.054 1835.910 o
0 7 9 151.461 137.784 4.374 21.046 o
0 7 10 11.062 4.889 3.654 252.507 o
0 7 11 213.383 195.279 5.601 13.724 o
0 7 12 8.690 -0.187 5.305 197.798 o
0 7 13 150.978 162.294 12.701 14.551 o
0 7 14 62.060 84.996 12.477 25.539 o
0 8 0 57.284 57.363 3.920 57.445 o
0 8 1 89.898 81.148 6.380 33.630 o
0 8 2 1.170 -18.200 5.026 290.635 o
0 8 3 848.660 818.451 21.869 1.782 o
0 8 4 477.551 538.759 10.057 4.188 o
0 8 5 93.807 47.750 3.337 43.010 o
0 8 6 70.047 71.230 2.950 48.845 o
0 8 7 21.396 14.365 1.826 190.310 o
0 8 8 2.400 -7.850 4.235 370.287 o
0 8 9 22.546 22.437 4.282 123.578 o
0 8 10 15.644 26.008 5.275 118.809 o
0 8 11 22.672 9.760 9.221 64.161 o
0 8 12 30.923 28.072 7.159 69.823 o
0 9 0 202.966 170.390 8.434 13.947 o
0 9 1 1.894 -6.067 4.816 303.602 o
0 9 2 93.383 123.350 7.141 27.484 o
0 9 3 81.706 94.136 5.129 36.332 o
0 9 4 0.727 -6.505 4.118 434.693 o
0 9 5 27.452 21.156 4.103 115.564 o
0 9 6 10.405 7.510 3.931 230.388 o
0 9 7 2.687 8.050 6.893 138.540 o
0 9 8 11.299 5.049 6.848 120.055 o
0 9 9 1.258 15.941 9.654 73.990 o
0 9 10 9.927 16.582 9.975 63.126 o
0 9 11 107.316 124.575 9.638 22.207 o
0 10 0 37.221 44.418 5.596 69.427 o
0 10 1 119.662 145.931 13.888 15.821 o
0 10 2 0.381 -4.978 7.313 144.051 o
0 10 3 244.063 251.745 25.114 5.986 o
0 10 4 52.991 59.238 5.643 52.983 o
0 10 5 29.915 18.419 7.288 73.991 o
0 10 6 36.935 51.336 13.583 28.817 o
0 10 7 0.079 -7.193 7.388 142.133 o
0 10 8 0.256 -2.109 7.687 130.813 o
0 10 9 27.370 34.062 11.098 42.606 o
0 10 10 0.548 -26.429 11.386 59.637 o
0 10 11 2.631 16.775 11.386 54.045 o
0 11 0 1.136 2.372 7.605 127.868 o
0 11 1 14.222 14.177 10.584 55.612 o
0 11 2 4.991 11.579 10.167 66.297 o
0 11 3 15.989 20.367 9.879 58.955 o
0 11 4 147.887 182.628 14.401 13.085 o
0 11 5 2.672 -4.779 11.130 61.074 o
0 11 6 64.988 83.328 12.252 25.729 o
0 12 1 63.448 74.219 12.669 25.660 o
1 -11 0 7.969 -0.770 11.226 57.055 o
1 -11 1 12.278 0.802 11.739 50.425 o
1 -10 0 5.283 6.195 5.874 171.730 o
1 -10 1 0.018 -0.029 6.128 206.845 o
1 -10 2 0.756 -13.554 6.311 190.551 o
1 -10 3 65.767 72.486 6.808 40.687 o
1 -10 4 0.012 -13.838 8.104 118.328 o
1 -10 5 43.038 58.727 12.605 30.071 o
1 -9 0 1.044 4.762 4.392 328.509 o
1 -9 1 3.465 9.154 5.081 215.120 o
1 -9 2 13.221 15.144 7.606 91.545 o
1 -9 3 77.298 82.167 7.512 34.221 o
1 -9 4 29.140 24.470 7.552 69.344 o
1 -9 5 33.283 27.561 5.969 78.789 o
1 -9 6 156.171 157.491 8.635 17.165 o
1 -9 7 27.465 32.405 7.645 66.600 o
1 -9 8 65.505 63.763 11.514 28.782 o
1 -8 0 28.956 36.723 4.068 97.246 o
1 -8 1 108.948 125.358 4.085 28.023 o
1 -8 2 0.281 -4.548 4.969 310.376 o
1 -8 3 46.298 42.769 4.890 66.688 o
1 -8 4 212.276 203.984 7.057 13.133 o
1 -8 5 19.175 11.502 5.475 124.250 o
1 -8 6 76.613 76.846 6.395 37.691 o
1 -8 7 46.293 51.096 6.706 54.075 o
1 -8 8 29.925 17.391 6.906 78.567 o
1 -8 9 13.266 6.800 10.584 58.176 o
1 -7 0 11.931 8.739 5.489 151.727 o
1 -7 1 22.119 23.649 3.290 139.716 o
1 -7 2 149.131 151.662 4.176 20.647 o
1 -7 3 312.250 313.946 5.411 8.238 o
1 -7 4 7.187 4.005 2.729 403.737 o
1 -7 5 42.333 40.725 4.151 75.756 o
1 -7 6 171.157 164.318 4.337 17.933 o
1 -7 7 48.044 32.106 5.144 68.261 o
1 -7 8 6.285 10.949 6.192 145.335 o
1 -7 9 11.887 13.221 7.242 101.670 o
1 -7 10 1.042 -7.056 10.456 70.247 o
1 -6 0 20.020 10.001 5.372 126.244 o
1 -6 1 0.651 22.103 10.532 61.694 o
1 -6 2 0.175 0.283 2.810 936.863 o
1 -6 3 4.651 0.498 2.752 561.784 o
1 -6 4 1937.130 1966.030 20.965 0.472 o
1 -6 5 81.719 59.721 3.096 45.886 o
1 -6 6 871.857 856.224 37.002 1.423 o
1 -6 7 61.831 43.008 3.915 59.207 o
1 -6 8 264.681 269.578 6.475 9.964 o
1 -6 9 134.974 115.953 5.761 23.398 o
1 -6 10 24.930 25.610 7.145 76.902 o
1 -6 11 5.046 -5.369 7.676 118.916 o
1 -5 0 9.095 -6.120 3.065 368.822 o
1 -5 1 193.286 163.077 3.360 16.550 o
1 -5 2 20.732 16.123 2.680 172.802 o
1 -5 3 920.871 872.330 13.001 1.707 o
1 -5 4 2.035 4.348 2.288 732.673 o
1 -5 5 4.696 -2.485 2.290 691.220 o
1 -5 6 131.407 103.347 10.090 20.299 o
1 -5 7 694.027 657.097 10.969 2.653 o
1 -5 8 74.053 61.425 3.764 47.631 o
1 -5 9 92.429 90.815 4.284 35.172 o
1 -5 10 11.576 -2.089 7.185 116.842 o
1 -5 11 9.657 4.041 6.976 122.007 o
1 -5 12 4.671 15.426 8.179 93.814 o
1 -4 0 370.136 302.720 10.068 6.719 o
1 -4 1 551.234 559.531 7.766 3.678 o
1 -4 2 3.182 -5.961 2.140 899.610 o
1 -4 3 41.604 33.688 2.369 91.614 o
1 -4 4 705.078 632.830 10.506 2.666 o
1 -4 5 36.785 21.207 1.908 115.802 o
1 -4 6 3781.230 3782.220 69.436 0.133 o
1 -4 7 229.849 194.891 3.717 13.298 o
1 -4 8 338.517 334.267 6.231 7.398 o
1 -4 9 379.897 356.872 9.412 6.227 o
1 -4 10 58.944 51.556 5.204 53.553 o
1 -4 11 24.268 21.992 5.271 104.461 o
1 -4 12 123.858 132.242 8.119 21.620 o
1 -4 13 20.744 23.909 7.767 75.147 o
1 -4 14 28.017 25.884 11.803 40.108 o
1 -3 0 27.871 28.512 2.527 124.374 o
1 -3 1 52.738 25.631 1.881 83.515 o
1 -3 2 42.736 32.168 1.962 92.958 o
1 -3 3 932.945 863.031 14.887 1.674 o
1 -3 4 389.280 427.614 5.956 5.857 o
1 -3 5 0.238 -1.818 1.244 4201.890 o
1 -3 6 513.472 499.252 8.059 4.144 o
1 -3 7 1480.670 1490.280 20.502 0.747 o
1 -3 8 113.751 116.647 3.101 28.672 o
1 -3 9 472.011 479.361 8.078 4.569 o
1 -3 10 286.562 310.429 6.566 8.769 o
1 -3 11 15.815 8.202 4.289 175.524 o
1 -3 12 58.512 64.418 5.481 49.434 o
1 -3 13 47.159 62.408 9.366 39.620 o
1 -3 14 66.369 54.012 10.809 31.328 o
1 -3 15 52.962 74.507 11.996 28.755 o
1 -2 0 34.921 32.409 2.173 105.773 o
1 -2 1 523.564 477.941 6.514 4.199 o
1 -2 2 199.719 218.564 3.602 14.299 o
1 -2 3 1116.460 1054.330 13.731 1.258 o
1 -2 4 6.105 5.968 1.353 575.598 o
1 -2 5 1128.040 1147.020 13.982 1.189 o
1 -2 6 563.158 498.805 7.638 3.802 o
1 -2 7 29.892 17.712 2.146 138.730 o
1 -2 8 445.248 391.263 9.092 5.216 o
1 -2 9 204.952 186.499 6.103 14.271 o
1 -2 10 16.316 6.962 2.551 241.109 o
1 -2 11 23.608 16.321 4.641 122.643 o
1 -2 12 128.443 112.758 5.748 24.498 o
1 -2 13 89.645 100.276 6.951 30.576 o
1 -2 14 55.477 57.027 10.039 35.700 o
1 -2 15 1.691 6.671 10.296 69.139 o
1 -1 0 552.129 698.832 22.083 2.769 o
1 -1 1 346.310 393.171 9.379 6.458 o
1 -1 2 533.361 424.694 5.283 4.370 o
1 -1 3 1594.960 1304.780 18.598 0.741 o
1 -1 4 2778.300 2456.290 27.188 0.268 o
1 -1 5 174.049 247.801 4.047 14.854 o
1 -1 6 221.658 201.953 3.167 13.627 o
1 -1 7 2389.120 2392.160 33.688 0.321 o
1 -1 8 126.596 106.082 3.685 26.941 o
1 -1 9 1035.800 1085.120 31.160 1.182 o
1 -1 10 524.362 485.276 12.528 3.923 o
1 -1 11 62.296 72.615 7.826 38.744 o
1 -1 12 222.309 204.407 10.713 11.443 o
1 -1 13 53.921 53.254 6.450 50.686 o
1 -1 14 160.261 157.777 8.142 17.164 o
1 -1 15 94.177 106.062 8.100 27.368 o
1 0 0 113.814 81.468 3.047 32.357 o
1 0 1 5140.800 4855.310 249.711 0.050 o
1 0 2 111.490 171.092 2.940 24.664 o
1 0 3 3.226 -8.818 1.371 1296.290 o
1 0 4 2665.490 2703.410 34.872 0.262 o
1 0 5 1540.060 1576.710 22.301 0.689 o
1 0 6 110.156 56.170 2.236 37.313 o
1 0 7 1889.120 1819.040 59.782 0.422 o
1 0 8 0.291 1.938 2.849 799.707 o
1 0 9 179.744 191.317 4.986 16.045 o
1 0 10 145.105 139.395 4.549 21.571 o
1 0 11 197.362 184.047 4.980 15.136 o
1 0 12 5.891 3.964 2.633 456.423 o
1 0 13 145.688 138.413 8.418 18.927 o
1 0 14 160.580 168.356 7.966 16.859 o
1 0 15 70.580 76.143 12.252 25.463 o
1 1 0 1078.060 1015.780 32.138 1.164 o
1 1 2 68.802 204.311 29.588 6.849 o
1 1 3 919.613 1132.070 24.471 1.370 o
1 1 4 5551.760 5668.730 105.274 0.063 o
1 1 5 2520.740 2463.410 34.675 0.296 o
1 1 6 839.802 968.017 14.028 1.763 o
1 1 7 3609.140 3437.010 48.120 0.155 o
1 1 8 490.327 466.567 8.141 4.462 o
1 1 9 2939.780 2916.660 48.861 0.217 o
1 1 10 37.591 29.816 3.379 94.638 o
1 1 11 156.644 183.239 4.972 18.107 o
1 1 12 278.167 256.614 6.074 9.813 o
1 1 13 0.127 -0.007 4.920 319.034 o
1 1 14 43.099 57.100 7.883 48.390 o
1 1 15 72.876 89.069 12.252 24.347 o
1 2 0 4.428 53.026 12.669 38.630 o
1 2 1 4407.750 4941.380 94.455 0.090 o
1 2 2 215.793 263.931 4.571 12.192 o
1 2 3 182.799 221.153 5.018 14.880 o
1 2 4 2058.880 1998.580 31.713 0.423 o
1 2 5 69.315 60.611 2.446 52.896 o
1 2 6 2076.740 1997.240 28.360 0.423 o
1 2 7 1017.400 954.972 13.990 1.461 o
1 2 8 786.334 825.765 12.498 2.069 o
1 2 9 662.327 575.398 29.522 2.298 o
1 2 10 617.209 621.104 11.615 3.040 o
1 2 11 1146.230 1129.620 27.505 1.086 o
1 2 12 628.254 640.570 12.130 2.931 o
1 2 13 151.722 151.819 5.142 19.900 o
1 2 14 89.431 82.634 7.119 32.177 o
1 2 15 90.088 94.618 11.707 22.932 o
1 2 16 9.162 27.102 11.963 44.998 o
1 3 0 1223.130 1296.360 18.558 0.999 o
1 3 1 220.503 315.239 8.470 10.244 o
1 3 2 0.824 -0.686 2.233 1287.880 o
1 3 3 206.525 223.749 4.481 13.609 o
1 3 4 205.709 174.464 3.368 15.313 o
1 3 5 24.442 31.660 2.059 134.541 o
1 3 6 34.377 26.811 2.283 112.243 o
1 3 7 1068.580 1067.260 17.427 1.286 o
1 3 8 63.273 68.172 2.518 54.060 o
1 3 9 3843.650 3635.000 51.006 0.139 o
1 3 10 28.029 17.440 2.147 145.902 o
1 3 11 42.080 34.909 1.638 93.112 o
1 3 12 6.414 6.011 3.670 303.988 o
1 3 13 64.644 52.870 4.659 52.007 o
1 3 14 4.717 -2.370 6.879 145.691 o
1 3 15 71.822 91.282 12.188 24.460 o
1 3 16 68.385 97.729 13.535 22.077 o
1 4 0 18.355 12.791 2.817 192.969 o
1 4 1 22.612 30.646 3.821 119.762 o
1 4 2 23.158 16.218 2.724 160.016 o
1 4 3 5.404 11.243 2.077 420.092 o
1 4 4 0.572 5.475 1.960 963.817 o
1 4 5 29.766 29.034 2.260 121.015 o
1 4 6 573.504 559.523 9.053 3.505 o
1 4 7 670.738 603.066 9.250 2.894 o
1 4 8 7.860 10.123 2.891 310.605 o
1 4 9 1256.990 1219.920 19.916 0.996 o
1 4 10 1270.410 1113.240 31.119 0.959 o
1 4 11 458.373 433.245 11.641 4.707 o
1 4 12 251.707 202.838 6.242 11.639 o
1 4 13 112.830 120.613 9.094 22.461 o
1 4 14 5.886 2.550 8.787 89.974 o
1 4 15 49.134 47.694 12.156 31.314 o
1 4 16 4.398 4.394 12.797 45.135 o
1 5 0 1527.360 1833.120 24.001 0.632 o
1 5 1 1343.130 1454.550 42.508 0.731 o
1 5 2 229.985 274.967 9.065 10.444 o
1 5 3 84.227 116.962 2.845 35.508 o
1 5 4 6.985 0.916 2.131 552.016 o
1 5 5 664.600 628.932 12.314 2.796 o
1 5 6 956.155 842.285 17.149 1.625 o
1 5 7 457.261 482.731 8.194 4.683 o
1 5 8 803.839 781.759 11.925 2.089 o
1 5 9 109.892 100.609 2.821 31.262 o
1 5 10 811.838 717.297 26.282 1.870 o
1 5 11 268.875 240.656 19.934 6.998 o
1 5 12 37.441 26.151 3.353 98.212 o
1 5 13 56.601 53.126 8.875 39.973 o
1 5 14 36.050 43.588 11.450 37.108 o
1 5 15 0.293 3.945 12.252 50.804 o
1 5 16 27.281 44.422 13.439 31.463 o
1 6 0 782.622 840.990 14.472 2.030 o
1 6 1 241.884 253.800 7.722 10.725 o
1 6 2 33.156 39.120 3.568 92.806 o
1 6 3 0.216 6.385 2.698 668.499 o
1 6 4 8.222 -0.475 2.563 454.004 o
1 6 5 261.361 322.955 6.732 9.243 o
1 6 6 92.507 73.978 3.249 38.986 o
1 6 7 1896.480 1976.270 44.026 0.441 o
1 6 8 83.162 78.644 3.504 40.989 o
1 6 9 374.549 392.944 9.002 6.084 o
1 6 10 510.466 499.291 8.380 4.156 o
1 6 11 5.261 7.487 5.815 171.277 o
1 6 12 15.097 5.563 7.168 104.231 o
1 6 13 35.170 33.100 11.194 39.881 o
1 6 14 26.626 34.576 11.739 39.576 o
1 6 15 0.770 3.528 12.637 47.710 o
1 6 16 4.784 12.637 13.695 38.508 o
1 7 0 864.581 919.325 15.668 1.743 o
1 7 1 348.364 383.217 14.979 5.837 o
1 7 2 787.513 772.567 25.322 1.886 o
1 7 3 18.768 13.586 3.652 166.178 o
1 7 4 3.426 3.946 3.011 486.651 o
1 7 5 89.052 112.320 3.361 34.344 o
1 7 6 5.002 5.347 2.775 443.054 o
1 7 7 17.701 20.976 3.677 153.926 o
1 7 8 437.828 431.863 8.368 5.120 o
1 7 9 87.993 64.544 4.899 39.304 o
1 7 10 1020.050 939.972 16.040 1.451 o
1 7 11 183.985 190.702 5.647 15.558 o
1 7 12 217.530 171.569 7.652 13.473 o
1 7 13 62.679 58.278 11.803 28.982 o
1 7 14 3.644 -0.192 12.092 51.525 o
1 7 15 23.009 20.239 13.214 35.605 o
1 8 0 1142.040 1168.640 19.235 1.132 o
1 8 1 141.301 136.141 6.181 21.143 o
1 8 2 1.526 7.605 6.346 165.071 o
1 8 3 16.038 16.448 3.747 169.971 o
1 8 4 43.097 50.564 3.827 71.759 o
1 8 5 29.469 26.784 3.432 112.793 o
1 8 6 1.543 -5.178 3.564 529.873 o
1 8 7 498.829 475.130 11.288 4.210 o
1 8 8 62.970 60.482 4.118 52.524 o
1 8 9 129.583 111.504 5.714 24.457 o
1 8 10 0.345 0.866 5.008 298.217 o
1 8 11 41.953 34.252 5.212 72.442 o
1 8 12 0.379 1.567 6.797 163.032 o
1 8 13 2.182 3.721 11.675 54.948 o
1 9 0 6.609 7.588 4.842 211.058 o
1 9 1 2.013 -10.962 4.060 408.140 o
1 9 2 292.498 304.955 7.577 8.552 o
1 9 3 0.206 -3.993 3.899 502.768 o
1 9 4 9.467 9.778 4.057 222.044 o
1 9 5 1.719 -3.132 3.983 430.531 o
1 9 6 0.571 -6.269 4.023 459.749 o
1 9 7 66.917 72.238 5.259 44.682 o
1 9 8 136.235 164.184 8.900 18.265 o
1 9 9 12.780 8.604 5.282 155.347 o
1 9 10 183.486 175.668 12.188 12.961 o
1 9 11 29.736 22.933 10.135 49.337 o
1 9 12 169.214 136.121 11.514 15.079 o
1 10 0 233.385 259.638 13.102 9.436 o
1 10 1 1.906 -8.148 6.289 185.164 o
1 10 2 72.686 70.450 4.783 43.949 o
1 10 3 32.523 29.748 4.450 93.320 o
1 10 4 2.099 1.920 3.965 396.148 o
1 10 5 1.433 -5.390 4.138 410.309 o
1 10 6 3.308 8.062 7.147 128.517 o
1 10 7 6.161 8.122 7.231 118.799 o
1 10 8 0.028 -10.496 7.393 142.121 o
1 10 9 39.022 24.576 7.733 60.336 o
1 10 10 59.698 61.407 8.288 39.780 o
1 10 11 55.199 39.707 11.290 33.650 o
1 10 12 0.942 9.526 11.130 59.262 o
1 11 0 0.403 9.727 7.958 110.945 o
1 11 1 1.191 -4.352 14.626 36.083 o
1 11 2 6.206 6.373 7.457 114.866 o
1 11 3 20.224 23.422 6.917 86.454 o
1 11 4 5.081 1.061 5.826 189.057 o
1 11 5 4.302 10.767 7.672 109.012 o
1 11 6 0.552 1.266 7.795 124.822 o
1 11 7 32.687 39.350 11.691 37.516 o
1 11 8 23.633 21.586 12.220 39.903 o
1 11 9 0.017 10.424 12.156 50.327 o
1 12 1 8.601 -7.666 11.899 50.926 o
1 12 2 93.264 86.215 12.316 22.089 o
2 -10 0 37.719 48.583 13.744 28.445 o
2 -10 1 29.912 38.203 7.452 64.075 o
2 -10 2 105.969 136.089 13.054 17.856 o
2 -9 0 15.339 7.011 5.369 145.854 o
2 -9 1 19.191 35.974 4.880 106.381 o
2 -9 2 34.206 39.400 4.884 80.489 o
2 -9 3 19.332 13.900 6.066 109.174 o
2 -9 4 21.361 43.828 8.355 60.954 o
2 -9 5 88.020 103.253 10.633 24.388 o
2 -9 6 14.193 28.706 11.482 45.911 o
2 -9 7 5.343 26.012 11.450 50.175 o
2 -8 0 0.194 8.806 6.929 144.250 o
2 -8 1 0.017 -4.452 4.288 422.190 o
2 -8 2 22.662 17.835 4.291 129.561 o
2 -8 3 11.090 4.346 4.260 220.453 o
2 -8 4 19.490 21.403 3.971 140.154 o
2 -8 5 0.416 4.120 4.552 325.577 o
2 -8 6 3.580 10.015 10.761 61.294 o
2 -8 7 9.888 22.535 5.891 124.890 o
2 -8 8 0.037 -7.898 7.140 152.327 o
2 -8 9 22.084 27.840 10.841 47.063 o
2 -7 0 106.819 114.580 7.035 26.173 o
2 -7 1 0.062 4.576 3.352 546.234 o
2 -7 2 664.808 704.197 10.271 2.689 o
2 -7 3 61.839 58.748 4.344 52.939 o
2 -7 4 0.707 0.343 3.955 463.769 o
2 -7 5 159.198 177.617 5.005 18.114 o
2 -7 6 123.268 142.355 4.811 23.924 o
2 -7 7 0.156 -14.472 5.307 274.060 o
2 -7 8 44.355 52.300 6.668 55.026 o
2 -7 9 23.502 11.675 9.943 56.573 o
2 -7 10 12.836 13.279 10.841 54.423 o
2 -6 0 2.056 15.691 6.703 134.800 o
2 -6 1 5.690 21.490 3.847 215.424 o
2 -6 2 33.651 30.934 3.222 101.867 o
2 -6 3 186.613 175.683 4.743 16.190 o
2 -6 4 24.651 18.673 3.213 140.827 o
2 -6 5 383.956 347.943 6.222 6.492 o
2 -6 6 449.470 442.033 6.842 5.021 o
2 -6 7 2.686 -5.498 4.119 381.248 o
2 -6 8 1.425 1.240 3.578 504.392 o
2 -6 9 68.979 71.556 5.362 43.729 o
2 -6 10 86.230 80.667 7.848 31.649 o
2 -6 11 35.317 33.036 10.937 41.042 o
2 -5 0 1049.570 983.270 46.684 1.027 o
2 -5 1 0.634 49.842 9.333 64.485 o
2 -5 2 1495.600 1411.890 19.491 0.764 o
2 -5 3 526.495 533.880 9.983 3.854 o
2 -5 4 496.888 539.984 9.751 4.051 o
2 -5 5 110.311 123.554 3.689 28.253 o
2 -5 6 2.380 -0.585 3.328 550.937 o
2 -5 7 8.329 2.785 2.213 447.006 o
2 -5 8 105.345 122.771 5.685 27.332 o
2 -5 9 72.034 74.128 5.457 41.869 o
2 -5 10 109.031 99.864 5.522 28.891 o
2 -5 11 6.214 4.047 7.249 123.159 o
2 -5 12 3.676 3.222 7.947 111.174 o
2 -4 0 276.511 264.705 5.338 9.845 o
2 -4 1 98.822 92.548 2.475 35.178 o
2 -4 2 1655.530 1674.480 25.586 0.608 o
2 -4 3 850.663 716.790 10.707 2.066 o
2 -4 4 347.994 327.876 5.540 7.335 o
2 -4 5 1642.900 1582.830 29.139 0.622 o
2 -4 6 629.227 595.586 13.833 2.978 o
2 -4 7 160.231 191.540 5.246 17.368 o
2 -4 8 67.862 58.042 5.819 45.571 o
2 -4 9 40.383 42.300 3.870 78.782 o
2 -4 10 166.450 164.504 4.967 18.072 o
2 -4 11 137.225 148.533 8.163 19.430 o
2 -4 12 72.135 67.679 7.779 36.762 o
2 -4 13 24.921 16.947 9.141 60.909 o
2 -3 0 2500.630 2325.160 34.086 0.309 o
2 -3 1 105.189 83.598 2.554 34.614 o
2 -3 2 376.035 297.279 4.199 7.184 o
2 -3 3 230.399 194.223 3.170 13.373 o
2 -3 4 70.225 55.407 2.123 54.418 o
2 -3 5 413.759 395.678 6.307 5.727 o
2 -3 6 308.005 291.575 9.319 8.089 o
2 -3 7 0.001 -2.311 2.257 1525.860 o
2 -3 8 26.370 33.102 3.590 110.873 o
2 -3 9 402.592 412.422 7.975 5.663 o
2 -3 10 254.252 261.492 5.975 10.517 o
2 -3 11 0.203 -1.634 5.137 291.759 o
2 -3 12 1.891 -4.005 8.435 105.665 o
2 -3 13 228.208 248.243 10.165 10.642 o
2 -3 14 3.778 -16.133 10.809 63.896 o
2 -2 0 451.928 434.608 7.000 5.027 o
2 -2 1 0.594 -3.599 1.745 2045.500 o
2 -2 2 1111.470 1260.340 16.538 1.132 o
2 -2 3 676.527 591.058 8.788 2.904 o
2 -2 4 1482.190 1445.220 23.137 0.751 o
2 -2 5 1327.970 1186.950 17.192 0.963 o
2 -2 6 89.907 80.184 2.272 39.900 o
2 -2 7 89.191 78.825 2.099 40.535 o
2 -2 8 340.045 339.657 6.075 7.331 o
2 -2 9 11.235 14.490 2.705 248.331 o
2 -2 10 50.557 46.154 3.638 67.788 o
2 -2 11 229.158 197.621 12.979 10.495 o
2 -2 12 677.041 656.243 23.991 2.347 o
2 -2 13 61.257 64.096 7.272 42.231 o
2 -2 14 134.479 151.537 8.664 19.139 o
2 -2 15 35.796 41.439 10.937 39.644 o
2 -1 0 1426.440 1342.380 21.662 0.819 o
2 -1 1 434.084 376.036 5.150 5.649 o
2 -1 2 3044.780 2926.740 32.739 0.215 o
2 -1 3 1834.400 1696.270 22.018 0.544 o
2 -1 4 2658.870 3043.430 39.339 0.242 o
2 -1 5 346.881 295.037 3.804 7.806 o
2 -1 6 2889.740 3153.860 33.376 0.218 o
2 -1 7 520.365 441.618 5.336 4.407 o
2 -1 8 172.925 208.191 4.068 16.211 o
2 -1 9 659.196 611.618 10.291 2.904 o
2 -1 10 119.287 102.714 4.669 27.686 o
2 -1 11 14.117 11.072 3.506 205.455 o
2 -1 12 153.898 136.357 7.136 19.220 o
2 -1 13 38.408 41.568 8.564 50.593 o
2 -1 14 54.964 49.971 9.558 38.440 o
2 -1 15 111.932 120.373 11.258 20.018 o
2 0 0 1485.600 1376.530 30.844 0.738 o
2 0 1 413.485 451.351 6.689 5.372 o
2 0 2 14578.000 14380.000 184.710 0.010 o
2 0 3 7556.580 7782.130 100.072 0.036 o
2 0 4 734.538 890.764 11.741 2.131 o
2 0 5 1068.780 931.286 11.372 1.419 o
2 0 6 147.649 181.295 2.713 19.816 o
2 0 7 614.609 666.086 8.263 3.025 o
2 0 8 20.373 22.942 1.894 170.714 o
2 0 9 5.990 8.039 1.931 468.371 o
2 0 10 16.296 20.304 2.381 192.876 o
2 0 11 317.794 312.535 22.997 5.339 o
2 0 12 569.241 512.129 43.155 1.996 o
2 0 13 118.565 107.223 9.077 22.592 o
2 0 14 106.607 104.529 9.430 23.748 o
2 0 15 131.705 141.873 8.314 20.138 o
2 1 0 791.173 827.350 15.407 2.011 o
2 1 1 829.400 859.231 15.987 1.876 o
2 1 2 4909.490 5006.710 52.633 0.085 o
2 1 3 7031.700 7003.620 83.374 0.043 o
2 1 4 813.330 890.440 13.453 1.911 o
2 1 5 3375.340 3452.810 48.844 0.167 o
2 1 6 9973.100 10319.600 145.409 0.021 o
2 1 7 1.433 -0.975 2.152 1204.090 o
2 1 8 164.775 155.373 4.529 18.794 o
2 1 9 1268.360 1162.230 21.807 1.001 o
2 1 10 1.045 5.119 2.187 828.587 o
2 1 11 0.341 0.173 1.073 4588.180 o
2 1 12 257.134 238.336 5.814 10.848 o
2 1 13 0.032 -5.083 5.251 281.540 o
2 1 14 177.204 188.093 6.599 15.716 o
2 1 15 4.028 1.960 6.653 153.409 o
2 2 0 150.172 170.790 3.689 19.770 o
2 2 1 1922.410 1778.500 28.185 0.493 o
2 2 2 5654.720 6019.070 94.890 0.061 o
2 2 3 6458.590 6000.450 109.200 0.051 o
2 2 4 2233.850 2143.020 41.867 0.358 o
2 2 5 201.639 107.059 2.889 18.216 o
2 2 6 198.585 243.880 4.398 13.516 o
2 2 7 1.901 -2.085 2.105 1134.010 o
2 2 8 670.801 657.257 11.022 2.743 o
2 2 9 265.175 275.826 5.776 9.961 o
2 2 10 89.264 92.358 2.995 37.437 o
2 2 11 147.952 135.132 8.668 18.679 o
2 2 12 7.128 8.894 3.643 275.866 o
2 2 13 605.207 586.760 14.981 3.070 o
2 2 14 3.790 -0.658 6.190 180.113 o
2 2 15 25.093 22.420 11.739 41.824 o
2 3 0 258.441 243.549 8.848 10.091 o
2 3 1 340.092 344.513 6.866 7.215 o
2 3 2 96.502 85.499 2.894 36.427 o
2 3 3 1619.410 1632.940 36.616 0.598 o
2 3 4 159.466 179.951 3.550 18.529 o
2 3 5 57.551 52.300 2.771 62.588 o
2 3 6 2557.320 2566.120 40.834 0.279 o
2 3 7 336.282 368.863 7.910 6.966 o
2 3 8 481.434 439.275 14.861 4.267 o
2 3 9 264.309 266.438 4.332 10.333 o
2 3 10 14.965 9.238 1.988 264.391 o
2 3 11 69.791 67.966 3.025 49.632 o
2 3 12 11.198 11.381 2.473 277.667 o
2 3 13 8.533 4.667 4.256 242.179 o
2 3 14 66.787 69.528 6.032 43.097 o
2 3 15 4.328 18.795 11.739 49.980 o
2 3 16 203.157 223.523 15.941 9.746 o
2 4 0 15.873 88.991 7.345 57.176 o
2 4 1 9.229 21.530 2.825 228.783 o
2 4 2 644.905 752.571 11.204 2.654 o
2 4 3 320.075 396.556 6.815 7.110 o
2 4 4 42.687 47.205 3.116 77.484 o
2 4 5 17.479 25.695 2.405 170.234 o
2 4 6 844.241 778.480 11.703 1.992 o
2 4 7 194.859 185.543 4.079 15.493 o
2 4 8 393.207 386.414 6.530 6.051 o
2 4 9 640.002 670.768 10.428 2.856 o
2 4 10 17.869 21.995 2.643 173.185 o
2 4 11 0.007 1.437 2.751 915.265 o
2 4 12 95.243 96.089 2.809 35.384 o
2 4 13 491.324 477.583 13.550 4.132 o
2 4 14 0.664 6.408 8.831 93.734 o
2 4 15 0.031 1.379 11.996 53.678 o
2 4 16 6.044 7.762 13.214 41.484 o
2 5 0 229.863 262.495 5.539 11.465 o
2 5 1 450.500 415.754 9.014 5.035 o
2 5 2 2.582 -2.115 2.974 640.332 o
2 5 3 1291.950 1248.310 32.366 0.885 o
2 5 4 101.502 124.673 2.898 30.432 o
2 5 5 0.487 3.873 2.450 855.168 o
2 5 6 690.208 644.101 11.563 2.681 o
2 5 7 96.413 92.354 3.404 34.982 o
2 5 8 546.597 541.760 12.528 3.597 o
2 5 9 41.721 32.337 3.546 85.420 o
2 5 10 46.226 65.714 3.407 64.151 o
2 5 11 122.798 126.841 5.458 24.554 o
2 5 12 110.431 114.238 4.306 28.572 o
2 5 13 4.539 -4.118 8.960 90.308 o
2 5 14 174.648 193.937 18.009 10.015 o
2 5 15 0.001 1.187 12.733 47.720 o
2 5 16 46.286 39.002 14.048 27.062 o
2 6 0 40.115 55.454 4.365 69.439 o
2 6 1 16.471 5.994 4.603 167.233 o
2 6 2 122.140 175.611 5.422 21.597 o
2 6 3 1037.080 1181.780 33.943 1.103 o
2 6 4 324.251 348.643 8.397 7.311 o
2 6 5 70.034 77.683 6.430 39.484 o
2 6 6 806.606 823.736 74.315 0.844 o
2 6 7 54.522 41.534 3.996 64.853 o
2 6 8 618.239 620.383 26.471 2.487 o
2 6 9 443.022 452.468 15.490 4.474 o
2 6 10 97.690 120.570 11.552 20.992 o
2 6 11 2.912 3.183 3.757 391.181 o
2 6 12 58.701 69.389 6.630 44.347 o
2 6 13 7.494 20.655 11.418 50.643 o
2 6 14 70.249 96.478 12.862 23.113 o
2 6 15 18.274 -2.790 13.022 40.216 o
2 6 16 0.867 6.286 14.016 38.562 o
2 7 0 43.096 36.497 3.983 78.294 o
2 7 1 0.001 -1.894 5.597 248.141 o
2 7 2 32.756 6.924 5.474 99.790 o
2 7 3 502.347 588.436 20.127 3.331 o
2 7 4 5.484 -6.344 4.240 311.038 o
2 7 5 650.022 656.756 19.335 2.591 o
2 7 6 49.019 54.634 3.473 66.145 o
2 7 7 52.090 52.821 4.155 61.714 o
2 7 8 20.267 15.230 3.934 149.356 o
2 7 9 296.144 250.501 7.010 9.241 o
2 7 10 101.759 116.402 4.219 30.118 o
2 7 11 8.443 14.735 5.136 165.952 o
2 7 12 111.858 109.169 7.181 25.642 o
2 7 13 0.775 -0.481 11.643 56.930 o
2 7 14 135.946 150.362 14.177 14.564 o
2 7 15 2.655 14.080 13.407 40.443 o
2 8 0 268.030 302.716 7.085 9.284 o
2 8 1 3.397 7.521 4.140 295.456 o
2 8 2 43.781 50.469 5.961 59.727 o
2 8 3 9.241 7.739 5.098 181.160 o
2 8 4 185.950 189.735 8.531 14.300 o
2 8 5 3.427 -3.162 4.653 298.732 o
2 8 6 758.802 775.494 12.884 2.208 o
2 8 7 83.309 88.132 4.948 37.046 o
2 8 8 173.653 162.528 5.894 17.174 o
2 8 9 160.066 179.502 5.900 17.567 o
2 8 10 94.830 75.752 11.386 24.008 o
2 8 11 1.813 2.083 6.264 181.283 o
2 8 12 0.245 -3.503 9.141 92.682 o
2 8 13 17.271 15.460 12.316 42.160 o
2 8 14 91.677 92.501 13.952 19.557 o
2 8 15 29.497 24.569 14.177 30.292 o
2 9 0 3.443 5.375 5.509 203.505 o
2 9 1 81.950 94.537 5.356 35.812 o
2 9 2 57.978 70.513 5.656 47.670 o
2 9 3 54.550 48.981 4.135 61.400 o
2 9 4 53.524 52.154 3.755 62.464 o
2 9 5 91.135 103.324 5.284 32.540 o
2 9 6 157.627 179.010 8.572 16.337 o
2 9 7 2.877 -1.797 4.832 287.668 o
2 9 8 27.462 19.927 6.613 83.287 o
2 9 9 198.465 189.983 8.500 13.646 o
2 9 10 34.758 28.906 6.781 69.379 o
2 9 11 13.648 13.856 9.526 66.149 o
2 9 12 48.219 48.624 10.103 38.505 o
2 10 0 9.085 1.502 7.954 102.394 o
2 10 1 17.994 23.387 4.893 123.482 o
2 10 2 0.313 2.106 4.855 307.172 o
2 10 3 12.835 6.872 4.428 191.098 o
2 10 4 3.196 2.830 3.978 357.933 o
2 10 5 33.932 29.770 4.039 95.013 o
2 10 6 229.841 242.624 9.710 10.816 o
2 10 7 1.956 -1.606 5.723 220.528 o
2 10 8 12.578 9.181 7.217 104.560 o
2 10 9 18.689 22.355 10.713 50.470 o
2 10 10 3.500 0.513 10.616 66.153 o
2 10 11 0.284 4.009 10.809 64.913 o
2 10 12 5.805 -6.575 11.098 59.527 o
2 11 0 3.566 -1.554 7.968 114.235 o
2 11 1 11.678 22.576 10.312 57.035 o
2 11 2 5.193 1.515 5.681 194.865 o
2 11 3 8.422 12.412 6.603 124.371 o
2 11 4 19.927 28.634 6.729 85.893 o
2 11 5 2.915 4.290 5.703 199.346 o
2 11 6 24.481 40.475 7.981 62.974 o
2 11 7 4.289 10.331 10.328 65.425 o
2 11 8 32.615 29.985 8.184 59.442 o
2 11 9 119.168 140.580 13.439 16.425 o
2 11 10 1.644 -2.887 12.284 50.806 o
2 11 11 5.932 5.453 12.124 49.165 o
2 12 0 0.688 2.887 10.809 65.022 o
2 12 1 9.687 -8.275 11.707 51.994 o
2 12 2 0.009 19.822 11.322 55.152 o
2 12 3 10.004 5.662 7.457 107.731 o
2 12 4 4.855 -3.713 7.439 126.317 o
2 12 5 6.441 1.860 11.033 59.254 o
2 12 6 18.116 38.970 12.028 39.964 o
3 -10 0 4.518 3.368 10.360 67.438 o
3 -10 1 21.095 25.467 11.867 41.907 o
3 -9 0 42.516 39.213 5.182 69.779 o
3 -9 1 12.166 11.361 5.863 135.136 o
3 -9 2 7.684 8.536 5.851 156.598 o
3 -9 3 0.093 -2.919 11.001 64.164 o
3 -8 0 74.257 88.761 4.976 39.681 o
3 -8 1 38.379 33.378 6.294 68.188 o
3 -8 2 3.406 -4.964 5.209 246.910 o
3 -8 3 39.037 37.112 5.399 72.547 o
3 -8 4 37.671 48.378 11.001 37.883 o
3 -8 5 26.592 15.283 7.697 74.421 o
3 -7 0 11.016 26.736 3.210 184.375 o
3 -7 1 44.425 52.251 3.336 71.973 o
3 -7 2 0.279 6.898 3.860 395.351 o
3 -7 3 32.852 27.679 4.885 90.001 o
3 -7 4 63.015 73.020 7.040 40.830 o
3 -7 5 3.160 -0.593 4.996 268.116 o
3 -7 6 66.892 57.130 8.788 36.712 o
3 -7 7 21.043 25.370 6.970 83.492 o
3 -7 8 103.630 96.414 10.616 22.929 o
3 -7 9 5.270 -2.887 10.392 67.751 o
3 -7 10 7.699 4.202 11.450 54.091 o
3 -6 0 470.404 472.313 16.374 4.119 o
3 -6 1 41.178 124.289 6.431 41.321 o
3 -6 2 80.345 74.055 3.562 42.760 o
3 -6 3 19.274 23.482 3.440 147.638 o
3 -6 4 58.865 57.976 6.241 48.052 o
3 -6 5 17.661 28.048 4.520 125.045 o
3 -6 6 131.289 145.651 5.301 22.355 o
3 -6 7 45.334 40.102 4.680 69.906 o
3 -6 8 17.480 21.381 5.373 118.080 o
3 -6 9 90.862 79.972 7.986 30.503 o
3 -6 10 0.968 10.200 10.424 66.766 o
3 -6 11 33.167 6.607 11.514 42.978 o
3 -5 0 0.352 25.239 7.606 104.221 o
3 -5 1 826.792 857.545 12.217 1.933 o
3 -5 2 42.628 103.633 7.560 40.892 o
3 -5 3 129.043 107.719 3.638 26.436 o
3 -5 4 73.351 71.919 5.015 42.860 o
3 -5 5 7.045 1.629 4.044 294.036 o
3 -5 6 192.113 213.680 6.251 14.181 o
3 -5 7 127.144 139.875 8.951 20.100 o
3 -5 8 246.514 279.187 8.093 10.075 o
3 -5 9 69.971 69.588 4.530 45.847 o
3 -5 10 31.489 28.847 4.536 94.813 o
3 -5 11 37.888 41.812 7.889 54.754 o
3 -5 12 9.592 16.069 11.675 48.839 o
3 -4 0 170.819 145.411 4.085 18.873 o
3 -4 1 5.405 33.420 2.232 229.964 o
3 -4 2 0.017 0.130 2.761 1006.200 o
3 -4 3 3.827 5.656 3.047 436.551 o
3 -4 4 98.270 100.513 3.249 33.619 o
3 -4 5 0.005 -0.132 3.239 740.649 o
3 -4 6 109.000 111.304 4.525 28.905 o
3 -4 7 127.423 132.111 4.243 24.444 o
3 -4 8 317.356 311.669 5.827 8.108 o
3 -4 9 590.656 595.958 9.696 3.289 o
3 -4 10 0.090 -5.950 4.119 455.080 o
3 -4 11 133.259 127.600 6.094 22.616 o
3 -4 12 1.799 14.181 7.652 111.088 o
3 -3 0 2547.130 2665.900 59.919 0.257 o
3 -3 1 555.621 757.672 14.685 2.918 o
3 -3 2 39.104 56.593 3.495 74.418 o
3 -3 3 271.298 224.649 4.237 10.825 o
3 -3 4 29.459 20.625 2.379 132.870 o
3 -3 5 2.223 2.105 2.438 767.919 o
3 -3 6 107.419 121.197 3.397 29.236 o
3 -3 7 0.236 0.984 2.839 865.095 o
3 -3 8 51.857 54.317 3.231 64.831 o
3 -3 9 499.531 519.212 6.977 4.212 o
3 -3 10 2.630 -0.584 3.415 517.789 o
3 -3 11 95.942 82.340 5.823 33.029 o
3 -3 12 124.376 149.908 14.594 14.842 o
3 -3 13 68.177 58.538 11.867 27.919 o
3 -3 14 3.090 10.200 11.514 54.324 o
3 -2 0 256.084 281.327 6.135 10.105 o
3 -2 1 0.335 2.781 2.161 1131.880 o
3 -2 2 0.246 0.812 1.860 1812.480 o
3 -2 3 74.263 51.091 2.177 53.240 o
3 -2 4 228.913 160.234 3.618 14.294 o
3 -2 5 10.774 6.179 1.923 359.876 o
3 -2 6 10.960 8.302 2.190 319.455 o
3 -2 7 2.043 0.598 2.102 1050.110 o
3 -2 8 196.173 189.707 3.613 15.384 o
3 -2 9 649.770 669.193 9.264 2.841 o
3 -2 10 0.080 0.504 4.318 407.670 o
3 -2 11 138.153 134.588 4.325 22.808 o
3 -2 12 0.431 1.348 6.712 167.325 o
3 -2 13 0.396 4.126 7.168 142.575 o
3 -2 14 16.569 19.972 7.890 80.119 o
3 -2 15 35.143 52.794 11.803 34.855 o
3 -1 0 24.926 27.436 2.157 138.969 o
3 -1 1 431.505 378.081 5.854 5.637 o
3 -1 2 28.484 22.380 1.687 139.927 o
3 -1 3 239.004 193.715 2.872 12.998 o
3 -1 4 269.862 240.421 3.555 10.675 o
3 -1 5 84.132 77.463 2.253 42.463 o
3 -1 6 0.242 0.485 1.936 1781.270 o
3 -1 7 29.864 30.744 2.450 116.956 o
3 -1 8 90.916 100.560 2.813 35.956 o
3 -1 9 925.166 924.158 11.526 1.663 o
3 -1 10 562.363 537.519 7.189 3.692 o
3 -1 11 81.217 66.314 3.465 44.094 o
3 -1 12 428.579 488.663 16.694 4.348 o
3 -1 13 114.720 103.718 7.646 25.052 o
3 -1 14 1.031 1.936 7.233 141.675 o
3 -1 15 82.709 72.230 10.937 26.707 o
3 -1 16 21.667 11.482 11.162 48.428 o
3 0 0 1682.980 1809.550 33.325 0.553 o
3 0 1 1529.920 1219.190 19.536 0.801 o
3 0 2 128.398 133.342 2.614 25.096 o
3 0 3 1062.480 913.546 13.277 1.429 o
3 0 4 224.894 222.640 4.454 12.734 o
3 0 5 0.016 -1.675 1.770 2464.120 o
3 0 6 10.886 9.468 1.816 330.670 o
3 0 7 305.694 302.187 5.833 8.487 o
3 0 8 296.186 320.265 4.554 8.623 o
3 0 9 252.240 240.055 3.604 11.326 o
3 0 10 2.455 9.629 2.385 518.059 o
3 0 11 8.738 6.721 2.492 356.546 o
3 0 12 186.702 211.806 8.965 13.497 o
3 0 13 0.012 -3.936 6.580 179.448 o
3 0 14 18.715 24.804 6.872 88.147 o
3 0 15 127.896 131.695 11.066 18.380 o
3 1 0 6493.530 7150.480 100.525 0.046 o
3 1 1 10342.800 11012.900 245.257 0.018 o
3 1 2 2188.140 2069.510 29.456 0.389 o
3 1 3 1080.350 1122.020 12.798 1.266 o
3 1 4 1.413 5.705 2.337 712.543 o
3 1 5 70.849 76.030 2.142 48.555 o
3 1 6 709.571 733.050 9.165 2.489 o
3 1 7 613.174 592.013 8.210 3.217 o
3 1 8 2.015 4.148 2.165 784.410 o
3 1 9 1010.440 977.149 14.446 1.451 o
3 1 10 0.442 5.511 3.892 404.367 o
3 1 11 407.594 373.914 8.416 5.814 o
3 1 12 71.002 72.179 3.671 46.779 o
3 1 13 95.172 75.919 8.917 28.335 o
3 1 14 1.138 -14.016 8.596 103.181 o
3 1 15 6.072 1.058 9.045 86.117 o
3 2 0 209.310 286.894 4.143 12.047 o
3 2 1 2777.270 2906.110 53.189 0.228 o
3 2 2 98.633 242.959 5.476 20.470 o
3 2 3 3240.630 3572.150 35.740 0.176 o
3 2 4 2904.260 2651.410 29.750 0.242 o
3 2 5 918.132 924.292 12.329 1.669 o
3 2 6 403.697 459.083 9.286 5.288 o
3 2 7 9.866 11.953 3.100 258.123 o
3 2 8 380.874 407.867 8.393 5.945 o
3 2 9 149.021 150.084 3.818 20.902 o
3 2 10 783.811 841.421 15.068 2.018 o
3 2 11 3.321 14.340 4.479 231.642 o
3 2 12 289.172 291.482 9.241 8.530 o
3 2 13 167.734 154.929 6.816 17.470 o
3 2 14 232.370 246.691 9.289 10.779 o
3 2 15 98.812 101.494 7.583 27.769 o
3 3 0 458.383 530.708 9.116 4.418 o
3 3 1 4869.610 4678.540 66.056 0.088 o
3 3 2 44.867 19.971 2.564 96.384 o
3 3 3 89.506 93.121 2.817 37.437 o
3 3 4 36.152 30.674 1.949 106.366 o
3 3 5 10.595 16.492 2.417 256.504 o
3 3 6 232.024 240.525 5.162 11.892 o
3 3 7 92.860 91.222 3.396 36.113 o
3 3 8 63.659 58.532 3.036 55.598 o
3 3 9 271.092 234.115 5.134 10.543 o
3 3 10 127.216 128.952 5.329 23.908 o
3 3 11 1170.320 1123.400 15.002 1.150 o
3 3 12 46.050 51.800 2.924 72.318 o
3 3 13 0.009 1.591 4.551 357.616 o
3 3 14 8.899 4.239 6.396 141.096 o
3 3 15 125.847 130.252 13.407 16.359 o
3 4 0 191.897 182.480 4.230 15.749 o
3 4 1 2320.610 2237.100 38.846 0.339 o
3 4 2 469.687 424.431 6.199 4.931 o
3 4 3 163.202 189.365 5.921 16.939 o
3 4 4 56.407 88.293 4.091 48.839 o
3 4 5 206.358 213.856 8.537 12.684 o
3 4 6 1.937 -3.053 2.232 1043.200 o
3 4 7 39.762 39.869 2.512 88.993 o
3 4 8 21.390 20.715 3.634 141.277 o
3 4 9 57.322 47.802 3.072 63.602 o
3 4 10 494.396 445.023 9.371 4.464 o
3 4 11 8.353 10.940 2.546 319.492 o
3 4 12 757.267 691.492 9.226 2.396 o
3 4 13 249.443 262.524 8.018 10.262 o
3 4 14 142.249 136.757 7.634 19.928 o
3 4 15 19.087 31.945 12.605 37.876 o
3 5 0 1135.220 1078.540 26.073 1.134 o
3 5 1 918.154 1007.150 19.351 1.524 o
3 5 2 287.914 264.668 5.028 9.544 o
3 5 3 0.357 -4.462 2.731 982.104 o
3 5 4 407.926 383.988 12.648 5.390 o
3 5 5 6.744 4.456 3.821 297.622 o
3 5 6 19.570 14.818 4.574 138.152 o
3 5 7 81.272 77.342 3.742 41.513 o
3 5 8 20.917 24.800 3.549 137.449 o
3 5 9 464.758 428.388 7.578 4.901 o
3 5 10 149.408 148.863 3.815 20.927 o
3 5 11 110.263 81.808 6.800 28.641 o
3 5 12 7.698 5.308 3.404 312.203 o
3 5 13 80.319 82.079 4.585 39.547 o
3 5 14 36.194 29.666 9.381 49.629 o
3 5 15 69.874 88.267 13.856 21.855 o
3 6 0 122.789 126.516 5.254 24.749 o
3 6 1 816.714 813.066 26.332 1.763 o
3 6 2 336.608 368.590 7.303 7.020 o
3 6 3 160.021 139.170 3.931 20.272 o
3 6 4 433.534 435.983 8.096 5.160 o
3 6 5 67.362 64.614 4.939 46.985 o
3 6 6 30.746 32.719 4.542 92.857 o
3 6 7 157.524 173.956 5.842 18.025 o
3 6 8 0.403 1.320 3.922 464.550 o
3 6 9 105.751 88.813 4.540 31.851 o
3 6 10 2.559 -2.296 4.231 367.312 o
3 6 11 30.365 31.497 3.789 102.215 o
3 6 12 1060.860 994.761 27.660 1.243 o
3 6 13 7.197 4.587 11.963 50.047 o
3 6 14 8.213 8.435 12.380 45.913 o
3 6 15 2.370 8.852 13.535 40.505 o
3 7 0 182.291 239.701 8.764 13.115 o
3 7 1 340.054 380.904 6.318 6.937 o
3 7 2 1930.550 2203.800 60.859 0.373 o
3 7 3 96.698 112.726 4.135 31.664 o
3 7 4 781.351 872.158 26.005 1.781 o
3 7 5 5.648 5.722 3.190 368.430 o
3 7 6 0.337 5.902 5.728 210.032 o
3 7 7 47.476 46.574 6.053 58.084 o
3 7 8 68.300 86.278 5.999 39.744 o
3 7 9 228.799 246.895 20.623 7.387 o
3 7 10 202.610 209.906 8.962 12.788 o
3 7 11 113.664 97.668 7.482 25.853 o
3 7 12 253.412 254.737 9.628 9.889 o
3 7 13 41.984 43.596 7.067 56.783 o
3 7 14 12.171 23.221 13.054 38.585 o
3 7 15 89.701 102.091 14.914 18.079 o
3 8 0 184.947 225.031 7.496 13.830 o
3 8 1 173.798 195.046 6.831 15.614 o
3 8 2 52.700 54.456 5.267 56.096 o
3 8 3 2.106 0.246 3.663 478.133 o
3 8 4 144.907 144.482 4.463 21.353 o
3 8 5 53.850 64.517 3.746 57.922 o
3 8 6 0.000 0.156 4.527 377.522 o
3 8 7 57.066 48.810 8.163 43.237 o
3 8 8 0.837 2.394 6.566 170.095 o
3 8 9 24.205 28.602 6.679 81.226 o
3 8 10 0.108 12.028 9.205 83.970 o
3 8 11 24.924 25.595 9.301 56.937 o
3 8 12 261.722 242.787 9.930 9.747 o
3 8 13 6.129 11.254 7.537 108.037 o
3 8 14 9.580 0.353 13.631 39.189 o
3 8 15 20.785 23.991 14.401 31.016 o
3 9 0 10.684 20.600 5.910 124.896 o
3 9 1 4.063 -1.341 4.949 261.877 o
3 9 2 247.796 333.523 7.780 9.302 o
3 9 3 23.431 27.945 4.906 105.561 o
3 9 4 433.925 534.949 8.999 4.619 o
3 9 5 6.331 7.583 3.566 302.053 o
3 9 6 1.461 -1.791 4.326 377.873 o
3 9 7 49.195 60.542 5.452 55.579 o
3 9 8 17.071 10.165 7.019 99.480 o
3 9 9 49.740 50.035 10.200 37.528 o
3 9 10 17.708 5.677 10.007 61.269 o
3 9 11 24.197 22.548 10.232 51.277 o
3 9 12 166.972 144.717 12.124 14.559 o
3 10 0 3.062 -0.136 6.323 177.143 o
3 10 1 0.311 -3.724 4.848 325.287 o
3 10 2 138.306 172.165 6.627 19.344 o
3 10 3 39.672 48.361 6.260 61.573 o
3 10 4 37.218 37.383 6.463 66.236 o
3 10 5 34.457 52.776 5.436 69.255 o
3 10 6 23.520 25.387 5.174 104.065 o
3 10 7 38.148 57.181 5.835 62.030 o
3 10 8 0.645 -9.077 10.777 66.461 o
3 10 9 0.089 -1.475 10.809 66.469 o
3 10 10 3.602 1.026 10.969 61.898 o
3 10 11 0.199 11.579 11.194 58.461 o
3 10 12 0.295 -13.599 11.162 62.206 o
3 11 0 0.793 2.619 8.136 112.850 o
3 11 1 10.865 12.914 8.014 89.675 o
3 11 2 11.941 21.752 5.694 125.016 o
3 11 3 1.721 -5.866 8.291 109.584 o
3 11 4 70.719 76.085 7.144 37.665 o
3 11 5 9.919 9.374 5.811 147.663 o
3 11 6 4.516 1.502 5.715 197.310 o
3 11 7 1.350 -6.480 7.203 145.035 o
3 11 8 2.755 -10.007 12.028 52.459 o
3 11 9 1.723 6.992 12.060 51.102 o
3 11 10 4.254 7.666 12.092 49.642 o
3 11 11 10.597 20.784 12.380 43.042 o
3 12 2 43.688 55.840 11.803 32.695 o
3 12 3 29.025 27.295 11.258 42.334 o
3 12 4 53.860 61.126 7.926 43.080 o
3 12 5 63.083 88.586 8.229 35.194 o
3 12 6 3.980 13.279 11.162 56.227 o
3 12 7 28.992 37.398 11.835 38.107 o
4 -9 0 0.843 -9.301 10.520 69.561 o
4 -9 1 1.438 -8.281 7.668 128.211 o
4 -9 2 3.533 13.118 11.611 52.598 o
4 -8 0 5.280 2.610 5.619 194.274 o
4 -8 1 0.675 -0.186 5.654 236.802 o
4 -8 2 6.768 0.573 6.434 154.100 o
4 -8 3 4.089 6.721 7.027 131.893 o
4 -8 4 72.956 104.881 12.413 23.122 o
4 -7 0 52.664 47.627 5.327 57.993 o
4 -7 1 16.866 11.873 5.149 138.194 o
4 -7 2 78.521 79.232 5.631 38.473 o
4 -7 3 4.969 -8.369 6.389 164.800 o
4 -7 4 26.977 29.496 9.301 54.713 o
4 -7 5 124.718 124.960 12.060 17.911 o
4 -7 6 0.890 -2.598 11.130 62.185 o
4 -7 8 10.681 7.024 10.841 57.215 o
4 -6 0 53.089 55.299 4.943 56.956 o
4 -6 1 2.254 3.550 4.765 279.064 o
4 -6 2 16.239 10.529 5.097 143.987 o
4 -6 3 7.710 11.856 4.319 214.359 o
4 -6 4 11.930 6.496 5.787 146.339 o
4 -6 5 155.902 164.174 16.646 11.753 o
4 -6 6 41.343 28.856 6.511 65.997 o
4 -6 7 2.477 3.365 6.330 171.296 o
4 -6 8 57.888 40.604 5.885 54.411 o
4 -6 9 7.379 18.079 5.758 142.854 o
4 -6 10 8.179 1.668 11.130 57.391 o
4 -5 0 56.747 60.457 4.319 55.468 o
4 -5 1 5.038 11.396 1.987 437.660 o
4 -5 2 72.456 62.956 3.140 49.330 o
4 -5 3 76.447 69.870 3.354 45.523 o
4 -5 4 164.796 191.566 6.877 16.311 o
4 -5 5 516.489 573.209 15.422 3.550 o
4 -5 6 47.776 37.171 5.504 64.234 o
4 -5 7 437.504 464.612 9.281 4.903 o
4 -5 8 0.529 -3.760 5.255 274.804 o
4 -5 9 62.835 47.250 5.423 51.782 o
4 -5 10 7.144 0.741 6.931 134.778 o
4 -5 11 2.725 6.650 7.378 125.019 o
4 -4 0 2.766 84.554 4.678 94.713 o
4 -4 1 9.331 5.780 1.994 394.021 o
4 -4 2 66.119 60.755 3.340 52.784 o
4 -4 3 17.896 21.706 3.613 153.032 o
4 -4 4 140.704 129.476 4.071 22.952 o
4 -4 5 294.284 290.173 7.888 8.642 o
4 -4 6 59.992 55.761 4.590 54.009 o
4 -4 7 455.065 477.573 8.288 4.723 o
4 -4 8 478.199 464.557 9.337 4.522 o
4 -4 9 75.284 92.442 4.842 39.018 o
4 -4 10 39.028 36.214 4.682 78.307 o
4 -4 11 9.375 10.699 5.874 145.202 o
4 -4 12 0.626 -0.342 7.360 141.433 o
4 -3 0 644.648 644.735 15.672 2.752 o
4 -3 1 138.030 211.516 10.071 15.636 o
4 -3 2 66.613 70.627 3.387 49.816 o
4 -3 3 205.372 208.528 4.475 14.081 o
4 -3 4 7.343 2.975 3.074 373.974 o
4 -3 5 651.780 668.603 11.071 2.796 o
4 -3 6 110.641 95.097 4.518 30.171 o
4 -3 7 1093.890 1113.870 18.404 1.220 o
4 -3 8 100.429 107.461 3.671 31.889 o
4 -3 9 61.091 57.798 3.286 56.785 o
4 -3 10 42.037 53.622 4.974 65.262 o
4 -3 11 2.123 7.829 5.420 209.495 o
4 -3 12 93.638 107.736 6.534 29.712 o
4 -3 13 22.156 29.861 12.092 39.792 o
4 -2 0 76.273 166.833 5.132 29.206 o
4 -2 1 16.106 23.444 2.358 184.833 o
4 -2 2 56.092 62.872 2.432 60.612 o
4 -2 3 8.016 17.192 2.071 301.213 o
4 -2 4 228.579 257.860 4.952 11.715 o
4 -2 5 24.268 16.854 2.358 159.722 o
4 -2 6 1083.650 1096.260 17.287 1.250 o
4 -2 7 744.843 705.648 10.492 2.396 o
4 -2 8 176.136 174.858 3.429 17.386 o
4 -2 9 140.059 139.787 3.714 22.575 o
4 -2 10 511.520 522.372 7.982 4.074 o
4 -2 11 1.468 -2.813 4.268 386.989 o
4 -2 12 46.863 49.877 7.585 49.748 o
4 -2 13 3.358 9.318 7.782 109.736 o
4 -2 14 0.108 -7.634 11.418 59.558 o
4 -1 0 1300.280 1157.540 35.577 0.888 o
4 -1 1 323.545 382.602 18.122 5.692 o
4 -1 2 125.597 129.891 3.604 25.268 o
4 -1 3 2.960 2.710 2.049 800.308 o
4 -1 4 0.343 0.243 1.833 1968.240 o
4 -1 5 75.499 68.426 3.063 46.763 o
4 -1 6 331.884 354.577 5.530 7.388 o
4 -1 7 680.712 642.620 9.053 2.771 o
4 -1 8 426.848 427.645 6.100 5.382 o
4 -1 9 67.977 68.690 2.648 51.071 o
4 -1 10 302.411 297.269 5.781 8.632 o
4 -1 11 22.423 18.114 3.870 137.749 o
4 -1 12 33.952 22.986 6.833 72.347 o
4 -1 13 10.455 1.023 7.298 115.380 o
4 -1 14 77.495 64.158 8.239 34.624 o
4 -1 15 77.845 82.526 12.188 24.258 o
4 0 0 946.219 925.138 29.893 1.401 o
4 0 1 1140.320 1242.940 23.090 1.072 o
4 0 2 157.618 213.606 5.300 16.711 o
4 0 3 31.159 29.651 2.275 116.564 o
4 0 4 110.803 99.699 3.140 30.926 o
4 0 5 1096.700 1051.330 17.155 1.263 o
4 0 6 456.411 428.644 7.781 4.974 o
4 0 7 599.422 550.220 9.670 3.366 o
4 0 8 16.008 19.236 2.797 188.002 o
4 0 9 108.969 134.524 3.373 27.737 o
4 0 10 253.466 253.240 4.499 10.918 o
4 0 11 14.873 12.677 3.126 207.932 o
4 0 12 13.419 8.980 4.617 174.513 o
4 0 13 0.027 -0.550 12.396 50.571 o
4 0 14 35.486 31.055 7.868 59.559 o
4 0 15 51.266 57.156 11.226 32.837 o
4 0 16 144.402 142.761 12.862 15.333 o
4 1 0 865.704 940.517 13.725 1.742 o
4 1 1 231.249 239.887 10.520 10.573 o
4 1 2 1495.900 1654.570 30.659 0.665 o
4 1 3 673.627 769.572 10.416 2.531 o
4 1 4 194.999 180.085 3.828 15.726 o
4 1 5 777.845 781.365 10.608 2.178 o
4 1 6 2563.560 2502.360 35.619 0.287 o
4 1 7 3.101 2.613 2.760 586.674 o
4 1 8 3631.030 3626.170 51.434 0.148 o
4 1 9 2.285 2.103 3.594 452.628 o
4 1 10 441.865 410.879 8.014 5.210 o
4 1 11 0.520 1.790 3.252 627.892 o
4 1 12 63.547 66.873 4.143 50.465 o
4 1 13 17.326 17.708 6.920 94.621 o
4 1 14 38.164 38.438 10.055 43.473 o
4 1 15 72.377 59.876 8.235 36.494 o
4 1 16 40.033 28.770 10.841 40.702 o
4 2 0 2401.040 2452.640 38.998 0.309 o
4 2 1 351.570 477.831 9.720 5.764 o
4 2 2 24.942 35.414 3.308 114.676 o
4 2 3 256.658 266.029 5.339 10.461 o
4 2 4 14.264 7.136 3.221 232.016 o
4 2 5 2001.660 2008.570 60.261 0.379 o
4 2 6 64.737 54.043 4.045 53.548 o
4 2 7 1.186 1.734 3.506 521.439 o
4 2 8 316.495 352.114 10.248 7.188 o
4 2 9 102.554 112.894 4.797 29.709 o
4 2 10 53.188 66.252 3.873 57.376 o
4 2 11 16.673 27.755 4.154 135.328 o
4 2 12 0.008 3.450 4.849 302.254 o
4 2 13 27.337 31.689 8.756 57.898 o
4 2 14 11.409 6.158 9.077 76.878 o
4 2 15 0.426 -13.214 9.654 82.919 o
4 3 0 2579.850 2545.870 28.598 0.286 o
4 3 1 0.094 0.678 2.927 852.404 o
4 3 2 1955.000 1935.170 35.659 0.449 o
4 3 3 570.896 555.553 8.548 3.547 o
4 3 4 0.669 -10.057 2.105 1471.480 o
4 3 5 13.947 9.888 2.329 259.488 o
4 3 6 255.003 228.431 4.997 11.247 o
4 3 7 7.799 7.035 3.682 276.367 o
4 3 8 3912.370 3784.380 60.118 0.130 o
4 3 9 45.583 41.576 4.634 69.277 o
4 3 10 793.789 772.152 13.366 2.108 o
4 3 11 154.188 156.694 4.938 19.528 o
4 3 12 131.646 134.829 4.709 23.383 o
4 3 13 5.392 7.589 6.143 156.918 o
4 3 14 13.677 12.701 8.788 75.269 o
4 3 15 51.171 67.644 9.654 36.722 o
4 4 0 698.216 706.761 10.731 2.550 o
4 4 1 199.359 164.728 3.882 15.936 o
4 4 2 184.877 218.567 4.463 14.984 o
4 4 3 74.553 62.331 2.735 49.196 o
4 4 4 13.775 9.284 2.501 257.759 o
4 4 5 24.732 27.073 2.425 137.234 o
4 4 6 1.863 -4.337 2.448 928.927 o
4 4 7 5.054 5.299 2.733 448.012 o
4 4 8 5.716 7.330 3.794 293.923 o
4 4 9 17.151 19.830 4.077 149.230 o
4 4 10 80.304 67.997 3.910 43.316 o
4 4 11 296.260 287.044 7.679 8.664 o
4 4 12 0.347 -0.058 5.399 262.655 o
4 4 13 33.827 22.793 5.692 83.730 o
4 4 14 12.248 10.377 7.008 108.377 o
4 4 15 5.725 16.871 13.086 41.012 o
4 5 0 3000.070 2938.790 46.888 0.212 o
4 5 1 498.558 445.600 7.951 4.489 o
4 5 2 20.482 18.220 2.640 169.515 o
4 5 3 9.576 11.417 3.011 269.584 o
4 5 4 0.592 -7.901 4.090 444.689 o
4 5 5 38.812 43.801 4.536 75.414 o
4 5 6 73.218 65.070 3.409 47.923 o
4 5 7 31.319 24.170 3.267 113.362 o
4 5 8 76.853 64.716 3.139 46.853 o
4 5 9 158.657 140.301 5.187 19.762 o
4 5 10 1523.490 1419.070 27.674 0.720 o
4 5 11 23.350 24.507 3.869 125.250 o
4 5 12 35.841 32.862 4.313 87.341 o
4 5 13 27.038 21.635 3.892 118.967 o
4 5 14 0.385 -0.986 7.006 156.786 o
4 5 15 70.500 103.053 14.465 20.145 o
4 6 0 3044.460 2905.280 46.330 0.210 o
4 6 1 232.118 207.476 4.731 12.698 o
4 6 2 376.288 357.573 8.408 6.366 o
4 6 3 209.754 203.879 5.277 13.774 o
4 6 4 0.084 2.465 3.898 460.743 o
4 6 5 154.664 148.502 8.564 17.667 o
4 6 6 150.844 121.820 5.563 21.304 o
4 6 7 191.513 163.334 5.386 16.060 o
4 6 8 123.039 108.952 4.083 27.007 o
4 6 9 432.293 423.534 9.721 5.141 o
4 6 10 5.708 8.338 4.184 257.393 o
4 6 11 329.140 328.136 6.679 7.600 o
4 6 12 43.380 45.922 4.280 71.312 o
4 6 13 118.123 97.249 4.760 28.289 o
4 6 14 13.932 27.616 13.086 37.439 o
4 6 15 2.253 -1.091 14.209 37.963 o
4 7 0 18.438 13.664 3.021 184.321 o
4 7 1 803.409 806.471 18.121 1.961 o
4 7 2 124.473 124.990 3.899 25.625 o
4 7 3 166.638 198.571 4.212 16.976 o
4 7 4 1.371 4.915 3.130 529.336 o
4 7 5 0.014 17.652 4.372 255.159 o
4 7 6 187.946 204.823 14.497 11.089 o
4 7 7 4.419 5.057 5.627 191.623 o
4 7 8 4.932 14.485 5.362 174.888 o
4 7 9 200.203 204.050 7.670 13.521 o
4 7 10 812.239 782.841 25.541 1.819 o
4 7 11 23.042 14.340 5.400 112.852 o
4 7 12 76.231 78.418 5.831 38.867 o
4 7 13 10.538 2.130 5.439 174.576 o
4 7 14 3.009 -9.237 13.567 41.367 o
4 8 0 1115.660 1106.730 32.344 1.081 o
4 8 1 32.482 7.542 3.391 130.688 o
4 8 2 345.976 373.391 8.597 6.697 o
4 8 3 56.930 46.657 3.934 61.303 o
4 8 4 100.363 97.569 4.109 32.578 o
4 8 5 147.119 124.297 5.493 21.627 o
4 8 6 102.283 119.770 7.312 26.121 o
4 8 7 87.016 96.109 5.719 33.686 o
4 8 8 123.608 138.477 7.427 21.958 o
4 8 9 647.069 729.742 39.162 1.808 o
4 8 10 158.114 158.224 7.622 17.630 o
4 8 11 311.368 311.758 14.882 6.875 o
4 8 12 16.499 20.243 5.902 111.519 o
4 8 13 71.694 79.224 15.620 19.271 o
4 8 14 6.411 2.309 14.145 37.056 o
4 9 0 167.034 169.604 7.571 16.573 o
4 9 1 486.320 539.854 13.835 3.929 o
4 9 2 152.377 160.612 5.018 19.475 o
4 9 3 291.387 359.434 8.761 7.804 o
4 9 4 0.532 0.723 4.502 363.184 o
4 9 5 5.462 3.169 4.128 298.196 o
4 9 6 35.446 33.533 5.194 79.901 o
4 9 7 17.859 15.141 6.487 103.171 o
4 9 8 135.531 157.088 9.799 17.898 o
4 9 9 94.760 105.088 7.251 28.667 o
4 9 10 7.925 15.203 10.616 58.535 o
4 9 11 75.309 61.229 11.290 27.930 o
4 9 12 50.585 52.858 11.066 33.958 o
4 9 13 60.076 62.127 11.290 30.446 o
4 10 0 41.239 44.514 6.296 61.605 o
4 10 1 6.054 5.876 5.920 166.821 o
4 10 2 32.402 26.925 5.713 82.711 o
4 10 3 7.816 -2.758 9.494 77.611 o
4 10 4 83.452 114.087 10.616 24.306 o
4 10 5 51.956 54.928 7.344 47.399 o
4 10 6 5.325 -4.859 5.526 208.148 o
4 10 7 2.032 -14.459 7.021 149.840 o
4 10 8 77.220 96.157 12.348 23.243 o
4 10 9 31.025 17.288 11.547 41.786 o
4 10 10 13.126 5.453 11.643 49.806 o
4 10 11 155.528 163.833 13.599 13.681 o
4 10 12 1.605 8.147 11.739 53.583 o
4 11 0 65.912 80.308 9.116 33.194 o
4 11 1 192.450 249.794 13.102 10.789 o
4 11 2 0.610 -11.635 8.069 117.979 o
4 11 3 92.098 113.517 6.521 29.473 o
4 11 4 0.623 -12.765 10.167 74.622 o
4 11 5 9.352 4.134 13.664 38.597 o
4 11 6 4.023 0.548 7.690 120.271 o
4 11 7 2.002 -5.237 7.552 130.450 o
4 11 8 13.236 15.299 12.092 44.830 o
4 11 9 17.222 8.917 12.445 42.452 o
4 11 10 8.824 13.439 12.669 43.037 o
4 12 3 6.998 5.453 11.579 53.037 o
4 12 4 13.192 19.533 11.258 49.610 o
4 12 5 1.314 9.245 7.651 117.527 o
4 12 6 1.823 2.686 7.571 126.675 o
5 -8 0 20.367 8.981 11.450 47.513 o
5 -8 1 79.432 86.297 8.456 31.214 o
5 -8 2 0.732 -16.862 8.012 119.351 o
5 -7 0 0.812 1.837 5.828 214.935 o
5 -7 1 9.605 13.120 7.242 105.942 o
5 -7 2 23.306 17.792 6.012 98.930 o
5 -7 3 12.237 13.948 7.169 101.804 o
5 -7 4 74.862 84.001 11.867 25.147 o
5 -6 0 139.801 119.869 7.358 21.259 o
5 -6 1 109.112 95.953 5.541 29.220 o
5 -6 2 8.949 0.286 5.516 184.643 o
5 -6 3 292.027 264.662 18.234 6.867 o
5 -6 4 3.444 -7.191 5.664 213.111 o
5 -6 5 30.986 25.637 5.824 84.146 o
5 -6 6 43.876 28.219 7.851 55.444 o
5 -6 7 0.753 8.660 10.584 65.582 o
5 -6 8 0.854 7.890 10.713 64.297 o
5 -6 9 17.805 27.423 11.643 43.903 o
5 -5 0 4.319 4.129 4.985 235.352 o
5 -5 1 169.559 182.702 6.487 16.468 o
5 -5 2 92.007 88.911 5.061 34.398 o
5 -5 3 349.755 385.040 8.355 6.567 o
5 -5 4 267.667 264.281 6.924 9.878 o
5 -5 5 9.683 -4.670 4.792 219.524 o
5 -5 6 446.849 414.214 8.787 5.094 o
5 -5 7 2.060 -2.951 9.783 79.058 o
5 -5 8 0.535 -10.012 8.332 110.878 o
5 -5 9 12.057 -6.815 7.393 110.736 o
5 -5 10 2.358 -4.266 10.681 66.392 o
5 -5 11 9.462 -3.304 11.162 56.846 o
5 -4 0 141.507 131.692 5.761 21.661 o
5 -4 1 418.173 410.057 12.797 5.125 o
5 -4 2 37.473 44.179 4.475 77.067 o
5 -4 3 364.304 331.666 7.890 6.807 o
5 -4 4 151.658 141.832 4.461 20.764 o
5 -4 5 81.504 70.328 4.683 40.935 o
5 -4 6 24.160 18.693 4.451 121.398 o
5 -4 7 8.275 1.620 4.717 229.187 o
5 -4 8 23.216 16.208 4.272 130.678 o
5 -4 9 7.507 11.932 5.344 169.181 o
5 -4 10 9.128 11.467 5.628 152.746 o
5 -4 11 98.127 95.656 8.276 27.295 o
5 -4 12 0.781 -6.261 9.574 83.893 o
5 -3 0 2.011 5.678 3.657 397.219 o
5 -3 1 262.165 234.290 15.027 8.489 o
5 -3 2 12.610 30.203 3.677 155.905 o
5 -3 3 120.111 114.604 3.734 27.282 o
5 -3 4 1367.480 1392.600 21.291 0.843 o
5 -3 5 20.947 -17.561 4.708 157.258 o
5 -3 6 1068.170 1120.830 18.955 1.242 o
5 -3 7 3.873 -11.293 4.221 341.540 o
5 -3 8 187.287 175.591 5.679 15.825 o
5 -3 9 16.768 20.879 4.117 147.754 o
5 -3 10 2.880 3.616 4.972 253.083 o
5 -3 11 0.926 0.824 6.192 194.098 o
5 -3 12 223.001 236.529 10.042 11.060 o
5 -3 13 0.399 -1.604 10.777 66.639 o
5 -2 0 0.266 -0.665 1.701 2405.040 o
5 -2 1 178.389 195.335 5.651 15.771 o
5 -2 2 311.107 354.465 5.676 7.794 o
5 -2 3 185.152 190.982 6.756 15.061 o
5 -2 4 281.462 259.469 5.698 9.725 o
5 -2 5 321.215 302.748 9.584 7.658 o
5 -2 6 292.499 289.657 7.380 8.768 o
5 -2 7 648.010 623.771 12.694 2.867 o
5 -2 8 0.040 -7.341 3.623 589.802 o
5 -2 9 24.124 16.322 3.528 141.346 o
5 -2 10 2.248 -3.363 3.614 488.073 o
5 -2 11 130.641 138.386 4.842 23.195 o
5 -2 12 16.317 17.205 6.229 108.905 o
5 -2 13 10.813 14.465 12.445 43.602 o
5 -1 0 288.856 268.653 22.673 5.931 o
5 -1 1 96.825 102.760 3.977 32.947 o
5 -1 2 394.393 373.803 9.743 5.881 o
5 -1 3 38.182 66.430 3.423 70.771 o
5 -1 4 1983.620 1898.020 24.302 0.465 o
5 -1 5 8.037 -3.972 5.847 174.710 o
5 -1 6 514.321 511.127 10.931 3.978 o
5 -1 7 151.000 136.262 3.769 21.468 o
5 -1 8 821.641 823.431 14.447 1.957 o
5 -1 9 21.547 18.302 2.768 161.792 o
5 -1 10 0.121 3.615 2.859 731.045 o
5 -1 11 14.435 16.959 3.840 174.160 o
5 -1 12 17.860 15.289 7.663 84.413 o
5 -1 13 51.568 45.294 8.532 44.394 o
5 0 0 0.191 4.907 5.196 255.955 o
5 0 1 4.636 3.181 3.139 436.175 o
5 0 2 56.554 51.299 5.614 53.325 o
5 0 3 8.572 8.400 5.142 181.166 o
5 0 4 2069.430 2049.140 32.707 0.413 o
5 0 5 5.880 4.182 5.677 183.097 o
5 0 6 950.928 971.380 18.690 1.508 o
5 0 7 1343.920 1353.410 25.535 0.853 o
5 0 8 189.266 182.362 4.248 15.925 o
5 0 9 250.237 263.526 4.628 10.831 o
5 0 10 3.629 3.124 2.698 558.428 o
5 0 11 9.164 12.505 4.426 196.638 o
5 0 12 35.757 29.380 5.473 79.513 o
5 0 13 13.982 13.645 7.965 85.879 o
5 0 14 8.279 6.804 8.615 87.084 o
5 1 0 1662.240 1786.810 25.600 0.583 o
5 1 1 286.237 453.372 8.847 7.002 o
5 1 2 3.210 39.050 3.388 189.014 o
5 1 3 2469.010 2436.010 34.703 0.305 o
5 1 4 14.546 77.280 15.636 24.585 o
5 1 5 114.131 108.635 4.596 28.141 o
5 1 6 852.236 874.221 21.580 1.726 o
5 1 7 1561.440 1579.090 29.585 0.656 o
5 1 8 103.529 88.817 5.012 31.756 o
5 1 9 70.498 67.621 3.844 47.665 o
5 1 10 34.280 35.204 4.295 88.047 o
5 1 11 10.194 11.195 4.057 210.705 o
5 1 12 23.513 26.591 7.360 75.525 o
5 1 13 32.506 43.490 7.825 57.817 o
5 1 14 201.538 216.363 10.153 12.236 o
5 1 15 1.605 -13.246 11.579 57.110 o
5 2 0 225.875 271.945 4.214 11.658 o
5 2 1 48.126 64.339 3.551 62.692 o
5 2 2 38.222 31.393 3.144 94.080 o
5 2 3 44.181 57.742 3.072 70.660 o
5 2 4 3018.550 2990.710 48.209 0.207 o
5 2 5 234.809 276.256 8.380 10.433 o
5 2 6 4895.370 4901.950 113.840 0.078 o
5 2 7 642.447 609.403 16.056 2.820 o
5 2 8 23.998 23.776 4.116 120.670 o
5 2 9 460.768 470.180 8.941 4.673 o
5 2 10 31.860 28.774 3.687 102.991 o
5 2 11 0.707 -0.459 5.006 299.386 o
5 2 12 91.391 90.352 6.074 32.740 o
5 2 13 1.728 0.772 7.945 118.108 o
5 2 14 48.028 67.013 13.391 26.570 o
5 2 15 144.601 157.643 12.701 15.024 o
5 2 16 0.225 -2.758 11.386 59.825 o
5 3 0 1001.980 1023.490 16.892 1.409 o
5 3 1 0.002 29.606 9.488 71.214 o
5 3 2 514.635 509.064 10.466 4.004 o
5 3 3 2348.510 2317.630 37.085 0.329 o
5 3 4 9.780 93.892 7.046 61.495 o
5 3 5 517.978 462.101 8.523 4.237 o
5 3 6 249.458 227.361 5.509 11.392 o
5 3 7 3378.090 3390.400 62.206 0.164 o
5 3 8 0.360 -17.015 4.179 433.813 o
5 3 9 615.250 659.190 11.207 2.972 o
5 3 10 4.255 3.450 4.033 324.972 o
5 3 11 78.331 81.957 4.394 40.585 o
5 3 12 98.665 106.305 4.619 31.393 o
5 3 13 0.244 -4.288 7.502 137.343 o
5 3 14 88.350 99.410 8.547 28.158 o
5 3 15 12.417 33.998 10.809 49.996 o
5 4 0 34.311 29.759 3.130 102.519 o
5 4 1 5.880 -3.689 2.648 534.674 o
5 4 2 64.258 56.397 4.284 52.440 o
5 4 3 289.568 269.894 8.382 8.934 o
5 4 4 1549.500 1479.140 21.510 0.711 o
5 4 5 37.558 29.006 4.976 81.951 o
5 4 6 1015.220 1010.950 11.334 1.440 o
5 4 7 17.525 8.043 2.732 218.800 o
5 4 8 2.031 5.322 3.167 484.954 o
5 4 9 297.453 316.677 6.586 8.424 o
5 4 10 4.775 6.860 5.071 214.453 o
5 4 11 6.522 2.968 4.772 235.266 o
5 4 12 62.600 49.711 4.831 53.404 o
5 4 13 0.379 4.011 6.706 161.916 o
5 4 14 21.036 36.115 9.943 51.559 o
5 4 15 210.833 232.471 13.664 10.270 o
5 5 0 395.938 379.847 6.299 6.073 o
5 5 1 246.438 264.986 8.212 10.276 o
5 5 2 1.494 4.550 4.503 309.780 o
5 5 3 191.480 196.397 18.009 9.553 o
5 5 4 175.031 178.627 4.416 17.031 o
5 5 5 92.119 77.825 3.029 38.763 o
5 5 6 140.233 123.206 3.462 23.744 o
5 5 7 2465.350 2348.040 26.609 0.318 o
5 5 8 59.104 38.065 3.058 66.157 o
5 5 9 1015.640 1017.870 14.974 1.409 o
5 5 10 76.856 70.661 3.719 44.515 o
5 5 11 52.024 49.453 4.098 63.264 o
5 5 12 4.578 2.763 6.013 177.519 o
5 5 13 0.040 -0.049 6.976 159.562 o
5 5 14 108.013 113.349 10.713 21.398 o
5 6 0 33.667 38.077 3.944 89.793 o
5 6 1 176.277 173.989 4.857 16.960 o
5 6 2 1.222 0.816 3.048 683.982 o
5 6 3 52.823 56.596 4.010 60.395 o
5 6 4 798.064 709.274 13.146 2.186 o
5 6 5 27.400 15.374 5.467 101.912 o
5 6 6 249.731 243.120 5.414 11.100 o
5 6 7 199.371 191.250 5.185 14.735 o
5 6 8 28.749 15.457 3.339 130.780 o
5 6 9 7.090 6.311 3.211 330.963 o
5 6 10 382.853 351.503 10.190 6.148 o
5 6 11 12.089 5.497 4.130 214.520 o
5 6 12 7.294 4.152 3.885 286.484 o
5 6 13 7.820 3.956 5.430 184.745 o
5 6 14 53.446 58.952 14.016 24.930 o
5 7 0 72.293 71.549 5.069 43.200 o
5 7 1 374.592 411.049 7.487 6.076 o
5 7 2 33.025 22.501 3.313 110.901 o
5 7 3 688.942 725.249 17.461 2.401 o
5 7 4 599.089 570.779 13.116 3.204 o
5 7 5 75.161 72.001 5.018 42.169 o
5 7 6 151.793 132.139 9.796 17.609 o
5 7 7 1631.420 1551.330 37.716 0.605 o
5 7 8 7.350 -17.500 4.641 251.100 o
5 7 9 372.951 375.408 10.518 6.086 o
5 7 10 4.871 3.044 4.148 306.106 o
5 7 11 53.354 52.641 4.210 60.645 o
5 7 12 47.818 43.045 4.858 65.491 o
5 7 13 49.242 46.867 5.995 57.179 o
5 8 0 124.902 132.517 5.312 23.993 o
5 8 1 0.981 -3.303 3.714 516.851 o
5 8 2 30.347 21.679 3.512 115.772 o
5 8 3 29.445 15.771 3.809 121.500 o
5 8 4 162.235 165.802 4.725 18.477 o
5 8 5 84.030 100.933 8.490 28.879 o
5 8 6 36.885 37.120 5.023 77.611 o
5 8 7 311.549 345.869 10.691 7.271 o
5 8 8 47.106 38.657 6.246 59.871 o
5 8 9 21.682 15.040 6.168 101.738 o
5 8 10 339.378 370.589 16.598 5.801 o
5 8 11 22.951 9.430 10.103 56.185 o
5 8 12 32.474 27.063 6.977 70.529 o
5 8 13 17.012 22.906 6.336 100.307 o
5 9 0 64.072 60.768 5.117 48.845 o
5 9 1 69.349 79.428 5.860 40.877 o
5 9 2 37.879 21.687 4.401 91.742 o
5 9 3 163.798 162.303 5.852 17.983 o
5 9 4 202.247 205.141 6.649 13.738 o
5 9 5 88.201 74.183 5.447 36.734 o
5 9 6 12.587 20.257 8.039 82.472 o
5 9 7 350.297 381.795 10.559 6.359 o
5 9 8 8.722 12.382 10.296 62.047 o
5 9 9 188.417 197.852 9.173 13.670 o
5 9 10 1.026 5.292 10.905 62.886 o
5 9 11 2.676 -8.371 10.969 62.821 o
5 9 12 1.738 11.579 11.322 56.394 o
5 9 13 13.843 9.301 11.835 47.376 o
5 10 0 35.038 9.060 9.805 52.278 o
5 10 1 29.659 11.383 7.220 78.616 o
5 10 2 49.364 55.893 5.925 54.734 o
5 10 3 1.391 1.782 6.871 155.092 o
5 10 4 31.076 32.758 6.171 76.464 o
5 10 5 75.426 87.901 6.243 36.786 o
5 10 6 45.334 34.383 11.643 35.224 o
5 10 7 63.170 75.758 12.252 26.501 o
5 10 8 165.287 189.813 14.145 12.367 o
5 10 9 30.191 16.967 11.963 39.975 o
5 10 10 144.274 161.845 13.888 14.073 o
5 10 11 30.390 22.323 12.573 36.427 o
5 10 12 20.691 19.212 12.765 38.331 o
5 10 13 2.189 8.692 12.541 46.928 o
5 11 1 4.839 -2.598 11.707 54.268 o
5 11 2 64.949 67.961 10.825 30.238 o
5 11 3 2.123 -7.336 8.407 105.925 o
5 11 4 0.805 -10.520 10.809 65.955 o
5 11 5 4.504 -0.545 10.809 63.410 o
5 11 6 3.272 12.507 8.628 89.677 o
5 11 7 14.371 27.199 13.182 36.934 o
5 12 5 24.296 34.159 12.028 38.918 o
5 12 6 3.769 28.514 11.867 47.335 o
6 -7 2 11.271 16.005 11.194 51.705 o
6 -6 0 272.036 265.720 16.678 7.550 o
6 -6 1 22.854 26.461 11.258 44.548 o
6 -6 2 146.761 172.802 20.688 9.682 o
6 -6 3 12.939 1.842 10.985 56.095 o
6 -6 4 41.513 39.967 7.946 52.961 o
6 -5 0 19.613 18.865 6.963 89.741 o
6 -5 1 0.449 0.302 6.969 157.561 o
6 -5 2 30.342 42.495 5.369 79.112 o
6 -5 3 138.422 137.309 6.155 21.412 o
6 -5 4 6.741 -2.149 5.391 206.208 o
6 -5 5 6.284 0.571 5.437 204.716 o
6 -5 6 2.029 -0.710 6.934 153.401 o
6 -5 7 38.710 49.229 8.791 47.523 o
6 -5 8 0.131 -10.488 11.258 61.251 o
6 -4 0 323.959 330.344 7.838 7.557 o
6 -4 1 30.861 39.724 6.972 66.551 o
6 -4 2 443.828 441.224 9.288 4.957 o
6 -4 3 5.967 -8.158 5.523 203.806 o
6 -4 4 70.574 75.064 5.360 42.470 o
6 -4 5 32.613 46.403 5.150 76.227 o
6 -4 6 0.705 4.146 6.261 181.854 o
6 -4 7 0.134 4.265 6.387 177.940 o
6 -4 8 48.585 58.143 6.565 51.640 o
6 -4 9 0.381 2.429 6.463 177.472 o
6 -3 0 436.027 430.322 7.985 5.169 o
6 -3 1 61.650 70.785 6.847 42.281 o
6 -3 2 227.289 240.990 7.449 11.564 o
6 -3 3 275.858 297.736 7.191 9.123 o
6 -3 4 73.749 75.384 4.146 43.969 o
6 -3 5 238.856 237.196 6.473 11.418 o
6 -3 6 17.518 13.966 4.772 141.890 o
6 -3 7 45.348 50.010 4.041 68.844 o
6 -3 8 17.549 29.885 5.127 112.477 o
6 -3 9 35.643 55.340 11.835 34.342 o
6 -3 10 17.634 19.423 6.450 100.363 o
6 -3 11 74.102 63.859 12.701 24.887 o
6 -3 12 9.167 -7.120 13.311 41.140 o
6 -2 0 58.685 59.407 4.759 53.136 o
6 -2 1 56.962 54.557 6.735 47.779 o
6 -2 2 1360.290 1306.180 23.160 0.869 o
6 -2 3 449.702 473.104 9.972 4.706 o
6 -2 4 25.940 19.903 3.502 130.091 o
6 -2 5 4.425 -3.422 5.796 198.055 o
6 -2 6 0.135 -3.401 5.269 278.218 o
6 -2 7 22.871 13.733 3.673 147.857 o
6 -2 8 90.453 102.002 5.204 32.967 o
6 -2 9 7.809 1.189 5.440 192.488 o
6 -2 10 335.803 364.274 7.447 7.059 o
6 -2 11 19.446 21.804 5.170 116.645 o
6 -2 12 112.639 112.149 9.074 23.004 o
6 -1 0 802.395 814.739 14.683 2.011 o
6 -1 1 441.460 399.550 18.218 4.466 o
6 -1 2 505.977 523.298 10.936 3.994 o
6 -1 3 149.572 149.554 7.351 18.872 o
6 -1 4 0.275 4.762 2.984 632.294 o
6 -1 5 1384.950 1310.260 19.201 0.867 o
6 -1 6 3.153 -18.228 3.050 583.309 o
6 -1 7 13.065 8.324 2.889 253.430 o
6 -1 8 9.520 8.826 2.986 288.854 o
6 -1 9 22.942 30.777 3.461 123.723 o
6 -1 10 22.389 25.526 3.695 129.281 o
6 -1 11 237.112 254.662 9.817 10.345 o
6 -1 12 0.708 5.357 6.595 162.565 o
6 -1 13 210.671 205.144 15.684 9.892 o
6 0 0 0.215 4.482 3.919 420.482 o
6 0 1 261.454 272.239 9.494 9.437 o
6 0 2 108.292 122.927 4.264 28.206 o
6 0 3 684.982 678.171 11.865 2.629 o
6 0 4 45.931 46.025 3.561 72.521 o
6 0 5 313.687 326.171 5.645 8.046 o
6 0 6 216.644 203.719 4.487 13.602 o
6 0 7 1.913 -3.347 2.711 794.280 o
6 0 8 29.287 36.669 3.023 106.555 o
6 0 9 0.093 -1.987 2.912 904.151 o
6 0 10 208.145 220.274 5.398 13.402 o
6 0 11 64.298 76.169 3.921 48.384 o
6 0 12 62.913 71.751 6.172 43.728 o
6 0 13 28.820 37.319 8.969 53.959 o
6 1 0 827.025 817.747 12.482 1.977 o
6 1 1 190.435 203.559 4.040 15.210 o
6 1 2 410.180 441.864 11.269 5.167 o
6 1 3 252.939 280.427 4.754 10.427 o
6 1 4 32.146 49.319 2.705 92.331 o
6 1 5 551.171 592.575 7.810 3.574 o
6 1 6 29.911 32.814 3.335 106.333 o
6 1 7 101.982 112.376 3.829 30.865 o
6 1 8 51.240 54.566 3.583 63.944 o
6 1 9 38.123 39.645 3.129 88.029 o
6 1 10 34.596 41.611 4.004 85.520 o
6 1 11 349.241 392.430 12.028 6.132 o
6 1 12 1.332 -0.063 8.207 112.581 o
6 1 13 170.297 173.124 10.052 14.868 o
6 1 14 0.370 11.130 12.092 50.538 o
6 2 0 72.580 73.160 9.920 30.558 o
6 2 1 66.582 57.333 3.252 53.699 o
6 2 2 47.238 51.118 3.288 70.028 o
6 2 3 1363.150 1367.100 21.654 0.853 o
6 2 4 1.308 103.990 15.569 24.735 o
6 2 5 849.220 898.947 12.800 1.829 o
6 2 6 481.274 466.347 6.788 4.596 o
6 2 7 23.713 34.484 4.998 97.825 o
6 2 8 0.024 -3.136 3.496 634.314 o
6 2 9 125.423 110.754 4.130 26.432 o
6 2 10 292.530 302.335 7.641 8.574 o
6 2 11 225.939 242.564 7.121 11.669 o
6 2 12 5.387 11.114 6.931 125.114 o
6 2 13 6.457 14.189 8.552 85.766 o
6 2 14 124.951 144.493 13.471 15.919 o
6 3 0 570.723 566.366 10.828 3.447 o
6 3 1 12.522 40.025 7.553 77.778 o
6 3 2 215.469 245.709 5.823 12.353 o
6 3 3 168.968 190.922 5.839 16.497 o
6 3 4 1.676 16.188 3.625 302.467 o
6 3 5 41.490 48.005 3.199 77.978 o
6 3 6 646.607 662.040 10.691 2.840 o
6 3 7 42.188 41.197 4.318 74.631 o
6 3 8 0.122 -0.559 4.142 448.948 o
6 3 9 40.013 39.268 4.342 77.875 o
6 3 10 135.048 146.008 5.785 21.566 o
6 3 11 303.358 352.158 8.214 7.706 o
6 3 12 5.908 6.774 5.489 184.779 o
6 3 13 348.701 387.339 11.016 6.292 o
6 3 14 1.365 8.472 8.910 89.808 o
6 3 15 45.547 45.930 12.380 31.452 o
6 4 0 23.858 17.162 3.593 139.641 o
6 4 1 659.532 548.597 12.298 2.993 o
6 4 2 83.200 122.835 5.685 31.553 o
6 4 3 1084.760 1008.990 19.553 1.285 o
6 4 4 36.590 154.709 9.281 31.128 o
6 4 5 648.568 724.133 19.366 2.480 o
6 4 6 268.661 260.579 5.949 10.065 o
6 4 7 3.268 3.407 4.129 332.177 o
6 4 8 49.171 40.946 3.577 71.752 o
6 4 9 38.592 39.397 3.963 82.070 o
6 4 10 201.857 198.556 6.420 14.007 o
6 4 11 73.958 85.618 5.633 38.895 o
6 4 12 32.132 29.777 6.648 72.535 o
6 4 13 70.737 96.420 8.808 31.192 o
6 4 14 201.801 217.568 11.111 11.822 o
6 4 15 9.023 27.006 11.931 45.265 o
6 5 0 22.125 20.478 3.770 136.688 o
6 5 1 22.038 18.021 4.017 136.381 o
6 5 2 486.466 500.569 9.169 4.308 o
6 5 3 0.037 63.213 9.093 62.509 o
6 5 4 1248.500 1087.030 18.827 1.069 o
6 5 5 36.982 101.929 6.849 45.758 o
6 5 6 907.644 914.336 13.168 1.691 o
6 5 7 111.520 84.450 3.760 31.896 o
6 5 8 192.186 187.697 4.875 15.378 o
6 5 9 0.158 -2.030 3.823 524.549 o
6 5 10 23.928 27.003 6.133 89.125 o
6 5 11 104.127 99.124 8.176 26.232 o
6 5 12 0.688 3.176 6.524 170.982 o
6 5 13 225.321 233.686 12.303 10.291 o
6 5 14 0.213 3.753 11.066 62.133 o
6 5 15 33.263 51.029 11.835 35.368 o
6 6 0 189.545 183.069 4.447 15.827 o
6 6 1 1045.100 956.033 14.595 1.414 o
6 6 2 25.997 79.243 13.043 29.925 o
6 6 3 457.671 426.553 10.995 4.787 o
6 6 4 28.275 108.414 16.630 19.868 o
6 6 5 578.855 554.602 12.482 3.376 o
6 6 6 10.137 11.736 3.535 234.048 o
6 6 7 97.433 79.789 3.716 36.052 o
6 6 8 57.703 46.596 4.140 59.986 o
6 6 9 0.323 -1.444 4.132 444.646 o
6 6 10 2.175 2.739 4.190 352.025 o
6 6 11 135.297 142.734 9.085 19.103 o
6 6 12 41.715 32.875 8.115 53.733 o
6 6 13 103.370 66.874 17.641 15.178 o
6 7 0 98.401 97.155 5.544 31.248 o
6 7 1 18.397 19.331 5.138 122.976 o
6 7 2 163.668 152.574 6.074 18.288 o
6 7 3 229.204 216.819 10.333 11.097 o
6 7 4 1191.620 1110.020 28.091 1.049 o
6 7 5 17.969 35.003 6.670 85.045 o
6 7 6 488.973 438.430 12.926 4.339 o
6 7 7 4.334 -4.080 4.946 259.108 o
6 7 8 211.137 199.742 18.218 8.967 o
6 7 9 44.629 33.379 7.940 53.085 o
6 7 10 5.762 10.301 8.046 98.675 o
6 7 11 0.003 -0.397 8.091 118.743 o
6 7 12 9.931 6.240 6.390 134.782 o
6 7 13 107.098 119.115 11.370 20.390 o
6 8 0 52.369 31.976 8.218 48.227 o
6 8 1 370.300 386.388 19.389 5.013 o
6 8 2 137.737 109.648 6.023 23.232 o
6 8 3 230.584 210.940 7.635 11.986 o
6 8 4 34.867 43.100 7.757 56.954 o
6 8 5 209.087 197.151 9.728 12.489 o
6 8 6 17.158 8.346 6.175 117.955 o
6 8 7 64.906 53.339 9.911 34.282 o
6 8 8 4.737 4.983 8.322 99.005 o
6 8 9 36.314 28.147 7.980 59.156 o
6 8 10 1.458 5.427 6.604 158.851 o
6 8 11 207.056 247.956 13.617 10.168 o
6 8 12 20.895 25.549 7.591 76.160 o
6 8 13 94.079 89.197 8.285 28.505 o
6 9 0 46.888 39.780 9.878 41.147 o
6 9 1 25.472 20.351 7.168 78.897 o
6 9 2 33.113 30.151 5.954 77.688 o
6 9 3 160.082 165.816 7.560 17.224 o
6 9 4 55.508 42.443 7.943 45.959 o
6 9 5 23.312 10.396 12.384 40.745 o
6 9 6 400.924 388.955 25.098 4.094 o
6 9 7 42.582 40.596 9.844 42.583 o
6 9 8 69.980 67.227 11.899 26.918 o
6 9 9 8.812 6.846 14.064 36.395 o
6 9 10 2.097 5.448 8.002 110.727 o
6 9 11 19.806 7.808 8.628 73.755 o
6 9 12 14.088 12.467 8.036 85.417 o
6 9 13 13.801 17.200 8.214 80.406 o
6 10 0 0.249 -6.818 10.494 70.387 o
6 10 1 0.027 -0.205 7.677 131.818 o
6 10 2 0.235 7.854 7.583 123.741 o
6 10 3 61.683 72.404 7.838 38.926 o
6 10 4 36.155 31.779 9.734 47.163 o
6 10 5 0.713 12.284 19.437 20.108 o
6 10 6 95.911 91.608 10.907 23.691 o
6 10 7 19.471 17.316 10.436 53.310 o
6 10 8 0.095 -1.315 12.348 50.937 o
6 10 9 33.237 21.233 12.284 37.116 o
6 10 10 2.199 -9.815 12.637 47.836 o
6 10 11 19.951 20.720 12.765 38.327 o
6 11 0 36.823 73.962 20.527 14.861 o
6 11 1 14.547 1.604 20.303 17.991 o
6 11 2 43.795 5.132 20.206 16.527 o
6 11 3 75.827 67.130 20.495 13.486 o
6 11 4 6.770 2.876 12.990 43.361 o
7 -5 1 0.000 -11.226 11.354 60.297 o
7 -5 2 0.041 3.311 8.243 110.878 o
7 -5 3 13.720 1.379 10.905 56.517 o
7 -5 4 20.512 12.380 10.969 50.053 o
7 -4 0 0.476 -4.369 6.616 175.170 o
7 -4 1 37.395 28.741 6.782 67.203 o
7 -4 2 1.098 10.451 7.560 119.120 o
7 -4 3 27.226 16.358 7.566 74.692 o
7 -4 4 17.092 11.050 7.768 86.537 o
7 -4 5 20.182 23.414 10.520 50.911 o
7 -4 6 7.909 -6.671 10.520 64.337 o
7 -3 0 40.475 35.462 4.885 75.656 o
7 -3 1 104.878 107.805 6.876 27.225 o
7 -3 2 63.752 47.400 12.092 28.959 o
7 -3 3 9.466 7.800 5.277 172.364 o
7 -3 4 69.506 83.067 5.752 40.477 o
7 -3 5 0.005 -7.703 6.345 193.021 o
7 -3 6 228.639 212.402 9.611 11.433 o
7 -3 7 33.812 28.287 8.083 59.973 o
7 -3 8 119.599 135.031 13.535 16.482 o
7 -3 9 114.849 144.236 14.016 16.041 o
7 -2 0 12.219 -1.042 5.993 150.453 o
7 -2 1 10.602 4.998 5.974 147.798 o
7 -2 2 4.958 7.795 5.941 166.583 o
7 -2 3 1.277 -4.789 6.968 154.897 o
7 -2 4 0.277 -5.756 11.370 59.963 o
7 -2 5 0.903 4.363 8.740 96.773 o
7 -2 6 62.664 74.708 5.602 44.939 o
7 -2 7 47.553 41.636 6.264 58.487 o
7 -2 8 22.521 31.491 4.993 102.701 o
7 -2 9 306.728 326.080 11.461 7.423 o
7 -2 10 15.558 15.175 7.717 86.606 o
7 -1 0 128.804 141.736 5.677 22.622 o
7 -1 1 129.026 137.042 8.274 20.678 o
7 -1 2 273.734 245.686 13.279 8.566 o
7 -1 3 1.589 -4.215 6.446 178.408 o
7 -1 4 0.054 -10.063 5.498 256.582 o
7 -1 5 22.395 19.431 5.595 105.603 o
7 -1 6 379.370 405.136 13.101 5.551 o
7 -1 7 118.023 116.968 5.052 26.361 o
7 -1 8 46.075 56.913 5.791 57.028 o
7 -1 9 83.441 72.002 5.709 37.913 o
7 -1 10 3.670 0.806 5.365 228.734 o
7 -1 11 0.308 -1.898 7.161 150.453 o
7 -1 12 120.085 134.935 14.818 15.278 o
7 0 0 19.302 11.633 5.421 124.915 o
7 0 1 73.006 70.817 8.036 35.436 o
7 0 2 215.231 219.321 12.380 10.816 o
7 0 3 0.785 -1.029 4.850 317.060 o
7 0 4 36.562 33.672 3.585 91.611 o
7 0 5 8.422 4.189 3.792 278.553 o
7 0 6 3.307 1.841 4.011 361.736 o
7 0 7 292.833 306.011 7.105 8.597 o
7 0 8 19.956 11.410 4.350 148.070 o
7 0 9 800.048 891.043 19.777 1.845 o
7 0 10 85.593 90.974 5.383 35.266 o
7 0 11 40.107 42.718 7.279 56.915 o
7 0 12 12.172 8.660 13.279 39.320 o
7 1 0 49.171 40.042 4.972 64.998 o
7 1 1 109.989 116.204 4.830 27.981 o
7 1 2 7.480 8.102 3.917 257.439 o
7 1 3 12.571 7.003 3.688 225.934 o
7 1 4 32.968 29.702 3.526 101.582 o
7 1 5 55.613 51.583 3.461 62.170 o
7 1 6 195.837 207.300 4.843 14.566 o
7 1 7 13.346 12.254 3.835 194.289 o
7 1 8 26.869 22.008 4.417 111.480 o
7 1 9 8.542 11.014 6.629 125.187 o
7 1 10 140.181 144.509 5.772 21.093 o
7 1 11 6.284 0.485 5.072 228.072 o
7 1 12 227.336 268.675 11.514 9.950 o
7 2 0 198.506 183.803 4.722 15.146 o
7 2 1 57.500 64.624 4.075 54.577 o
7 2 2 166.115 166.108 4.284 18.301 o
7 2 3 19.816 24.573 3.482 142.828 o
7 2 4 9.019 6.174 3.216 299.617 o
7 2 5 8.082 13.035 3.293 261.623 o
7 2 6 290.765 307.834 7.284 8.600 o
7 2 7 573.147 562.836 11.807 3.409 o
7 2 8 45.310 49.719 4.554 66.409 o
7 2 9 1302.950 1377.510 38.473 0.798 o
7 2 10 2.845 8.671 6.444 153.225 o
7 2 11 39.251 35.464 7.616 57.521 o
7 2 12 5.668 3.214 10.018 70.863 o
7 3 0 0.458 -6.638 3.684 549.298 o
7 3 1 67.081 82.554 3.837 45.881 o
7 3 2 38.842 60.972 3.468 72.579 o
7 3 3 48.719 53.330 4.151 64.099 o
7 3 4 1.649 -3.634 4.005 428.434 o
7 3 5 208.338 197.273 8.354 13.041 o
7 3 6 28.244 27.146 4.171 106.360 o
7 3 7 214.883 232.837 8.258 11.999 o
7 3 8 11.974 14.455 6.416 117.576 o
7 3 9 243.835 297.744 12.150 8.940 o
7 3 10 535.979 554.437 17.576 3.384 o
7 3 11 10.256 2.614 9.837 69.621 o
7 3 12 190.999 213.833 9.350 13.080 o
7 3 13 70.136 97.408 13.182 22.516 o
7 4 0 95.918 73.185 5.572 34.571 o
7 4 1 72.572 72.538 3.807 45.736 o
7 4 2 350.227 341.577 7.715 6.979 o
7 4 3 15.892 47.019 5.351 96.011 o
7 4 4 27.478 36.869 4.903 90.974 o
7 4 5 6.087 0.848 4.837 244.964 o
7 4 6 182.446 186.353 7.377 15.109 o
7 4 7 286.038 278.015 8.595 8.883 o
7 4 8 82.953 75.609 10.504 27.284 o
7 4 9 699.147 723.865 15.712 2.413 o
7 4 10 271.270 286.585 12.684 8.305 o
7 4 11 43.594 52.962 7.635 50.323 o
7 4 12 0.126 9.797 10.484 66.814 o
7 4 13 75.641 94.858 13.006 22.371 o
7 5 0 128.947 104.363 9.066 21.604 o
7 5 1 29.265 55.928 17.416 20.413 o
7 5 2 16.719 15.600 8.884 70.047 o
7 5 3 22.920 13.792 7.168 85.823 o
7 5 4 4.688 3.701 7.022 134.767 o
7 5 5 79.212 73.976 6.455 37.214 o
7 5 6 28.636 20.278 7.843 68.808 o
7 5 7 118.450 126.124 16.999 13.703 o
7 5 8 76.405 70.713 8.498 33.458 o
7 5 9 248.841 233.332 10.597 10.098 o
7 5 10 123.719 115.315 8.429 22.266 o
7 5 11 47.130 41.988 7.327 52.885 o
7 5 12 263.604 279.146 30.646 4.609 o
7 5 13 0.011 -3.304 18.924 21.706 o
7 5 14 0.929 -1.612 10.552 69.075 o
7 6 0 4.480 -0.670 7.873 114.804 o
7 6 1 7.053 7.307 7.984 100.278 o
7 6 2 837.989 822.263 25.226 1.736 o
7 6 3 125.205 233.241 17.641 11.057 o
7 6 5 25.240 20.179 6.610 85.976 o
7 6 6 4.833 4.834 7.093 130.405 o
7 6 7 0.046 -0.826 6.011 214.818 o
7 6 8 70.503 75.975 7.172 37.669 o
7 6 9 31.777 36.516 6.311 72.614 o
7 6 10 156.945 151.774 9.477 16.750 o
7 6 11 11.465 18.378 18.474 21.113 o
7 6 12 98.154 98.474 11.738 21.804 o
7 6 13 77.092 77.522 20.078 13.642 o
7 6 14 4.680 -21.521 20.303 18.588 o
7 7 0 9.163 -9.145 8.368 95.040 o
7 7 1 58.090 63.449 8.635 38.793 o
7 7 2 0.025 3.821 8.252 110.159 o
7 7 3 17.557 14.080 19.982 18.018 o
7 7 4 93.865 85.445 17.352 15.495 o
7 7 5 24.939 40.862 9.847 49.321 o
7 7 6 14.246 9.045 9.654 66.115 o
7 7 7 27.599 20.969 13.214 34.528 o
7 7 8 46.309 37.749 8.853 46.441 o
7 7 9 219.415 218.871 11.131 11.135 o
7 7 10 68.541 69.247 9.570 32.647 o
7 7 11 2.855 2.745 9.158 87.085 o
7 7 12 45.779 53.636 9.687 40.122 o
7 8 0 3.040 2.203 6.878 147.780 o
7 8 1 8.809 17.084 8.748 78.500 o
7 8 2 228.209 208.008 10.951 11.080 o
7 8 3 15.662 35.489 8.990 62.236 o
7 8 4 49.588 60.716 18.346 17.373 o
7 8 5 1.339 5.896 8.613 97.574 o
7 8 6 9.413 1.892 9.943 69.289 o
7 8 7 21.827 19.597 10.232 53.120 o
7 8 8 122.298 127.457 15.716 14.572 o
7 8 9 35.992 26.769 9.389 50.333 o
7 8 10 123.491 123.895 10.489 19.659 o
7 8 11 5.911 5.709 10.937 59.394 o
7 8 12 205.758 215.075 20.319 8.158 o
7 8 13 103.859 117.167 9.208 23.599 o
7 9 0 0.710 -6.417 7.593 132.752 o
7 9 1 78.960 79.134 8.025 33.028 o
7 9 2 25.908 30.795 9.590 52.898 o
7 9 3 0.001 3.504 11.354 59.270 o
7 9 4 10.183 10.745 19.212 19.971 o
7 9 5 25.630 25.884 19.661 17.757 o
7 9 6 22.779 20.912 15.331 27.872 o
7 9 7 12.327 10.809 10.713 56.428 o
7 9 8 1.393 2.735 8.074 113.135 o
7 9 9 58.431 54.415 10.023 35.346 o
7 9 10 46.414 36.427 10.119 40.786 o
7 10 0 62.565 21.297 21.329 13.987 o
7 10 1 30.321 22.259 21.265 15.321 o
7 10 2 16.352 7.217 21.105 16.491 o
7 10 3 4.379 3.304 21.169 17.053 o
7 10 4 62.302 80.986 21.521 12.762 o
8 -3 1 9.305 7.409 12.220 46.795 o
8 -3 2 0.031 9.141 12.637 46.947 o
8 -3 5 188.585 195.362 14.722 11.121 o
8 -3 6 13.583 17.416 12.413 42.447 o
8 -2 0 0.201 7.441 11.290 58.678 o
8 -2 1 86.522 89.036 8.697 29.111 o
8 -2 2 125.074 140.125 9.218 20.034 o
8 -2 3 4.607 14.152 10.360 63.519 o
8 -2 4 157.374 176.050 15.732 12.025 o
8 -2 5 24.570 16.550 11.963 41.693 o
8 -2 6 22.294 9.686 12.252 41.864 o
8 -2 7 30.578 29.219 12.669 35.189 o
8 -1 0 39.312 38.110 6.685 62.788 o
8 -1 1 45.793 36.182 6.553 59.770 o
8 -1 2 45.960 38.841 11.386 35.505 o
8 -1 3 217.239 246.144 18.041 8.401 o
8 -1 4 32.174 29.799 6.542 73.448 o
8 -1 5 294.965 310.111 18.171 6.507 o
8 -1 6 0.027 -8.486 6.820 167.018 o
8 -1 7 225.698 228.199 10.520 10.959 o
8 -1 8 12.473 18.539 13.279 37.985 o
8 0 0 0.030 -7.148 7.175 150.863 o
8 0 1 44.201 41.484 7.451 53.918 o
8 0 2 0.480 -11.354 10.905 65.031 o
8 0 3 9.547 12.675 6.375 127.027 o
8 0 4 3.100 4.145 5.386 218.219 o
8 0 5 1.345 -0.454 5.525 241.137 o
8 0 6 137.143 137.440 5.859 21.761 o
8 0 7 0.494 -5.948 6.756 167.968 o
8 0 8 71.844 66.912 8.593 34.746 o
8 0 9 6.682 -4.724 8.788 90.605 o
8 0 10 91.112 103.663 11.675 22.368 o
8 1 0 7.915 11.963 9.943 66.549 o
8 1 1 153.030 150.780 6.831 18.851 o
8 1 2 108.272 102.048 5.611 28.723 o
8 1 3 105.114 105.432 7.539 26.491 o
8 1 4 54.268 38.401 4.547 63.786 o
8 1 5 218.516 220.915 6.972 12.476 o
8 1 6 0.001 -3.052 5.578 249.805 o
8 1 7 303.216 331.999 9.959 7.670 o
8 1 8 50.393 47.430 6.778 52.496 o
8 1 9 7.238 17.626 6.968 112.114 o
8 1 10 70.170 67.141 11.970 26.741 o
8 1 11 2.248 1.969 8.229 108.189 o
8 2 0 6.295 11.310 6.729 128.100 o
8 2 1 7.859 6.486 8.412 91.385 o
8 2 2 5.635 1.553 5.020 232.634 o
8 2 3 2.416 5.540 6.094 177.604 o
8 2 4 33.130 22.591 4.384 98.967 o
8 2 5 118.301 120.074 5.056 26.068 o
8 2 6 123.512 137.083 5.437 23.775 o
8 2 7 62.334 57.603 5.878 47.866 o
8 2 8 321.458 323.154 13.532 6.855 o
8 2 9 27.072 26.026 5.307 95.451 o
8 2 10 32.270 34.471 7.238 65.400 o
8 2 11 0.054 -0.145 18.907 21.739 o
8 3 0 60.755 53.436 5.297 51.718 o
8 3 1 126.906 116.527 6.348 23.903 o
8 3 2 6.441 1.797 4.926 230.860 o
8 3 3 43.450 36.273 5.292 69.545 o
8 3 4 17.604 25.434 4.331 132.585 o
8 3 5 189.070 197.230 5.158 15.188 o
8 3 6 11.564 18.737 4.618 160.033 o
8 3 7 109.693 124.777 6.164 25.954 o
8 3 8 39.563 62.028 7.241 52.048 o
8 3 9 0.018 -3.815 7.171 151.076 o
8 3 10 13.019 13.906 8.018 86.121 o
8 3 11 0.960 5.146 8.417 103.160 o
8 3 12 20.090 20.495 19.533 18.445 o
8 4 0 63.551 55.413 11.771 29.158 o
8 4 1 19.251 27.332 5.367 107.641 o
8 4 2 0.233 -3.360 5.757 232.427 o
8 4 3 0.554 4.246 5.631 221.350 o
8 4 4 28.027 33.254 6.204 79.215 o
8 4 5 129.558 138.021 8.779 20.116 o
8 4 6 220.347 220.021 8.322 12.018 o
8 4 7 14.310 14.058 9.141 69.812 o
8 4 8 391.599 421.705 19.260 4.681 o
8 4 9 1.897 -10.870 9.658 81.223 o
8 4 10 37.865 46.742 10.745 39.119 o
8 4 11 24.055 22.332 8.285 67.470 o
8 4 12 6.493 7.185 20.174 18.509 o
8 5 0 399.783 409.647 21.073 4.466 o
8 5 1 216.988 184.489 16.646 9.617 o
8 5 2 6.731 3.721 14.658 34.413 o
8 5 3 4.635 3.977 10.937 60.678 o
8 5 4 0.149 5.036 10.649 66.557 o
8 5 5 37.925 34.944 8.870 50.627 o
8 5 6 27.428 37.521 9.121 53.609 o
8 5 7 12.021 15.111 9.141 71.320 o
8 5 8 167.317 174.170 12.878 13.341 o
8 5 9 56.333 46.308 9.701 38.054 o
8 5 10 14.191 20.493 9.651 62.149 o
8 5 11 0.567 3.047 20.174 18.974 o
8 5 12 2.470 -21.906 20.912 17.648 o
8 6 0 26.079 28.866 16.261 24.421 o
8 6 1 7.029 4.939 16.326 27.888 o
8 6 2 60.116 66.681 16.550 19.178 o
8 6 3 0.312 -36.885 16.454 28.670 o
8 6 5 35.383 24.697 11.066 41.699 o
8 6 6 223.460 207.426 10.952 11.259 o
8 6 7 23.503 32.922 9.402 54.934 o
8 6 8 208.514 210.437 13.888 10.593 o
8 6 9 30.842 29.200 9.447 51.825 o
8 6 10 15.867 20.816 20.495 17.105 o
8 6 11 9.516 25.723 20.816 16.808 o
8 7 0 269.073 255.436 20.976 6.634 o
8 7 1 39.074 42.585 9.768 43.816 o
8 7 2 18.795 31.963 9.449 57.477 o
8 7 3 13.539 15.911 9.255 68.398 o
8 7 4 0.823 -29.668 18.250 23.265 o
8 7 5 2.428 5.388 10.681 64.442 o
8 7 6 299.569 298.736 15.877 6.980 o
8 7 7 65.777 78.969 23.638 10.970 o
8 7 8 102.941 92.487 10.468 23.458 o
8 7 9 30.657 39.868 21.169 15.061 o
8 8 0 2.837 13.567 20.431 18.086 o
8 8 1 2.351 2.726 20.014 19.179 o
8 8 2 76.493 98.499 20.944 12.511 o
8 8 3 14.574 24.376 20.431 17.179 o
8 8 4 64.358 78.292 20.720 13.487 o
8 8 5 26.866 44.102 20.495 16.005 o
9 1 0 41.874 28.225 11.514 37.321 o
9 1 1 3.843 -5.837 11.322 58.403 o
9 1 2 147.423 130.348 13.022 15.390 o
9 2 0 92.174 70.947 11.579 24.302 o
9 2 1 99.861 79.575 11.418 23.131 o
9 2 2 3.912 21.842 11.130 54.342 o
9 2 3 30.858 29.957 11.290 41.179 o
9 2 4 10.775 30.855 11.514 46.578 o
9 3 0 92.846 81.403 11.066 24.447 o
9 3 1 22.814 34.800 11.001 44.549 o
9 3 2 297.655 268.875 14.818 7.486 o
9 3 3 38.674 38.873 11.033 38.773 o
9 3 4 191.019 191.716 13.134 11.849 o
9 3 5 1.319 3.627 8.495 102.053 o
9 3 6 216.922 222.487 10.675 11.321 o
9 3 7 4.576 19.180 13.214 40.293 o
9 4 1 19.002 9.879 9.943 59.737 o
9 4 2 53.128 49.297 10.616 35.282 o
9 4 3 4.952 1.873 7.897 111.210 o
9 4 4 4.410 26.221 8.243 85.733 o
9 4 5 14.870 15.276 8.254 79.743 o
9 4 6 9.127 25.662 8.485 77.269 o
9 4 7 59.437 33.870 13.182 27.833 o
9 4 8 105.791 98.435 13.760 18.461 o
9 4 9 1.086 -10.520 13.086 45.029 o
9 4 10 94.991 96.510 14.401 18.547 o
9 5 3 0.766 4.651 13.054 44.584 o
9 5 4 305.986 300.628 17.288 6.590 o
9 5 5 17.648 36.693 13.150 35.243 o
9 5 6 135.805 143.627 14.177 14.746 o
9 5 7 3.042 17.705 12.765 43.601 o
9 5 8 55.626 60.908 13.150 26.525 o
9 5 9 6.602 7.185 12.797 43.945 o
9 6 5 84.772 86.022 13.503 21.103 o
9 6 6 0.474 -13.182 12.862 46.820 o
9 6 7 165.426 145.840 13.888 13.451 o
9 6 8 0.105 1.251 12.541 49.135 o
;
loop_
_space_group_symop_id
_space_group_symop_operation_xyz
1 x,y,z
2 -x,-y,-z
loop_
_atom_site_label
_atom_site_type_symbol
_atom_site_fract_x
_atom_site_fract_y
_atom_site_fract_z
_atom_site_U_iso_or_equiv
_atom_site_adp_type
_atom_site_occupancy
S001 S 0.78523(13) 0.30305(11) 0.49996(7) 0.0308(2) Uani 1.000000
S002 S 1.10542(14) 0.27962(13) 0.58290(8) 0.0393(3) Uani 1.000000
S003 S 0.31157(15) 0.27737(13) 0.86706(8) 0.0388(3) Uani 1.000000
S004 S 0.59077(15) 0.24394(14) 0.98343(8) 0.0443(3) Uani 1.000000
F00C F 1.1588(5) 0.1085(3) 0.6157(3) 0.0798(10) Uani 1.000000
F00E F 0.4298(6) 0.1398(4) 0.8143(3) 0.0812(10) Uani 1.000000
F00N F 0.7072(6) 0.0814(5) 0.9697(4) 0.1113(15) Uani 1.000000
F005 F 0.7968(4) 0.1351(3) 0.5288(2) 0.0619(8) Uani 1.000000
O00A O 0.3594(5) 0.3975(4) 0.7916(2) 0.0516(8) Uani 1.000000
O00B O 0.6559(4) 0.3619(4) 0.5867(2) 0.0508(8) Uani 1.000000
O00D O 0.1161(5) 0.2720(4) 0.8878(3) 0.0574(9) Uani 1.000000
O00F O 0.9890(5) 0.3325(5) 0.6743(3) 0.0618(10) Uani 1.000000
O00I O 0.6882(5) 0.3223(5) 0.8983(3) 0.0778(13) Uani 1.000000
O00K O 0.6000(6) 0.2418(7) 1.0878(3) 0.0929(16) Uani 1.000000
O00L O 1.2834(5) 0.3142(5) 0.5442(3) 0.0750(12) Uani 1.000000
O006 O 0.6422(4) 0.5980(3) 0.7165(2) 0.0374(6) Uani 1.000000
O007 O 0.7289(4) 0.3467(4) 0.3983(2) 0.0425(7) Uani 1.000000
O008 O 0.9208(4) 0.5930(4) 0.8166(2) 0.0463(7) Uani 1.000000
O009 O 0.8549(4) 0.8402(4) 0.7687(2) 0.0475(8) Uani 1.000000
N00G N 0.9994(4) 0.3057(4) 0.4860(2) 0.0355(8) Uani 1.000000
N00H N 0.3838(5) 0.2445(4) 0.9746(3) 0.0404(8) Uani 1.000000
C00J C 0.6670(5) 0.7174(5) 0.7152(3) 0.0339(9) Uani 1.000000
C00M C 0.8302(5) 0.7097(5) 0.7732(3) 0.0364(9) Uani 1.000000
C00O C 0.5542(6) 0.8622(5) 0.6648(4) 0.0451(10) Uani 1.000000
H00a H 0.464(3) 0.8467(5) 0.628(2) 0.0676(16) Uiso 1.000000
H00b H 0.482(4) 0.9217(15) 0.7193(5) 0.0676(16) Uiso 1.000000
H00c H 0.6416(7) 0.9137(16) 0.6145(19) 0.0676(16) Uiso 1.000000
C00P C 1.0079(7) 0.8405(7) 0.8226(4) 0.0573(13) Uani 1.000000
H00d H 1.1301(13) 0.777(3) 0.793(2) 0.086(2) Uiso 1.000000
H00e H 1.019(4) 0.9410(9) 0.812(3) 0.086(2) Uiso 1.000000
H00f H 0.976(3) 0.804(4) 0.8984(6) 0.086(2) Uiso 1.000000
Li0Q Li 0.8947(10) 0.3995(10) 0.8113(6) 0.0450(18) Uani 1.000000
Li0R Li 0.4818(10) 0.5058(8) 0.6683(5) 0.0391(15) Uani 1.000000
loop_
_atom_site_aniso_label
_atom_site_aniso_U_11
_atom_site_aniso_U_22
_atom_site_aniso_U_33
_atom_site_aniso_U_12
_atom_site_aniso_U_13
_atom_site_aniso_U_23
S001 0.0245(4) 0.0384(5) 0.0301(5) -0.0101(4) -0.0043(3) -0.0053(4)
S002 0.0279(5) 0.0532(7) 0.0369(5) -0.0051(4) -0.0112(4) -0.0107(5)
S003 0.0355(5) 0.0500(6) 0.0322(5) -0.0155(5) -0.0083(4) -0.0019(4)
S004 0.0308(5) 0.0682(8) 0.0338(5) -0.0200(5) -0.0062(4) 0.0008(5)
F00C 0.089(2) 0.0509(18) 0.095(2) 0.0077(16) -0.052(2) -0.0039(17)
F00E 0.096(3) 0.074(2) 0.082(2) -0.0096(19) -0.021(2) -0.0418(19)
F00N 0.064(2) 0.083(3) 0.169(4) 0.010(2) -0.038(3) -0.013(3)
F005 0.0692(19) 0.0446(16) 0.078(2) -0.0257(14) -0.0235(16) 0.0019(14)
O00A 0.0435(17) 0.071(2) 0.0359(16) -0.0240(16) -0.0057(13) 0.0101(15)
O00B 0.0307(15) 0.084(2) 0.0400(17) -0.0186(15) 0.0058(12) -0.0227(16)
O00D 0.0411(18) 0.080(2) 0.055(2) -0.0319(17) -0.0223(15) 0.0156(17)
O00F 0.050(2) 0.094(3) 0.0397(18) -0.0026(18) -0.0132(15) -0.0257(18)
O00I 0.0404(19) 0.133(4) 0.060(2) -0.050(2) -0.0111(16) 0.023(2)
O00K 0.057(2) 0.194(5) 0.046(2) -0.057(3) -0.0137(18) -0.019(3)
O00L 0.0342(18) 0.133(4) 0.070(2) -0.033(2) -0.0103(17) -0.026(2)
O006 0.0349(15) 0.0448(17) 0.0351(15) -0.0161(13) -0.0027(11) -0.0083(12)
O007 0.0349(15) 0.0579(19) 0.0359(15) -0.0106(14) -0.0109(12) -0.0082(13)
O008 0.0356(16) 0.058(2) 0.0470(18) -0.0082(14) -0.0130(13) -0.0116(15)
O009 0.0434(17) 0.061(2) 0.0472(18) -0.0238(15) -0.0051(14) -0.0161(15)
N00G 0.0239(16) 0.055(2) 0.0271(16) -0.0113(14) -0.0028(12) -0.0068(14)
N00H 0.0291(17) 0.066(2) 0.0293(17) -0.0239(17) -0.0045(13) 0.0004(16)
C00J 0.0281(19) 0.048(2) 0.0251(18) -0.0138(17) 0.0035(14) -0.0085(16)
C00M 0.0256(19) 0.052(3) 0.033(2) -0.0140(18) 0.0010(16) -0.0127(19)
C00O 0.042(2) 0.045(3) 0.048(3) -0.0089(19) -0.0098(19) -0.008(2)
C00P 0.049(3) 0.088(4) 0.054(3) -0.036(3) -0.008(2) -0.023(3)
Li0Q 0.034(4) 0.072(5) 0.038(4) -0.030(4) -0.003(3) -0.008(3)
Li0R 0.037(4) 0.048(4) 0.032(3) -0.014(3) -0.006(3) -0.003(3)
loop_
_atom_type_symbol
_atom_type_scat_dispersion_real
_atom_type_scat_dispersion_imag
_atom_type_scat_Cromer_Mann_a1
_atom_type_scat_Cromer_Mann_a2
_atom_type_scat_Cromer_Mann_a3
_atom_type_scat_Cromer_Mann_a4
_atom_type_scat_Cromer_Mann_b1
_atom_type_scat_Cromer_Mann_b2
_atom_type_scat_Cromer_Mann_b3
_atom_type_scat_Cromer_Mann_b4
_atom_type_scat_Cromer_Mann_c
_atom_type_scat_source
_atom_type_scat_dispersion_source
C 0.00347 0.00161 2.31000 1.02000 1.58860 0.86500 20.84390 10.20750 0.56870
51.65120 0.215599998832
'International Tables Volume C Table 6.1.1.4 (pp. 500-502)'
'Henke, Gullikson and Davis, At. Data and Nucl. Data Tables, 1993, 54, 2'
F 0.01794 0.01033 3.53920 2.64120 1.51700 1.02430 10.28250 4.29440 0.26150
26.14760 0.277599990368
'International Tables Volume C Table 6.1.1.4 (pp. 500-502)'
'Henke, Gullikson and Davis, At. Data and Nucl. Data Tables, 1993, 54, 2'
H 0.00000 0.00000 0.49300 0.32291 0.14019 0.04081 10.51090 26.12570 3.14236
57.79970 0.0030380000826
'International Tables Volume C Table 6.1.1.4 (pp. 500-502)'
'Henke, Gullikson and Davis, At. Data and Nucl. Data Tables, 1993, 54, 2'
O 0.01158 0.00611 3.04850 2.28680 1.54630 0.86700 13.27710 5.70110 0.32390
32.90890 0.250800013542
'International Tables Volume C Table 6.1.1.4 (pp. 500-502)'
'Henke, Gullikson and Davis, At. Data and Nucl. Data Tables, 1993, 54, 2'
N 0.00653 0.00323 12.21260 3.13220 2.01250 1.16630 0.00570 9.89330 28.99750
0.58260 -11.5290002823
'International Tables Volume C Table 6.1.1.4 (pp. 500-502)'
'Henke, Gullikson and Davis, At. Data and Nucl. Data Tables, 1993, 54, 2'
S 0.12424 0.12443 6.90530 5.20340 1.43790 1.58630 1.46790 22.21510 0.25360
56.17200 0.866900026798
'International Tables Volume C Table 6.1.1.4 (pp. 500-502)'
'Henke, Gullikson and Davis, At. Data and Nucl. Data Tables, 1993, 54, 2'
Li -0.00003 0.00005 1.12820 0.75080 0.61750 0.46530 3.95460 1.05240 85.39050
168.26100 0.0377000011504
'International Tables Volume C Table 6.1.1.4 (pp. 500-502)'
'Henke, Gullikson and Davis, At. Data and Nucl. Data Tables, 1993, 54, 2'
loop_
_geom_angle_atom_site_label_1
_geom_angle_atom_site_label_2
_geom_angle_atom_site_label_3
_geom_angle
_geom_angle_site_symmetry_1
_geom_angle_site_symmetry_3
O00B S001 F005 103.6(2) . .
O007 S001 F005 103.69(18) . .
O007 S001 O00B 118.59(19) . .
N00G S001 F005 103.44(18) . .
N00G S001 O00B 116.87(19) . .
N00G S001 O007 108.42(17) . .
O00F S002 F00C 104.5(2) . .
O00L S002 F00C 105.1(2) . .
O00L S002 O00F 118.7(2) . .
N00G S002 F00C 102.30(19) . .
N00G S002 O00F 115.67(19) . .
N00G S002 O00L 108.5(2) . .
O00A S003 F00E 103.4(2) . .
O00D S003 F00E 105.4(2) . .
O00D S003 O00A 117.3(2) . .
N00H S003 F00E 103.9(2) . .
N00H S003 O00A 116.2(2) . .
N00H S003 O00D 108.91(19) . .
O00I S004 F00N 100.3(3) . .
O00K S004 F00N 101.3(3) . .
O00K S004 O00I 122.6(3) . .
N00H S004 F00N 101.3(2) . .
N00H S004 O00I 116.7(2) . .
N00H S004 O00K 110.1(2) . .
Li0R O00A S003 160.8(3) . .
Li0R O00B S001 159.4(3) . .
Li0Q O00D S003 129.2(3) 1_455 .
Li0Q O00F S002 164.5(3) . .
Li0Q O00I S004 159.2(3) . .
Li0R O006 C00J 142.4(4) . .
Li0R O007 S001 137.5(3) 2_666 .
Li0Q O008 C00M 124.9(4) . .
C00P O009 C00M 115.6(4) . .
S002 N00G S001 122.9(2) . .
S004 N00H S003 123.5(2) . .
C00M C00J O006 114.6(4) . .
C00O C00J O006 125.3(4) . .
C00O C00J C00M 120.1(4) . .
O009 C00M O008 126.1(4) . .
C00J C00M O008 121.0(4) . .
C00J C00M O009 112.9(4) . .
H00a C00O C00J 109.5 . .
H00b C00O C00J 109.5 . .
H00b C00O H00a 109.5 . .
H00c C00O C00J 109.5 . .
H00c C00O H00a 109.5 . .
H00c C00O H00b 109.5 . .
H00d C00P O009 109.5 . .
H00e C00P O009 109.5 . .
H00e C00P H00d 109.5 . .
H00f C00P O009 109.5 . .
H00f C00P H00d 109.5 . .
H00f C00P H00e 109.5 . .
O00F Li0Q O00D 99.0(4) . 1_655
O00I Li0Q O00D 99.6(4) . 1_655
O00I Li0Q O00F 114.0(4) . .
O008 Li0Q O00D 97.9(3) . 1_655
O008 Li0Q O00F 116.4(4) . .
O008 Li0Q O00I 122.6(4) . .
O00B Li0R O00A 106.4(4) . .
O006 Li0R O00A 107.3(3) . .
O006 Li0R O00B 106.6(3) . .
O007 Li0R O00A 106.0(3) 2_666 .
O007 Li0R O00B 117.5(4) 2_666 .
O007 Li0R O006 112.5(4) 2_666 .
loop_
_geom_bond_atom_site_label_1
_geom_bond_atom_site_label_2
_geom_bond_distance
_geom_bond_site_symmetry_2
S001 F005 1.549(3) .
S001 O00B 1.406(3) .
S001 O007 1.415(3) .
S001 N00G 1.552(3) .
S002 F00C 1.545(3) .
S002 O00F 1.399(3) .
S002 O00L 1.402(4) .
S002 N00G 1.571(3) .
S003 F00E 1.553(3) .
S003 O00A 1.410(3) .
S003 O00D 1.416(3) .
S003 N00H 1.548(3) .
S004 F00N 1.560(4) .
S004 O00I 1.376(3) .
S004 O00K 1.377(4) .
S004 N00H 1.553(3) .
O00A Li0R 1.902(7) .
O00B Li0R 1.909(8) .
O00D Li0Q 2.026(8) 1_455
O00F Li0Q 1.947(8) .
O00I Li0Q 1.912(7) .
O006 C00J 1.212(5) .
O006 Li0R 1.957(8) .
O007 Li0R 1.965(8) 2_666
O008 C00M 1.200(5) .
O008 Li0Q 1.945(9) .
O009 C00M 1.307(5) .
O009 C00P 1.462(5) .
C00J C00M 1.538(6) .
C00J C00O 1.473(6) .
C00O H00a 0.9700 .
C00O H00b 0.9700 .
C00O H00c 0.9700 .
C00P H00d 0.9700 .
C00P H00e 0.9700 .
C00P H00f 0.9700 .
