#------------------------------------------------------------------------------
#$Date: 2019-10-09 09:35:19 +0300 (Wed, 09 Oct 2019) $
#$Revision: 219189 $
#$URL: file:///home/coder/svn-repositories/cod/cif/7/23/44/7234481.cif $
#------------------------------------------------------------------------------
#
# This file is available in the Crystallography Open Database (COD),
# http://www.crystallography.net/
#
# All data on this site have been placed in the public domain by the
# contributors.
#
data_7234481
loop_
_publ_author_name
'Yongkwan Dong'
'Lukasz Wojtas'
'Joshua Martin'
'George S. Nolas'
_publ_section_title
;
 Synthesis, Crystal Structure, and Transport Properties of Quaternary
 Tetrahedral Chalcogenides
;
_journal_issue                   40
_journal_name_full               'Journal of Materials Chemistry C'
_journal_page_first              10436
_journal_page_last               10441
_journal_paper_doi               10.1039/C5TC01606A
_journal_volume                  3
_journal_year                    2015
_chemical_formula_moiety         'Cu2.2 Zn0.2 Fe0.6 Sn Se4'
_chemical_formula_sum            'Cu2.2 Fe0.6 Se4 Sn Zn0.2'
_chemical_formula_weight         620.935
_space_group_IT_number           121
_space_group_name_Hall           'I -4 2'
_space_group_name_H-M_alt        'I -4 2 m'
_symmetry_cell_setting           tetragonal
_symmetry_Int_Tables_number      121
_symmetry_space_group_name_H-M   'I -4 2 m'
_cell_angle_alpha                90
_cell_angle_beta                 90
_cell_angle_gamma                90
_cell_formula_units_Z            2
_cell_length_a                   5.682492(46)
_cell_length_b                   5.682492(46)
_cell_length_c                   11.32378(14)
_cell_measurement_temperature    298
_cell_volume                     365.653(6)
_computing_structure_refinement  'TOPAS 4.2'
_diffrn_ambient_temperature      298
_diffrn_detector                 'Bruker Lynxeye PSD'
_diffrn_detector_type            Lynxeye
_diffrn_measurement_method       'reflection, flat sample, Bragg-Brentano'
_diffrn_radiation_monochromator  none
_diffrn_radiation_polarisn_ratio 1
_diffrn_radiation_probe          x-ray
_diffrn_radiation_source         'fine-focus sealed tube'
_diffrn_radiation_type           'Cu K\a'
_diffrn_source_type              'Bruker D8 Advance with DaVinci'
_exptl_absorpt_process_details
;   
 ?
;
_exptl_crystal_colour            black
_exptl_crystal_density_diffrn    5.63970
_exptl_crystal_description
;
microcrystalline powder
;
_pd_calc_method                  'Rietveld Refinement'
_pd_meas_2theta_range_inc        0.01
_pd_meas_2theta_range_max        100
_pd_meas_2theta_range_min        15
_pd_meas_scan_method             step
_pd_proc_ls_background_function
;   
'Chebyshev polynomial, 1/X background function '
;
_pd_proc_ls_profile_function
;
 Fundamental parameters
;
_pd_proc_ls_prof_R_factor        0.03593
_pd_proc_ls_prof_wR_expected     0.03001
_pd_proc_ls_prof_wR_factor       0.04639
_pd_spec_mount_mode              reflection
_pd_spec_shape                   flat_sheet
_refine_ls_goodness_of_fit_all   1.546
_refine_ls_number_parameters     16
_refine_ls_R_Fsqd_factor         0.02620
_cod_data_source_file            J-Mater-Chem-C-2015-3-10436.cif
_cod_data_source_block           3
_cod_original_cell_volume        365.6528(74)
_cod_original_sg_symbol_H-M      I-42m
_cod_original_formula_sum        'Cu2.2 Zn0.2 Fe0.6 Sn Se4'
_cod_database_code               7234481
loop_
_symmetry_equiv_pos_as_xyz
'-x, -y, z'
'-x, y, -z'
'-x+1/2, -y+1/2, z+1/2'
'-x+1/2, y+1/2, -z+1/2'
'-y, -x, z'
'-y, x, -z'
'-y+1/2, -x+1/2, z+1/2'
'-y+1/2, x+1/2, -z+1/2'
'y, -x, -z'
'y, x, z'
'y+1/2, -x+1/2, -z+1/2'
'y+1/2, x+1/2, z+1/2'
'x, -y, -z'
'x, y, z'
'x+1/2, -y+1/2, -z+1/2'
'x+1/2, y+1/2, z+1/2'
loop_
_atom_site_label
_atom_site_type_symbol
_atom_site_symmetry_multiplicity
_atom_site_fract_x
_atom_site_fract_y
_atom_site_fract_z
_atom_site_occupancy
_atom_site_B_iso_or_equiv
Cu1 Cu 4 0 0.5 0.25 1 2.80(16)
Cu2 Cu 2 0 0 0 0.2 2.07(18)
Zn Zn 2 0 0 0 0.2 2.07(18)
Fe Fe 2 0 0 0 0.6 2.07(18)
Sn Sn 2 0 0 0.5 1 3.19(11)
Se Se 8 0.24014(21) 0.24014(21) 0.13079(23) 1 2.014(87)
loop_
_diffrn_radiation_wavelength
1.534753
1.540596
1.541058
1.544410
1.544721
loop_
_pd_meas_2theta_scan
_pd_proc_intensity_total
_pd_calc_intensity_total
15.00010 1220.67869 1251.00000
15.01034 1220.22116 1322.00000
15.02058 1219.76726 1351.00000
15.03082 1219.31743 1288.00000
15.04107 1218.87226 1307.00000
15.05131 1218.43262 1303.00000
15.06155 1217.99943 1333.00000
15.07179 1217.57288 1324.00000
15.08203 1217.15111 1254.00000
15.09227 1216.73182 1270.00000
15.10251 1216.31778 1272.00000
15.11276 1215.91126 1277.00000
15.12300 1215.51356 1381.00000
15.13324 1215.12592 1279.00000
15.14348 1214.74986 1292.00000
15.15372 1214.38720 1259.00000
15.16396 1214.04025 1299.00000
15.17421 1213.71191 1277.00000
15.18445 1213.40591 1317.00000
15.19469 1213.12716 1244.00000
15.20493 1212.88220 1303.00000
15.21517 1212.67978 1331.00000
15.22541 1212.53174 1329.00000
15.23565 1212.45443 1390.00000
15.24590 1212.47204 1297.00000
15.25614 1212.62505 1375.00000
15.26638 1212.98707 1267.00000
15.27662 1213.68681 1307.00000
15.28686 1214.91345 1300.00000
15.29710 1216.86359 1258.00000
15.30734 1219.63498 1262.00000
15.31759 1223.21920 1298.00000
15.32783 1227.63499 1256.00000
15.33807 1232.96128 1326.00000
15.34831 1239.27464 1350.00000
15.35855 1246.63965 1312.00000
15.36879 1255.17137 1351.00000
15.37903 1265.06350 1394.00000
15.38928 1276.59227 1332.00000
15.39952 1290.14395 1348.00000
15.40976 1306.31171 1303.00000
15.42000 1326.09333 1408.00000
15.43024 1351.06799 1531.00000
15.44048 1382.94326 1420.00000
15.45072 1421.26464 1489.00000
15.46097 1458.83739 1502.00000
15.47121 1478.45309 1472.00000
15.48145 1461.88002 1432.00000
15.49169 1416.69524 1472.00000
15.50193 1376.17433 1407.00000
15.51217 1345.96723 1390.00000
15.52242 1311.76582 1335.00000
15.53266 1272.80519 1350.00000
15.54290 1242.88189 1306.00000
15.55314 1225.27326 1271.00000
15.56338 1215.51645 1242.00000
15.57362 1209.64706 1288.00000
15.58386 1205.72591 1267.00000
15.59411 1202.88741 1253.00000
15.60435 1200.70746 1260.00000
15.61459 1198.95612 1239.00000
15.62483 1197.49841 1328.00000
15.63507 1196.25011 1200.00000
15.64531 1195.15603 1209.00000
15.65555 1194.17854 1234.00000
15.66580 1193.29115 1253.00000
15.67604 1192.47477 1289.00000
15.68628 1191.71528 1272.00000
15.69652 1191.00212 1237.00000
15.70676 1190.32721 1215.00000
15.71700 1189.68431 1293.00000
15.72724 1189.06851 1235.00000
15.73749 1188.47596 1202.00000
15.74773 1187.90410 1213.00000
15.75797 1187.35284 1257.00000
15.76821 1186.82599 1309.00000
15.77845 1186.32682 1235.00000
15.78869 1185.84426 1279.00000
15.79893 1185.35470 1225.00000
15.80918 1184.85439 1246.00000
15.81942 1184.35526 1269.00000
15.82966 1183.86198 1204.00000
15.83990 1183.37454 1207.00000
15.85014 1182.89237 1205.00000
15.86038 1182.41499 1224.00000
15.87063 1181.94195 1264.00000
15.88087 1181.47288 1190.00000
15.89111 1181.00742 1204.00000
15.90135 1180.54526 1262.00000
15.91159 1180.08609 1229.00000
15.92183 1179.62965 1181.00000
15.93207 1179.17570 1200.00000
15.94232 1178.72398 1213.00000
15.95256 1178.27419 1231.00000
15.96280 1177.82593 1252.00000
15.97304 1177.37863 1244.00000
15.98328 1176.93176 1206.00000
15.99352 1176.48562 1239.00000
16.00376 1176.04261 1215.00000
16.01401 1175.60537 1186.00000
16.02425 1175.17137 1222.00000
16.03449 1174.73887 1214.00000
16.04473 1174.30725 1218.00000
16.05497 1173.87600 1246.00000
16.06521 1173.44472 1242.00000
16.07545 1173.01377 1245.00000
16.08570 1172.58555 1174.00000
16.09594 1172.16276 1239.00000
16.10618 1171.74303 1226.00000
16.11642 1171.32485 1198.00000
16.12666 1170.90788 1185.00000
16.13690 1170.49209 1221.00000
16.14714 1170.07747 1228.00000
16.15739 1169.66401 1198.00000
16.16763 1169.25175 1185.00000
16.17787 1168.84077 1188.00000
16.18811 1168.43125 1245.00000
16.19835 1168.02334 1240.00000
16.20859 1167.61711 1148.00000
16.21884 1167.21263 1197.00000
16.22908 1166.80997 1206.00000
16.23932 1166.40923 1175.00000
16.24956 1166.01055 1191.00000
16.25980 1165.61413 1186.00000
16.27004 1165.22022 1231.00000
16.28028 1164.82919 1195.00000
16.29053 1164.44164 1189.00000
16.30077 1164.05860 1241.00000
16.31101 1163.68217 1124.00000
16.32125 1163.31589 1183.00000
16.33149 1162.96214 1191.00000
16.34173 1162.61391 1204.00000
16.35197 1162.25052 1196.00000
16.36222 1161.86944 1139.00000
16.37246 1161.48300 1173.00000
16.38270 1161.09612 1207.00000
16.39294 1160.70906 1147.00000
16.40318 1160.32227 1212.00000
16.41342 1159.93836 1207.00000
16.42366 1159.56027 1208.00000
16.43391 1159.18565 1148.00000
16.44415 1158.81295 1144.00000
16.45439 1158.44191 1238.00000
16.46463 1158.07255 1180.00000
16.47487 1157.70494 1149.00000
16.48511 1157.33914 1171.00000
16.49535 1156.97519 1188.00000
16.50560 1156.61317 1148.00000
16.51584 1156.25315 1177.00000
16.52608 1155.89521 1134.00000
16.53632 1155.53943 1183.00000
16.54656 1155.18598 1196.00000
16.55680 1154.83517 1170.00000
16.56705 1154.48746 1210.00000
16.57729 1154.14326 1146.00000
16.58753 1153.80287 1168.00000
16.59777 1153.46660 1192.00000
16.60801 1153.13479 1161.00000
16.61825 1152.80787 1112.00000
16.62849 1152.48630 1193.00000
16.63874 1152.17069 1225.00000
16.64898 1151.86178 1205.00000
16.65922 1151.56058 1169.00000
16.66946 1151.26862 1223.00000
16.67970 1150.98846 1216.00000
16.68994 1150.72477 1209.00000
16.70018 1150.48503 1179.00000
16.71043 1150.27469 1176.00000
16.72067 1150.08099 1191.00000
16.73091 1149.86450 1134.00000
16.74115 1149.62078 1184.00000
16.75139 1149.37464 1203.00000
16.76163 1149.13724 1085.00000
16.77187 1148.91085 1129.00000
16.78212 1148.69676 1164.00000
16.79236 1148.49662 1173.00000
16.80260 1148.31309 1205.00000
16.81284 1148.15035 1153.00000
16.82308 1148.01269 1167.00000
16.83332 1147.89801 1179.00000
16.84356 1147.79186 1224.00000
16.85381 1147.69105 1158.00000
16.86405 1147.60741 1168.00000
16.87429 1147.54792 1149.00000
16.88453 1147.51599 1088.00000
16.89477 1147.51489 1131.00000
16.90501 1147.54843 1138.00000
16.91526 1147.62105 1158.00000
16.92550 1147.73795 1206.00000
16.93574 1147.90530 1073.00000
16.94598 1148.13047 1131.00000
16.95622 1148.42228 1232.00000
16.96646 1148.79147 1142.00000
16.97670 1149.25120 1136.00000
16.98695 1149.81782 1148.00000
16.99719 1150.51194 1179.00000
17.00743 1151.35991 1117.00000
17.01767 1152.39593 1199.00000
17.02791 1153.66482 1214.00000
17.03815 1155.22553 1142.00000
17.04839 1157.15550 1154.00000
17.05864 1159.55753 1177.00000
17.06888 1162.57522 1138.00000
17.07912 1166.42958 1144.00000
17.08936 1171.49960 1184.00000
17.09960 1178.46385 1227.00000
17.10984 1188.44182 1189.00000
17.12008 1202.88685 1217.00000
17.13033 1222.98907 1225.00000
17.14057 1249.15416 1241.00000
17.15081 1281.46901 1190.00000
17.16105 1320.44711 1257.00000
17.17129 1367.02245 1299.00000
17.18153 1422.11941 1403.00000
17.19177 1486.63238 1344.00000
17.20202 1561.89302 1451.00000
17.21226 1650.30216 1588.00000
17.22250 1756.19992 1667.00000
17.23274 1886.84133 1725.00000
17.24298 2052.15211 1973.00000
17.25322 2259.08243 2095.00000
17.26347 2492.55756 2319.00000
17.27371 2684.88486 2437.00000
17.28395 2719.83045 2613.00000
17.29419 2547.87287 2479.00000
17.30443 2301.57772 2387.00000
17.31467 2121.53021 2145.00000
17.32491 1985.89012 1919.00000
17.33516 1811.19810 1801.00000
17.34540 1603.55470 1672.00000
17.35564 1432.36531 1459.00000
17.36588 1325.45504 1412.00000
17.37612 1264.73681 1272.00000
17.38636 1228.69178 1241.00000
17.39660 1205.43616 1210.00000
17.40685 1189.34121 1198.00000
17.41709 1177.60176 1241.00000
17.42733 1168.69146 1167.00000
17.43757 1161.71414 1157.00000
17.44781 1156.11077 1169.00000
17.45805 1151.51534 1272.00000
17.46829 1147.67879 1236.00000
17.47854 1144.42613 1205.00000
17.48878 1141.63103 1212.00000
17.49902 1139.20017 1146.00000
17.50926 1137.06327 1170.00000
17.51950 1135.16640 1131.00000
17.52974 1133.46759 1118.00000
17.53998 1131.93369 1184.00000
17.55023 1130.53810 1115.00000
17.56047 1129.25919 1138.00000
17.57071 1128.07889 1100.00000
17.58095 1126.98131 1177.00000
17.59119 1125.95188 1166.00000
17.60143 1124.97916 1093.00000
17.61168 1124.06178 1136.00000
17.62192 1123.21125 1155.00000
17.63216 1122.42264 1152.00000
17.64240 1121.67851 1135.00000
17.65264 1120.96941 1136.00000
17.66288 1120.29102 1146.00000
17.67312 1119.64013 1151.00000
17.68337 1119.01396 1163.00000
17.69361 1118.41003 1160.00000
17.70385 1117.82611 1112.00000
17.71409 1117.26014 1124.00000
17.72433 1116.71035 1176.00000
17.73457 1116.17521 1083.00000
17.74481 1115.65336 1120.00000
17.75506 1115.14358 1138.00000
17.76530 1114.64474 1168.00000
17.77554 1114.15579 1121.00000
17.78578 1113.67562 1067.00000
17.79602 1113.20315 1130.00000
17.80626 1112.73726 1136.00000
17.81650 1112.27683 1169.00000
17.82675 1111.82037 1130.00000
17.83699 1111.36547 1154.00000
17.84723 1110.90855 1102.00000
17.85747 1110.44723 1125.00000
17.86771 1109.98814 1167.00000
17.87795 1109.55033 1111.00000
17.88819 1109.13449 1093.00000
17.89844 1108.72703 1124.00000
17.90868 1108.32141 1116.00000
17.91892 1107.91492 1084.00000
17.92916 1107.50426 1115.00000
17.93940 1107.08736 1082.00000
17.94964 1106.67122 1168.00000
17.95989 1106.27540 1092.00000
17.97013 1105.90112 1101.00000
17.98037 1105.53533 1161.00000
17.99061 1105.17252 1110.00000
18.00085 1104.81195 1146.00000
18.01109 1104.45349 1119.00000
18.02133 1104.09707 1101.00000
18.03158 1103.74259 1139.00000
18.04182 1103.38998 1141.00000
18.05206 1103.03916 1056.00000
18.06230 1102.69005 1100.00000
18.07254 1102.34259 1073.00000
18.08278 1101.99672 1114.00000
18.09302 1101.65238 1119.00000
18.10327 1101.30952 1162.00000
18.11351 1100.96808 1157.00000
18.12375 1100.62801 1051.00000
18.13399 1100.28927 1164.00000
18.14423 1099.95181 1124.00000
18.15447 1099.61556 1056.00000
18.16471 1099.28035 1077.00000
18.17496 1098.94601 1098.00000
18.18520 1098.61235 1124.00000
18.19544 1098.27927 1092.00000
18.20568 1097.94670 1128.00000
18.21592 1097.61453 1088.00000
18.22616 1097.28264 1065.00000
18.23640 1096.95089 1083.00000
18.24665 1096.61911 1102.00000
18.25689 1096.28706 1109.00000
18.26713 1095.95440 1087.00000
18.27737 1095.62062 1078.00000
18.28761 1095.28477 1146.00000
18.29785 1094.94489 1116.00000
18.30810 1094.59777 1071.00000
18.31834 1094.24140 1083.00000
18.32858 1093.88298 1085.00000
18.33882 1093.54264 1120.00000
18.34906 1093.22201 1121.00000
18.35930 1092.90812 1113.00000
18.36954 1092.59551 1057.00000
18.37979 1092.28354 1060.00000
18.39003 1091.97219 1086.00000
18.40027 1091.66145 1140.00000
18.41051 1091.35132 1143.00000
18.42075 1091.04178 1128.00000
18.43099 1090.73284 1039.00000
18.44123 1090.42447 1093.00000
18.45148 1090.11669 1154.00000
18.46172 1089.80948 1111.00000
18.47196 1089.50283 1102.00000
18.48220 1089.19674 1115.00000
18.49244 1088.89120 1073.00000
18.50268 1088.58621 1085.00000
18.51292 1088.28176 1096.00000
18.52317 1087.97785 1092.00000
18.53341 1087.67447 1146.00000
18.54365 1087.37162 1092.00000
18.55389 1087.06930 1128.00000
18.56413 1086.76749 1133.00000
18.57437 1086.46619 1096.00000
18.58461 1086.16541 1107.00000
18.59486 1085.86513 1108.00000
18.60510 1085.56534 1102.00000
18.61534 1085.26601 1090.00000
18.62558 1084.96702 1076.00000
18.63582 1084.66819 1082.00000
18.64606 1084.36938 1019.00000
18.65631 1084.07052 1048.00000
18.66655 1083.77154 1110.00000
18.67679 1083.47237 1130.00000
18.68703 1083.17290 1037.00000
18.69727 1082.87300 1101.00000
18.70751 1082.57252 1065.00000
18.71775 1082.27123 1108.00000
18.72800 1081.96878 1111.00000
18.73824 1081.66467 1047.00000
18.74848 1081.35792 1022.00000
18.75872 1081.04653 1081.00000
18.76896 1080.72718 1061.00000
18.77920 1080.39776 1072.00000
18.78944 1080.06563 1091.00000
18.79969 1079.75147 987.00000
18.80993 1079.45707 1080.00000
18.82017 1079.16926 1055.00000
18.83041 1078.88249 1097.00000
18.84065 1078.59611 1055.00000
18.85089 1078.31012 1109.00000
18.86113 1078.02451 1104.00000
18.87138 1077.73928 1050.00000
18.88162 1077.45444 1093.00000
18.89186 1077.16997 1101.00000
18.90210 1076.88589 1124.00000
18.91234 1076.60219 1057.00000
18.92258 1076.31887 1023.00000
18.93283 1076.03593 1079.00000
18.94307 1075.75336 1057.00000
18.95331 1075.47118 1033.00000
18.96355 1075.18937 1054.00000
18.97379 1074.90794 1051.00000
18.98403 1074.62689 1032.00000
18.99427 1074.34621 1099.00000
19.00452 1074.06590 1069.00000
19.01476 1073.78597 1059.00000
19.02500 1073.50642 1099.00000
19.03524 1073.22723 1060.00000
19.04548 1072.94842 1029.00000
19.05572 1072.66998 1094.00000
19.06596 1072.39191 1052.00000
19.07621 1072.11422 998.00000
19.08645 1071.83689 1059.00000
19.09669 1071.55993 1092.00000
19.10693 1071.28334 1024.00000
19.11717 1071.00712 1047.00000
19.12741 1070.73127 1093.00000
19.13765 1070.45578 1117.00000
19.14790 1070.18066 1089.00000
19.15814 1069.90591 1108.00000
19.16838 1069.63152 1120.00000
19.17862 1069.35750 1096.00000
19.18886 1069.08384 1089.00000
19.19910 1068.81054 1052.00000
19.20934 1068.53761 1070.00000
19.21959 1068.26504 1062.00000
19.22983 1067.99282 1061.00000
19.24007 1067.72098 1066.00000
19.25031 1067.44949 1082.00000
19.26055 1067.17836 1028.00000
19.27079 1066.90759 1100.00000
19.28104 1066.63718 1103.00000
19.29128 1066.36712 1100.00000
19.30152 1066.09743 1040.00000
19.31176 1065.82809 1037.00000
19.32200 1065.55911 1046.00000
19.33224 1065.29048 1011.00000
19.34248 1065.02221 1057.00000
19.35273 1064.75429 1066.00000
19.36297 1064.48673 1106.00000
19.37321 1064.21952 1062.00000
19.38345 1063.95267 1101.00000
19.39369 1063.68616 1038.00000
19.40393 1063.42001 1073.00000
19.41417 1063.15421 1050.00000
19.42442 1062.88876 1072.00000
19.43466 1062.62366 1023.00000
19.44490 1062.35891 1092.00000
19.45514 1062.09451 1106.00000
19.46538 1061.83045 1136.00000
19.47562 1061.56675 1083.00000
19.48586 1061.30339 1079.00000
19.49611 1061.04038 1058.00000
19.50635 1060.77771 1004.00000
19.51659 1060.51539 1003.00000
19.52683 1060.25342 1074.00000
19.53707 1059.99179 1011.00000
19.54731 1059.73050 967.00000
19.55755 1059.46955 995.00000
19.56780 1059.20895 1110.00000
19.57804 1058.94870 1085.00000
19.58828 1058.68878 1076.00000
19.59852 1058.42920 1034.00000
19.60876 1058.16997 1046.00000
19.61900 1057.91107 1050.00000
19.62925 1057.65252 1031.00000
19.63949 1057.39430 1074.00000
19.64973 1057.13642 1053.00000
19.65997 1056.87888 996.00000
19.67021 1056.62168 1039.00000
19.68045 1056.36481 1011.00000
19.69069 1056.10828 979.00000
19.70094 1055.85209 1085.00000
19.71118 1055.59623 1042.00000
19.72142 1055.34070 1029.00000
19.73166 1055.08551 1059.00000
19.74190 1054.83066 1047.00000
19.75214 1054.57613 1071.00000
19.76238 1054.32194 1035.00000
19.77263 1054.06808 1000.00000
19.78287 1053.81455 1023.00000
19.79311 1053.56136 1068.00000
19.80335 1053.30849 1066.00000
19.81359 1053.05595 1046.00000
19.82383 1052.80374 943.00000
19.83407 1052.55187 1061.00000
19.84432 1052.30032 1016.00000
19.85456 1052.04909 1012.00000
19.86480 1051.79820 1056.00000
19.87504 1051.54763 1099.00000
19.88528 1051.29739 1028.00000
19.89552 1051.04747 1026.00000
19.90576 1050.79788 1020.00000
19.91601 1050.54866 1050.00000
19.92625 1050.29989 1055.00000
19.93649 1050.05169 1070.00000
19.94673 1049.80414 1010.00000
19.95697 1049.55729 1015.00000
19.96721 1049.31122 1085.00000
19.97746 1049.06604 1052.00000
19.98770 1048.82187 1064.00000
19.99794 1048.57894 1034.00000
20.00818 1048.33762 1032.00000
20.01842 1048.09869 994.00000
20.02866 1047.86388 1082.00000
20.03890 1047.63486 991.00000
20.04915 1047.40804 1009.00000
20.05939 1047.17290 956.00000
20.06963 1046.93098 1028.00000
20.07987 1046.68782 1051.00000
20.09011 1046.44494 1029.00000
20.10035 1046.20238 997.00000
20.11059 1045.96016 1047.00000
20.12084 1045.71827 1000.00000
20.13108 1045.47671 1021.00000
20.14132 1045.23548 998.00000
20.15156 1044.99458 1072.00000
20.16180 1044.75401 1058.00000
20.17204 1044.51377 999.00000
20.18228 1044.27386 1025.00000
20.19253 1044.03429 988.00000
20.20277 1043.79504 1008.00000
20.21301 1043.55613 1022.00000
20.22325 1043.31754 1016.00000
20.23349 1043.07929 1039.00000
20.24373 1042.84137 1019.00000
20.25397 1042.60378 1041.00000
20.26422 1042.36651 1033.00000
20.27446 1042.12958 1018.00000
20.28470 1041.89299 1023.00000
20.29494 1041.65672 1036.00000
20.30518 1041.42078 1042.00000
20.31542 1041.18518 1081.00000
20.32567 1040.94990 1074.00000
20.33591 1040.71496 1082.00000
20.34615 1040.48035 956.00000
20.35639 1040.24608 1027.00000
20.36663 1040.01213 1038.00000
20.37687 1039.77852 1040.00000
20.38711 1039.54525 1016.00000
20.39736 1039.31230 1019.00000
20.40760 1039.07970 1105.00000
20.41784 1038.84742 1104.00000
20.42808 1038.61548 1013.00000
20.43832 1038.38388 1007.00000
20.44856 1038.15261 1012.00000
20.45880 1037.92168 1060.00000
20.46905 1037.69109 1030.00000
20.47929 1037.46084 1033.00000
20.48953 1037.23092 1020.00000
20.49977 1037.00134 1011.00000
20.51001 1036.77211 1042.00000
20.52025 1036.54321 974.00000
20.53049 1036.31466 1036.00000
20.54074 1036.08645 1037.00000
20.55098 1035.85858 1030.00000
20.56122 1035.63106 1052.00000
20.57146 1035.40389 1002.00000
20.58170 1035.17706 1034.00000
20.59194 1034.95058 1016.00000
20.60218 1034.72445 975.00000
20.61243 1034.49867 1061.00000
20.62267 1034.27329 1005.00000
20.63291 1034.04839 1027.00000
20.64315 1033.82409 982.00000
20.65339 1033.60048 972.00000
20.66363 1033.37761 961.00000
20.67388 1033.15557 919.00000
20.68412 1032.93446 983.00000
20.69436 1032.71443 929.00000
20.70460 1032.49570 1014.00000
20.71484 1032.27865 1000.00000
20.72508 1032.06408 974.00000
20.73532 1031.85373 988.00000
20.74557 1031.64930 983.00000
20.75581 1031.44722 966.00000
20.76605 1031.23696 973.00000
20.77629 1031.02009 1008.00000
20.78653 1030.80209 982.00000
20.79677 1030.58447 957.00000
20.80701 1030.36727 1031.00000
20.81726 1030.15052 1023.00000
20.82750 1029.93421 1007.00000
20.83774 1029.71836 1032.00000
20.84798 1029.50296 1009.00000
20.85822 1029.28802 952.00000
20.86846 1029.07356 992.00000
20.87870 1028.85957 1009.00000
20.88895 1028.64606 1026.00000
20.89919 1028.43305 975.00000
20.90943 1028.22054 1058.00000
20.91967 1028.00853 1003.00000
20.92991 1027.79704 934.00000
20.94015 1027.58608 1006.00000
20.95039 1027.37566 1027.00000
20.96064 1027.16578 984.00000
20.97088 1026.95646 987.00000
20.98112 1026.74771 988.00000
20.99136 1026.53955 1000.00000
21.00160 1026.33198 1050.00000
21.01184 1026.12502 956.00000
21.02209 1025.91868 999.00000
21.03233 1025.71299 953.00000
21.04257 1025.50795 991.00000
21.05281 1025.30358 985.00000
21.06305 1025.09991 1020.00000
21.07329 1024.89695 1013.00000
21.08353 1024.69472 1015.00000
21.09378 1024.49326 1018.00000
21.10402 1024.29265 1025.00000
21.11426 1024.09310 970.00000
21.12450 1023.89487 1044.00000
21.13474 1023.69816 1021.00000
21.14498 1023.50313 1080.00000
21.15522 1023.30995 957.00000
21.16547 1023.11889 1050.00000
21.17571 1022.93029 1031.00000
21.18595 1022.74463 1004.00000
21.19619 1022.56273 961.00000
21.20643 1022.38626 1036.00000
21.21667 1022.21871 992.00000
21.22691 1022.06362 969.00000
21.23716 1021.91407 1005.00000
21.24740 1021.74951 975.00000
21.25764 1021.57306 1034.00000
21.26788 1021.39556 983.00000
21.27812 1021.22007 936.00000
21.28836 1021.04687 1017.00000
21.29860 1020.87614 981.00000
21.30885 1020.70812 996.00000
21.31909 1020.54309 1026.00000
21.32933 1020.38142 1024.00000
21.33957 1020.22366 977.00000
21.34981 1020.07078 998.00000
21.36005 1019.92469 948.00000
21.37030 1019.78735 985.00000
21.38054 1019.65566 1013.00000
21.39078 1019.51981 972.00000
21.40102 1019.38141 966.00000
21.41126 1019.24588 1001.00000
21.42150 1019.11495 995.00000
21.43174 1018.98903 959.00000
21.44199 1018.86853 958.00000
21.45223 1018.75392 1026.00000
21.46247 1018.64570 960.00000
21.47271 1018.54445 968.00000
21.48295 1018.45079 994.00000
21.49319 1018.36544 1051.00000
21.50343 1018.28922 1037.00000
21.51368 1018.22304 971.00000
21.52392 1018.16792 968.00000
21.53416 1018.12504 986.00000
21.54440 1018.09576 997.00000
21.55464 1018.08161 984.00000
21.56488 1018.08439 996.00000
21.57512 1018.10614 1029.00000
21.58537 1018.14926 966.00000
21.59561 1018.21658 1024.00000
21.60585 1018.31138 987.00000
21.61609 1018.43760 969.00000
21.62633 1018.59990 1031.00000
21.63657 1018.80393 920.00000
21.64681 1019.05650 935.00000
21.65706 1019.36599 990.00000
21.66730 1019.74275 1052.00000
21.67754 1020.19974 1026.00000
21.68778 1020.75330 961.00000
21.69802 1021.42422 1045.00000
21.70826 1022.23898 942.00000
21.71851 1023.23113 1016.00000
21.72875 1024.44293 951.00000
21.73899 1025.92775 1014.00000
21.74923 1027.75493 980.00000
21.75947 1030.01958 1060.00000
21.76971 1032.86072 1004.00000
21.77995 1036.49488 1002.00000
21.79020 1041.27794 1009.00000
21.80044 1047.79764 1034.00000
21.81068 1056.91803 1046.00000
21.82092 1069.58031 1025.00000
21.83116 1086.38533 1063.00000
21.84140 1107.52053 1035.00000
21.85164 1133.23755 1087.00000
21.86189 1164.37353 1054.00000
21.87213 1202.55903 1106.00000
21.88237 1250.11744 1175.00000
21.89261 1309.89425 1155.00000
21.90285 1384.96687 1168.00000
21.91309 1476.49427 1348.00000
21.92333 1575.80676 1419.00000
21.93358 1651.77666 1537.00000
21.94382 1657.21760 1516.00000
21.95406 1581.35911 1518.00000
21.96430 1482.76500 1422.00000
21.97454 1418.23292 1292.00000
21.98478 1388.99515 1271.00000
21.99502 1360.89185 1311.00000
22.00527 1304.72897 1240.00000
22.01551 1227.28306 1260.00000
22.02575 1157.46088 1081.00000
22.03599 1109.57061 1107.00000
22.04623 1079.99138 1023.00000
22.05647 1061.46526 1024.00000
22.06672 1049.19122 1012.00000
22.07696 1040.58965 1028.00000
22.08720 1034.27604 1015.00000
22.09744 1029.46700 1002.00000
22.10768 1025.69279 1049.00000
22.11792 1022.65701 959.00000
22.12816 1020.16434 957.00000
22.13841 1018.08131 1028.00000
22.14865 1016.31389 983.00000
22.15889 1014.79409 1064.00000
22.16913 1013.47165 982.00000
22.17937 1012.30867 986.00000
22.18961 1011.27610 973.00000
22.19985 1010.35131 957.00000
22.21010 1009.51646 983.00000
22.22034 1008.75721 939.00000
22.23058 1008.06198 939.00000
22.24082 1007.42137 1004.00000
22.25106 1006.82765 1005.00000
22.26130 1006.27440 997.00000
22.27154 1005.75625 958.00000
22.28179 1005.26861 955.00000
22.29203 1004.80755 978.00000
22.30227 1004.36954 944.00000
22.31251 1003.95114 1005.00000
22.32275 1003.54848 1019.00000
22.33299 1003.15811 1000.00000
22.34323 1002.78195 988.00000
22.35348 1002.42846 1019.00000
22.36372 1002.09420 1003.00000
22.37396 1001.77246 1000.00000
22.38420 1001.46077 988.00000
22.39444 1001.15814 999.00000
22.40468 1000.86379 1033.00000
22.41493 1000.57700 928.00000
22.42517 1000.29713 982.00000
22.43541 1000.02361 968.00000
22.44565 999.75594 973.00000
22.45589 999.49366 978.00000
22.46613 999.23635 955.00000
22.47637 998.98365 1031.00000
22.48662 998.73522 953.00000
22.49686 998.49075 986.00000
22.50710 998.24997 941.00000
22.51734 998.01264 963.00000
22.52758 997.77851 967.00000
22.53782 997.54734 964.00000
22.54806 997.31886 955.00000
22.55831 997.09279 985.00000
22.56855 996.86889 951.00000
22.57879 996.64698 961.00000
22.58903 996.42686 946.00000
22.59927 996.20833 955.00000
22.60951 995.99114 986.00000
22.61975 995.77502 1027.00000
22.63000 995.55953 1002.00000
22.64024 995.34385 989.00000
22.65048 995.12627 969.00000
22.66072 994.90513 914.00000
22.67096 994.68400 962.00000
22.68120 994.47303 971.00000
22.69145 994.27007 975.00000
22.70169 994.06939 940.00000
22.71193 993.86941 1007.00000
22.72217 993.66989 955.00000
22.73241 993.47061 922.00000
22.74265 993.27120 994.00000
22.75289 993.07090 968.00000
22.76314 992.86811 950.00000
22.77338 992.66131 970.00000
22.78362 992.45417 1004.00000
22.79386 992.25675 995.00000
22.80410 992.06701 939.00000
22.81434 991.87945 902.00000
22.82458 991.69262 915.00000
22.83483 991.50642 919.00000
22.84507 991.32085 953.00000
22.85531 991.13588 987.00000
22.86555 990.95149 996.00000
22.87579 990.76766 947.00000
22.88603 990.58439 942.00000
22.89627 990.40166 934.00000
22.90652 990.21945 947.00000
22.91676 990.03775 951.00000
22.92700 989.85654 933.00000
22.93724 989.67582 1005.00000
22.94748 989.49557 957.00000
22.95772 989.31578 953.00000
22.96796 989.13644 978.00000
22.97821 988.95755 938.00000
22.98845 988.77909 954.00000
22.99869 988.60105 968.00000
23.00893 988.42342 962.00000
23.01917 988.24620 951.00000
23.02941 988.06938 954.00000
23.03966 987.89296 958.00000
23.04990 987.71691 991.00000
23.06014 987.54125 912.00000
23.07038 987.36595 956.00000
23.08062 987.19102 975.00000
23.09086 987.01645 910.00000
23.10110 986.84223 935.00000
23.11135 986.66835 972.00000
23.12159 986.49478 881.00000
23.13183 986.32142 887.00000
23.14207 986.14815 953.00000
23.15231 985.97490 1013.00000
23.16255 985.80162 920.00000
23.17279 985.62823 961.00000
23.18304 985.45466 947.00000
23.19328 985.28076 1005.00000
23.20352 985.10634 934.00000
23.21376 984.93105 907.00000
23.22400 984.75414 959.00000
23.23424 984.57397 920.00000
23.24448 984.38897 1004.00000
23.25473 984.20292 933.00000
23.26497 984.02624 953.00000
23.27521 983.85693 954.00000
23.28545 983.68939 914.00000
23.29569 983.52217 890.00000
23.30593 983.35519 904.00000
23.31617 983.18847 964.00000
23.32642 983.02199 985.00000
23.33666 982.85576 941.00000
23.34690 982.68977 929.00000
23.35714 982.52403 974.00000
23.36738 982.35852 936.00000
23.37762 982.19325 935.00000
23.38787 982.02822 922.00000
23.39811 981.86343 954.00000
23.40835 981.69887 937.00000
23.41859 981.53455 972.00000
23.42883 981.37046 930.00000
23.43907 981.20660 920.00000
23.44931 981.04296 944.00000
23.45956 980.87956 922.00000
23.46980 980.71639 1047.00000
23.48004 980.55344 943.00000
23.49028 980.39071 918.00000
23.50052 980.22821 951.00000
23.51076 980.06594 919.00000
23.52100 979.90388 936.00000
23.53125 979.74205 927.00000
23.54149 979.58044 931.00000
23.55173 979.41905 930.00000
23.56197 979.25787 992.00000
23.57221 979.09692 931.00000
23.58245 978.93618 911.00000
23.59269 978.77565 963.00000
23.60294 978.61534 969.00000
23.61318 978.45525 924.00000
23.62342 978.29536 924.00000
23.63366 978.13569 988.00000
23.64390 977.97624 927.00000
23.65414 977.81699 877.00000
23.66438 977.65795 912.00000
23.67463 977.49913 928.00000
23.68487 977.34051 949.00000
23.69511 977.18210 935.00000
23.70535 977.02389 894.00000
23.71559 976.86585 951.00000
23.72583 976.70789 909.00000
23.73608 976.54989 955.00000
23.74632 976.39179 970.00000
23.75656 976.23352 944.00000
23.76680 976.07503 950.00000
23.77704 975.91622 967.00000
23.78728 975.75697 929.00000
23.79752 975.59707 937.00000
23.80777 975.43617 909.00000
23.81801 975.27350 923.00000
23.82825 975.10741 922.00000
23.83849 974.93630 928.00000
23.84873 974.76399 995.00000
23.85897 974.60101 971.00000
23.86921 974.44532 941.00000
23.87946 974.29130 947.00000
23.88970 974.13730 918.00000
23.89994 973.98369 924.00000
23.91018 973.83026 970.00000
23.92042 973.67701 969.00000
23.93066 973.52395 980.00000
23.94090 973.37107 966.00000
23.95115 973.21838 959.00000
23.96139 973.06587 941.00000
23.97163 972.91354 967.00000
23.98187 972.76139 935.00000
23.99211 972.60942 934.00000
24.00235 972.45764 949.00000
24.01259 972.30604 877.00000
24.02284 972.15462 938.00000
24.03308 972.00338 910.00000
24.04332 971.85232 905.00000
24.05356 971.70145 953.00000
24.06380 971.55075 922.00000
24.07404 971.40023 953.00000
24.08429 971.24990 939.00000
24.09453 971.09974 936.00000
24.10477 970.94977 897.00000
24.11501 970.79997 1017.00000
24.12525 970.65035 899.00000
24.13549 970.50091 933.00000
24.14573 970.35165 910.00000
24.15598 970.20257 949.00000
24.16622 970.05366 951.00000
24.17646 969.90494 976.00000
24.18670 969.75639 928.00000
24.19694 969.60802 922.00000
24.20718 969.45982 903.00000
24.21742 969.31181 923.00000
24.22767 969.16397 936.00000
24.23791 969.01630 920.00000
24.24815 968.86881 906.00000
24.25839 968.72150 964.00000
24.26863 968.57437 943.00000
24.27887 968.42741 975.00000
24.28911 968.28062 952.00000
24.29936 968.13401 959.00000
24.30960 967.98758 1015.00000
24.31984 967.84132 1029.00000
24.33008 967.69523 1037.00000
24.34032 967.54932 1082.00000
24.35056 967.40358 1065.00000
24.36080 967.25802 1133.00000
24.37105 967.11263 1070.00000
24.38129 966.96741 1017.00000
24.39153 966.82236 1048.00000
24.40177 966.67749 954.00000
24.41201 966.53279 967.00000
24.42225 966.38827 971.00000
24.43250 966.24391 951.00000
24.44274 966.09973 1053.00000
24.45298 965.95572 931.00000
24.46322 965.81188 915.00000
24.47346 965.66821 942.00000
24.48370 965.52471 970.00000
24.49394 965.38138 951.00000
24.50419 965.23823 956.00000
24.51443 965.09524 909.00000
24.52467 964.95243 951.00000
24.53491 964.80978 896.00000
24.54515 964.66730 931.00000
24.55539 964.52500 952.00000
24.56563 964.38286 911.00000
24.57588 964.24097 868.00000
24.58612 964.10042 933.00000
24.59636 963.96706 988.00000
24.60660 963.85336 958.00000
24.61684 963.76991 901.00000
24.62708 963.72497 943.00000
24.63732 963.72856 950.00000
24.64757 963.79575 921.00000
24.65781 963.95205 947.00000
24.66805 964.25095 899.00000
24.67829 964.82383 880.00000
24.68853 965.84724 926.00000
24.69877 967.00212 887.00000
24.70901 967.36887 947.00000
24.71926 967.32898 961.00000
24.72950 967.23553 936.00000
24.73974 967.14224 956.00000
24.74998 967.04974 862.00000
24.76022 966.95804 934.00000
24.77046 966.86715 939.00000
24.78071 966.77709 887.00000
24.79095 966.68786 937.00000
24.80119 966.59949 969.00000
24.81143 966.51197 938.00000
24.82167 966.42533 949.00000
24.83191 966.33957 946.00000
24.84215 966.25472 924.00000
24.85240 966.17077 933.00000
24.86264 966.08776 937.00000
24.87288 966.00569 940.00000
24.88312 965.92458 965.00000
24.89336 965.84444 945.00000
24.90360 965.76529 962.00000
24.91384 965.68714 909.00000
24.92409 965.61001 975.00000
24.93433 965.53392 953.00000
24.94457 965.45889 917.00000
24.95481 965.38493 887.00000
24.96505 965.31205 929.00000
24.97529 965.24029 936.00000
24.98553 965.16965 897.00000
24.99578 965.10016 924.00000
25.00602 965.03184 957.00000
25.01626 964.96470 896.00000
25.02650 964.89877 892.00000
25.03674 964.83408 905.00000
25.04698 964.77063 885.00000
25.05722 964.70846 899.00000
25.06747 964.64758 950.00000
25.07771 964.58803 890.00000
25.08795 964.52983 946.00000
25.09819 964.47299 955.00000
25.10843 964.41756 941.00000
25.11867 964.36354 927.00000
25.12892 964.31098 931.00000
25.13916 964.25990 948.00000
25.14940 964.21033 935.00000
25.15964 964.16230 919.00000
25.16988 964.11583 970.00000
25.18012 964.07097 934.00000
25.19036 964.02773 914.00000
25.20061 963.98616 915.00000
25.21085 963.94630 943.00000
25.22109 963.90816 827.00000
25.23133 963.87180 945.00000
25.24157 963.83725 974.00000
25.25181 963.80454 919.00000
25.26205 963.77372 946.00000
25.27230 963.74482 901.00000
25.28254 963.71790 893.00000
25.29278 963.69298 891.00000
25.30302 963.67012 939.00000
25.31326 963.64936 898.00000
25.32350 963.63075 909.00000
25.33374 963.61433 937.00000
25.34399 963.60017 872.00000
25.35423 963.58830 942.00000
25.36447 963.57878 924.00000
25.37471 963.57167 937.00000
25.38495 963.56702 947.00000
25.39519 963.56489 962.00000
25.40543 963.56534 951.00000
25.41568 963.56844 958.00000
25.42592 963.57424 986.00000
25.43616 963.58282 943.00000
25.44640 963.59431 900.00000
25.45664 963.60989 908.00000
25.46688 963.63540 963.00000
25.47713 963.68337 875.00000
25.48737 963.76456 940.00000
25.49761 963.88749 884.00000
25.50785 964.06242 925.00000
25.51809 964.30465 958.00000
25.52833 964.63999 953.00000
25.53857 965.12212 881.00000
25.54882 965.88228 879.00000
25.55906 967.09801 936.00000
25.56930 968.45842 911.00000
25.57954 969.05103 932.00000
25.58978 969.23769 892.00000
25.60002 969.37351 962.00000
25.61026 969.51449 936.00000
25.62051 969.66143 959.00000
25.63075 969.81452 864.00000
25.64099 969.97392 950.00000
25.65123 970.13981 867.00000
25.66147 970.31240 946.00000
25.67171 970.49187 875.00000
25.68195 970.67844 939.00000
25.69220 970.87233 955.00000
25.70244 971.07392 958.00000
25.71268 971.28370 889.00000
25.72292 971.50215 906.00000
25.73316 971.72969 903.00000
25.74340 971.96680 915.00000
25.75364 972.21406 913.00000
25.76389 972.47229 1011.00000
25.77413 972.74285 907.00000
25.78437 973.02862 898.00000
25.79461 973.33363 1028.00000
25.80485 973.65400 898.00000
25.81509 973.97310 940.00000
25.82534 974.28969 935.00000
25.83558 974.61461 940.00000
25.84582 974.95125 921.00000
25.85606 975.30005 926.00000
25.86630 975.66143 911.00000
25.87654 976.03584 979.00000
25.88678 976.42373 994.00000
25.89703 976.82559 888.00000
25.90727 977.24193 900.00000
25.91751 977.67327 926.00000
25.92775 978.12016 970.00000
25.93799 978.58319 974.00000
25.94823 979.06296 973.00000
25.95847 979.56011 934.00000
25.96872 980.07530 915.00000
25.97896 980.60923 969.00000
25.98920 981.16263 944.00000
25.99944 981.73628 967.00000
26.00968 982.33099 967.00000
26.01992 982.94759 976.00000
26.03016 983.58700 994.00000
26.04041 984.25028 930.00000
26.05065 984.94058 992.00000
26.06089 985.67029 1052.00000
26.07113 986.46510 993.00000
26.08137 987.34765 1009.00000
26.09161 988.33639 1056.00000
26.10185 989.45340 1018.00000
26.11210 990.73096 1127.00000
26.12234 992.22239 1052.00000
26.13258 994.03628 1092.00000
26.14282 996.43473 1108.00000
26.15306 999.77427 1051.00000
26.16330 1003.46004 1058.00000
26.17355 1005.70533 1055.00000
26.18379 1007.19113 1094.00000
26.19403 1008.61805 1124.00000
26.20427 1010.10113 1155.00000
26.21451 1011.64462 1075.00000
26.22475 1013.25264 1160.00000
26.23499 1014.93398 1051.00000
26.24524 1016.70416 1075.00000
26.25548 1018.57759 1069.00000
26.26572 1020.56702 1098.00000
26.27596 1022.68729 1183.00000
26.28620 1024.95865 1056.00000
26.29644 1027.41208 1089.00000
26.30668 1030.10615 1065.00000
26.31693 1033.17510 1167.00000
26.32717 1036.80139 1114.00000
26.33741 1040.70804 1122.00000
26.34765 1044.03485 1139.00000
26.35789 1047.10924 1125.00000
26.36813 1050.27613 1136.00000
26.37837 1053.59948 1181.00000
26.38862 1057.09015 1142.00000
26.39886 1060.75924 1216.00000
26.40910 1064.61877 1223.00000
26.41934 1068.68180 1204.00000
26.42958 1072.96254 1246.00000
26.43982 1077.47648 1194.00000
26.45007 1082.24051 1226.00000
26.46031 1087.27311 1224.00000
26.47055 1092.59450 1186.00000
26.48079 1098.22686 1160.00000
26.49103 1104.19456 1211.00000
26.50127 1110.52443 1168.00000
26.51151 1117.24608 1250.00000
26.52176 1124.39221 1190.00000
26.53200 1131.99909 1213.00000
26.54224 1140.10694 1189.00000
26.55248 1148.76058 1183.00000
26.56272 1158.00998 1101.00000
26.57296 1167.91106 1147.00000
26.58320 1178.52659 1155.00000
26.59345 1189.92725 1205.00000
26.60369 1202.19295 1223.00000
26.61393 1215.41418 1225.00000
26.62417 1229.69366 1220.00000
26.63441 1245.14854 1305.00000
26.64465 1261.91303 1237.00000
26.65489 1280.14158 1270.00000
26.66514 1300.01296 1307.00000
26.67538 1321.73568 1307.00000
26.68562 1345.55413 1357.00000
26.69586 1371.75082 1445.00000
26.70610 1400.64625 1419.00000
26.71634 1432.62390 1454.00000
26.72658 1468.17101 1509.00000
26.73683 1507.86329 1591.00000
26.74707 1552.39393 1661.00000
26.75731 1602.61054 1643.00000
26.76755 1659.55694 1775.00000
26.77779 1724.52569 1792.00000
26.78803 1799.12190 1960.00000
26.79828 1885.33562 2054.00000
26.80852 1985.61715 2023.00000
26.81876 2102.95127 2139.00000
26.82900 2240.94199 2254.00000
26.83924 2403.94902 2520.00000
26.84948 2597.34157 2528.00000
26.85972 2827.93694 2760.00000
26.86997 3104.71016 3018.00000
26.88021 3439.99016 3329.00000
26.89045 3851.72435 3585.00000
26.90069 4368.05356 4176.00000
26.91093 5035.65844 4639.00000
26.92117 5929.86918 5534.00000
26.93141 7154.76486 6586.00000
26.94166 8821.16687 8080.00000
26.95190 11022.98274 10150.00000
26.96214 13848.52261 13079.00000
26.97238 17413.72022 17980.00000
26.98262 21879.07775 23251.00000
26.99286 27409.17530 28767.00000
27.00310 33969.06244 34840.00000
27.01335 40775.14133 40483.00000
27.02359 45613.80757 43957.00000
27.03383 45598.82256 43991.00000
27.04407 40460.04141 40737.00000
27.05431 33850.96710 35362.00000
27.06455 29239.11389 30523.00000
27.07479 27330.41548 27321.00000
27.08504 26974.45323 25988.00000
27.09528 26262.94362 24803.00000
27.10552 23549.02342 22378.00000
27.11576 18938.16084 18862.00000
27.12600 14134.17588 14236.00000
27.13624 10403.44333 10377.00000
27.14649 7879.65558 7396.00000
27.15673 6218.84883 5487.00000
27.16697 5097.37433 4443.00000
27.17721 4309.30050 3926.00000
27.18745 3733.96675 3449.00000
27.19769 3299.98841 3167.00000
27.20793 2963.60281 2947.00000
27.21818 2696.89500 2675.00000
27.22842 2481.38454 2496.00000
27.23866 2304.42635 2309.00000
27.24890 2157.11524 2232.00000
27.25914 2033.02057 2047.00000
27.26938 1927.39618 1874.00000
27.27962 1836.67227 1839.00000
27.28987 1758.12080 1794.00000
27.30011 1689.62559 1723.00000
27.31035 1629.50175 1668.00000
27.32059 1576.37893 1562.00000
27.33083 1529.19311 1502.00000
27.34107 1487.08812 1499.00000
27.35131 1449.35112 1471.00000
27.36156 1415.38910 1369.00000
27.37180 1384.70764 1361.00000
27.38204 1356.89179 1341.00000
27.39228 1331.59114 1370.00000
27.40252 1308.50791 1291.00000
27.41276 1287.38669 1320.00000
27.42300 1268.00375 1255.00000
27.43325 1250.15939 1208.00000
27.44349 1233.68119 1190.00000
27.45373 1218.42098 1159.00000
27.46397 1204.24837 1255.00000
27.47421 1191.04543 1247.00000
27.48445 1178.69486 1221.00000
27.49470 1167.05330 1197.00000
27.50494 1155.91656 1186.00000
27.51518 1145.07497 1186.00000
27.52542 1134.77355 1157.00000
27.53566 1125.81331 1149.00000
27.54590 1117.80408 1101.00000
27.55614 1110.34046 1167.00000
27.56639 1103.32390 1054.00000
27.57663 1096.71954 1180.00000
27.58687 1090.49656 1112.00000
27.59711 1084.62717 1069.00000
27.60735 1079.08616 1102.00000
27.61759 1073.85060 1050.00000
27.62783 1068.89972 1096.00000
27.63808 1064.21467 1079.00000
27.64832 1059.77828 1068.00000
27.65856 1055.57494 1079.00000
27.66880 1051.59045 1015.00000
27.67904 1047.81188 1041.00000
27.68928 1044.22747 1043.00000
27.69952 1040.82653 1010.00000
27.70977 1037.59937 1053.00000
27.72001 1034.53723 1043.00000
27.73025 1031.63221 1111.00000
27.74049 1028.87721 1116.00000
27.75073 1026.26594 1112.00000
27.76097 1023.79285 1097.00000
27.77121 1021.45310 1042.00000
27.78146 1019.24260 1082.00000
27.79170 1017.15797 1109.00000
27.80194 1015.19658 1042.00000
27.81218 1013.35649 1090.00000
27.82242 1011.63563 1034.00000
27.83266 1010.02848 1091.00000
27.84291 1008.52429 1064.00000
27.85315 1007.11527 1048.00000
27.86339 1005.79740 1038.00000
27.87363 1004.56681 1059.00000
27.88387 1003.41684 1050.00000
27.89411 1002.33345 1075.00000
27.90435 1001.27970 1035.00000
27.91460 1000.15050 1048.00000
27.92484 998.80331 1072.00000
27.93508 997.55775 1078.00000
27.94532 997.30381 1149.00000
27.95556 997.73953 1026.00000
27.96580 998.53160 1016.00000
27.97604 999.66221 1021.00000
27.98629 1001.19180 1016.00000
27.99653 1003.20211 973.00000
28.00677 1005.76869 1050.00000
28.01701 1008.98899 1059.00000
28.02725 1012.96743 1015.00000
28.03749 1017.78462 1060.00000
28.04773 1023.55406 1063.00000
28.05798 1030.97893 1118.00000
28.06822 1041.56348 1093.00000
28.07846 1056.00427 1118.00000
28.08870 1075.57267 1128.00000
28.09894 1102.45583 1194.00000
28.10918 1139.06097 1220.00000
28.11942 1187.46514 1293.00000
28.12967 1249.59061 1284.00000
28.13991 1327.85556 1454.00000
28.15015 1425.58506 1428.00000
28.16039 1546.38835 1596.00000
28.17063 1690.69294 1667.00000
28.18087 1846.17404 1809.00000
28.19112 1974.08821 1870.00000
28.20136 2014.46956 1874.00000
28.21160 1936.71860 1803.00000
28.22184 1788.69692 1813.00000
28.23208 1657.09586 1687.00000
28.24232 1585.66119 1540.00000
28.25256 1563.85310 1494.00000
28.26281 1555.85383 1500.00000
28.27305 1520.59009 1422.00000
28.28329 1436.26379 1393.00000
28.29353 1322.26284 1350.00000
28.30377 1218.29428 1262.00000
28.31401 1142.98532 1138.00000
28.32425 1092.82071 1142.00000
28.33450 1059.24848 1087.00000
28.34474 1035.94951 1089.00000
28.35498 1019.11206 1057.00000
28.36522 1006.49372 1051.00000
28.37546 996.74095 1070.00000
28.38570 989.04180 1045.00000
28.39594 982.79020 1080.00000
28.40619 977.61920 1058.00000
28.41643 973.27498 1027.00000
28.42667 969.57549 963.00000
28.43691 966.38717 1026.00000
28.44715 963.61014 1039.00000
28.45739 961.16833 1025.00000
28.46763 959.00296 991.00000
28.47788 957.06791 962.00000
28.48812 955.32660 969.00000
28.49836 953.74965 957.00000
28.50860 952.31323 981.00000
28.51884 950.99775 999.00000
28.52908 949.78606 948.00000
28.53933 948.65923 1010.00000
28.54957 947.59406 952.00000
28.55981 946.57085 1006.00000
28.57005 945.57391 1058.00000
28.58029 944.58738 946.00000
28.59053 943.59173 992.00000
28.60077 942.55815 993.00000
28.61102 941.43183 938.00000
28.62126 940.08520 1002.00000
28.63150 938.34698 1019.00000
28.64174 936.51429 949.00000
28.65198 935.47419 1005.00000
28.66222 934.90093 1000.00000
28.67246 934.41391 952.00000
28.68271 933.94418 954.00000
28.69295 933.48634 955.00000
28.70319 933.03779 972.00000
28.71343 932.60831 933.00000
28.72367 932.21319 965.00000
28.73391 931.83694 990.00000
28.74415 931.47328 955.00000
28.75440 931.12128 985.00000
28.76464 930.78017 986.00000
28.77488 930.44939 938.00000
28.78512 930.12819 937.00000
28.79536 929.81592 975.00000
28.80560 929.51204 991.00000
28.81584 929.21606 893.00000
28.82609 928.92752 987.00000
28.83633 928.64601 917.00000
28.84657 928.37114 925.00000
28.85681 928.10257 938.00000
28.86705 927.83995 985.00000
28.87729 927.58298 980.00000
28.88754 927.33138 939.00000
28.89778 927.08489 913.00000
28.90802 926.84326 966.00000
28.91826 926.60627 930.00000
28.92850 926.37369 933.00000
28.93874 926.14533 958.00000
28.94898 925.92100 961.00000
28.95923 925.70053 933.00000
28.96947 925.48376 939.00000
28.97971 925.27052 1004.00000
28.98995 925.06067 961.00000
29.00019 924.85409 966.00000
29.01043 924.65061 934.00000
29.02067 924.45006 938.00000
29.03092 924.25213 1007.00000
29.04116 924.05645 948.00000
29.05140 923.86275 1029.00000
29.06164 923.67077 970.00000
29.07188 923.48021 977.00000
29.08212 923.29061 963.00000
29.09236 923.10125 937.00000
29.10261 922.91057 893.00000
29.11285 922.71543 969.00000
29.12309 922.51348 956.00000
29.13333 922.31493 976.00000
29.14357 922.13945 1017.00000
29.15381 921.97152 988.00000
29.16405 921.80497 923.00000
29.17430 921.63948 915.00000
29.18454 921.47483 966.00000
29.19478 921.31080 967.00000
29.20502 921.14701 898.00000
29.21526 920.98290 936.00000
29.22550 920.81729 941.00000
29.23575 920.64732 989.00000
29.24599 920.46936 937.00000
29.25623 920.29046 897.00000
29.26647 920.12881 956.00000
29.27671 919.97208 915.00000
29.28695 919.79983 921.00000
29.29719 919.59993 930.00000
29.30744 919.36454 882.00000
29.31768 919.08449 908.00000
29.32792 918.74591 919.00000
29.33816 918.32509 958.00000
29.34840 917.77206 933.00000
29.35864 916.96327 951.00000
29.36888 915.72997 973.00000
29.37913 914.36586 966.00000
29.38937 913.75630 936.00000
29.39961 913.59486 963.00000
29.40985 913.50116 942.00000
29.42009 913.40510 969.00000
29.43033 913.31271 886.00000
29.44057 913.22068 891.00000
29.45082 913.12901 931.00000
29.46106 913.03769 952.00000
29.47130 912.94671 1004.00000
29.48154 912.85606 909.00000
29.49178 912.76574 930.00000
29.50202 912.67574 912.00000
29.51226 912.58605 915.00000
29.52251 912.49667 944.00000
29.53275 912.40760 883.00000
29.54299 912.31884 981.00000
29.55323 912.23038 922.00000
29.56347 912.14224 895.00000
29.57371 912.05442 983.00000
29.58396 911.96696 881.00000
29.59420 911.87992 907.00000
29.60444 911.79320 907.00000
29.61468 911.70645 986.00000
29.62492 911.61982 933.00000
29.63516 911.53342 925.00000
29.64540 911.44727 911.00000
29.65565 911.36137 904.00000
29.66589 911.27570 876.00000
29.67613 911.19028 874.00000
29.68637 911.10510 876.00000
29.69661 911.02018 966.00000
29.70685 910.93555 890.00000
29.71709 910.85117 923.00000
29.72734 910.76687 900.00000
29.73758 910.68270 940.00000
29.74782 910.59861 948.00000
29.75806 910.51439 969.00000
29.76830 910.42978 931.00000
29.77854 910.34461 936.00000
29.78878 910.25869 910.00000
29.79903 910.17176 924.00000
29.80927 910.08340 886.00000
29.81951 909.99282 900.00000
29.82975 909.89818 925.00000
29.83999 909.79615 917.00000
29.85023 909.68642 944.00000
29.86048 909.58157 870.00000
29.87072 909.49609 948.00000
29.88096 909.41587 927.00000
29.89120 909.33587 913.00000
29.90144 909.25601 923.00000
29.91168 909.17628 892.00000
29.92192 909.09670 879.00000
29.93217 909.01726 957.00000
29.94241 908.93796 957.00000
29.95265 908.85880 882.00000
29.96289 908.77977 920.00000
29.97313 908.70088 920.00000
29.98337 908.62213 934.00000
29.99361 908.54351 928.00000
30.00386 908.46502 946.00000
30.01410 908.38666 950.00000
30.02434 908.30844 921.00000
30.03458 908.23034 928.00000
30.04482 908.15237 887.00000
30.05506 908.07454 897.00000
30.06530 907.99683 925.00000
30.07555 907.91925 970.00000
30.08579 907.84180 949.00000
30.09603 907.76447 940.00000
30.10627 907.68727 950.00000
30.11651 907.61019 898.00000
30.12675 907.53324 874.00000
30.13699 907.45642 956.00000
30.14724 907.37971 925.00000
30.15748 907.30313 915.00000
30.16772 907.22667 971.00000
30.17796 907.15034 902.00000
30.18820 907.07413 925.00000
30.19844 906.99804 918.00000
30.20869 906.92207 895.00000
30.21893 906.84625 903.00000
30.22917 906.77057 937.00000
30.23941 906.69505 865.00000
30.24965 906.61970 881.00000
30.25989 906.54454 951.00000
30.27013 906.46965 907.00000
30.28038 906.39512 922.00000
30.29062 906.32094 885.00000
30.30086 906.24667 893.00000
30.31110 906.17212 944.00000
30.32134 906.09755 952.00000
30.33158 906.02309 898.00000
30.34182 905.94877 920.00000
30.35207 905.87459 933.00000
30.36231 905.80055 868.00000
30.37255 905.72667 867.00000
30.38279 905.65296 881.00000
30.39303 905.57948 876.00000
30.40327 905.50624 884.00000
30.41351 905.43308 922.00000
30.42376 905.35987 883.00000
30.43400 905.28670 879.00000
30.44424 905.21366 963.00000
30.45448 905.14077 923.00000
30.46472 905.06804 885.00000
30.47496 904.99548 961.00000
30.48520 904.92315 911.00000
30.49545 904.85109 936.00000
30.50569 904.77911 905.00000
30.51593 904.70664 896.00000
30.52617 904.63358 865.00000
30.53641 904.55987 852.00000
30.54665 904.48535 865.00000
30.55690 904.40974 912.00000
30.56714 904.33262 885.00000
30.57738 904.25313 926.00000
30.58762 904.16931 873.00000
30.59786 904.07778 897.00000
30.60810 903.97921 912.00000
30.61834 903.88706 917.00000
30.62859 903.81296 951.00000
30.63883 903.74360 953.00000
30.64907 903.67434 902.00000
30.65931 903.60533 903.00000
30.66955 903.53649 856.00000
30.67979 903.46782 876.00000
30.69003 903.39934 942.00000
30.70028 903.33105 869.00000
30.71052 903.26296 898.00000
30.72076 903.19507 942.00000
30.73100 903.12740 947.00000
30.74124 903.05995 862.00000
30.75148 902.99273 923.00000
30.76172 902.92576 913.00000
30.77197 902.85904 936.00000
30.78221 902.79260 915.00000
30.79245 902.72645 866.00000
30.80269 902.66059 870.00000
30.81293 902.59506 836.00000
30.82317 902.52987 889.00000
30.83341 902.46505 891.00000
30.84366 902.40061 925.00000
30.85390 902.33660 961.00000
30.86414 902.27303 865.00000
30.87438 902.20996 938.00000
30.88462 902.14741 935.00000
30.89486 902.08543 870.00000
30.90511 902.02408 937.00000
30.91535 901.96342 888.00000
30.92559 901.90351 908.00000
30.93583 901.84443 876.00000
30.94607 901.78628 907.00000
30.95631 901.72915 885.00000
30.96655 901.67318 948.00000
30.97680 901.61850 895.00000
30.98704 901.56529 884.00000
30.99728 901.51376 878.00000
31.00752 901.46413 905.00000
31.01776 901.41671 910.00000
31.02800 901.37184 881.00000
31.03824 901.32996 930.00000
31.04849 901.29157 900.00000
31.05873 901.25731 885.00000
31.06897 901.22792 883.00000
31.07921 901.20429 906.00000
31.08945 901.18745 941.00000
31.09969 901.17857 942.00000
31.10993 901.17897 900.00000
31.12018 901.19012 899.00000
31.13042 901.21371 914.00000
31.14066 901.25176 926.00000
31.15090 901.30704 921.00000
31.16114 901.38378 884.00000
31.17138 901.48926 902.00000
31.18162 901.63625 892.00000
31.19187 901.84640 889.00000
31.20211 902.15375 913.00000
31.21235 902.60597 880.00000
31.22259 903.25850 926.00000
31.23283 904.16228 925.00000
31.24307 905.35785 924.00000
31.25332 906.87941 945.00000
31.26356 908.74478 854.00000
31.27380 910.89150 910.00000
31.28404 913.02463 855.00000
31.29428 914.47090 925.00000
31.30452 914.45471 943.00000
31.31476 912.96261 877.00000
31.32501 911.01142 925.00000
31.33525 909.62113 914.00000
31.34549 909.13764 919.00000
31.35573 909.42919 944.00000
31.36597 910.15344 878.00000
31.37621 910.83530 897.00000
31.38645 911.03446 917.00000
31.39670 910.66945 916.00000
31.40694 909.96304 924.00000
31.41718 908.97201 958.00000
31.42742 907.59508 923.00000
31.43766 906.00195 895.00000
31.44790 904.61268 903.00000
31.45814 903.67902 982.00000
31.46839 903.17874 845.00000
31.47863 902.95616 842.00000
31.48887 902.79734 896.00000
31.49911 902.47163 951.00000
31.50935 901.85694 919.00000
31.51959 901.05453 829.00000
31.52983 900.28159 884.00000
31.54008 899.66346 912.00000
31.55032 899.20281 889.00000
31.56056 898.85800 897.00000
31.57080 898.59066 889.00000
31.58104 898.37474 857.00000
31.59128 898.19379 849.00000
31.60153 898.03740 898.00000
31.61177 897.89880 911.00000
31.62201 897.77346 890.00000
31.63225 897.65828 914.00000
31.64249 897.55102 918.00000
31.65273 897.45007 931.00000
31.66297 897.35424 883.00000
31.67322 897.26260 898.00000
31.68346 897.17446 845.00000
31.69370 897.08925 863.00000
31.70394 897.00654 928.00000
31.71418 896.92596 899.00000
31.72442 896.84723 841.00000
31.73466 896.77011 898.00000
31.74491 896.69440 873.00000
31.75515 896.61993 900.00000
31.76539 896.54656 927.00000
31.77563 896.47418 933.00000
31.78587 896.40268 888.00000
31.79611 896.33196 882.00000
31.80635 896.26194 911.00000
31.81660 896.19256 818.00000
31.82684 896.12375 913.00000
31.83708 896.05544 856.00000
31.84732 895.98755 904.00000
31.85756 895.91998 896.00000
31.86780 895.85279 904.00000
31.87804 895.78628 909.00000
31.88829 895.72027 898.00000
31.89853 895.65462 870.00000
31.90877 895.58928 919.00000
31.91901 895.52424 898.00000
31.92925 895.45948 899.00000
31.93949 895.39497 882.00000
31.94974 895.33071 851.00000
31.95998 895.26666 860.00000
31.97022 895.20278 915.00000
31.98046 895.13907 867.00000
31.99070 895.07558 878.00000
32.00094 895.01244 885.00000
32.01118 894.94951 926.00000
32.02143 894.88677 911.00000
32.03167 894.82428 907.00000
32.04191 894.76229 910.00000
32.05215 894.70114 915.00000
32.06239 894.64111 835.00000
32.07263 894.58263 898.00000
32.08287 894.52673 928.00000
32.09312 894.47572 859.00000
32.10336 894.43088 847.00000
32.11360 894.38412 930.00000
32.12384 894.32549 908.00000
32.13408 894.26476 837.00000
32.14432 894.20416 896.00000
32.15456 894.14368 901.00000
32.16481 894.08332 878.00000
32.17505 894.02308 927.00000
32.18529 893.96296 866.00000
32.19553 893.90296 845.00000
32.20577 893.84307 881.00000
32.21601 893.78329 920.00000
32.22625 893.72362 881.00000
32.23650 893.66405 871.00000
32.24674 893.60460 874.00000
32.25698 893.54524 899.00000
32.26722 893.48597 849.00000
32.27746 893.42680 881.00000
32.28770 893.36770 883.00000
32.29795 893.30868 919.00000
32.30819 893.24971 858.00000
32.31843 893.19076 836.00000
32.32867 893.13175 845.00000
32.33891 893.07279 856.00000
32.34915 893.01420 890.00000
32.35939 892.95585 885.00000
32.36964 892.89760 901.00000
32.37988 892.83944 879.00000
32.39012 892.78136 874.00000
32.40036 892.72337 883.00000
32.41060 892.66545 881.00000
32.42084 892.60760 873.00000
32.43108 892.54980 879.00000
32.44133 892.49202 872.00000
32.45157 892.43423 891.00000
32.46181 892.37649 907.00000
32.47205 892.31891 886.00000
32.48229 892.26129 870.00000
32.49253 892.20372 868.00000
32.50277 892.14651 892.00000
32.51302 892.08951 859.00000
32.52326 892.03262 868.00000
32.53350 891.97581 895.00000
32.54374 891.91907 860.00000
32.55398 891.86241 874.00000
32.56422 891.80583 887.00000
32.57446 891.74931 912.00000
32.58471 891.69285 838.00000
32.59495 891.63643 889.00000
32.60519 891.58002 893.00000
32.61543 891.52369 878.00000
32.62567 891.46760 875.00000
32.63591 891.41163 832.00000
32.64616 891.35574 909.00000
32.65640 891.29993 870.00000
32.66664 891.24420 820.00000
32.67688 891.18855 902.00000
32.68712 891.13298 880.00000
32.69736 891.07749 894.00000
32.70760 891.02209 912.00000
32.71785 890.96676 906.00000
32.72809 890.91152 890.00000
32.73833 890.85635 947.00000
32.74857 890.80127 909.00000
32.75881 890.74627 872.00000
32.76905 890.69134 833.00000
32.77929 890.63650 888.00000
32.78954 890.58174 886.00000
32.79978 890.52706 888.00000
32.81002 890.47246 867.00000
32.82026 890.41794 929.00000
32.83050 890.36350 861.00000
32.84074 890.30914 879.00000
32.85098 890.25489 918.00000
32.86123 890.20100 900.00000
32.87147 890.14799 899.00000
32.88171 890.09638 877.00000
32.89195 890.04668 829.00000
32.90219 889.99985 877.00000
32.91243 889.95822 845.00000
32.92267 889.92636 860.00000
32.93292 889.90261 889.00000
32.94316 889.86856 913.00000
32.95340 889.81858 873.00000
32.96364 889.76588 911.00000
32.97388 889.71327 872.00000
32.98412 889.66074 879.00000
32.99437 889.60831 875.00000
33.00461 889.55596 814.00000
33.01485 889.50371 899.00000
33.02509 889.45154 874.00000
33.03533 889.39947 865.00000
33.04557 889.34749 854.00000
33.05581 889.29559 839.00000
33.06606 889.24379 870.00000
33.07630 889.19208 857.00000
33.08654 889.14046 846.00000
33.09678 889.08893 955.00000
33.10702 889.03748 928.00000
33.11726 888.98611 898.00000
33.12750 888.93482 868.00000
33.13775 888.88359 882.00000
33.14799 888.83241 897.00000
33.15823 888.78124 887.00000
33.16847 888.73010 855.00000
33.17871 888.67934 929.00000
33.18895 888.62964 862.00000
33.19919 888.58113 841.00000
33.20944 888.53415 865.00000
33.21968 888.48971 860.00000
33.22992 888.45014 908.00000
33.24016 888.41669 874.00000
33.25040 888.38123 914.00000
33.26064 888.33402 902.00000
33.27088 888.28470 861.00000
33.28113 888.23544 897.00000
33.29137 888.18622 809.00000
33.30161 888.13710 886.00000
33.31185 888.08823 866.00000
33.32209 888.03953 871.00000
33.33233 887.99095 856.00000
33.34258 887.94249 921.00000
33.35282 887.89414 841.00000
33.36306 887.84591 890.00000
33.37330 887.79780 952.00000
33.38354 887.74981 891.00000
33.39378 887.70194 885.00000
33.40402 887.65420 818.00000
33.41427 887.60658 841.00000
33.42451 887.55908 923.00000
33.43475 887.51171 971.00000
33.44499 887.46447 906.00000
33.45523 887.41736 875.00000
33.46547 887.37037 852.00000
33.47571 887.32352 791.00000
33.48596 887.27681 911.00000
33.49620 887.23023 916.00000
33.50644 887.18378 861.00000
33.51668 887.13748 873.00000
33.52692 887.09131 855.00000
33.53716 887.04529 898.00000
33.54740 886.99941 848.00000
33.55765 886.95368 862.00000
33.56789 886.90809 862.00000
33.57813 886.86265 867.00000
33.58837 886.81737 877.00000
33.59861 886.77224 863.00000
33.60885 886.72726 901.00000
33.61910 886.68244 918.00000
33.62934 886.63779 893.00000
33.63958 886.59329 894.00000
33.64982 886.54896 868.00000
33.66006 886.50480 907.00000
33.67030 886.46081 910.00000
33.68054 886.41700 958.00000
33.69079 886.37336 1004.00000
33.70103 886.32989 947.00000
33.71127 886.28662 989.00000
33.72151 886.24352 964.00000
33.73175 886.20062 975.00000
33.74199 886.15791 977.00000
33.75223 886.11539 927.00000
33.76248 886.07307 960.00000
33.77272 886.03096 941.00000
33.78296 885.98905 970.00000
33.79320 885.94735 972.00000
33.80344 885.90587 930.00000
33.81368 885.86461 927.00000
33.82392 885.82357 906.00000
33.83417 885.78276 967.00000
33.84441 885.74219 883.00000
33.85465 885.70185 911.00000
33.86489 885.66176 859.00000
33.87513 885.62191 901.00000
33.88537 885.58232 886.00000
33.89561 885.54299 909.00000
33.90586 885.50393 902.00000
33.91610 885.46514 862.00000
33.92634 885.42663 878.00000
33.93658 885.38842 917.00000
33.94682 885.35065 846.00000
33.95706 885.31383 911.00000
33.96731 885.27866 848.00000
33.97755 885.24570 950.00000
33.98779 885.21586 882.00000
33.99803 885.19117 861.00000
34.00827 885.17628 869.00000
34.01851 885.17400 885.00000
34.02875 885.16909 903.00000
34.03900 885.14297 885.00000
34.04924 885.11488 897.00000
34.05948 885.09005 871.00000
34.06972 885.07092 884.00000
34.07996 885.06216 832.00000
34.09020 885.06170 852.00000
34.10044 885.05058 818.00000
34.11069 885.02470 875.00000
34.12093 884.99671 863.00000
34.13117 884.96924 869.00000
34.14141 884.94233 862.00000
34.15165 884.91614 844.00000
34.16189 884.89068 879.00000
34.17213 884.86590 856.00000
34.18238 884.84190 942.00000
34.19262 884.81894 845.00000
34.20286 884.79740 887.00000
34.21310 884.77761 909.00000
34.22334 884.76005 902.00000
34.23358 884.74582 893.00000
34.24382 884.73731 817.00000
34.25407 884.73581 823.00000
34.26431 884.73334 887.00000
34.27455 884.72050 893.00000
34.28479 884.70660 893.00000
34.29503 884.69383 872.00000
34.30527 884.68223 885.00000
34.31552 884.67186 849.00000
34.32576 884.66276 853.00000
34.33600 884.65501 906.00000
34.34624 884.64865 842.00000
34.35648 884.64377 850.00000
34.36672 884.64042 871.00000
34.37696 884.63869 930.00000
34.38721 884.63866 862.00000
34.39745 884.64040 823.00000
34.40769 884.64402 859.00000
34.41793 884.64960 826.00000
34.42817 884.65726 865.00000
34.43841 884.66711 847.00000
34.44865 884.67926 930.00000
34.45890 884.69385 900.00000
34.46914 884.71101 870.00000
34.47938 884.73089 833.00000
34.48962 884.75366 846.00000
34.49986 884.77949 841.00000
34.51010 884.80856 842.00000
34.52034 884.84107 888.00000
34.53059 884.87726 878.00000
34.54083 884.91735 906.00000
34.55107 884.96159 869.00000
34.56131 885.01029 853.00000
34.57155 885.06373 852.00000
34.58179 885.12225 894.00000
34.59203 885.18621 833.00000
34.60228 885.25603 885.00000
34.61252 885.33212 830.00000
34.62276 885.41498 851.00000
34.63300 885.50513 875.00000
34.64324 885.60315 890.00000
34.65348 885.70970 815.00000
34.66373 885.82549 869.00000
34.67397 885.95131 824.00000
34.68421 886.08804 835.00000
34.69445 886.23669 890.00000
34.70469 886.39835 877.00000
34.71493 886.57428 863.00000
34.72517 886.76586 876.00000
34.73542 886.97468 852.00000
34.74566 887.20255 841.00000
34.75590 887.45150 795.00000
34.76614 887.72387 903.00000
34.77638 888.02233 867.00000
34.78662 888.34997 879.00000
34.79686 888.71040 843.00000
34.80711 889.10803 907.00000
34.81735 889.54857 896.00000
34.82759 890.03888 857.00000
34.83783 890.58659 876.00000
34.84807 891.20112 865.00000
34.85831 891.89526 896.00000
34.86855 892.68778 898.00000
34.87880 893.59846 870.00000
34.88904 894.62007 916.00000
34.89928 895.72910 916.00000
34.90952 896.98348 901.00000
34.91976 898.41791 841.00000
34.93000 900.06181 878.00000
34.94024 901.94726 921.00000
34.95049 904.10795 917.00000
34.96073 906.57796 916.00000
34.97097 909.39150 910.00000
34.98121 912.58519 982.00000
34.99145 916.20608 858.00000
35.00169 920.32953 920.00000
35.01194 925.09064 907.00000
35.02218 930.72932 925.00000
35.03242 937.64469 912.00000
35.04266 946.45760 955.00000
35.05290 958.09254 961.00000
35.06314 973.89268 969.00000
35.07338 995.73477 957.00000
35.08363 1025.99873 1038.00000
35.09387 1067.20441 1072.00000
35.10411 1121.37608 1121.00000
35.11435 1189.34461 1198.00000
35.12459 1269.42741 1225.00000
35.13483 1354.12781 1475.00000
35.14507 1425.54597 1493.00000
35.15532 1456.84644 1518.00000
35.16556 1430.21687 1498.00000
35.17580 1359.45370 1448.00000
35.18604 1281.95341 1322.00000
35.19628 1225.91307 1244.00000
35.20652 1198.31848 1265.00000
35.21676 1194.02373 1230.00000
35.22701 1203.07922 1197.00000
35.23725 1211.83317 1248.00000
35.24749 1204.74365 1236.00000
35.25773 1172.83505 1253.00000
35.26797 1122.35772 1136.00000
35.27821 1069.31150 1086.00000
35.28845 1025.16669 1035.00000
35.29870 992.41462 1008.00000
35.30894 968.99083 923.00000
35.31918 952.17159 974.00000
35.32942 939.85117 941.00000
35.33966 930.60941 958.00000
35.34990 923.51449 892.00000
35.36015 917.94542 879.00000
35.37039 913.49511 899.00000
35.38063 909.88543 870.00000
35.39087 906.91924 928.00000
35.40111 904.45469 903.00000
35.41135 902.38791 889.00000
35.42159 900.64141 887.00000
35.43184 899.15648 913.00000
35.44208 897.88798 883.00000
35.45232 896.80074 881.00000
35.46256 895.86710 910.00000
35.47280 895.06510 900.00000
35.48304 894.37712 884.00000
35.49328 893.78901 861.00000
35.50353 893.28933 834.00000
35.51377 892.86880 838.00000
35.52401 892.51993 844.00000
35.53425 892.23670 856.00000
35.54449 892.01429 908.00000
35.55473 891.84896 879.00000
35.56497 891.73785 915.00000
35.57522 891.67932 865.00000
35.58546 891.67177 886.00000
35.59570 891.71456 846.00000
35.60594 891.80774 865.00000
35.61618 891.95198 872.00000
35.62642 892.14864 857.00000
35.63666 892.39973 815.00000
35.64691 892.70800 910.00000
35.65715 893.07701 886.00000
35.66739 893.51119 850.00000
35.67763 894.01599 832.00000
35.68787 894.59804 866.00000
35.69811 895.26533 850.00000
35.70836 896.02747 832.00000
35.71860 896.89592 884.00000
35.72884 897.88431 890.00000
35.73908 899.00894 857.00000
35.74932 900.28954 907.00000
35.75956 901.74966 903.00000
35.76980 903.41693 937.00000
35.78005 905.32310 904.00000
35.79029 907.50691 892.00000
35.80053 910.02210 917.00000
35.81077 912.92820 857.00000
35.82101 916.27023 844.00000
35.83125 920.10255 919.00000
35.84149 924.48194 886.00000
35.85174 929.46593 892.00000
35.86198 935.11860 886.00000
35.87222 941.52720 939.00000
35.88246 948.83622 880.00000
35.89270 957.30349 959.00000
35.90294 967.37635 913.00000
35.91318 979.78137 960.00000
35.92343 995.62897 1010.00000
35.93367 1016.55344 935.00000
35.94391 1044.90501 1016.00000
35.95415 1083.92125 1042.00000
35.96439 1137.63073 1066.00000
35.97463 1210.22378 1112.00000
35.98487 1305.02343 1200.00000
35.99512 1423.34685 1344.00000
36.00536 1562.35684 1445.00000
36.01560 1709.76827 1620.00000
36.02584 1836.26217 1740.00000
36.03608 1896.72335 1846.00000
36.04632 1857.62942 1788.00000
36.05657 1737.12731 1734.00000
36.06681 1598.65235 1589.00000
36.07705 1494.44983 1428.00000
36.08729 1439.76258 1339.00000
36.09753 1427.38186 1369.00000
36.10777 1441.74475 1344.00000
36.11801 1461.21862 1385.00000
36.12826 1458.52378 1373.00000
36.13850 1412.41834 1381.00000
36.14874 1327.34052 1278.00000
36.15898 1231.41757 1221.00000
36.16922 1148.99009 1099.00000
36.17946 1086.73675 1103.00000
36.18970 1041.78344 1009.00000
36.19995 1009.36223 1000.00000
36.21019 985.57036 991.00000
36.22043 967.70276 969.00000
36.23067 953.96742 919.00000
36.24091 943.17905 928.00000
36.25115 934.54152 924.00000
36.26139 927.50852 954.00000
36.27164 921.69664 899.00000
36.28188 916.83096 903.00000
36.29212 912.71015 929.00000
36.30236 909.18344 880.00000
36.31260 906.13508 878.00000
36.32284 903.47677 889.00000
36.33308 901.14865 890.00000
36.34333 899.10571 909.00000
36.35357 897.29535 892.00000
36.36381 895.68062 868.00000
36.37405 894.23318 921.00000
36.38429 892.92970 916.00000
36.39453 891.75087 881.00000
36.40478 890.68053 881.00000
36.41502 889.70511 893.00000
36.42526 888.81306 878.00000
36.43550 887.99435 835.00000
36.44574 887.24029 872.00000
36.45598 886.54344 869.00000
36.46622 885.89716 830.00000
36.47647 885.29506 883.00000
36.48671 884.73022 816.00000
36.49695 884.19759 810.00000
36.50719 883.70185 900.00000
36.51743 883.24863 870.00000
36.52767 882.82560 881.00000
36.53791 882.42816 861.00000
36.54816 882.05423 901.00000
36.55840 881.70211 868.00000
36.56864 881.37028 807.00000
36.57888 881.05754 906.00000
36.58912 880.76346 848.00000
36.59936 880.48875 908.00000
36.60960 880.23049 865.00000
36.61985 879.97810 829.00000
36.63009 879.73307 882.00000
36.64033 879.49736 814.00000
36.65057 879.27000 837.00000
36.66081 879.04888 826.00000
36.67105 878.83000 844.00000
36.68129 878.60896 865.00000
36.69154 878.39568 857.00000
36.70178 878.21377 879.00000
36.71202 878.04347 846.00000
36.72226 877.87960 939.00000
36.73250 877.72176 867.00000
36.74274 877.56961 853.00000
36.75299 877.42286 851.00000
36.76323 877.28112 848.00000
36.77347 877.14412 822.00000
36.78371 877.01158 884.00000
36.79395 876.88325 814.00000
36.80419 876.75891 866.00000
36.81443 876.63835 875.00000
36.82468 876.52136 854.00000
36.83492 876.40776 876.00000
36.84516 876.29737 807.00000
36.85540 876.19003 867.00000
36.86564 876.08560 864.00000
36.87588 875.98393 889.00000
36.88612 875.88488 854.00000
36.89637 875.78834 842.00000
36.90661 875.69418 854.00000
36.91685 875.60230 832.00000
36.92709 875.51259 876.00000
36.93733 875.42495 791.00000
36.94757 875.33930 848.00000
36.95781 875.25554 879.00000
36.96806 875.17361 857.00000
36.97830 875.09341 889.00000
36.98854 875.01487 840.00000
36.99878 874.93794 896.00000
37.00902 874.86254 853.00000
37.01926 874.78861 867.00000
37.02950 874.71610 879.00000
37.03975 874.64496 862.00000
37.04999 874.57512 848.00000
37.06023 874.50654 878.00000
37.07047 874.43917 852.00000
37.08071 874.37298 912.00000
37.09095 874.30791 865.00000
37.10120 874.24394 910.00000
37.11144 874.18101 837.00000
37.12168 874.11910 849.00000
37.13192 874.05818 893.00000
37.14216 873.99818 875.00000
37.15240 873.93896 837.00000
37.16264 873.88004 887.00000
37.17289 873.82086 844.00000
37.18313 873.76094 890.00000
37.19337 873.69951 827.00000
37.20361 873.63470 830.00000
37.21385 873.56256 821.00000
37.22409 873.48006 859.00000
37.23433 873.39878 823.00000
37.24458 873.33827 883.00000
37.25482 873.27811 853.00000
37.26506 873.21299 828.00000
37.27530 873.15130 910.00000
37.28554 873.10187 841.00000
37.29578 873.05516 857.00000
37.30602 873.00901 871.00000
37.31627 872.96342 786.00000
37.32651 872.91831 861.00000
37.33675 872.87335 856.00000
37.34699 872.82788 851.00000
37.35723 872.78151 876.00000
37.36747 872.73370 849.00000
37.37772 872.68332 822.00000
37.38796 872.62734 864.00000
37.39820 872.56056 864.00000
37.40844 872.49065 851.00000
37.41868 872.44366 873.00000
37.42892 872.40613 879.00000
37.43916 872.37160 795.00000
37.44941 872.34068 814.00000
37.45965 872.31637 832.00000
37.46989 872.29909 800.00000
37.48013 872.27822 841.00000
37.49037 872.24756 812.00000
37.50061 872.21325 856.00000
37.51085 872.17893 847.00000
37.52110 872.14504 888.00000
37.53134 872.11157 874.00000
37.54158 872.07852 851.00000
37.55182 872.04590 833.00000
37.56206 872.01371 824.00000
37.57230 871.98194 829.00000
37.58254 871.95061 851.00000
37.59279 871.91971 825.00000
37.60303 871.88925 859.00000
37.61327 871.85922 814.00000
37.62351 871.82965 884.00000
37.63375 871.80052 876.00000
37.64399 871.77185 820.00000
37.65423 871.74366 894.00000
37.66448 871.71610 846.00000
37.67472 871.68945 823.00000
37.68496 871.66398 871.00000
37.69520 871.64009 801.00000
37.70544 871.61879 890.00000
37.71568 871.60206 862.00000
37.72593 871.58841 880.00000
37.73617 871.56896 840.00000
37.74641 871.54655 864.00000
37.75665 871.52431 829.00000
37.76689 871.50269 889.00000
37.77713 871.48168 809.00000
37.78737 871.46132 921.00000
37.79762 871.44163 859.00000
37.80786 871.42261 886.00000
37.81810 871.40430 872.00000
37.82834 871.38672 847.00000
37.83858 871.36989 875.00000
37.84882 871.35384 885.00000
37.85906 871.33859 914.00000
37.86931 871.32419 878.00000
37.87955 871.31066 888.00000
37.88979 871.29803 888.00000
37.90003 871.28634 872.00000
37.91027 871.27564 867.00000
37.92051 871.26596 868.00000
37.93075 871.25735 836.00000
37.94100 871.24985 825.00000
37.95124 871.24353 877.00000
37.96148 871.23842 848.00000
37.97172 871.23460 807.00000
37.98196 871.23212 809.00000
37.99220 871.23106 862.00000
38.00244 871.23148 869.00000
38.01269 871.23347 837.00000
38.02293 871.23711 898.00000
38.03317 871.24248 885.00000
38.04341 871.24970 821.00000
38.05365 871.25886 906.00000
38.06389 871.27007 890.00000
38.07414 871.28347 878.00000
38.08438 871.29917 829.00000
38.09462 871.31734 830.00000
38.10486 871.33809 837.00000
38.11510 871.36135 863.00000
38.12534 871.38675 867.00000
38.13558 871.41402 859.00000
38.14583 871.44279 843.00000
38.15607 871.47213 820.00000
38.16631 871.49957 866.00000
38.17655 871.52058 878.00000
38.18679 871.53769 856.00000
38.19703 871.56962 859.00000
38.20727 871.61690 882.00000
38.21752 871.66669 806.00000
38.22776 871.72554 850.00000
38.23800 871.80271 833.00000
38.24824 871.88929 830.00000
38.25848 871.98380 847.00000
38.26872 872.08697 848.00000
38.27896 872.19963 837.00000
38.28921 872.32271 855.00000
38.29945 872.45727 842.00000
38.30969 872.60450 843.00000
38.31993 872.76576 839.00000
38.33017 872.94260 900.00000
38.34041 873.13679 853.00000
38.35065 873.35037 870.00000
38.36090 873.58570 864.00000
38.37114 873.84550 840.00000
38.38138 874.13296 866.00000
38.39162 874.45178 841.00000
38.40186 874.80632 858.00000
38.41210 875.20167 865.00000
38.42235 875.64385 832.00000
38.43259 876.13994 822.00000
38.44283 876.69826 886.00000
38.45307 877.32851 859.00000
38.46331 878.04188 824.00000
38.47355 878.85106 813.00000
38.48379 879.76999 853.00000
38.49404 880.81341 852.00000
38.50428 881.99612 895.00000
38.51452 883.33203 873.00000
38.52476 884.83373 852.00000
38.53500 886.51317 885.00000
38.54524 888.38501 886.00000
38.55548 890.47404 840.00000
38.56573 892.82727 852.00000
38.57597 895.52984 906.00000
38.58621 898.72192 911.00000
38.59645 902.61519 890.00000
38.60669 907.51186 843.00000
38.61693 913.83562 935.00000
38.62717 922.18531 875.00000
38.63742 933.41625 984.00000
38.64766 948.72603 883.00000
38.65790 969.65582 1019.00000
38.66814 997.85302 986.00000
38.67838 1034.50870 988.00000
38.68862 1079.49175 1061.00000
38.69886 1129.95208 1084.00000
38.70911 1178.15216 1144.00000
38.71935 1210.49217 1194.00000
38.72959 1213.11047 1137.00000
38.73983 1184.31232 1202.00000
38.75007 1138.90727 1070.00000
38.76031 1095.79368 1104.00000
38.77056 1065.79597 1096.00000
38.78080 1051.01178 1069.00000
38.79104 1049.05095 1030.00000
38.80128 1055.52392 993.00000
38.81152 1064.16134 989.00000
38.82176 1066.89111 1124.00000
38.83200 1056.84702 966.00000
38.84225 1033.56898 1035.00000
38.85249 1003.68332 1047.00000
38.86273 974.98943 996.00000
38.87297 951.56507 913.00000
38.88321 933.87043 924.00000
38.89345 920.82226 901.00000
38.90369 911.15907 889.00000
38.91394 903.88416 826.00000
38.92418 898.29605 874.00000
38.93442 893.91685 876.00000
38.94466 890.42135 909.00000
38.95490 887.58595 823.00000
38.96514 885.25161 867.00000
38.97538 883.29872 893.00000
38.98563 881.64652 862.00000
38.99587 880.23572 890.00000
39.00611 879.02026 878.00000
39.01635 877.96471 893.00000
39.02659 877.04185 843.00000
39.03683 876.23099 857.00000
39.04707 875.51425 878.00000
39.05732 874.87221 856.00000
39.06756 874.29371 902.00000
39.07780 873.77199 852.00000
39.08804 873.29932 808.00000
39.09828 872.86858 866.00000
39.10852 872.47391 884.00000
39.11877 872.11019 850.00000
39.12901 871.77234 822.00000
39.13925 871.45386 836.00000
39.14949 871.14645 883.00000
39.15973 870.85552 840.00000
39.16997 870.60557 785.00000
39.18021 870.37962 854.00000
39.19046 870.16917 859.00000
39.20070 869.97207 884.00000
39.21094 869.78708 814.00000
39.22118 869.61307 851.00000
39.23142 869.44907 815.00000
39.24166 869.29420 830.00000
39.25190 869.14768 804.00000
39.26215 869.00881 815.00000
39.27239 868.87696 859.00000
39.28263 868.75158 809.00000
39.29287 868.63216 847.00000
39.30311 868.51824 824.00000
39.31335 868.40940 848.00000
39.32359 868.30529 840.00000
39.33384 868.20554 863.00000
39.34408 868.10986 856.00000
39.35432 868.01796 860.00000
39.36456 867.92957 912.00000
39.37480 867.84431 840.00000
39.38504 867.76170 877.00000
39.39528 867.68132 883.00000
39.40553 867.60263 893.00000
39.41577 867.52453 849.00000
39.42601 867.44503 852.00000
39.43625 867.36566 882.00000
39.44649 867.29504 836.00000
39.45673 867.23004 900.00000
39.46698 867.16731 832.00000
39.47722 867.10630 904.00000
39.48746 867.04694 802.00000
39.49770 866.98911 864.00000
39.50794 866.93275 841.00000
39.51818 866.87778 880.00000
39.52842 866.82412 868.00000
39.53867 866.77170 845.00000
39.54891 866.72047 882.00000
39.55915 866.67036 847.00000
39.56939 866.62132 827.00000
39.57963 866.57329 901.00000
39.58987 866.52623 839.00000
39.60011 866.48009 856.00000
39.61036 866.43483 833.00000
39.62060 866.39041 861.00000
39.63084 866.34679 866.00000
39.64108 866.30393 862.00000
39.65132 866.26181 872.00000
39.66156 866.22038 856.00000
39.67180 866.17963 836.00000
39.68205 866.13951 825.00000
39.69229 866.10002 848.00000
39.70253 866.06111 864.00000
39.71277 866.02277 917.00000
39.72301 865.98497 810.00000
39.73325 865.94769 877.00000
39.74349 865.91092 841.00000
39.75374 865.87463 852.00000
39.76398 865.83880 853.00000
39.77422 865.80342 847.00000
39.78446 865.76847 873.00000
39.79470 865.73394 857.00000
39.80494 865.69981 837.00000
39.81519 865.66606 843.00000
39.82543 865.63269 807.00000
39.83567 865.59968 818.00000
39.84591 865.56702 865.00000
39.85615 865.53469 829.00000
39.86639 865.50269 840.00000
39.87663 865.47101 792.00000
39.88688 865.43963 918.00000
39.89712 865.40854 825.00000
39.90736 865.37775 852.00000
39.91760 865.34723 877.00000
39.92784 865.31698 852.00000
39.93808 865.28699 873.00000
39.94832 865.25723 793.00000
39.95857 865.22757 858.00000
39.96881 865.19771 852.00000
39.97905 865.16741 838.00000
39.98929 865.13631 834.00000
39.99953 865.10343 850.00000
40.00977 865.06687 871.00000
40.02001 865.02830 863.00000
40.03026 864.99670 816.00000
40.04050 864.96901 803.00000
40.05074 864.94194 812.00000
40.06098 864.91504 826.00000
40.07122 864.88832 875.00000
40.08146 864.86177 860.00000
40.09170 864.83538 872.00000
40.10195 864.80915 826.00000
40.11219 864.78308 856.00000
40.12243 864.75717 854.00000
40.13267 864.73141 873.00000
40.14291 864.70577 778.00000
40.15315 864.68012 910.00000
40.16340 864.65419 877.00000
40.17364 864.62773 879.00000
40.18388 864.60037 849.00000
40.19412 864.57117 838.00000
40.20436 864.53823 844.00000
40.21460 864.50320 860.00000
40.22484 864.47500 828.00000
40.23509 864.45061 864.00000
40.24533 864.42677 800.00000
40.25557 864.40303 861.00000
40.26581 864.37940 886.00000
40.27605 864.35588 852.00000
40.28629 864.33247 868.00000
40.29653 864.30918 875.00000
40.30678 864.28616 853.00000
40.31702 864.26366 887.00000
40.32726 864.24197 859.00000
40.33750 864.22172 903.00000
40.34774 864.20427 875.00000
40.35798 864.18874 825.00000
40.36822 864.16889 878.00000
40.37847 864.14679 883.00000
40.38871 864.12464 880.00000
40.39895 864.10288 925.00000
40.40919 864.08181 855.00000
40.41943 864.06185 923.00000
40.42967 864.04406 890.00000
40.43991 864.02879 853.00000
40.45016 864.01220 919.00000
40.46040 863.99136 928.00000
40.47064 863.96999 891.00000
40.48088 863.94870 913.00000
40.49112 863.92750 883.00000
40.50136 863.90638 861.00000
40.51161 863.88536 827.00000
40.52185 863.86442 935.00000
40.53209 863.84356 824.00000
40.54233 863.82279 879.00000
40.55257 863.80211 887.00000
40.56281 863.78151 826.00000
40.57305 863.76099 872.00000
40.58330 863.74056 861.00000
40.59354 863.72021 806.00000
40.60378 863.69994 906.00000
40.61402 863.67976 894.00000
40.62426 863.65966 837.00000
40.63450 863.63964 848.00000
40.64474 863.61971 840.00000
40.65499 863.59985 834.00000
40.66523 863.58008 841.00000
40.67547 863.56039 823.00000
40.68571 863.54079 883.00000
40.69595 863.52126 879.00000
40.70619 863.50182 841.00000
40.71643 863.48245 808.00000
40.72668 863.46317 891.00000
40.73692 863.44397 822.00000
40.74716 863.42486 788.00000
40.75740 863.40582 794.00000
40.76764 863.38687 833.00000
40.77788 863.36800 867.00000
40.78812 863.34921 902.00000
40.79837 863.33051 846.00000
40.80861 863.31189 861.00000
40.81885 863.29335 834.00000
40.82909 863.27490 842.00000
40.83933 863.25653 872.00000
40.84957 863.23824 819.00000
40.85982 863.22004 831.00000
40.87006 863.20192 912.00000
40.88030 863.18389 826.00000
40.89054 863.16595 829.00000
40.90078 863.14809 843.00000
40.91102 863.13032 837.00000
40.92126 863.11264 849.00000
40.93151 863.09504 874.00000
40.94175 863.07752 813.00000
40.95199 863.06060 806.00000
40.96223 863.04771 840.00000
40.97247 863.04574 837.00000
40.98271 863.06303 842.00000
40.99295 863.11359 900.00000
41.00320 863.22815 894.00000
41.01344 863.42662 877.00000
41.02368 863.61645 834.00000
41.03392 863.63102 823.00000
41.04416 863.62545 845.00000
41.05440 863.64096 835.00000
41.06464 863.69577 835.00000
41.07489 863.83276 820.00000
41.08513 864.11964 869.00000
41.09537 864.55179 846.00000
41.10561 864.87122 848.00000
41.11585 864.91080 845.00000
41.12609 864.90673 904.00000
41.13634 864.90285 829.00000
41.14658 864.89918 834.00000
41.15682 864.89570 879.00000
41.16706 864.89243 845.00000
41.17730 864.88936 855.00000
41.18754 864.88650 849.00000
41.19778 864.88386 832.00000
41.20803 864.88143 880.00000
41.21827 864.87922 827.00000
41.22851 864.87724 864.00000
41.23875 864.87548 828.00000
41.24899 864.87394 871.00000
41.25923 864.87268 841.00000
41.26947 864.87200 854.00000
41.27972 864.87240 876.00000
41.28996 864.87445 862.00000
41.30020 864.87944 889.00000
41.31044 864.89012 895.00000
41.32068 864.90474 886.00000
41.33092 864.91088 843.00000
41.34116 864.91267 864.00000
41.35141 864.91438 861.00000
41.36165 864.91690 844.00000
41.37189 864.92079 825.00000
41.38213 864.92678 809.00000
41.39237 864.93671 874.00000
41.40261 864.95238 855.00000
41.41285 864.96826 869.00000
41.42310 864.97410 852.00000
41.43334 864.97869 840.00000
41.44358 864.98363 842.00000
41.45382 864.98893 817.00000
41.46406 864.99458 899.00000
41.47430 865.00060 897.00000
41.48455 865.00700 865.00000
41.49479 865.01378 829.00000
41.50503 865.02095 877.00000
41.51527 865.02852 848.00000
41.52551 865.03650 863.00000
41.53575 865.04491 849.00000
41.54599 865.05376 840.00000
41.55624 865.06323 891.00000
41.56648 865.07358 844.00000
41.57672 865.08509 862.00000
41.58696 865.09844 854.00000
41.59720 865.11501 776.00000
41.60744 865.13397 862.00000
41.61768 865.14912 825.00000
41.62793 865.16252 827.00000
41.63817 865.17628 847.00000
41.64841 865.19087 846.00000
41.65865 865.20657 817.00000
41.66889 865.22374 887.00000
41.67913 865.24329 849.00000
41.68937 865.26630 856.00000
41.69962 865.29037 876.00000
41.70986 865.30971 879.00000
41.72010 865.32893 853.00000
41.73034 865.34888 892.00000
41.74058 865.36959 865.00000
41.75082 865.39109 868.00000
41.76106 865.41339 867.00000
41.77131 865.43653 850.00000
41.78155 865.46054 868.00000
41.79179 865.48545 906.00000
41.80203 865.51128 833.00000
41.81227 865.53807 823.00000
41.82251 865.56586 889.00000
41.83276 865.59468 906.00000
41.84300 865.62457 751.00000
41.85324 865.65558 947.00000
41.86348 865.68774 857.00000
41.87372 865.72110 839.00000
41.88396 865.75572 853.00000
41.89420 865.79164 860.00000
41.90445 865.82892 840.00000
41.91469 865.86761 845.00000
41.92493 865.90777 858.00000
41.93517 865.94948 870.00000
41.94541 865.99279 902.00000
41.95565 866.03779 860.00000
41.96589 866.08454 895.00000
41.97614 866.13314 817.00000
41.98638 866.18368 885.00000
41.99662 866.23624 835.00000
42.00686 866.29093 851.00000
42.01710 866.34786 849.00000
42.02734 866.40715 878.00000
42.03758 866.46892 826.00000
42.04783 866.53328 826.00000
42.05807 866.60024 865.00000
42.06831 866.66968 885.00000
42.07855 866.74151 847.00000
42.08879 866.81554 825.00000
42.09903 866.89098 866.00000
42.10927 866.96610 904.00000
42.11952 867.04278 846.00000
42.12976 867.13036 904.00000
42.14000 867.22612 902.00000
42.15024 867.32704 861.00000
42.16048 867.43300 884.00000
42.17072 867.54435 828.00000
42.18097 867.66148 877.00000
42.19121 867.78481 836.00000
42.20145 867.91481 854.00000
42.21169 868.05199 898.00000
42.22193 868.19693 888.00000
42.23217 868.35025 853.00000
42.24241 868.51266 812.00000
42.25266 868.68494 861.00000
42.26290 868.86795 867.00000
42.27314 869.06267 857.00000
42.28338 869.27019 833.00000
42.29362 869.49173 913.00000
42.30386 869.72870 918.00000
42.31410 869.98266 838.00000
42.32435 870.25541 848.00000
42.33459 870.54899 880.00000
42.34483 870.86572 798.00000
42.35507 871.20829 856.00000
42.36531 871.57978 859.00000
42.37555 871.98373 842.00000
42.38579 872.42424 870.00000
42.39604 872.90602 827.00000
42.40628 873.43479 827.00000
42.41652 874.01892 895.00000
42.42676 874.67171 832.00000
42.43700 875.40927 901.00000
42.44724 876.25042 878.00000
42.45748 877.22895 927.00000
42.46773 878.40015 806.00000
42.47797 879.72179 895.00000
42.48821 880.95335 924.00000
42.49845 882.27216 825.00000
42.50869 883.73527 876.00000
42.51893 885.37450 853.00000
42.52918 887.22929 888.00000
42.53942 889.38023 883.00000
42.54966 891.98712 862.00000
42.55990 895.01436 906.00000
42.57014 898.10572 952.00000
42.58038 901.68303 860.00000
42.59062 906.01878 930.00000
42.60087 911.37475 979.00000
42.61111 918.10403 940.00000
42.62135 926.70962 970.00000
42.63159 937.90124 970.00000
42.64183 952.62407 984.00000
42.65207 971.97173 1010.00000
42.66231 996.85592 991.00000
42.67256 1027.34902 1136.00000
42.68280 1061.70699 1146.00000
42.69304 1095.29729 1204.00000
42.70328 1120.62167 1248.00000
42.71352 1130.71068 1156.00000
42.72376 1125.25927 1243.00000
42.73400 1112.55688 1181.00000
42.74425 1103.62007 1204.00000
42.75449 1105.76143 1240.00000
42.76473 1120.94728 1227.00000
42.77497 1146.58913 1201.00000
42.78521 1175.88128 1271.00000
42.79545 1198.37402 1241.00000
42.80569 1203.72601 1200.00000
42.81594 1188.17132 1249.00000
42.82618 1156.73672 1212.00000
42.83642 1118.66239 1187.00000
42.84666 1082.56514 1189.00000
42.85690 1054.12913 1077.00000
42.86714 1035.50803 1016.00000
42.87739 1026.01234 1043.00000
42.88763 1023.04752 1044.00000
42.89787 1022.56828 986.00000
42.90811 1019.64095 966.00000
42.91835 1010.32252 985.00000
42.92859 994.25576 976.00000
42.93883 974.80537 997.00000
42.94908 956.03361 922.00000
42.95932 940.21696 946.00000
42.96956 927.77603 938.00000
42.97980 918.23236 986.00000
42.99004 910.91645 862.00000
43.00028 905.24820 894.00000
43.01052 900.79090 840.00000
43.02077 897.23122 832.00000
43.03101 894.34668 915.00000
43.04125 891.97844 888.00000
43.05149 890.01161 930.00000
43.06173 888.36186 894.00000
43.07197 886.96622 861.00000
43.08221 885.77699 896.00000
43.09246 884.75749 862.00000
43.10270 883.87910 904.00000
43.11294 883.11922 883.00000
43.12318 882.45981 836.00000
43.13342 881.88630 869.00000
43.14366 881.38681 881.00000
43.15390 880.95158 884.00000
43.16415 880.57250 899.00000
43.17439 880.24284 887.00000
43.18463 879.95692 899.00000
43.19487 879.70989 822.00000
43.20511 879.49767 860.00000
43.21535 879.31676 857.00000
43.22560 879.16423 816.00000
43.23584 879.03741 909.00000
43.24608 878.93405 911.00000
43.25632 878.85218 885.00000
43.26656 878.79011 799.00000
43.27680 878.74634 858.00000
43.28704 878.71957 900.00000
43.29729 878.70864 902.00000
43.30753 878.71255 870.00000
43.31777 878.73039 902.00000
43.32801 878.76139 947.00000
43.33825 878.80483 907.00000
43.34849 878.86013 937.00000
43.35873 878.92671 962.00000
43.36898 879.00412 952.00000
43.37922 879.09192 935.00000
43.38946 879.18975 928.00000
43.39970 879.29727 948.00000
43.40994 879.41423 965.00000
43.42018 879.54226 885.00000
43.43042 879.69270 939.00000
43.44067 879.88139 945.00000
43.45091 880.12520 977.00000
43.46115 880.46624 938.00000
43.47139 880.98902 891.00000
43.48163 881.63677 995.00000
43.49187 882.04756 919.00000
43.50211 882.28833 890.00000
43.51236 882.53520 979.00000
43.52260 882.84181 980.00000
43.53284 883.24109 943.00000
43.54308 883.80312 919.00000
43.55332 884.67315 996.00000
43.56356 885.83374 919.00000
43.57381 886.74462 1019.00000
43.58405 887.14173 1044.00000
43.59429 887.47282 923.00000
43.60453 887.81655 906.00000
43.61477 888.17098 926.00000
43.62501 888.53454 948.00000
43.63525 888.90844 921.00000
43.64550 889.29324 931.00000
43.65574 889.68906 981.00000
43.66598 890.09611 917.00000
43.67622 890.51494 894.00000
43.68646 890.94553 973.00000
43.69670 891.38816 970.00000
43.70694 891.84312 918.00000
43.71719 892.31145 933.00000
43.72743 892.79795 976.00000
43.73767 893.31062 949.00000
43.74791 893.85886 946.00000
43.75815 894.46059 955.00000
43.76839 895.15026 996.00000
43.77863 895.92815 929.00000
43.78888 896.67385 969.00000
43.79912 897.29465 914.00000
43.80936 897.91647 985.00000
43.81960 898.57522 933.00000
43.82984 899.28794 962.00000
43.84008 900.08001 939.00000
43.85032 901.00802 917.00000
43.86057 902.13580 956.00000
43.87081 903.32875 903.00000
43.88105 904.16977 997.00000
43.89129 904.97171 920.00000
43.90153 905.79803 908.00000
43.91177 906.64896 946.00000
43.92202 907.52541 919.00000
43.93226 908.42832 929.00000
43.94250 909.35870 963.00000
43.95274 910.31760 992.00000
43.96298 911.30614 995.00000
43.97322 912.32548 989.00000
43.98346 913.37684 961.00000
43.99371 914.46151 978.00000
44.00395 915.58086 1024.00000
44.01419 916.73632 971.00000
44.02443 917.92938 975.00000
44.03467 919.16166 970.00000
44.04491 920.43481 918.00000
44.05515 921.75062 977.00000
44.06540 923.11096 954.00000
44.07564 924.51780 955.00000
44.08588 925.97322 953.00000
44.09612 927.47928 957.00000
44.10636 929.03830 1019.00000
44.11660 930.65332 969.00000
44.12684 932.32713 957.00000
44.13709 934.05972 963.00000
44.14733 935.85501 1003.00000
44.15757 937.72242 957.00000
44.16781 939.66307 989.00000
44.17805 941.67848 994.00000
44.18829 943.77211 1007.00000
44.19853 945.94797 983.00000
44.20878 948.21053 1001.00000
44.21902 950.56451 991.00000
44.22926 953.01474 1003.00000
44.23950 955.56882 948.00000
44.24974 958.23539 1021.00000
44.25998 961.01074 934.00000
44.27023 963.90563 1036.00000
44.28047 966.92787 975.00000
44.29071 970.08507 1005.00000
44.30095 973.38528 1007.00000
44.31119 976.83709 1115.00000
44.32143 980.44979 1059.00000
44.33167 984.23306 1015.00000
44.34192 988.19875 1032.00000
44.35216 992.36644 1051.00000
44.36240 996.74857 997.00000
44.37264 1001.35737 1030.00000
44.38288 1006.20656 1022.00000
44.39312 1011.31304 1050.00000
44.40336 1016.69546 1089.00000
44.41361 1022.37425 1064.00000
44.42385 1028.37155 1077.00000
44.43409 1034.71111 1049.00000
44.44433 1041.42107 1072.00000
44.45457 1048.53734 1120.00000
44.46481 1056.09273 1096.00000
44.47505 1064.12207 1165.00000
44.48530 1072.66653 1110.00000
44.49554 1081.77239 1159.00000
44.50578 1091.49142 1104.00000
44.51602 1101.88160 1088.00000
44.52626 1113.00811 1115.00000
44.53650 1124.94439 1184.00000
44.54674 1137.77344 1191.00000
44.55699 1151.58927 1239.00000
44.56723 1166.50036 1180.00000
44.57747 1182.67711 1204.00000
44.58771 1200.23728 1226.00000
44.59795 1219.32979 1224.00000
44.60819 1240.14007 1269.00000
44.61844 1262.87993 1273.00000
44.62868 1287.79042 1355.00000
44.63892 1315.14415 1355.00000
44.64916 1345.24628 1480.00000
44.65940 1378.43343 1417.00000
44.66964 1415.06972 1513.00000
44.67988 1455.53956 1521.00000
44.69013 1500.23855 1598.00000
44.70037 1549.56650 1664.00000
44.71061 1603.93008 1740.00000
44.72085 1663.76654 1714.00000
44.73109 1729.60069 1868.00000
44.74133 1802.14255 1825.00000
44.75157 1882.42117 1935.00000
44.76182 1971.93371 2172.00000
44.77206 2072.78121 2143.00000
44.78230 2187.77664 2226.00000
44.79254 2320.57368 2364.00000
44.80278 2476.05791 2504.00000
44.81302 2661.24688 2651.00000
44.82326 2884.48523 2797.00000
44.83351 3157.73881 3037.00000
44.84375 3498.42600 3364.00000
44.85399 3930.90888 3777.00000
44.86423 4487.17628 4335.00000
44.87447 5204.04651 5164.00000
44.88471 6113.74689 6065.00000
44.89496 7226.17434 7311.00000
44.90520 8503.26431 8883.00000
44.91544 9830.98154 10580.00000
44.92568 11015.90105 12290.00000
44.93592 11857.85316 13584.00000
44.94616 12301.10031 14485.00000
44.95640 12536.34082 14639.00000
44.96665 12913.33639 14538.00000
44.97689 13725.99642 14949.00000
44.98713 15066.81900 15617.00000
44.99737 16795.34399 16687.00000
45.00761 18539.17944 18391.00000
45.01785 19733.23791 19956.00000
45.02809 19807.94486 20669.00000
45.03834 18768.91318 20039.00000
45.04858 17024.44083 18916.00000
45.05882 15071.94155 16737.00000
45.06906 13271.47730 14382.00000
45.07930 11849.17747 12584.00000
45.08954 10914.60561 11172.00000
45.09978 10463.95379 10631.00000
45.11003 10391.97051 9984.00000
45.12027 10503.27653 10334.00000
45.13051 10534.84966 10439.00000
45.14075 10232.04752 10333.00000
45.15099 9476.76443 9942.00000
45.16123 8364.27603 8900.00000
45.17147 7130.09320 7570.00000
45.18172 5988.73378 6373.00000
45.19196 5042.23361 5178.00000
45.20220 4298.59506 4236.00000
45.21244 3724.74942 3738.00000
45.22268 3281.06520 3145.00000
45.23292 2934.13156 2753.00000
45.24317 2659.09298 2614.00000
45.25341 2439.01299 2452.00000
45.26365 2258.50043 2251.00000
45.27389 2108.56551 2143.00000
45.28413 1982.62825 1961.00000
45.29437 1875.66729 1917.00000
45.30461 1783.96509 1806.00000
45.31486 1704.68258 1780.00000
45.32510 1635.61204 1708.00000
45.33534 1575.02121 1571.00000
45.34558 1521.53707 1651.00000
45.35582 1474.05761 1546.00000
45.36606 1431.68680 1515.00000
45.37630 1393.69535 1509.00000
45.38655 1359.48233 1375.00000
45.39679 1328.54842 1369.00000
45.40703 1300.48009 1265.00000
45.41727 1274.92650 1324.00000
45.42751 1251.58583 1238.00000
45.43775 1230.20291 1330.00000
45.44799 1210.55945 1264.00000
45.45824 1192.46730 1208.00000
45.46848 1175.76993 1180.00000
45.47872 1160.35772 1234.00000
45.48896 1146.05917 1208.00000
45.49920 1132.76761 1173.00000
45.50944 1120.39195 1183.00000
45.51968 1108.84998 1167.00000
45.52993 1098.06298 1113.00000
45.54017 1087.96547 1213.00000
45.55041 1078.49899 1149.00000
45.56065 1069.61124 1093.00000
45.57089 1061.25530 1070.00000
45.58113 1053.38895 1133.00000
45.59138 1045.97415 1084.00000
45.60162 1038.97650 1119.00000
45.61186 1032.36487 1042.00000
45.62210 1026.11102 1101.00000
45.63234 1020.18925 1061.00000
45.64258 1014.57617 1065.00000
45.65282 1009.25043 1118.00000
45.66307 1004.19251 1048.00000
45.67331 999.38454 1071.00000
45.68355 994.80991 1033.00000
45.69379 990.45276 1099.00000
45.70403 986.29840 1062.00000
45.71427 982.31921 984.00000
45.72451 978.49468 1052.00000
45.73476 974.79174 982.00000
45.74500 971.15344 1055.00000
45.75524 967.62664 1064.00000
45.76548 964.43574 1008.00000
45.77572 961.42068 1037.00000
45.78596 958.52531 1014.00000
45.79620 955.72527 1033.00000
45.80645 952.99892 1018.00000
45.81669 950.31096 1029.00000
45.82693 947.59305 1027.00000
45.83717 944.83245 999.00000
45.84741 942.25334 992.00000
45.85765 940.06120 962.00000
45.86789 937.98919 945.00000
45.87814 935.99249 1047.00000
45.88838 934.06847 948.00000
45.89862 932.21361 980.00000
45.90886 930.42464 936.00000
45.91910 928.69878 993.00000
45.92934 927.03453 1018.00000
45.93959 925.42717 977.00000
45.94983 923.87413 956.00000
45.96007 922.37297 1031.00000
45.97031 920.92141 998.00000
45.98055 919.51770 970.00000
45.99079 918.15944 978.00000
46.00103 916.84457 963.00000
46.01128 915.57123 975.00000
46.02152 914.33771 1021.00000
46.03176 913.14234 970.00000
46.04200 911.98356 941.00000
46.05224 910.85990 946.00000
46.06248 909.77000 942.00000
46.07272 908.71271 995.00000
46.08297 907.68703 873.00000
46.09321 906.69231 987.00000
46.10345 905.72703 944.00000
46.11369 904.78721 904.00000
46.12393 903.87354 909.00000
46.13417 902.98544 1001.00000
46.14441 902.12212 912.00000
46.15466 901.28320 912.00000
46.16490 900.46709 909.00000
46.17514 899.67296 954.00000
46.18538 898.90003 931.00000
46.19562 898.14755 975.00000
46.20586 897.41481 941.00000
46.21610 896.70135 930.00000
46.22635 896.00627 933.00000
46.23659 895.32897 923.00000
46.24683 894.66894 940.00000
46.25707 894.02579 942.00000
46.26731 893.39923 949.00000
46.27755 892.78936 985.00000
46.28780 892.19519 986.00000
46.29804 891.61316 955.00000
46.30828 891.04476 985.00000
46.31852 890.48995 991.00000
46.32876 889.94831 1014.00000
46.33900 889.41944 916.00000
46.34924 888.90293 1007.00000
46.35949 888.39841 945.00000
46.36973 887.90530 966.00000
46.37997 887.42122 954.00000
46.39021 886.93939 947.00000
46.40045 886.45175 958.00000
46.41069 885.94830 952.00000
46.42093 885.40492 986.00000
46.43118 884.78144 979.00000
46.44142 884.13021 976.00000
46.45166 883.69659 939.00000
46.46190 883.29591 983.00000
46.47214 882.89445 955.00000
46.48238 882.48374 1002.00000
46.49262 882.04556 911.00000
46.50287 881.54888 899.00000
46.51311 880.93121 942.00000
46.52335 880.17213 928.00000
46.53359 879.48066 929.00000
46.54383 879.11406 906.00000
46.55407 878.80306 935.00000
46.56431 878.49586 900.00000
46.57456 878.19569 932.00000
46.58480 877.90626 941.00000
46.59504 877.62090 900.00000
46.60528 877.33222 936.00000
46.61552 877.03043 857.00000
46.62576 876.70489 910.00000
46.63601 876.32911 867.00000
46.64625 875.87067 966.00000
46.65649 875.39655 912.00000
46.66673 875.12625 892.00000
46.67697 874.89209 940.00000
46.68721 874.65318 976.00000
46.69745 874.39554 923.00000
46.70770 874.10327 916.00000
46.71794 873.74588 888.00000
46.72818 873.25860 917.00000
46.73842 872.63132 910.00000
46.74866 872.09385 954.00000
46.75890 871.86618 886.00000
46.76914 871.69020 872.00000
46.77939 871.51463 886.00000
46.78963 871.34195 905.00000
46.79987 871.17249 917.00000
46.81011 871.00618 926.00000
46.82035 870.84298 935.00000
46.83059 870.68289 838.00000
46.84083 870.52577 948.00000
46.85108 870.37156 920.00000
46.86132 870.22022 892.00000
46.87156 870.07169 941.00000
46.88180 869.92593 912.00000
46.89204 869.78288 893.00000
46.90228 869.64259 920.00000
46.91252 869.50562 959.00000
46.92277 869.37289 919.00000
46.93301 869.24601 925.00000
46.94325 869.12839 898.00000
46.95349 869.01881 957.00000
46.96373 868.90200 916.00000
46.97397 868.78064 959.00000
46.98422 868.66087 945.00000
46.99446 868.54347 897.00000
47.00470 868.42839 871.00000
47.01494 868.31562 905.00000
47.02518 868.20514 868.00000
47.03542 868.09692 917.00000
47.04566 867.99095 886.00000
47.05591 867.88726 941.00000
47.06615 867.78577 922.00000
47.07639 867.68648 918.00000
47.08663 867.58937 945.00000
47.09687 867.49443 867.00000
47.10711 867.40165 929.00000
47.11735 867.31104 913.00000
47.12760 867.22258 921.00000
47.13784 867.13628 926.00000
47.14808 867.05216 961.00000
47.15832 866.97021 979.00000
47.16856 866.89042 902.00000
47.17880 866.81282 919.00000
47.18904 866.73742 898.00000
47.19929 866.66423 871.00000
47.20953 866.59327 897.00000
47.21977 866.52459 844.00000
47.23001 866.45838 907.00000
47.24025 866.39508 889.00000
47.25049 866.33539 961.00000
47.26073 866.28061 961.00000
47.27098 866.23177 925.00000
47.28122 866.18502 867.00000
47.29146 866.13457 889.00000
47.30170 866.08590 925.00000
47.31194 866.03997 945.00000
47.32218 865.99684 831.00000
47.33243 865.95661 854.00000
47.34267 865.91940 939.00000
47.35291 865.88532 926.00000
47.36315 865.85450 925.00000
47.37339 865.82708 975.00000
47.38363 865.80325 913.00000
47.39387 865.78317 923.00000
47.40412 865.76705 941.00000
47.41436 865.75511 945.00000
47.42460 865.74760 906.00000
47.43484 865.74481 882.00000
47.44508 865.74707 899.00000
47.45532 865.75472 876.00000
47.46556 865.76818 922.00000
47.47581 865.78790 901.00000
47.48605 865.81440 887.00000
47.49629 865.84827 898.00000
47.50653 865.89020 914.00000
47.51677 865.94090 915.00000
47.52701 866.00121 923.00000
47.53725 866.07206 883.00000
47.54750 866.15450 925.00000
47.55774 866.24968 900.00000
47.56798 866.35881 993.00000
47.57822 866.48308 924.00000
47.58846 866.62245 917.00000
47.59870 866.77246 895.00000
47.60894 866.92617 911.00000
47.61919 867.07523 887.00000
47.62943 867.19824 835.00000
47.63967 867.25122 897.00000
47.64991 867.28256 907.00000
47.66015 867.50847 936.00000
47.67039 867.83390 931.00000
47.68064 868.20457 917.00000
47.69088 868.61149 917.00000
47.70112 869.05287 936.00000
47.71136 869.52902 923.00000
47.72160 870.01551 902.00000
47.73184 870.44023 911.00000
47.74208 870.95209 930.00000
47.75233 872.05097 877.00000
47.76257 873.53231 950.00000
47.77281 875.39163 929.00000
47.78305 877.73402 916.00000
47.79329 880.70393 967.00000
47.80353 884.46593 943.00000
47.81377 889.14077 928.00000
47.82402 894.67995 972.00000
47.83426 900.68039 964.00000
47.84450 906.23522 908.00000
47.85474 910.05687 977.00000
47.86498 911.11410 1047.00000
47.87522 909.47551 1005.00000
47.88546 906.39280 1030.00000
47.89571 903.41842 984.00000
47.90595 901.62714 965.00000
47.91619 901.53225 958.00000
47.92643 903.34893 972.00000
47.93667 907.22446 941.00000
47.94691 913.32879 1002.00000
47.95715 921.82468 1032.00000
47.96740 932.74981 1002.00000
47.97764 945.84358 965.00000
47.98788 960.36709 1016.00000
47.99812 974.92091 1019.00000
48.00836 987.19977 1025.00000
48.01860 994.04148 1032.00000
48.02885 992.72197 1016.00000
48.03909 983.18567 1059.00000
48.04933 968.61427 988.00000
48.05957 953.26577 1021.00000
48.06981 940.17395 949.00000
48.08005 930.63582 1021.00000
48.09029 924.83227 1019.00000
48.10054 922.47453 968.00000
48.11078 923.06872 908.00000
48.12102 925.84797 942.00000
48.13126 929.56454 891.00000
48.14150 932.42976 996.00000
48.15174 932.55636 929.00000
48.16198 928.93147 956.00000
48.17223 922.12132 962.00000
48.18247 913.82351 926.00000
48.19271 905.71862 924.00000
48.20295 898.76394 1005.00000
48.21319 893.21939 994.00000
48.22343 888.96842 955.00000
48.23367 885.77632 936.00000
48.24392 883.41415 910.00000
48.25416 881.69707 878.00000
48.26440 880.48648 934.00000
48.27464 879.68166 894.00000
48.28488 879.20944 865.00000
48.29512 879.01535 945.00000
48.30536 879.05916 902.00000
48.31561 879.31076 924.00000
48.32585 879.74870 890.00000
48.33609 880.36078 928.00000
48.34633 881.14619 897.00000
48.35657 882.11840 917.00000
48.36681 883.30793 882.00000
48.37706 884.76439 937.00000
48.38730 886.55795 950.00000
48.39754 888.78160 898.00000
48.40778 891.55576 884.00000
48.41802 895.03693 911.00000
48.42826 899.43204 925.00000
48.43850 905.02017 928.00000
48.44875 912.18313 906.00000
48.45899 921.44524 901.00000
48.46923 933.51655 990.00000
48.47947 949.31579 955.00000
48.48971 969.89692 1020.00000
48.49995 996.13219 1039.00000
48.51019 1027.96939 1090.00000
48.52044 1063.17179 1059.00000
48.53068 1096.40645 1107.00000
48.54092 1119.98420 1134.00000
48.55116 1126.47773 1174.00000
48.56140 1113.84078 1125.00000
48.57164 1087.45061 1142.00000
48.58188 1056.40614 1124.00000
48.59213 1028.24868 1098.00000
48.60237 1006.83855 1058.00000
48.61261 993.20793 993.00000
48.62285 987.02875 1067.00000
48.63309 987.40872 1081.00000
48.64333 992.92799 1001.00000
48.65358 1001.21343 1011.00000
48.66382 1008.60708 1069.00000
48.67406 1011.02325 1035.00000
48.68430 1005.58573 1022.00000
48.69454 992.36904 1043.00000
48.70478 974.38295 1030.00000
48.71502 955.50454 1001.00000
48.72527 938.46101 954.00000
48.73551 924.32973 962.00000
48.74575 913.09093 909.00000
48.75599 904.28255 953.00000
48.76623 897.37315 910.00000
48.77647 891.90709 955.00000
48.78671 887.53145 901.00000
48.79696 883.98348 926.00000
48.80720 881.06898 959.00000
48.81744 878.64021 917.00000
48.82768 876.58377 912.00000
48.83792 874.81220 916.00000
48.84816 873.24567 902.00000
48.85840 871.79795 877.00000
48.86865 870.45483 881.00000
48.87889 869.35688 879.00000
48.88913 868.48151 875.00000
48.89937 867.71616 952.00000
48.90961 867.02140 914.00000
48.91985 866.37406 868.00000
48.93009 865.74951 955.00000
48.94034 865.10183 877.00000
48.95058 864.34532 925.00000
48.96082 863.49509 973.00000
48.97106 862.83220 871.00000
48.98130 862.45795 900.00000
48.99154 862.15091 875.00000
49.00179 861.86860 843.00000
49.01203 861.60839 910.00000
49.02227 861.36803 915.00000
49.03251 861.14552 930.00000
49.04275 860.93915 865.00000
49.05299 860.74738 900.00000
49.06323 860.56897 908.00000
49.07348 860.40267 880.00000
49.08372 860.24738 877.00000
49.09396 860.10214 927.00000
49.10420 859.96615 894.00000
49.11444 859.83865 854.00000
49.12468 859.71900 906.00000
49.13492 859.60657 917.00000
49.14517 859.50074 916.00000
49.15541 859.40110 886.00000
49.16565 859.30734 913.00000
49.17589 859.21943 856.00000
49.18613 859.13763 810.00000
49.19637 859.06206 890.00000
49.20661 858.99052 847.00000
49.21686 858.92019 963.00000
49.22710 858.85329 953.00000
49.23734 858.79000 928.00000
49.24758 858.73026 851.00000
49.25782 858.67416 906.00000
49.26806 858.62206 857.00000
49.27830 858.57346 909.00000
49.28855 858.52545 934.00000
49.29879 858.47946 893.00000
49.30903 858.43578 942.00000
49.31927 858.39432 897.00000
49.32951 858.35495 916.00000
49.33975 858.31758 876.00000
49.35000 858.28211 885.00000
49.36024 858.24843 889.00000
49.37048 858.21647 895.00000
49.38072 858.18615 876.00000
49.39096 858.15735 955.00000
49.40120 858.12979 869.00000
49.41144 858.10294 892.00000
49.42169 858.07605 894.00000
49.43193 858.04758 892.00000
49.44217 858.01748 918.00000
49.45241 857.99168 895.00000
49.46265 857.97148 888.00000
49.47289 857.95241 874.00000
49.48313 857.93408 832.00000
49.49338 857.91795 882.00000
49.50362 857.90306 909.00000
49.51386 857.88913 837.00000
49.52410 857.87614 884.00000
49.53434 857.86405 870.00000
49.54458 857.85283 834.00000
49.55482 857.84247 897.00000
49.56507 857.83293 935.00000
49.57531 857.82420 892.00000
49.58555 857.81626 895.00000
49.59579 857.80908 846.00000
49.60603 857.80256 919.00000
49.61627 857.79652 863.00000
49.62651 857.79062 892.00000
49.63676 857.78429 866.00000
49.64700 857.77718 924.00000
49.65724 857.77135 886.00000
49.66748 857.76892 857.00000
49.67772 857.76746 882.00000
49.68796 857.76652 846.00000
49.69821 857.76595 865.00000
49.70845 857.76547 866.00000
49.71869 857.76530 868.00000
49.72893 857.76695 884.00000
49.73917 857.76948 873.00000
49.74941 857.77266 874.00000
49.75965 857.77648 879.00000
49.76990 857.78095 910.00000
49.78014 857.78607 847.00000
49.79038 857.79183 901.00000
49.80062 857.79825 825.00000
49.81086 857.80534 887.00000
49.82110 857.81310 903.00000
49.83134 857.82153 853.00000
49.84159 857.83058 861.00000
49.85183 857.84009 868.00000
49.86207 857.84978 842.00000
49.87231 857.85912 883.00000
49.88255 857.86767 933.00000
49.89279 857.87723 923.00000
49.90303 857.89057 886.00000
49.91328 857.90512 827.00000
49.92352 857.92052 913.00000
49.93376 857.93679 877.00000
49.94400 857.95396 867.00000
49.95424 857.97207 837.00000
49.96448 857.99117 918.00000
49.97472 858.01128 898.00000
49.98497 858.03246 893.00000
49.99521 858.05476 859.00000
50.00545 858.07823 833.00000
50.01569 858.10294 895.00000
50.02593 858.12895 905.00000
50.03617 858.15634 876.00000
50.04642 858.18518 851.00000
50.05666 858.21558 859.00000
50.06690 858.24762 858.00000
50.07714 858.28141 872.00000
50.08738 858.31709 930.00000
50.09762 858.35477 885.00000
50.10786 858.39461 898.00000
50.11811 858.43678 843.00000
50.12835 858.48145 922.00000
50.13859 858.52881 880.00000
50.14883 858.57882 911.00000
50.15907 858.63130 845.00000
50.16931 858.68577 846.00000
50.17955 858.74104 866.00000
50.18980 858.79768 877.00000
50.20004 858.86269 882.00000
50.21028 858.93718 874.00000
50.22052 859.01783 899.00000
50.23076 859.10469 901.00000
50.24100 859.19850 848.00000
50.25124 859.30137 896.00000
50.26149 859.42288 910.00000
50.27173 859.58849 918.00000
50.28197 859.84354 888.00000
50.29221 860.22498 844.00000
50.30245 860.60395 868.00000
50.31269 860.80025 859.00000
50.32293 860.98887 890.00000
50.33318 861.19401 861.00000
50.34342 861.41658 876.00000
50.35366 861.65726 910.00000
50.36390 861.91651 903.00000
50.37414 862.19475 887.00000
50.38438 862.49263 882.00000
50.39463 862.81198 848.00000
50.40487 863.15931 867.00000
50.41511 863.55084 957.00000
50.42535 864.01515 860.00000
50.43559 864.59175 930.00000
50.44583 865.25473 840.00000
50.45607 865.90414 903.00000
50.46632 866.66065 876.00000
50.47656 867.57149 911.00000
50.48680 868.68086 909.00000
50.49704 870.04694 924.00000
50.50728 871.74768 925.00000
50.51752 873.88864 892.00000
50.52776 876.61258 918.00000
50.53801 880.10849 894.00000
50.54825 884.61213 839.00000
50.55849 890.37771 902.00000
50.56873 897.58257 964.00000
50.57897 906.12226 915.00000
50.58921 915.30764 896.00000
50.59945 923.63232 929.00000
50.60970 928.98884 978.00000
50.61994 929.64879 984.00000
50.63018 925.51072 938.00000
50.64042 918.28164 961.00000
50.65066 910.27035 991.00000
50.66090 903.17220 932.00000
50.67114 897.77680 927.00000
50.68139 894.26466 967.00000
50.69163 892.54983 948.00000
50.70187 892.45507 919.00000
50.71211 893.71810 910.00000
50.72235 895.88794 1008.00000
50.73259 898.21010 910.00000
50.74284 899.66349 899.00000
50.75308 899.30470 943.00000
50.76332 896.80363 924.00000
50.77356 892.67113 900.00000
50.78380 887.87764 882.00000
50.79404 883.26859 853.00000
50.80428 879.29097 841.00000
50.81453 876.05093 883.00000
50.82477 873.48024 921.00000
50.83501 871.45618 837.00000
50.84525 869.85845 923.00000
50.85549 868.58778 868.00000
50.86573 867.56760 899.00000
50.87597 866.74031 903.00000
50.88622 866.06243 856.00000
50.89646 865.50222 961.00000
50.90670 865.03564 871.00000
50.91694 864.64434 865.00000
50.92718 864.31413 818.00000
50.93742 864.03384 888.00000
50.94766 863.79442 915.00000
50.95791 863.58824 841.00000
50.96815 863.41062 908.00000
50.97839 863.26186 869.00000
50.98863 863.13628 846.00000
50.99887 863.03112 902.00000
51.00911 862.94340 857.00000
51.01935 862.86660 858.00000
51.02960 862.80145 876.00000
51.03984 862.74729 913.00000
51.05008 862.70296 863.00000
51.06032 862.66744 869.00000
51.07056 862.63982 915.00000
51.08080 862.61936 853.00000
51.09105 862.60539 842.00000
51.10129 862.59733 985.00000
51.11153 862.59470 896.00000
51.12177 862.59705 909.00000
51.13201 862.60401 898.00000
51.14225 862.61524 896.00000
51.15249 862.63045 903.00000
51.16274 862.64937 868.00000
51.17298 862.67178 859.00000
51.18322 862.69747 876.00000
51.19346 862.72627 873.00000
51.20370 862.75802 918.00000
51.21394 862.79256 847.00000
51.22418 862.82978 847.00000
51.23443 862.86957 904.00000
51.24467 862.91182 920.00000
51.25491 862.95644 904.00000
51.26515 863.00337 835.00000
51.27539 863.05252 880.00000
51.28563 863.10384 891.00000
51.29587 863.15728 933.00000
51.30612 863.21278 925.00000
51.31636 863.27031 911.00000
51.32660 863.32983 948.00000
51.33684 863.39131 893.00000
51.34708 863.45473 931.00000
51.35732 863.52006 892.00000
51.36756 863.58729 925.00000
51.37781 863.65640 957.00000
51.38805 863.72739 944.00000
51.39829 863.80024 905.00000
51.40853 863.87496 940.00000
51.41877 863.95154 921.00000
51.42901 864.02999 897.00000
51.43926 864.11030 926.00000
51.44950 864.19249 922.00000
51.45974 864.27657 939.00000
51.46998 864.36255 935.00000
51.48022 864.45149 937.00000
51.49046 864.55307 943.00000
51.50070 864.69985 982.00000
51.51095 864.95910 871.00000
51.52119 865.41221 889.00000
51.53143 865.97274 960.00000
51.54167 866.32606 908.00000
51.55191 866.46356 920.00000
51.56215 866.58264 883.00000
51.57239 866.70460 952.00000
51.58264 866.82900 1008.00000
51.59288 866.95586 1003.00000
51.60312 867.08522 1027.00000
51.61336 867.21713 973.00000
51.62360 867.35173 1051.00000
51.63384 867.49089 1009.00000
51.64408 867.64532 1011.00000
51.65433 867.84008 1031.00000
51.66457 868.12221 1024.00000
51.67481 868.50930 965.00000
51.68505 868.83986 964.00000
51.69529 869.03792 965.00000
51.70553 869.20493 948.00000
51.71577 869.37287 977.00000
51.72602 869.54413 973.00000
51.73626 869.71877 966.00000
51.74650 869.89687 1015.00000
51.75674 870.07852 969.00000
51.76698 870.26380 912.00000
51.77722 870.45279 980.00000
51.78747 870.64559 960.00000
51.79771 870.84229 964.00000
51.80795 871.04297 991.00000
51.81819 871.24775 925.00000
51.82843 871.45679 933.00000
51.83867 871.67151 952.00000
51.84891 871.90077 957.00000
51.85916 872.16900 900.00000
51.86940 872.52049 929.00000
51.87964 872.99054 931.00000
51.88988 873.45010 919.00000
51.90012 873.72537 912.00000
51.91036 873.98387 917.00000
51.92060 874.24799 906.00000
51.93085 874.51787 885.00000
51.94109 874.79369 932.00000
51.95133 875.07561 917.00000
51.96157 875.36381 896.00000
51.97181 875.65847 927.00000
51.98205 875.95986 890.00000
51.99229 876.26973 953.00000
52.00254 876.59628 937.00000
52.01278 876.95501 892.00000
52.02302 877.37513 878.00000
52.03326 877.84913 906.00000
52.04350 878.24548 953.00000
52.05374 878.60872 907.00000
52.06398 878.97687 925.00000
52.07423 879.35389 869.00000
52.08447 879.74001 911.00000
52.09471 880.13547 943.00000
52.10495 880.54042 907.00000
52.11519 880.95490 865.00000
52.12543 881.37947 928.00000
52.13568 881.81597 882.00000
52.14592 882.26389 947.00000
52.15616 882.72337 934.00000
52.16640 883.19481 904.00000
52.17664 883.67865 966.00000
52.18688 884.17529 959.00000
52.19712 884.68512 901.00000
52.20737 885.20863 945.00000
52.21761 885.74652 864.00000
52.22785 886.29978 977.00000
52.23809 886.86989 935.00000
52.24833 887.45859 972.00000
52.25857 888.06534 934.00000
52.26881 888.68597 888.00000
52.27906 889.32029 939.00000
52.28930 889.97134 943.00000
52.29954 890.64010 923.00000
52.30978 891.32993 936.00000
52.32002 892.04215 970.00000
52.33026 892.77517 904.00000
52.34050 893.52994 946.00000
52.35075 894.31015 863.00000
52.36099 895.11522 909.00000
52.37123 895.94571 889.00000
52.38147 896.80267 944.00000
52.39171 897.68726 902.00000
52.40195 898.60071 977.00000
52.41220 899.54427 920.00000
52.42244 900.51933 952.00000
52.43268 901.52731 928.00000
52.44292 902.56973 943.00000
52.45316 903.64820 944.00000
52.46340 904.76443 954.00000
52.47364 905.92023 990.00000
52.48389 907.11753 916.00000
52.49413 908.35836 939.00000
52.50437 909.64489 947.00000
52.51461 910.97946 976.00000
52.52485 912.36452 956.00000
52.53509 913.80272 945.00000
52.54533 915.29685 900.00000
52.55558 916.84976 903.00000
52.56582 918.46454 933.00000
52.57606 920.14440 963.00000
52.58630 921.89272 897.00000
52.59654 923.71424 985.00000
52.60678 925.61677 965.00000
52.61702 927.60306 974.00000
52.62727 929.67370 949.00000
52.63751 931.83516 956.00000
52.64775 934.09426 957.00000
52.65799 936.45727 920.00000
52.66823 938.93083 1001.00000
52.67847 941.52213 915.00000
52.68871 944.23900 1000.00000
52.69896 947.08990 968.00000
52.70920 950.08408 967.00000
52.71944 953.23161 977.00000
52.72968 956.54349 923.00000
52.73992 960.03181 1016.00000
52.75016 963.70984 983.00000
52.76041 967.59199 967.00000
52.77065 971.69360 1018.00000
52.78089 976.03247 1006.00000
52.79113 980.62801 957.00000
52.80137 985.50159 1016.00000
52.81161 990.67689 1035.00000
52.82185 996.18008 1035.00000
52.83210 1002.04004 1072.00000
52.84234 1008.28877 1037.00000
52.85258 1014.96158 1020.00000
52.86282 1022.09784 1011.00000
52.87306 1029.74624 1041.00000
52.88330 1037.96584 1102.00000
52.89354 1046.80761 1078.00000
52.90379 1056.33480 1069.00000
52.91403 1066.61931 1090.00000
52.92427 1077.74139 1111.00000
52.93451 1089.79020 1205.00000
52.94475 1102.86405 1089.00000
52.95499 1117.07026 1153.00000
52.96523 1132.52419 1131.00000
52.97548 1149.34734 1214.00000
52.98572 1167.66398 1183.00000
52.99596 1187.59638 1233.00000
53.00620 1209.25870 1255.00000
53.01644 1232.75063 1281.00000
53.02668 1258.15319 1345.00000
53.03692 1285.53029 1361.00000
53.04717 1314.94145 1394.00000
53.05741 1346.47033 1397.00000
53.06765 1380.27159 1466.00000
53.07789 1416.63254 1466.00000
53.08813 1456.04049 1543.00000
53.09837 1499.24268 1489.00000
53.10862 1547.28974 1616.00000
53.11886 1601.56335 1492.00000
53.12910 1663.80110 1627.00000
53.13934 1736.13998 1728.00000
53.14958 1821.20189 1782.00000
53.15982 1922.24263 1948.00000
53.17006 2043.38479 1918.00000
53.18031 2189.95800 2152.00000
53.19055 2368.97475 2375.00000
53.20079 2589.76892 2471.00000
53.21103 2864.79272 2795.00000
53.22127 3210.44495 3089.00000
53.23151 3647.47280 3619.00000
53.24175 4199.72678 4084.00000
53.25200 4888.71406 4779.00000
53.26224 5720.12962 5679.00000
53.27248 6660.11532 6602.00000
53.28272 7608.23392 7509.00000
53.29296 8391.78165 8359.00000
53.30320 8815.37748 8899.00000
53.31344 8765.47616 8915.00000
53.32369 8293.46374 8403.00000
53.33393 7587.28035 7601.00000
53.34417 6857.35956 6921.00000
53.35441 6249.91594 6231.00000
53.36465 5835.17157 5672.00000
53.37489 5635.33676 5480.00000
53.38513 5652.87336 5569.00000
53.39538 5884.39567 5569.00000
53.40562 6319.04818 6065.00000
53.41586 6923.27337 6681.00000
53.42610 7617.52291 7002.00000
53.43634 8260.89419 7543.00000
53.44658 8670.60194 7692.00000
53.45683 8691.89841 7982.00000
53.46707 8285.10779 7610.00000
53.47731 7553.83780 7144.00000
53.48755 6680.36454 6563.00000
53.49779 5829.05814 5835.00000
53.50803 5096.05975 5073.00000
53.51827 4515.06031 4544.00000
53.52852 4084.20775 4029.00000
53.53876 3788.11895 3664.00000
53.54900 3608.62402 3393.00000
53.55924 3526.42426 3371.00000
53.56948 3517.06625 3144.00000
53.57972 3545.22368 3183.00000
53.58996 3563.48341 3109.00000
53.60021 3522.44658 3018.00000
53.61045 3391.44552 3033.00000
53.62069 3174.98366 2974.00000
53.63093 2907.85936 2717.00000
53.64117 2632.55748 2601.00000
53.65141 2379.62033 2462.00000
53.66165 2162.61268 2258.00000
53.67190 1982.95916 1993.00000
53.68214 1836.33213 1897.00000
53.69238 1716.83122 1629.00000
53.70262 1618.90017 1566.00000
53.71286 1537.93360 1515.00000
53.72310 1470.31383 1386.00000
53.73334 1413.26112 1469.00000
53.74359 1364.65394 1350.00000
53.75383 1322.86357 1344.00000
53.76407 1286.63471 1266.00000
53.77431 1254.99094 1260.00000
53.78455 1227.16508 1126.00000
53.79479 1202.54811 1229.00000
53.80504 1180.65164 1201.00000
53.81528 1161.08193 1192.00000
53.82552 1143.51965 1146.00000
53.83576 1127.70488 1154.00000
53.84600 1113.42643 1155.00000
53.85624 1100.51351 1168.00000
53.86648 1088.82930 1131.00000
53.87673 1078.26599 1108.00000
53.88697 1068.74115 1084.00000
53.89721 1060.19558 1086.00000
53.90745 1052.59244 1024.00000
53.91769 1045.91757 1115.00000
53.92793 1040.18066 1051.00000
53.93817 1035.41721 1145.00000
53.94842 1031.69662 1118.00000
53.95866 1029.10591 1082.00000
53.96890 1027.77634 1096.00000
53.97914 1027.89750 1038.00000
53.98938 1029.73598 1048.00000
53.99962 1033.60979 1096.00000
54.00986 1039.74760 1145.00000
54.02011 1047.98209 1166.00000
54.03035 1057.32667 1120.00000
54.04059 1065.68595 1111.00000
54.05083 1070.18123 1193.00000
54.06107 1068.41377 1152.00000
54.07131 1060.00904 1139.00000
54.08155 1046.93257 1145.00000
54.09180 1032.17119 1132.00000
54.10204 1018.19382 1060.00000
54.11228 1006.35954 1052.00000
54.12252 997.12854 1057.00000
54.13276 990.49026 1019.00000
54.14300 986.27192 961.00000
54.15325 984.24940 934.00000
54.16349 984.08827 1022.00000
54.17373 985.18393 1006.00000
54.18397 986.52347 1021.00000
54.19421 986.76085 1058.00000
54.20445 984.65121 1007.00000
54.21469 979.67627 956.00000
54.22494 972.33685 1012.00000
54.23518 963.80089 1069.00000
54.24542 955.24348 954.00000
54.25566 947.41911 933.00000
54.26590 940.61638 929.00000
54.27614 934.81151 952.00000
54.28638 929.83033 969.00000
54.29663 925.48010 992.00000
54.30687 921.74742 929.00000
54.31711 918.67451 902.00000
54.32735 915.99657 898.00000
54.33759 913.61786 931.00000
54.34783 911.48218 963.00000
54.35807 909.54633 952.00000
54.36832 907.77689 915.00000
54.37856 906.14774 946.00000
54.38880 904.63823 946.00000
54.39904 903.23188 918.00000
54.40928 901.91507 939.00000
54.41952 900.67413 961.00000
54.42976 899.48986 972.00000
54.44001 898.33670 864.00000
54.45025 897.18267 934.00000
54.46049 896.06038 908.00000
54.47073 895.10024 890.00000
54.48097 894.19652 915.00000
54.49121 893.33175 969.00000
54.50146 892.50294 917.00000
54.51170 891.70747 862.00000
54.52194 890.94302 957.00000
54.53218 890.20752 855.00000
54.54242 889.49911 886.00000
54.55266 888.81614 905.00000
54.56290 888.15708 942.00000
54.57315 887.52057 949.00000
54.58339 886.90538 904.00000
54.59363 886.31036 907.00000
54.60387 885.73445 907.00000
54.61411 885.17672 872.00000
54.62435 884.63625 926.00000
54.63459 884.11223 898.00000
54.64484 883.60390 912.00000
54.65508 883.11055 902.00000
54.66532 882.63151 987.00000
54.67556 882.16617 958.00000
54.68580 881.71394 883.00000
54.69604 881.27431 887.00000
54.70628 880.84674 957.00000
54.71653 880.43075 909.00000
54.72677 880.02588 876.00000
54.73701 879.63170 949.00000
54.74725 879.24782 884.00000
54.75749 878.87384 856.00000
54.76773 878.50942 894.00000
54.77797 878.15419 883.00000
54.78822 877.80784 860.00000
54.79846 877.47006 978.00000
54.80870 877.14055 906.00000
54.81894 876.81903 937.00000
54.82918 876.50523 881.00000
54.83942 876.19891 893.00000
54.84967 875.89980 891.00000
54.85991 875.60768 875.00000
54.87015 875.32234 880.00000
54.88039 875.04355 893.00000
54.89063 874.77111 849.00000
54.90087 874.50483 854.00000
54.91111 874.24452 891.00000
54.92136 873.99000 880.00000
54.93160 873.74109 846.00000
54.94184 873.49764 872.00000
54.95208 873.25948 891.00000
54.96232 873.02645 881.00000
54.97256 872.79840 890.00000
54.98280 872.57518 856.00000
54.99305 872.35667 876.00000
55.00329 872.14280 850.00000
55.01353 871.93341 877.00000
55.02377 871.72832 861.00000
55.03401 871.52725 815.00000
55.04425 871.32970 904.00000
55.05449 871.13486 873.00000
55.06474 870.94252 866.00000
55.07498 870.75525 892.00000
55.08522 870.57235 887.00000
55.09546 870.38282 859.00000
55.10570 870.16181 840.00000
55.11594 869.86506 928.00000
55.12618 869.46089 898.00000
55.13643 869.08700 890.00000
55.14667 868.90863 866.00000
55.15691 868.75781 956.00000
55.16715 868.61039 860.00000
55.17739 868.46568 875.00000
55.18763 868.32420 912.00000
55.19788 868.18528 853.00000
55.20812 868.04893 870.00000
55.21836 867.91519 919.00000
55.22860 867.78402 869.00000
55.23884 867.65528 921.00000
55.24908 867.52713 849.00000
55.25932 867.39054 899.00000
55.26957 867.22964 859.00000
55.27981 867.01453 865.00000
55.29005 866.76231 869.00000
55.30029 866.62554 866.00000
55.31053 866.51805 841.00000
55.32077 866.41180 866.00000
55.33101 866.30734 854.00000
55.34126 866.20494 860.00000
55.35150 866.10453 912.00000
55.36174 866.00467 875.00000
55.37198 865.89639 940.00000
55.38222 865.75535 884.00000
55.39246 865.53779 870.00000
55.40270 865.21269 895.00000
55.41295 864.91767 846.00000
55.42319 864.81565 916.00000
55.43343 864.73771 827.00000
55.44367 864.66162 880.00000
55.45391 864.58739 851.00000
55.46415 864.51504 846.00000
55.47439 864.44459 889.00000
55.48464 864.37607 919.00000
55.49488 864.30953 847.00000
55.50512 864.24500 861.00000
55.51536 864.18245 855.00000
55.52560 864.12031 873.00000
55.53584 864.05030 894.00000
55.54609 863.95716 887.00000
55.55633 863.81191 895.00000
55.56657 863.62657 937.00000
55.57681 863.54162 858.00000
55.58705 863.49635 891.00000
55.59729 863.45710 854.00000
55.60753 863.42124 877.00000
55.61778 863.38887 920.00000
55.62802 863.35896 850.00000
55.63826 863.33205 870.00000
55.64850 863.30845 878.00000
55.65874 863.28823 852.00000
55.66898 863.27141 836.00000
55.67922 863.25803 825.00000
55.68947 863.24823 885.00000
55.69971 863.24229 870.00000
55.70995 863.24074 877.00000
55.72019 863.24445 858.00000
55.73043 863.25465 900.00000
55.74067 863.27300 908.00000
55.75091 863.30158 868.00000
55.76116 863.34298 886.00000
55.77140 863.40032 855.00000
55.78164 863.47742 821.00000
55.79188 863.57907 866.00000
55.80212 863.71136 893.00000
55.81236 863.88213 869.00000
55.82261 864.10120 877.00000
55.83285 864.38123 871.00000
55.84309 864.74018 862.00000
55.85333 865.20080 860.00000
55.86357 865.79184 834.00000
55.87381 866.54712 877.00000
55.88405 867.50016 859.00000
55.89430 868.66938 883.00000
55.90454 870.02917 850.00000
55.91478 871.47032 919.00000
55.92502 872.76864 907.00000
55.93526 873.61815 829.00000
55.94550 873.77018 914.00000
55.95574 873.18904 916.00000
55.96599 872.08125 877.00000
55.97623 870.76041 889.00000
55.98647 869.48979 838.00000
55.99671 868.41992 849.00000
56.00695 867.60753 857.00000
56.01719 867.05773 899.00000
56.02743 866.75588 821.00000
56.03768 866.68216 853.00000
56.04792 866.81099 892.00000
56.05816 867.09870 888.00000
56.06840 867.46565 890.00000
56.07864 867.78746 836.00000
56.08888 867.91723 895.00000
56.09912 867.74538 886.00000
56.10937 867.26054 895.00000
56.11961 866.55356 827.00000
56.12985 865.75847 888.00000
56.14009 864.98707 860.00000
56.15033 864.30139 891.00000
56.16057 863.72063 860.00000
56.17082 863.23942 843.00000
56.18106 862.84235 844.00000
56.19130 862.51393 845.00000
56.20154 862.24468 866.00000
56.21178 862.01954 876.00000
56.22202 861.82883 841.00000
56.23226 861.66545 844.00000
56.24251 861.52393 862.00000
56.25275 861.40003 878.00000
56.26299 861.29052 910.00000
56.27323 861.19283 835.00000
56.28347 861.10495 820.00000
56.29371 861.02531 864.00000
56.30395 860.95263 848.00000
56.31420 860.88587 849.00000
56.32444 860.82420 855.00000
56.33468 860.76693 851.00000
56.34492 860.71348 825.00000
56.35516 860.66340 818.00000
56.36540 860.61627 841.00000
56.37564 860.57176 885.00000
56.38589 860.52960 860.00000
56.39613 860.48953 922.00000
56.40637 860.45134 867.00000
56.41661 860.41486 891.00000
56.42685 860.37993 872.00000
56.43709 860.34641 867.00000
56.44733 860.31419 865.00000
56.45758 860.28315 882.00000
56.46782 860.25322 881.00000
56.47806 860.22430 835.00000
56.48830 860.19632 872.00000
56.49854 860.16922 833.00000
56.50878 860.14295 855.00000
56.51903 860.11745 868.00000
56.52927 860.09274 876.00000
56.53951 860.06889 868.00000
56.54975 860.04594 906.00000
56.55999 860.02346 790.00000
56.57023 859.99977 867.00000
56.58047 859.96582 890.00000
56.59072 859.89704 852.00000
56.60096 859.74887 862.00000
56.61120 859.49034 861.00000
56.62144 859.26191 866.00000
56.63168 859.22463 897.00000
56.64192 859.20989 841.00000
56.65216 859.19551 821.00000
56.66241 859.18147 798.00000
56.67265 859.16777 853.00000
56.68289 859.15439 821.00000
56.69313 859.14132 828.00000
56.70337 859.12855 890.00000
56.71361 859.11606 883.00000
56.72385 859.10380 863.00000
56.73410 859.09072 824.00000
56.74434 859.07092 863.00000
56.75458 859.03112 864.00000
56.76482 858.94692 793.00000
56.77506 858.81256 886.00000
56.78530 858.72152 787.00000
56.79554 858.70489 836.00000
56.80579 858.69668 825.00000
56.81603 858.68866 817.00000
56.82627 858.68084 871.00000
56.83651 858.67320 868.00000
56.84675 858.66574 854.00000
56.85699 858.65845 811.00000
56.86724 858.65135 866.00000
56.87748 858.64441 892.00000
56.88772 858.63763 865.00000
56.89796 858.63102 853.00000
56.90820 858.62457 856.00000
56.91844 858.61828 815.00000
56.92868 858.61220 833.00000
56.93893 858.60639 847.00000
56.94917 858.60086 794.00000
56.95941 858.59529 838.00000
56.96965 858.58986 858.00000
56.97989 858.58492 852.00000
56.99013 858.58078 850.00000
57.00037 858.57707 862.00000
57.01062 858.57263 811.00000
57.02086 858.56786 887.00000
57.03110 858.56317 851.00000
57.04134 858.55861 887.00000
57.05158 858.55418 810.00000
57.06182 858.54987 853.00000
57.07206 858.54569 830.00000
57.08231 858.54162 882.00000
57.09255 858.53767 794.00000
57.10279 858.53384 871.00000
57.11303 858.53013 799.00000
57.12327 858.52653 824.00000
57.13351 858.52305 843.00000
57.14375 858.51968 874.00000
57.15400 858.51642 836.00000
57.16424 858.51329 818.00000
57.17448 858.51037 840.00000
57.18472 858.50785 874.00000
57.19496 858.50592 845.00000
57.20520 858.50418 915.00000
57.21545 858.50202 841.00000
57.22569 858.49958 889.00000
57.23593 858.49721 894.00000
57.24617 858.49494 862.00000
57.25641 858.49277 826.00000
57.26665 858.49071 889.00000
57.27689 858.48875 850.00000
57.28714 858.48689 828.00000
57.29738 858.48513 859.00000
57.30762 858.48346 852.00000
57.31786 858.48187 881.00000
57.32810 858.48035 880.00000
57.33834 858.47894 849.00000
57.34858 858.47771 811.00000
57.35883 858.47685 863.00000
57.36907 858.47719 867.00000
57.37931 858.48009 827.00000
57.38955 858.48476 855.00000
57.39979 858.48401 896.00000
57.41003 858.48010 899.00000
57.42027 858.47684 827.00000
57.43052 858.47623 851.00000
57.44076 858.47603 854.00000
57.45100 858.47592 948.00000
57.46124 858.47592 852.00000
57.47148 858.47601 867.00000
57.48172 858.47620 865.00000
57.49196 858.47650 906.00000
57.50221 858.47690 848.00000
57.51245 858.47740 844.00000
57.52269 858.47800 902.00000
57.53293 858.47870 853.00000
57.54317 858.47951 877.00000
57.55341 858.48043 854.00000
57.56366 858.48145 855.00000
57.57390 858.48262 795.00000
57.58414 858.48402 863.00000
57.59438 858.48582 861.00000
57.60462 858.48797 893.00000
57.61486 858.48963 864.00000
57.62510 858.49133 861.00000
57.63535 858.49315 861.00000
57.64559 858.49509 844.00000
57.65583 858.49714 864.00000
57.66607 858.49932 862.00000
57.67631 858.50162 832.00000
57.68655 858.50405 885.00000
57.69679 858.50660 829.00000
57.70704 858.50928 875.00000
57.71728 858.51210 850.00000
57.72752 858.51505 853.00000
57.73776 858.51814 916.00000
57.74800 858.52138 846.00000
57.75824 858.52476 885.00000
57.76848 858.52829 835.00000
57.77873 858.53198 895.00000
57.78897 858.53582 831.00000
57.79921 858.53983 874.00000
57.80945 858.54401 874.00000
57.81969 858.54836 880.00000
57.82993 858.55289 854.00000
57.84017 858.55761 842.00000
57.85042 858.56249 853.00000
57.86066 858.56752 846.00000
57.87090 858.57314 844.00000
57.88114 858.58120 842.00000
57.89138 858.59371 863.00000
57.90162 858.60546 880.00000
57.91187 858.61228 790.00000
57.92211 858.61886 863.00000
57.93235 858.62571 835.00000
57.94259 858.63289 879.00000
57.95283 858.64043 917.00000
57.96307 858.64826 839.00000
57.97331 858.65634 818.00000
57.98356 858.66477 897.00000
57.99380 858.67356 882.00000
58.00404 858.68276 885.00000
58.01428 858.69238 841.00000
58.02452 858.70244 890.00000
58.03476 858.71299 903.00000
58.04500 858.72405 843.00000
58.05525 858.73559 825.00000
58.06549 858.74619 860.00000
58.07573 858.74654 858.00000
58.08597 858.71239 840.00000
58.09621 858.59997 827.00000
58.10645 858.38075 887.00000
58.11669 858.20009 825.00000
58.12694 858.20739 855.00000
58.13718 858.19524 884.00000
58.14742 858.21673 863.00000
58.15766 858.23925 851.00000
58.16790 858.26345 822.00000
58.17814 858.28911 864.00000
58.18838 858.31625 853.00000
58.19863 858.34494 831.00000
58.20887 858.37527 777.00000
58.21911 858.40729 830.00000
58.22935 858.44076 832.00000
58.23959 858.47297 808.00000
58.24983 858.49358 813.00000
58.26008 858.48512 873.00000
58.27032 858.42044 834.00000
58.28056 858.33566 810.00000
58.29080 858.37471 840.00000
58.30104 858.40900 886.00000
58.31128 858.46313 841.00000
58.32152 858.52197 846.00000
58.33177 858.58671 832.00000
58.34201 858.65879 796.00000
58.35225 858.73994 845.00000
58.36249 858.83223 872.00000
58.37273 858.93819 879.00000
58.38297 859.06096 832.00000
58.39321 859.20447 897.00000
58.40346 859.37375 896.00000
58.41370 859.57529 841.00000
58.42394 859.81752 873.00000
58.43418 860.11136 892.00000
58.44442 860.47078 869.00000
58.45466 860.91310 873.00000
58.46490 861.45828 886.00000
58.47515 862.12573 820.00000
58.48539 862.92600 850.00000
58.49563 863.84473 847.00000
58.50587 864.81994 854.00000
58.51611 865.72547 884.00000
58.52635 866.38680 848.00000
58.53659 866.64767 876.00000
58.54684 866.45726 854.00000
58.55708 865.90353 852.00000
58.56732 865.15869 835.00000
58.57756 864.39148 822.00000
58.58780 863.71541 831.00000
58.59804 863.18523 868.00000
58.60829 862.81651 834.00000
58.61853 862.60595 831.00000
58.62877 862.54405 844.00000
58.63901 862.61953 841.00000
58.64925 862.81695 859.00000
58.65949 863.10895 848.00000
58.66973 863.44660 813.00000
58.67998 863.75601 871.00000
58.69022 863.95217 844.00000
58.70046 863.97191 921.00000
58.71070 863.80597 806.00000
58.72094 863.50244 846.00000
58.73118 863.13772 816.00000
58.74142 862.78131 858.00000
58.75167 862.47739 883.00000
58.76191 862.24543 918.00000
58.77215 862.08918 856.00000
58.78239 862.00556 837.00000
58.79263 861.99064 780.00000
58.80287 862.04251 863.00000
58.81311 862.16020 882.00000
58.82336 862.33788 875.00000
58.83360 862.57723 919.00000
58.84384 862.88998 845.00000
58.85408 863.28763 825.00000
58.86432 863.78554 878.00000
58.87456 864.40450 792.00000
58.88480 865.17238 873.00000
58.89505 866.12568 905.00000
58.90529 867.31104 818.00000
58.91553 868.78553 854.00000
58.92577 870.61353 873.00000
58.93601 872.85566 921.00000
58.94625 875.53410 854.00000
58.95650 878.57010 862.00000
58.96674 881.71649 918.00000
58.97698 884.50933 927.00000
58.98722 886.34480 847.00000
58.99746 886.76729 902.00000
59.00770 885.73360 875.00000
59.01794 883.64953 894.00000
59.02819 881.11823 867.00000
59.03843 878.65746 877.00000
59.04867 876.58205 827.00000
59.05891 875.02980 903.00000
59.06915 874.03408 892.00000
59.07939 873.58477 907.00000
59.08963 873.66227 902.00000
59.09988 874.24697 904.00000
59.11012 875.30866 862.00000
59.12036 876.78020 857.00000
59.13060 878.52684 858.00000
59.14084 880.33808 903.00000
59.15108 881.97349 904.00000
59.16132 883.25489 868.00000
59.17157 884.12729 875.00000
59.18181 884.60811 879.00000
59.19205 884.66264 908.00000
59.20229 884.15044 835.00000
59.21253 882.92991 858.00000
59.22277 881.02852 912.00000
59.23301 878.68952 913.00000
59.24326 876.25011 899.00000
59.25350 873.99725 847.00000
59.26374 872.08630 851.00000
59.27398 870.56812 884.00000
59.28422 869.43626 869.00000
59.29446 868.66212 880.00000
59.30471 868.21343 858.00000
59.31495 868.05817 888.00000
59.32519 868.15669 868.00000
59.33543 868.44476 852.00000
59.34567 868.81486 827.00000
59.35591 869.11291 836.00000
59.36615 869.17102 795.00000
59.37640 868.87475 815.00000
59.38664 868.22276 866.00000
59.39688 867.32845 802.00000
59.40712 866.35546 863.00000
59.41736 865.41733 844.00000
59.42760 864.52148 867.00000
59.43784 863.74566 863.00000
59.44809 863.09610 841.00000
59.45833 862.55841 884.00000
59.46857 862.11442 826.00000
59.47881 861.74682 851.00000
59.48905 861.44076 850.00000
59.49929 861.18418 834.00000
59.50953 860.96751 883.00000
59.51978 860.78322 844.00000
59.53002 860.62539 852.00000
59.54026 860.48940 835.00000
59.55050 860.37155 842.00000
59.56074 860.26892 818.00000
59.57098 860.17914 839.00000
59.58123 860.10032 783.00000
59.59147 860.03090 850.00000
59.60171 859.96961 813.00000
59.61195 859.91536 849.00000
59.62219 859.86760 832.00000
59.63243 859.82915 818.00000
59.64267 859.80793 856.00000
59.65292 859.80388 816.00000
59.66316 859.78558 817.00000
59.67340 859.76059 846.00000
59.68364 859.73777 838.00000
59.69388 859.71778 788.00000
59.70412 859.70037 892.00000
59.71436 859.68533 870.00000
59.72461 859.67246 850.00000
59.73485 859.66160 818.00000
59.74509 859.65260 843.00000
59.75533 859.64532 769.00000
59.76557 859.63965 804.00000
59.77581 859.63550 812.00000
59.78605 859.63277 835.00000
59.79630 859.63139 807.00000
59.80654 859.63128 840.00000
59.81678 859.63238 799.00000
59.82702 859.63464 825.00000
59.83726 859.63801 813.00000
59.84750 859.64244 864.00000
59.85774 859.64790 840.00000
59.86799 859.65435 829.00000
59.87823 859.66177 899.00000
59.88847 859.67014 829.00000
59.89871 859.67943 878.00000
59.90895 859.68963 798.00000
59.91919 859.70072 863.00000
59.92944 859.71271 865.00000
59.93968 859.72557 864.00000
59.94992 859.73931 828.00000
59.96016 859.75393 819.00000
59.97040 859.76942 861.00000
59.98064 859.78581 815.00000
59.99088 859.80308 892.00000
60.00113 859.82125 880.00000
60.01137 859.84034 812.00000
60.02161 859.86036 836.00000
60.03185 859.88135 887.00000
60.04209 859.90332 800.00000
60.05233 859.92630 819.00000
60.06257 859.95030 788.00000
60.07282 859.97539 818.00000
60.08306 860.00210 898.00000
60.09330 860.03211 867.00000
60.10354 860.06664 858.00000
60.11378 860.10100 877.00000
60.12402 860.13245 827.00000
60.13426 860.16482 845.00000
60.14451 860.19858 790.00000
60.15475 860.23382 815.00000
60.16499 860.27063 777.00000
60.17523 860.30905 876.00000
60.18547 860.34903 889.00000
60.19571 860.39077 871.00000
60.20595 860.43436 842.00000
60.21620 860.47991 823.00000
60.22644 860.52755 857.00000
60.23668 860.57738 841.00000
60.24692 860.62956 891.00000
60.25716 860.68424 868.00000
60.26740 860.74156 835.00000
60.27765 860.80183 845.00000
60.28789 860.86516 821.00000
60.29813 860.93173 862.00000
60.30837 861.00171 873.00000
60.31861 861.07520 858.00000
60.32885 861.15251 815.00000
60.33909 861.23452 862.00000
60.34934 861.32148 856.00000
60.35958 861.41356 830.00000
60.36982 861.51115 847.00000
60.38006 861.61472 798.00000
60.39030 861.72479 886.00000
60.40054 861.84192 862.00000
60.41078 861.96676 898.00000
60.42103 862.09999 845.00000
60.43127 862.24238 784.00000
60.44151 862.39478 796.00000
60.45175 862.55810 837.00000
60.46199 862.73336 870.00000
60.47223 862.92162 851.00000
60.48247 863.12405 833.00000
60.49272 863.34185 783.00000
60.50296 863.57627 846.00000
60.51320 863.82871 820.00000
60.52344 864.10102 793.00000
60.53368 864.39360 870.00000
60.54392 864.70736 842.00000
60.55416 865.04296 851.00000
60.56441 865.40079 862.00000
60.57465 865.78118 830.00000
60.58489 866.18473 799.00000
60.59513 866.61195 866.00000
60.60537 867.06406 849.00000
60.61561 867.54361 898.00000
60.62586 868.05498 861.00000
60.63610 868.60488 795.00000
60.64634 869.20278 834.00000
60.65658 869.86111 876.00000
60.66682 870.59544 815.00000
60.67706 871.42470 869.00000
60.68730 872.37149 856.00000
60.69755 873.46272 855.00000
60.70779 874.73068 831.00000
60.71803 876.21459 877.00000
60.72827 877.96282 835.00000
60.73851 880.03592 843.00000
60.74875 882.51050 878.00000
60.75899 885.50026 914.00000
60.76924 889.14071 802.00000
60.77948 893.58826 932.00000
60.78972 899.05392 879.00000
60.79996 905.79479 931.00000
60.81020 914.10095 864.00000
60.82044 924.24630 905.00000
60.83068 936.37039 899.00000
60.84093 950.26011 985.00000
60.85117 965.05339 938.00000
60.86141 979.02270 950.00000
60.87165 989.74371 1011.00000
60.88189 994.87025 1010.00000
60.89213 993.24482 998.00000
60.90237 985.56135 999.00000
60.91262 973.99605 930.00000
60.92286 961.11727 919.00000
60.93310 948.94345 996.00000
60.94334 938.63314 879.00000
60.95358 930.64724 906.00000
60.96382 925.04400 861.00000
60.97407 921.71272 922.00000
60.98431 920.49851 878.00000
60.99455 921.23046 905.00000
61.00479 923.72063 894.00000
61.01503 927.42914 953.00000
61.02527 931.54396 957.00000
61.03551 934.91861 930.00000
61.04576 936.31856 885.00000
61.05600 934.90363 914.00000
61.06624 930.62365 864.00000
61.07648 924.19761 907.00000
61.08672 916.71197 915.00000
61.09696 909.16197 889.00000
61.10720 902.20301 858.00000
61.11745 896.13634 860.00000
61.12769 891.01485 854.00000
61.13793 886.76066 850.00000
61.14817 883.24741 801.00000
61.15841 880.34443 882.00000
61.16865 877.93549 885.00000
61.17889 875.92397 865.00000
61.18914 874.23219 852.00000
61.19938 872.79863 857.00000
61.20962 871.57484 843.00000
61.21986 870.52262 901.00000
61.23010 869.61178 873.00000
61.24034 868.81941 871.00000
61.25058 868.12755 854.00000
61.26083 867.51698 896.00000
61.27107 866.97542 882.00000
61.28131 866.49329 837.00000
61.29155 866.06242 798.00000
61.30179 865.67562 906.00000
61.31203 865.32708 824.00000
61.32228 865.01192 851.00000
61.33252 864.72587 876.00000
61.34276 864.46518 804.00000
61.35300 864.22704 877.00000
61.36324 864.01021 844.00000
61.37348 863.81162 852.00000
61.38372 863.62922 874.00000
61.39397 863.46137 872.00000
61.40421 863.30661 835.00000
61.41445 863.16369 862.00000
61.42469 863.03154 854.00000
61.43493 862.90933 800.00000
61.44517 862.79610 886.00000
61.45541 862.69054 805.00000
61.46566 862.59232 801.00000
61.47590 862.50086 794.00000
61.48614 862.41576 852.00000
61.49638 862.33644 920.00000
61.50662 862.26235 791.00000
61.51686 862.19309 857.00000
61.52710 862.12832 828.00000
61.53735 862.06810 812.00000
61.54759 862.01358 821.00000
61.55783 861.96496 775.00000
61.56807 861.91664 851.00000
61.57831 861.86946 854.00000
61.58855 861.82565 820.00000
61.59879 861.78578 798.00000
61.60904 861.75322 865.00000
61.61928 861.73066 832.00000
61.62952 861.70810 860.00000
61.63976 861.67754 867.00000
61.65000 861.64796 903.00000
61.66024 861.62053 808.00000
61.67049 861.59844 814.00000
61.68073 861.59334 863.00000
61.69097 861.61846 834.00000
61.70121 861.65190 796.00000
61.71145 861.63799 892.00000
61.72169 861.62019 865.00000
61.73193 861.60371 886.00000
61.74218 861.58843 834.00000
61.75242 861.57429 858.00000
61.76266 861.56125 815.00000
61.77290 861.54924 800.00000
61.78314 861.53822 893.00000
61.79338 861.52815 858.00000
61.80362 861.51898 833.00000
61.81387 861.51067 858.00000
61.82411 861.50319 846.00000
61.83435 861.49650 803.00000
61.84459 861.49058 865.00000
61.85483 861.48538 868.00000
61.86507 861.48088 902.00000
61.87531 861.47705 851.00000
61.88556 861.47387 839.00000
61.89580 861.47132 817.00000
61.90604 861.46950 818.00000
61.91628 861.46929 841.00000
61.92652 861.47506 848.00000
61.93676 861.49404 841.00000
61.94700 861.52408 862.00000
61.95725 861.53616 861.00000
61.96749 861.53870 852.00000
61.97773 861.54078 891.00000
61.98797 861.54332 836.00000
61.99821 861.54630 897.00000
62.00845 861.54951 832.00000
62.01870 861.55229 819.00000
62.02894 861.55353 909.00000
62.03918 861.55344 807.00000
62.04942 861.55716 800.00000
62.05966 861.56559 867.00000
62.06990 861.57843 873.00000
62.08014 861.59064 877.00000
62.09039 861.59883 820.00000
62.10063 861.60833 868.00000
62.11087 861.61857 816.00000
62.12111 861.62682 832.00000
62.13135 861.63525 819.00000
62.14159 861.64406 860.00000
62.15183 861.65308 821.00000
62.16208 861.66240 833.00000
62.17232 861.67204 798.00000
62.18256 861.68199 836.00000
62.19280 861.69225 844.00000
62.20304 861.70275 832.00000
62.21328 861.71345 832.00000
62.22352 861.72432 824.00000
62.23377 861.73568 805.00000
62.24401 861.74746 842.00000
62.25425 861.75954 794.00000
62.26449 861.77192 869.00000
62.27473 861.78459 838.00000
62.28497 861.79755 816.00000
62.29521 861.81080 860.00000
62.30546 861.82435 843.00000
62.31570 861.83819 805.00000
62.32594 861.85231 846.00000
62.33618 861.86673 844.00000
62.34642 861.88145 810.00000
62.35666 861.89646 835.00000
62.36691 861.91176 858.00000
62.37715 861.92736 833.00000
62.38739 861.94325 828.00000
62.39763 861.95945 803.00000
62.40787 861.97595 842.00000
62.41811 861.99275 845.00000
62.42835 862.00986 851.00000
62.43860 862.02728 889.00000
62.44884 862.04502 815.00000
62.45908 862.06307 853.00000
62.46932 862.08145 814.00000
62.47956 862.10015 870.00000
62.48980 862.11918 909.00000
62.50004 862.13855 807.00000
62.51029 862.15825 807.00000
62.52053 862.17829 875.00000
62.53077 862.19869 808.00000
62.54101 862.21944 829.00000
62.55125 862.24055 868.00000
62.56149 862.26203 883.00000
62.57173 862.28389 826.00000
62.58198 862.30613 897.00000
62.59222 862.32875 872.00000
62.60246 862.35178 763.00000
62.61270 862.37521 785.00000
62.62294 862.39906 816.00000
62.63318 862.42334 923.00000
62.64342 862.44804 835.00000
62.65367 862.47320 861.00000
62.66391 862.49881 912.00000
62.67415 862.52489 856.00000
62.68439 862.55140 837.00000
62.69463 862.57820 869.00000
62.70487 862.60506 883.00000
62.71512 862.63206 858.00000
62.72536 862.66045 891.00000
62.73560 862.68962 886.00000
62.74584 862.71937 813.00000
62.75608 862.74970 870.00000
62.76632 862.78063 900.00000
62.77656 862.81219 810.00000
62.78681 862.84438 885.00000
62.79705 862.87724 821.00000
62.80729 862.91078 904.00000
62.81753 862.94502 833.00000
62.82777 862.98000 807.00000
62.83801 863.01573 874.00000
62.84825 863.05224 837.00000
62.85850 863.08957 801.00000
62.86874 863.12773 836.00000
62.87898 863.16677 856.00000
62.88922 863.20672 877.00000
62.89946 863.24760 822.00000
62.90970 863.28945 820.00000
62.91994 863.33223 839.00000
62.93019 863.37587 862.00000
62.94043 863.42035 862.00000
62.95067 863.46616 848.00000
62.96091 863.51354 861.00000
62.97115 863.56218 863.00000
62.98139 863.61194 833.00000
62.99163 863.66222 846.00000
63.00188 863.71197 917.00000
63.01212 863.76140 888.00000
63.02236 863.81512 864.00000
63.03260 863.87252 855.00000
63.04284 863.93185 870.00000
63.05308 863.99301 883.00000
63.06333 864.05608 853.00000
63.07357 864.12116 833.00000
63.08381 864.18836 866.00000
63.09405 864.25779 821.00000
63.10429 864.32959 828.00000
63.11453 864.40388 786.00000
63.12477 864.48081 828.00000
63.13502 864.56053 865.00000
63.14526 864.64321 845.00000
63.15550 864.72903 859.00000
63.16574 864.81819 842.00000
63.17598 864.91090 836.00000
63.18622 865.00739 872.00000
63.19646 865.10791 829.00000
63.20671 865.21274 823.00000
63.21695 865.32214 887.00000
63.22719 865.43745 888.00000
63.23743 865.56984 858.00000
63.24767 865.74913 886.00000
63.25791 865.98924 812.00000
63.26815 866.20416 819.00000
63.27840 866.35837 875.00000
63.28864 866.51311 854.00000
63.29888 866.67549 894.00000
63.30912 866.84520 833.00000
63.31936 867.02260 831.00000
63.32960 867.21133 849.00000
63.33985 867.41469 866.00000
63.35009 867.63079 843.00000
63.36033 867.86029 829.00000
63.37057 868.10437 850.00000
63.38081 868.36426 866.00000
63.39105 868.64131 899.00000
63.40129 868.93703 866.00000
63.41154 869.25306 840.00000
63.42178 869.59080 851.00000
63.43202 869.95097 871.00000
63.44226 870.33551 858.00000
63.45250 870.74577 832.00000
63.46274 871.18288 846.00000
63.47298 871.64772 886.00000
63.48323 872.14121 853.00000
63.49347 872.66728 916.00000
63.50371 873.23781 845.00000
63.51395 873.86495 872.00000
63.52419 874.52648 838.00000
63.53443 875.17621 838.00000
63.54467 875.85783 932.00000
63.55492 876.58237 899.00000
63.56516 877.35893 801.00000
63.57540 878.19976 850.00000
63.58564 879.12053 830.00000
63.59588 880.14046 887.00000
63.60612 881.28286 825.00000
63.61636 882.57625 861.00000
63.62661 884.05187 850.00000
63.63685 885.74329 866.00000
63.64709 887.69896 880.00000
63.65733 889.97475 885.00000
63.66757 892.63935 866.00000
63.67781 895.77858 906.00000
63.68806 899.50079 886.00000
63.69830 903.94514 925.00000
63.70854 909.29531 897.00000
63.71878 915.78694 910.00000
63.72902 923.68146 919.00000
63.73926 933.22743 929.00000
63.74950 944.83183 941.00000
63.75975 958.83254 954.00000
63.76999 975.39787 934.00000
63.78023 994.27883 963.00000
63.79047 1014.45152 988.00000
63.80071 1033.81717 1034.00000
63.81095 1049.32194 1085.00000
63.82119 1057.83370 1096.00000
63.83144 1057.55382 1069.00000
63.84168 1048.99761 1065.00000
63.85192 1034.68952 1007.00000
63.86216 1017.85791 999.00000
63.87240 1001.20712 1024.00000
63.88264 986.41808 1032.00000
63.89288 974.26421 952.00000
63.90313 964.95757 910.00000
63.91337 958.45656 924.00000
63.92361 954.64527 897.00000
63.93385 953.39568 948.00000
63.94409 954.54775 904.00000
63.95433 957.82277 996.00000
63.96457 962.68673 959.00000
63.97482 968.22340 943.00000
63.98506 973.08088 975.00000
63.99530 975.69216 969.00000
64.00554 974.85209 959.00000
64.01578 970.23043 935.00000
64.02602 962.48545 933.00000
64.03627 952.89817 986.00000
64.04651 942.79579 923.00000
64.05675 933.15076 953.00000
64.06699 924.48289 904.00000
64.07723 916.96068 969.00000
64.08747 910.55281 968.00000
64.09771 905.14381 914.00000
64.10796 900.59665 923.00000
64.11820 896.77869 898.00000
64.12844 893.57030 878.00000
64.13868 890.86740 876.00000
64.14892 888.58177 865.00000
64.15916 886.64019 868.00000
64.16940 884.98280 842.00000
64.17965 883.56104 830.00000
64.18989 882.33569 889.00000
64.20013 881.27504 836.00000
64.21037 880.35343 859.00000
64.22061 879.54996 789.00000
64.23085 878.84753 851.00000
64.24109 878.23208 871.00000
64.25134 877.69198 863.00000
64.26158 877.21756 880.00000
64.27182 876.80071 843.00000
64.28206 876.43463 878.00000
64.29230 876.11354 821.00000
64.30254 875.83256 801.00000
64.31278 875.58754 891.00000
64.32303 875.37519 839.00000
64.33327 875.19352 890.00000
64.34351 875.03991 860.00000
64.35375 874.90794 816.00000
64.36399 874.79783 857.00000
64.37423 874.70817 864.00000
64.38448 874.63726 852.00000
64.39472 874.58372 835.00000
64.40496 874.54712 903.00000
64.41520 874.52672 878.00000
64.42544 874.52108 870.00000
64.43568 874.52955 887.00000
64.44592 874.55134 856.00000
64.45617 874.58589 882.00000
64.46641 874.63272 840.00000
64.47665 874.69139 840.00000
64.48689 874.76153 897.00000
64.49713 874.84288 844.00000
64.50737 874.93556 836.00000
64.51761 875.04041 827.00000
64.52786 875.15715 844.00000
64.53810 875.28146 904.00000
64.54834 875.41586 864.00000
64.55858 875.56062 908.00000
64.56882 875.71573 845.00000
64.57906 875.88123 910.00000
64.58930 876.05720 890.00000
64.59955 876.24372 912.00000
64.60979 876.44087 902.00000
64.62003 876.64869 864.00000
64.63027 876.86734 866.00000
64.64051 877.09744 920.00000
64.65075 877.33948 848.00000
64.66099 877.59335 906.00000
64.67124 877.85950 912.00000
64.68148 878.13822 810.00000
64.69172 878.42990 860.00000
64.70196 878.73483 847.00000
64.71220 879.05290 899.00000
64.72244 879.38358 910.00000
64.73269 879.72735 858.00000
64.74293 880.08875 845.00000
64.75317 880.46942 839.00000
64.76341 880.86752 868.00000
64.77365 881.28350 902.00000
64.78389 881.71821 891.00000
64.79413 882.17259 902.00000
64.80438 882.64761 886.00000
64.81462 883.14438 860.00000
64.82486 883.66404 876.00000
64.83510 884.20787 888.00000
64.84534 884.77721 847.00000
64.85558 885.37356 904.00000
64.86582 885.99850 908.00000
64.87607 886.65376 847.00000
64.88631 887.34123 804.00000
64.89655 888.06296 878.00000
64.90679 888.82115 839.00000
64.91703 889.61822 873.00000
64.92727 890.45681 891.00000
64.93751 891.33978 926.00000
64.94776 892.27026 867.00000
64.95800 893.25168 823.00000
64.96824 894.28776 896.00000
64.97848 895.38259 875.00000
64.98872 896.54065 865.00000
64.99896 897.76682 924.00000
65.00920 899.06641 895.00000
65.01945 900.44474 844.00000
65.02969 901.90649 824.00000
65.03993 903.45746 918.00000
65.05017 905.11007 847.00000
65.06041 906.87630 889.00000
65.07065 908.76044 903.00000
65.08090 910.77401 879.00000
65.09114 912.92690 850.00000
65.10138 915.22813 950.00000
65.11162 917.68868 923.00000
65.12186 920.31978 883.00000
65.13210 923.13235 936.00000
65.14234 926.13671 910.00000
65.15259 929.34222 924.00000
65.16283 932.75689 899.00000
65.17307 936.38702 902.00000
65.18331 940.23722 950.00000
65.19355 944.31086 902.00000
65.20379 948.61119 952.00000
65.21403 953.14343 884.00000
65.22428 957.91763 966.00000
65.23452 962.95242 1019.00000
65.24476 968.27906 942.00000
65.25500 973.94535 936.00000
65.26524 980.01886 957.00000
65.27548 986.58923 905.00000
65.28572 993.76948 995.00000
65.29597 1001.69694 959.00000
65.30621 1010.53441 958.00000
65.31645 1020.47297 1027.00000
65.32669 1031.73681 979.00000
65.33693 1044.58676 1012.00000
65.34717 1059.33608 1032.00000
65.35741 1076.37307 1015.00000
65.36766 1096.16646 1042.00000
65.37790 1119.23348 1098.00000
65.38814 1146.28010 1060.00000
65.39838 1178.20297 1111.00000
65.40862 1216.18497 1114.00000
65.41886 1261.78078 1186.00000
65.42911 1316.61910 1265.00000
65.43935 1382.83760 1265.00000
65.44959 1462.90325 1387.00000
65.45983 1559.38460 1436.00000
65.47007 1674.36244 1524.00000
65.48031 1808.14534 1656.00000
65.49055 1957.07539 1735.00000
65.50080 2111.22237 1768.00000
65.51104 2252.92240 1856.00000
65.52128 2359.16871 2055.00000
65.53152 2409.22442 2099.00000
65.54176 2394.09778 2117.00000
65.55200 2321.08619 2062.00000
65.56224 2209.76341 2029.00000
65.57249 2083.02412 1932.00000
65.58273 1959.65101 1823.00000
65.59297 1851.51057 1839.00000
65.60321 1764.35106 1628.00000
65.61345 1699.95995 1624.00000
65.62369 1658.07947 1626.00000
65.63393 1637.77016 1583.00000
65.64418 1638.00763 1603.00000
65.65442 1657.73625 1578.00000
65.66466 1695.43747 1688.00000
65.67490 1748.28457 1732.00000
65.68514 1811.11936 1697.00000
65.69538 1875.88251 1780.00000
65.70562 1932.50404 1859.00000
65.71587 1971.88900 1868.00000
65.72611 1989.96648 1848.00000
65.73635 1989.91959 1839.00000
65.74659 1980.27002 1803.00000
65.75683 1971.12512 1837.00000
65.76707 1967.21678 1790.00000
65.77732 1966.54354 1696.00000
65.78756 1961.12086 1755.00000
65.79780 1940.59749 1645.00000
65.80804 1897.52550 1698.00000
65.81828 1831.43495 1715.00000
65.82852 1748.93869 1637.00000
65.83876 1660.08129 1671.00000
65.84901 1574.08061 1530.00000
65.85925 1497.08535 1556.00000
65.86949 1432.08961 1501.00000
65.87973 1379.87154 1424.00000
65.88997 1340.11205 1409.00000
65.90021 1312.20119 1346.00000
65.91045 1294.93925 1311.00000
65.92070 1287.50966 1279.00000
65.93094 1288.97039 1235.00000
65.94118 1297.87488 1212.00000
65.95142 1311.75588 1230.00000
65.96166 1326.72328 1255.00000
65.97190 1337.66500 1195.00000
65.98214 1339.41622 1202.00000
65.99239 1328.59483 1244.00000
66.00263 1304.98071 1161.00000
66.01287 1271.42716 1243.00000
66.02311 1232.42320 1174.00000
66.03335 1192.34873 1143.00000
66.04359 1154.37255 1157.00000
66.05383 1120.21834 1079.00000
66.06408 1090.46823 1055.00000
66.07432 1065.00957 1114.00000
66.08456 1043.38600 1053.00000
66.09480 1025.05065 996.00000
66.10504 1009.47189 966.00000
66.11528 996.17137 954.00000
66.12553 984.74973 1006.00000
66.13577 974.87474 950.00000
66.14601 966.28042 957.00000
66.15625 958.75311 922.00000
66.16649 952.11969 926.00000
66.17673 946.24469 895.00000
66.18697 941.02532 861.00000
66.19722 936.34475 957.00000
66.20746 932.12547 910.00000
66.21770 928.30701 881.00000
66.22794 924.83799 942.00000
66.23818 921.67466 946.00000
66.24842 918.78003 859.00000
66.25866 916.12271 877.00000
66.26891 913.67589 874.00000
66.27915 911.41658 859.00000
66.28939 909.32496 888.00000
66.29963 907.38384 909.00000
66.30987 905.57830 899.00000
66.32011 903.89526 925.00000
66.33035 902.32327 931.00000
66.34060 900.85225 871.00000
66.35084 899.47327 874.00000
66.36108 898.17842 922.00000
66.37132 896.96065 871.00000
66.38156 895.81365 861.00000
66.39180 894.73124 894.00000
66.40204 893.70680 908.00000
66.41229 892.73441 856.00000
66.42253 891.81475 875.00000
66.43277 890.94784 861.00000
66.44301 890.12561 901.00000
66.45325 889.34406 827.00000
66.46349 888.59988 828.00000
66.47374 887.89165 987.00000
66.48398 887.21900 905.00000
66.49422 886.57888 853.00000
66.50446 885.96717 889.00000
66.51470 885.38363 878.00000
66.52494 884.82606 854.00000
66.53518 884.29295 837.00000
66.54543 883.78287 908.00000
66.55567 883.29454 890.00000
66.56591 882.82675 879.00000
66.57615 882.37837 861.00000
66.58639 881.94837 903.00000
66.59663 881.53577 887.00000
66.60687 881.13968 850.00000
66.61712 880.75925 878.00000
66.62736 880.39371 881.00000
66.63760 880.04231 932.00000
66.64784 879.70446 829.00000
66.65808 879.38000 844.00000
66.66832 879.06919 901.00000
66.67856 878.77071 882.00000
66.68881 878.48089 831.00000
66.69905 878.20146 795.00000
66.70929 877.93219 873.00000
66.71953 877.67264 816.00000
66.72977 877.42241 849.00000
66.74001 877.18119 834.00000
66.75025 876.94855 859.00000
66.76050 876.72349 891.00000
66.77074 876.49767 909.00000
66.78098 876.25268 826.00000
66.79122 875.98989 850.00000
66.80146 875.77842 860.00000
66.81170 875.59061 855.00000
66.82195 875.41073 858.00000
66.83219 875.23707 811.00000
66.84243 875.06941 849.00000
66.85267 874.90755 862.00000
66.86291 874.75128 850.00000
66.87315 874.60044 842.00000
66.88339 874.45483 853.00000
66.89364 874.31430 859.00000
66.90388 874.17870 869.00000
66.91412 874.04787 852.00000
66.92436 873.92167 893.00000
66.93460 873.79999 835.00000
66.94484 873.68268 862.00000
66.95508 873.56965 850.00000
66.96533 873.46077 801.00000
66.97557 873.35595 865.00000
66.98581 873.25509 875.00000
66.99605 873.15810 883.00000
67.00629 873.06489 870.00000
67.01653 872.97540 889.00000
67.02677 872.88953 861.00000
67.03702 872.80687 810.00000
67.04726 872.72319 827.00000
67.05750 872.62920 860.00000
67.06774 872.52683 811.00000
67.07798 872.45267 833.00000
67.08822 872.38783 866.00000
67.09847 872.32672 876.00000
67.10871 872.26886 837.00000
67.11895 872.21421 836.00000
67.12919 872.16277 877.00000
67.13943 872.11452 881.00000
67.14967 872.06946 833.00000
67.15991 872.02758 834.00000
67.17016 871.98890 845.00000
67.18040 871.95343 810.00000
67.19064 871.92118 818.00000
67.20088 871.89219 810.00000
67.21112 871.86649 862.00000
67.22136 871.84412 917.00000
67.23160 871.82514 881.00000
67.24185 871.80959 875.00000
67.25209 871.79759 805.00000
67.26233 871.78936 862.00000
67.27257 871.78508 874.00000
67.28281 871.78423 814.00000
67.29305 871.78717 825.00000
67.30329 871.79427 852.00000
67.31354 871.80589 865.00000
67.32378 871.82144 920.00000
67.33402 871.84138 832.00000
67.34426 871.86600 890.00000
67.35450 871.89552 874.00000
67.36474 871.93016 843.00000
67.37498 871.97020 855.00000
67.38523 872.01590 819.00000
67.39547 872.06758 856.00000
67.40571 872.12556 875.00000
67.41595 872.19020 839.00000
67.42619 872.26189 830.00000
67.43643 872.34103 923.00000
67.44668 872.42807 805.00000
67.45692 872.52348 808.00000
67.46716 872.62785 866.00000
67.47740 872.74187 898.00000
67.48764 872.86572 895.00000
67.49788 872.99988 881.00000
67.50812 873.14521 828.00000
67.51837 873.30242 843.00000
67.52861 873.47228 864.00000
67.53885 873.65564 833.00000
67.54909 873.85344 862.00000
67.55933 874.06669 908.00000
67.56957 874.29650 813.00000
67.57981 874.54404 819.00000
67.59006 874.81056 870.00000
67.60030 875.09758 880.00000
67.61054 875.40658 940.00000
67.62078 875.73801 914.00000
67.63102 876.09303 878.00000
67.64126 876.47411 820.00000
67.65150 876.88385 838.00000
67.66175 877.32567 860.00000
67.67199 877.80427 831.00000
67.68223 878.32602 887.00000
67.69247 878.89932 864.00000
67.70271 879.53498 880.00000
67.71295 880.24661 879.00000
67.72319 881.05090 894.00000
67.73344 881.96806 898.00000
67.74368 883.02207 862.00000
67.75392 884.24079 858.00000
67.76416 885.65534 812.00000
67.77440 887.29801 881.00000
67.78464 889.19737 841.00000
67.79489 891.36937 863.00000
67.80513 893.80447 854.00000
67.81537 896.45623 895.00000
67.82561 899.24375 918.00000
67.83585 902.08295 927.00000
67.84609 904.94085 913.00000
67.85633 907.88139 902.00000
67.86658 911.09578 952.00000
67.87682 914.91121 901.00000
67.88706 919.63604 896.00000
67.89730 925.51184 929.00000
67.90754 932.74102 907.00000
67.91778 941.41549 959.00000
67.92802 951.40520 959.00000
67.93827 962.20747 945.00000
67.94851 972.83925 1000.00000
67.95875 981.84703 1006.00000
67.96899 987.58720 1006.00000
67.97923 988.94810 1020.00000
67.98947 985.84712 1008.00000
67.99971 979.23253 987.00000
68.00996 970.60043 957.00000
68.02020 961.38661 933.00000
68.03044 952.61934 952.00000
68.04068 944.88375 1027.00000
68.05092 938.44773 903.00000
68.06116 933.41040 945.00000
68.07140 929.81632 911.00000
68.08165 927.64265 882.00000
68.09189 926.72549 935.00000
68.10213 927.08051 967.00000
68.11237 928.61141 881.00000
68.12261 931.11958 890.00000
68.13285 934.24785 901.00000
68.14310 937.43416 905.00000
68.15334 939.96141 904.00000
68.16358 941.13546 955.00000
68.17382 940.45854 925.00000
68.18406 937.90279 921.00000
68.19430 933.88191 861.00000
68.20454 929.06047 921.00000
68.21479 924.14391 879.00000
68.22503 919.63497 897.00000
68.23527 915.79153 886.00000
68.24551 912.73666 944.00000
68.25575 910.49984 852.00000
68.26599 909.06716 863.00000
68.27623 908.41657 889.00000
68.28648 908.53784 856.00000
68.29672 909.44208 873.00000
68.30696 911.16398 919.00000
68.31720 913.75675 885.00000
68.32744 917.27676 886.00000
68.33768 921.74965 883.00000
68.34792 927.11137 1000.00000
68.35817 933.11620 936.00000
68.36841 939.23814 886.00000
68.37865 944.65123 925.00000
68.38889 948.39657 921.00000
68.39913 949.72653 992.00000
68.40937 948.46368 973.00000
68.41961 945.08884 996.00000
68.42986 940.48992 922.00000
68.44010 935.59376 921.00000
68.45034 931.12307 969.00000
68.46058 927.53539 926.00000
68.47082 925.07173 950.00000
68.48106 923.83727 905.00000
68.49131 923.88848 907.00000
68.50155 925.30305 948.00000
68.51179 928.11024 967.00000
68.52203 932.35275 911.00000
68.53227 938.03760 955.00000
68.54251 945.05313 895.00000
68.55275 953.04625 978.00000
68.56300 961.30293 935.00000
68.57324 968.70739 980.00000
68.58348 973.90666 1004.00000
68.59372 975.73444 957.00000
68.60396 973.70096 1011.00000
68.61420 968.21244 968.00000
68.62444 960.35339 967.00000
68.63469 951.41535 948.00000
68.64493 942.49307 935.00000
68.65517 934.31091 907.00000
68.66541 927.24208 970.00000
68.67565 921.41221 919.00000
68.68589 916.80699 933.00000
68.69613 913.35075 853.00000
68.70638 910.95176 922.00000
68.71662 909.52044 892.00000
68.72686 908.96671 921.00000
68.73710 909.17978 868.00000
68.74734 909.99399 865.00000
68.75758 911.15082 894.00000
68.76782 912.28166 831.00000
68.77807 912.94547 886.00000
68.78831 912.73783 918.00000
68.79855 911.43252 882.00000
68.80879 909.06849 943.00000
68.81903 905.91823 878.00000
68.82927 902.36209 931.00000
68.83952 898.75418 899.00000
68.84976 895.34531 868.00000
68.86000 892.27107 870.00000
68.87024 889.57761 866.00000
68.88048 887.25617 869.00000
68.89072 885.27097 881.00000
68.90096 883.57703 883.00000
68.91121 882.12957 851.00000
68.92145 880.88833 855.00000
68.93169 879.81881 798.00000
68.94193 878.89228 854.00000
68.95217 878.08512 868.00000
68.96241 877.37803 869.00000
68.97265 876.75526 859.00000
68.98290 876.20393 818.00000
68.99314 875.71349 881.00000
69.00338 875.27526 831.00000
69.01362 874.88206 860.00000
69.02386 874.52788 866.00000
69.03410 874.20775 851.00000
69.04434 873.91744 846.00000
69.05459 873.65341 868.00000
69.06483 873.41262 837.00000
69.07507 873.19255 808.00000
69.08531 872.99107 847.00000
69.09555 872.80607 871.00000
69.10579 872.63593 845.00000
69.11603 872.47919 875.00000
69.12628 872.33462 822.00000
69.13652 872.20110 854.00000
69.14676 872.07766 859.00000
69.15700 871.96400 862.00000
69.16724 871.86049 888.00000
69.17748 871.76374 812.00000
69.18773 871.67319 878.00000
69.19797 871.58924 853.00000
69.20821 871.51149 871.00000
69.21845 871.43951 810.00000
69.22869 871.37293 813.00000
69.23893 871.31138 866.00000
69.24917 871.25457 852.00000
69.25942 871.20220 835.00000
69.26966 871.15399 904.00000
69.27990 871.10925 840.00000
69.29014 871.06608 852.00000
69.30038 871.02409 878.00000
69.31062 870.98963 886.00000
69.32086 870.95943 895.00000
69.33111 870.93238 913.00000
69.34135 870.90831 863.00000
69.35159 870.88710 842.00000
69.36183 870.86864 898.00000
69.37207 870.85286 807.00000
69.38231 870.83967 851.00000
69.39255 870.82900 905.00000
69.40280 870.82079 849.00000
69.41304 870.81498 863.00000
69.42328 870.81153 881.00000
69.43352 870.81043 849.00000
69.44376 870.81162 861.00000
69.45400 870.81509 857.00000
69.46424 870.82083 888.00000
69.47449 870.82885 864.00000
69.48473 870.83913 872.00000
69.49497 870.85169 850.00000
69.50521 870.86655 835.00000
69.51545 870.88372 811.00000
69.52569 870.90325 862.00000
69.53594 870.92518 828.00000
69.54618 870.94956 867.00000
69.55642 870.97644 892.00000
69.56666 871.00591 860.00000
69.57690 871.03802 900.00000
69.58714 871.07289 835.00000
69.59738 871.11059 866.00000
69.60763 871.15124 871.00000
69.61787 871.19494 864.00000
69.62811 871.24183 835.00000
69.63835 871.29202 802.00000
69.64859 871.34565 822.00000
69.65883 871.40284 865.00000
69.66907 871.46374 826.00000
69.67932 871.52847 856.00000
69.68956 871.59719 861.00000
69.69980 871.67001 827.00000
69.71004 871.74684 889.00000
69.72028 871.82776 884.00000
69.73052 871.91873 899.00000
69.74076 872.02729 903.00000
69.75101 872.11817 914.00000
69.76125 872.21954 893.00000
69.77149 872.32338 825.00000
69.78173 872.43912 847.00000
69.79197 872.56188 842.00000
69.80221 872.69188 856.00000
69.81245 872.83085 888.00000
69.82270 872.98022 877.00000
69.83294 873.14148 911.00000
69.84318 873.31954 857.00000
69.85342 873.54566 911.00000
69.86366 873.86900 882.00000
69.87390 874.21897 865.00000
69.88415 874.51391 834.00000
69.89439 874.79805 907.00000
69.90463 875.10997 821.00000
69.91487 875.45705 871.00000
69.92511 875.84420 873.00000
69.93535 876.27834 920.00000
69.94559 876.77193 840.00000
69.95584 877.33663 835.00000
69.96608 877.98299 865.00000
69.97632 878.72607 876.00000
69.98656 879.58418 903.00000
69.99680 880.57750 930.00000
70.00704 881.72527 910.00000
70.01728 883.03816 886.00000
70.02753 884.50534 941.00000
70.03777 886.09020 896.00000
70.04801 887.73283 856.00000
70.05825 889.30071 883.00000
70.06849 890.60337 913.00000
70.07873 891.47338 869.00000
70.08897 891.82370 892.00000
70.09922 891.68705 920.00000
70.10946 891.20271 891.00000
70.11970 890.55965 863.00000
70.12994 889.93587 902.00000
70.14018 889.46467 892.00000
70.15042 889.23040 926.00000
70.16066 889.28064 886.00000
70.17091 889.64214 868.00000
70.18115 890.33419 919.00000
70.19139 891.37772 865.00000
70.20163 892.79987 899.00000
70.21187 894.64130 887.00000
70.22211 896.94335 918.00000
70.23236 899.75236 862.00000
70.24260 903.11524 894.00000
70.25284 907.07976 931.00000
70.26308 911.67594 949.00000
70.27332 916.85920 919.00000
70.28356 922.61129 898.00000
70.29380 928.86637 926.00000
70.30405 935.40577 903.00000
70.31429 941.77779 905.00000
70.32453 947.24860 933.00000
70.33477 950.91263 926.00000
70.34501 952.00507 962.00000
70.35525 950.24534 947.00000
70.36549 945.99377 930.00000
70.37574 940.21687 871.00000
70.38598 933.87567 904.00000
70.39622 927.64476 888.00000
70.40646 921.98440 910.00000
70.41670 917.17765 912.00000
70.42694 913.31620 915.00000
70.43718 910.39446 885.00000
70.44743 908.36687 871.00000
70.45767 907.18093 924.00000
70.46791 906.78699 834.00000
70.47815 907.13448 903.00000
70.48839 908.15474 855.00000
70.49863 909.73216 921.00000
70.50887 911.66609 884.00000
70.51912 913.64221 896.00000
70.52936 915.24434 878.00000
70.53960 916.03530 908.00000
70.54984 915.69500 916.00000
70.56008 914.14368 931.00000
70.57032 911.56602 887.00000
70.58057 908.32072 888.00000
70.59081 904.80163 834.00000
70.60105 901.33031 904.00000
70.61129 898.11328 898.00000
70.62153 895.25075 841.00000
70.63177 892.76761 915.00000
70.64201 890.64560 853.00000
70.65226 888.84993 896.00000
70.66250 887.33667 938.00000
70.67274 886.05665 830.00000
70.68298 884.97223 932.00000
70.69322 884.05129 856.00000
70.70346 883.26706 869.00000
70.71370 882.59742 893.00000
70.72395 882.02424 917.00000
70.73419 881.53268 878.00000
70.74443 881.11049 851.00000
70.75467 880.74733 837.00000
70.76491 880.43367 790.00000
70.77515 880.16180 862.00000
70.78539 879.93000 822.00000
70.79564 879.73465 876.00000
70.80588 879.57067 877.00000
70.81612 879.43499 903.00000
70.82636 879.31967 883.00000
70.83660 879.22464 833.00000
70.84684 879.14753 844.00000
70.85709 879.08630 942.00000
70.86733 879.04326 820.00000
70.87757 879.01828 894.00000
70.88781 879.00312 902.00000
70.89805 878.99932 856.00000
70.90829 879.00667 874.00000
70.91853 879.02446 894.00000
70.92878 879.05204 917.00000
70.93902 879.08883 891.00000
70.94926 879.13442 867.00000
70.95950 879.18834 854.00000
70.96974 879.25013 908.00000
70.97998 879.31946 858.00000
70.99022 879.39606 847.00000
71.00047 879.47967 867.00000
71.01071 879.57009 871.00000
71.02095 879.66714 842.00000
71.03119 879.77067 905.00000
71.04143 879.88041 855.00000
71.05167 879.99577 899.00000
71.06191 880.11624 888.00000
71.07216 880.24327 871.00000
71.08240 880.37773 874.00000
71.09264 880.51839 847.00000
71.10288 880.66511 863.00000
71.11312 880.81790 889.00000
71.12336 880.97678 897.00000
71.13360 881.14180 860.00000
71.14385 881.31301 844.00000
71.15409 881.49047 915.00000
71.16433 881.67427 877.00000
71.17457 881.86449 844.00000
71.18481 882.06124 857.00000
71.19505 882.26454 841.00000
71.20530 882.47407 846.00000
71.21554 882.68912 889.00000
71.22578 882.91068 850.00000
71.23602 883.14190 853.00000
71.24626 883.38081 869.00000
71.25650 883.62734 847.00000
71.26674 883.88170 857.00000
71.27699 884.14411 833.00000
71.28723 884.41480 876.00000
71.29747 884.69403 852.00000
71.30771 884.98206 917.00000
71.31795 885.27919 889.00000
71.32819 885.58571 896.00000
71.33843 885.90194 829.00000
71.34868 886.22823 868.00000
71.35892 886.56494 839.00000
71.36916 886.91244 884.00000
71.37940 887.27114 868.00000
71.38964 887.64147 887.00000
71.39988 888.02386 867.00000
71.41012 888.41850 915.00000
71.42037 888.82488 897.00000
71.43061 889.24342 829.00000
71.44085 889.67843 864.00000
71.45109 890.12858 859.00000
71.46133 890.59405 875.00000
71.47157 891.07615 860.00000
71.48181 891.57512 847.00000
71.49206 892.09168 869.00000
71.50230 892.62663 888.00000
71.51254 893.18084 880.00000
71.52278 893.75524 938.00000
71.53302 894.35081 906.00000
71.54326 894.96859 897.00000
71.55351 895.60970 873.00000
71.56375 896.27533 898.00000
71.57399 896.96674 891.00000
71.58423 897.68530 864.00000
71.59447 898.43247 908.00000
71.60471 899.20979 893.00000
71.61495 900.01894 905.00000
71.62520 900.86156 900.00000
71.63544 901.73753 921.00000
71.64568 902.63921 926.00000
71.65592 903.55244 922.00000
71.66616 904.48969 834.00000
71.67640 905.52986 905.00000
71.68664 906.62059 918.00000
71.69689 907.75522 884.00000
71.70713 908.95018 883.00000
71.71737 910.20134 915.00000
71.72761 911.51146 893.00000
71.73785 912.88841 857.00000
71.74809 914.33640 835.00000
71.75833 915.85877 920.00000
71.76858 917.46053 928.00000
71.77882 919.14720 993.00000
71.78906 920.92475 916.00000
71.79930 922.79957 894.00000
71.80954 924.77868 932.00000
71.81978 926.86960 944.00000
71.83002 929.07963 914.00000
71.84027 931.41653 865.00000
71.85051 933.88908 985.00000
71.86075 936.50642 889.00000
71.87099 939.27795 969.00000
71.88123 942.21267 930.00000
71.89147 945.31921 892.00000
71.90172 948.60679 899.00000
71.91196 952.08455 971.00000
71.92220 955.76110 967.00000
71.93244 959.64449 914.00000
71.94268 963.73920 946.00000
71.95292 968.04551 979.00000
71.96316 972.57588 942.00000
71.97341 977.37782 944.00000
71.98365 982.44760 984.00000
71.99389 987.79636 1022.00000
72.00413 993.45684 996.00000
72.01437 999.45808 934.00000
72.02461 1005.83934 1004.00000
72.03485 1012.64718 1005.00000
72.04510 1019.93573 1015.00000
72.05534 1027.76696 1056.00000
72.06558 1036.21051 1023.00000
72.07582 1045.34581 994.00000
72.08606 1055.26554 1054.00000
72.09630 1066.07863 1055.00000
72.10654 1077.91567 1039.00000
72.11679 1090.93583 1034.00000
72.12703 1105.33498 1080.00000
72.13727 1121.35515 1113.00000
72.14751 1139.29506 1141.00000
72.15775 1159.52236 1126.00000
72.16799 1182.48752 1162.00000
72.17823 1208.74021 1186.00000
72.18848 1238.94814 1255.00000
72.19872 1273.91775 1230.00000
72.20896 1314.61393 1338.00000
72.21920 1362.17133 1285.00000
72.22944 1417.88215 1410.00000
72.23968 1483.13060 1481.00000
72.24993 1559.22339 1746.00000
72.26017 1647.04161 1779.00000
72.27041 1746.43351 1941.00000
72.28065 1855.34032 2184.00000
72.29089 1968.89019 2348.00000
72.30113 2079.10325 2432.00000
72.31137 2176.13526 2654.00000
72.32162 2251.44466 2695.00000
72.33186 2301.67598 2767.00000
72.34210 2330.77944 2813.00000
72.35234 2348.82721 2708.00000
72.36258 2368.51604 2667.00000
72.37282 2401.64380 2565.00000
72.38306 2456.90290 2577.00000
72.39331 2538.78839 2449.00000
72.40355 2646.77568 2664.00000
72.41379 2774.24262 2689.00000
72.42403 2907.52623 2816.00000
72.43427 3026.64783 2842.00000
72.44451 3109.43640 3079.00000
72.45475 3138.95416 3054.00000
72.46500 3110.53181 3036.00000
72.47524 3033.33518 2981.00000
72.48548 2925.17667 2891.00000
72.49572 2804.55781 2825.00000
72.50596 2684.84776 2598.00000
72.51620 2572.52787 2622.00000
72.52644 2468.72935 2450.00000
72.53669 2372.31081 2243.00000
72.54693 2282.68789 2312.00000
72.55717 2201.18602 2157.00000
72.56741 2130.75873 2091.00000
72.57765 2074.82941 2026.00000
72.58789 2036.13680 2001.00000
72.59814 2015.97162 1878.00000
72.60838 2013.69458 1967.00000
72.61862 2026.28573 1995.00000
72.62886 2047.90233 1958.00000
72.63910 2069.83778 1937.00000
72.64934 2081.59766 1987.00000
72.65958 2073.44077 1986.00000
72.66983 2039.60015 1913.00000
72.68007 1980.32548 1833.00000
72.69031 1901.35231 1753.00000
72.70055 1811.26265 1599.00000
72.71079 1718.50359 1563.00000
72.72103 1629.49160 1403.00000
72.73127 1548.09721 1438.00000
72.74152 1476.03753 1334.00000
72.75176 1413.57866 1235.00000
72.76200 1360.17984 1250.00000
72.77224 1314.95166 1230.00000
72.78248 1276.92741 1202.00000
72.79272 1245.20447 1118.00000
72.80296 1219.00373 1175.00000
72.81321 1197.68105 1157.00000
72.82345 1180.70911 1186.00000
72.83369 1167.63695 1162.00000
72.84393 1158.02683 1163.00000
72.85417 1151.36430 1075.00000
72.86441 1146.99405 1113.00000
72.87465 1144.08342 1093.00000
72.88490 1141.71220 1121.00000
72.89514 1139.08690 1101.00000
72.90538 1135.75795 1123.00000
72.91562 1131.64351 1126.00000
72.92586 1126.82121 1113.00000
72.93610 1121.23857 1083.00000
72.94635 1114.57933 1113.00000
72.95659 1106.40783 1103.00000
72.96683 1096.48492 1112.00000
72.97707 1085.00876 1100.00000
72.98731 1072.60312 1058.00000
72.99755 1060.09347 1059.00000
73.00779 1048.25081 1077.00000
73.01804 1037.63920 995.00000
73.02828 1028.58661 992.00000
73.03852 1021.22192 990.00000
73.04876 1015.52555 1011.00000
73.05900 1011.36316 989.00000
73.06924 1008.49939 987.00000
73.07948 1006.60580 989.00000
73.08973 1005.27848 1012.00000
73.09997 1004.10525 1029.00000
73.11021 1002.75775 993.00000
73.12045 1001.05458 993.00000
73.13069 998.94529 1019.00000
73.14093 996.41800 1012.00000
73.15117 993.39995 988.00000
73.16142 989.73225 1008.00000
73.17166 985.24499 1003.00000
73.18190 979.87878 974.00000
73.19214 973.76002 944.00000
73.20238 967.17691 983.00000
73.21262 960.48238 952.00000
73.22286 953.99203 936.00000
73.23311 947.92568 948.00000
73.24335 942.39867 902.00000
73.25359 937.44307 908.00000
73.26383 933.03660 856.00000
73.27407 929.12988 948.00000
73.28431 925.66950 875.00000
73.29456 922.59412 912.00000
73.30480 919.84888 899.00000
73.31504 917.38625 919.00000
73.32528 915.16562 937.00000
73.33552 913.15276 892.00000
73.34576 911.31898 904.00000
73.35600 909.64034 867.00000
73.36625 908.09680 928.00000
73.37649 906.67158 898.00000
73.38673 905.35076 887.00000
73.39697 904.12333 916.00000
73.40721 902.97881 889.00000
73.41745 901.90562 907.00000
73.42769 900.89823 913.00000
73.43794 899.95038 915.00000
73.44818 899.05652 934.00000
73.45842 898.21180 902.00000
73.46866 897.41209 895.00000
73.47890 896.65358 857.00000
73.48914 895.93287 919.00000
73.49938 895.24706 885.00000
73.50963 894.59352 879.00000
73.51987 893.96993 883.00000
73.53011 893.37421 911.00000
73.54035 892.80445 890.00000
73.55059 892.25897 916.00000
73.56083 891.73621 906.00000
73.57107 891.23476 900.00000
73.58132 890.75336 905.00000
73.59156 890.29082 871.00000
73.60180 889.84607 895.00000
73.61204 889.41814 936.00000
73.62228 889.00610 889.00000
73.63252 888.60913 929.00000
73.64277 888.22646 963.00000
73.65301 887.85735 908.00000
73.66325 887.50116 885.00000
73.67349 887.15726 916.00000
73.68373 886.82509 868.00000
73.69397 886.50410 851.00000
73.70421 886.19379 886.00000
73.71446 885.89371 896.00000
73.72470 885.60340 864.00000
73.73494 885.32093 855.00000
73.74518 885.03320 894.00000
73.75542 884.72937 864.00000
73.76566 884.45582 885.00000
73.77590 884.20831 840.00000
73.78615 883.96994 900.00000
73.79639 883.73898 873.00000
73.80663 883.51518 870.00000
73.81687 883.29829 841.00000
73.82711 883.08810 929.00000
73.83735 882.88438 879.00000
73.84759 882.68694 871.00000
73.85784 882.49555 867.00000
73.86808 882.30664 790.00000
73.87832 882.09239 861.00000
73.88856 881.83491 873.00000
73.89880 881.64099 873.00000
73.90904 881.48114 896.00000
73.91928 881.32609 865.00000
73.92953 881.17514 842.00000
73.93977 881.02915 919.00000
73.95001 880.88810 825.00000
73.96025 880.75193 888.00000
73.97049 880.62066 849.00000
73.98073 880.49452 905.00000
73.99098 880.37338 822.00000
74.00122 880.25624 843.00000
74.01146 880.14369 890.00000
74.02170 880.03577 840.00000
74.03194 879.93247 923.00000
74.04218 879.83379 879.00000
74.05242 879.73970 892.00000
74.06267 879.65021 878.00000
74.07291 879.56531 854.00000
74.08315 879.48498 884.00000
74.09339 879.40922 890.00000
74.10363 879.33800 896.00000
74.11387 879.27132 851.00000
74.12411 879.20915 876.00000
74.13436 879.15149 866.00000
74.14460 879.09836 903.00000
74.15484 879.04983 872.00000
74.16508 879.00600 860.00000
74.17532 878.96700 853.00000
74.18556 878.93310 832.00000
74.19580 878.90459 866.00000
74.20605 878.88190 865.00000
74.21629 878.86555 846.00000
74.22653 878.85620 889.00000
74.23677 878.85461 897.00000
74.24701 878.86159 880.00000
74.25725 878.87840 877.00000
74.26749 878.90688 890.00000
74.27774 878.94819 899.00000
74.28798 879.00422 827.00000
74.29822 879.07709 877.00000
74.30846 879.16931 867.00000
74.31870 879.28378 903.00000
74.32894 879.42343 866.00000
74.33919 879.59150 868.00000
74.34943 879.79473 896.00000
74.35967 880.04142 891.00000
74.36991 880.33689 922.00000
74.38015 880.68941 906.00000
74.39039 881.10791 837.00000
74.40063 881.60285 880.00000
74.41088 882.19289 837.00000
74.42112 882.90007 847.00000
74.43136 883.73381 860.00000
74.44160 884.70225 859.00000
74.45184 885.80332 901.00000
74.46208 887.01873 871.00000
74.47232 888.29943 891.00000
74.48257 889.56436 861.00000
74.49281 890.71983 914.00000
74.50305 891.68227 840.00000
74.51329 892.40556 892.00000
74.52353 892.89076 882.00000
74.53377 893.16736 820.00000
74.54401 893.25951 876.00000
74.55426 893.16402 886.00000
74.56450 892.85744 843.00000
74.57474 892.32665 924.00000
74.58498 891.59706 875.00000
74.59522 890.73624 923.00000
74.60546 889.83952 854.00000
74.61571 889.00395 868.00000
74.62595 888.30594 923.00000
74.63619 887.79708 867.00000
74.64643 887.50708 921.00000
74.65667 887.44913 827.00000
74.66691 887.62380 831.00000
74.67715 888.02021 837.00000
74.68740 888.61408 908.00000
74.69764 889.35991 897.00000
74.70788 890.19608 840.00000
74.71812 891.05769 881.00000
74.72836 891.89741 912.00000
74.73860 892.59175 935.00000
74.74884 892.96728 802.00000
74.75909 893.01555 903.00000
74.76933 892.70243 864.00000
74.77957 892.03444 894.00000
74.78981 891.06528 908.00000
74.80005 889.88199 911.00000
74.81029 888.58482 880.00000
74.82053 887.26850 840.00000
74.83078 886.00985 938.00000
74.84102 884.86271 812.00000
74.85126 883.85343 880.00000
74.86150 882.99197 928.00000
74.87174 882.27820 826.00000
74.88198 881.71986 882.00000
74.89222 881.33361 902.00000
74.90247 881.02541 860.00000
74.91271 880.81765 879.00000
74.92295 880.70479 940.00000
74.93319 880.66827 854.00000
74.94343 880.67928 885.00000
74.95367 880.68749 888.00000
74.96392 880.63777 872.00000
74.97416 880.53892 883.00000
74.98440 880.35819 912.00000
74.99464 880.07056 877.00000
75.00488 879.69083 843.00000
75.01512 879.25032 842.00000
75.02536 878.78448 946.00000
75.03561 878.32363 884.00000
75.04585 877.88873 842.00000
75.05609 877.49125 881.00000
75.06633 877.13525 837.00000
75.07657 876.81763 796.00000
75.08681 876.51479 856.00000
75.09705 876.19775 789.00000
75.10730 875.92864 886.00000
75.11754 875.73653 884.00000
75.12778 875.57032 850.00000
75.13802 875.42325 852.00000
75.14826 875.29232 864.00000
75.15850 875.17593 781.00000
75.16874 875.07075 914.00000
75.17899 874.97446 904.00000
75.18923 874.88678 862.00000
75.19947 874.80669 943.00000
75.20971 874.73328 929.00000
75.21995 874.66576 867.00000
75.23019 874.60348 889.00000
75.24043 874.54584 883.00000
75.25068 874.49238 847.00000
75.26092 874.44267 781.00000
75.27116 874.39643 895.00000
75.28140 874.35347 868.00000
75.29164 874.31314 846.00000
75.30188 874.27525 863.00000
75.31213 874.23969 850.00000
75.32237 874.20627 871.00000
75.33261 874.17327 841.00000
75.34285 874.12765 852.00000
75.35309 874.05858 863.00000
75.36333 874.01325 861.00000
75.37357 873.98760 891.00000
75.38382 873.96482 854.00000
75.39406 873.94334 854.00000
75.40430 873.92311 904.00000
75.41454 873.90404 876.00000
75.42478 873.88608 873.00000
75.43502 873.86918 916.00000
75.44526 873.85329 855.00000
75.45551 873.83833 831.00000
75.46575 873.82245 865.00000
75.47599 873.78891 877.00000
75.48623 873.71081 846.00000
75.49647 873.63601 898.00000
75.50671 873.62104 859.00000
75.51695 873.61221 908.00000
75.52720 873.60410 903.00000
75.53744 873.59666 875.00000
75.54768 873.58954 831.00000
75.55792 873.58153 899.00000
75.56816 873.57292 832.00000
75.57840 873.56791 918.00000
75.58864 873.56382 906.00000
75.59889 873.56034 831.00000
75.60913 873.55735 865.00000
75.61937 873.55384 881.00000
75.62961 873.54883 831.00000
75.63985 873.54562 852.00000
75.65009 873.54499 821.00000
75.66034 873.54512 849.00000
75.67058 873.54583 886.00000
75.68082 873.54712 897.00000
75.69106 873.54899 888.00000
75.70130 873.55144 863.00000
75.71154 873.55447 877.00000
75.72178 873.55809 897.00000
75.73203 873.56231 895.00000
75.74227 873.56713 895.00000
75.75251 873.57256 875.00000
75.76275 873.57860 813.00000
75.77299 873.58527 855.00000
75.78323 873.59258 874.00000
75.79347 873.60054 860.00000
75.80372 873.60916 875.00000
75.81396 873.61846 837.00000
75.82420 873.62846 871.00000
75.83444 873.63917 853.00000
75.84468 873.65062 860.00000
75.85492 873.66282 884.00000
75.86516 873.67581 854.00000
75.87541 873.68960 935.00000
75.88565 873.70423 845.00000
75.89589 873.71973 905.00000
75.90613 873.73612 950.00000
75.91637 873.75345 841.00000
75.92661 873.77175 873.00000
75.93685 873.79094 888.00000
75.94710 873.81002 854.00000
75.95734 873.82834 871.00000
75.96758 873.84983 896.00000
75.97782 873.87386 854.00000
75.98806 873.89976 873.00000
75.99830 873.92687 804.00000
76.00855 873.95478 894.00000
76.01879 873.98202 885.00000
76.02903 874.00917 923.00000
76.03927 874.04160 849.00000
76.04951 874.07598 829.00000
76.05975 874.11188 892.00000
76.06999 874.15020 845.00000
76.08024 874.19073 921.00000
76.09048 874.23350 889.00000
76.10072 874.27866 899.00000
76.11096 874.32634 858.00000
76.12120 874.37672 819.00000
76.13144 874.42997 885.00000
76.14168 874.48626 910.00000
76.15193 874.54578 848.00000
76.16217 874.60873 913.00000
76.17241 874.67532 833.00000
76.18265 874.74574 856.00000
76.19289 874.82021 895.00000
76.20313 874.89893 841.00000
76.21337 874.98208 889.00000
76.22362 875.06985 890.00000
76.23386 875.16237 846.00000
76.24410 875.25968 877.00000
76.25434 875.36169 837.00000
76.26458 875.46903 859.00000
76.27482 875.58163 877.00000
76.28506 875.69938 872.00000
76.29531 875.82231 884.00000
76.30555 875.95048 837.00000
76.31579 876.08406 885.00000
76.32603 876.22334 901.00000
76.33627 876.36880 844.00000
76.34651 876.52114 873.00000
76.35676 876.68138 936.00000
76.36700 876.85085 863.00000
76.37724 877.03124 852.00000
76.38748 877.22460 838.00000
76.39772 877.43338 863.00000
76.40796 877.66039 903.00000
76.41820 877.90886 891.00000
76.42845 878.18244 866.00000
76.43869 878.48530 870.00000
76.44893 878.82240 855.00000
76.45917 879.20011 838.00000
76.46941 879.62423 811.00000
76.47965 880.09934 901.00000
76.48989 880.63591 844.00000
76.50014 881.24434 848.00000
76.51038 881.93687 889.00000
76.52062 882.72820 888.00000
76.53086 883.63606 918.00000
76.54110 884.68184 877.00000
76.55134 885.89139 888.00000
76.56158 887.29579 887.00000
76.57183 888.93217 874.00000
76.58207 890.84407 923.00000
76.59231 893.08045 907.00000
76.60255 895.69470 890.00000
76.61279 898.73489 873.00000
76.62303 902.23788 854.00000
76.63327 906.20705 914.00000
76.64352 910.57957 918.00000
76.65376 915.18737 927.00000
76.66400 919.72286 960.00000
76.67424 923.73917 947.00000
76.68448 926.71909 926.00000
76.69472 928.21824 893.00000
76.70497 928.02617 935.00000
76.71521 926.24859 971.00000
76.72545 923.25648 940.00000
76.73569 919.54307 916.00000
76.74593 915.57947 937.00000
76.75617 911.72999 922.00000
76.76641 908.23190 860.00000
76.77666 905.21226 916.00000
76.78690 902.72152 920.00000
76.79714 900.76482 863.00000
76.80738 899.32480 899.00000
76.81762 898.37648 842.00000
76.82786 897.89481 859.00000
76.83810 897.85667 844.00000
76.84835 898.23715 911.00000
76.85859 899.00112 893.00000
76.86883 900.08976 901.00000
76.87907 901.40371 880.00000
76.88931 902.78888 872.00000
76.89955 904.03601 906.00000
76.90979 904.90675 913.00000
76.92004 905.18887 878.00000
76.93028 904.76164 919.00000
76.94052 903.63331 848.00000
76.95076 901.93017 923.00000
76.96100 899.85497 925.00000
76.97124 897.61762 888.00000
76.98148 895.39177 897.00000
76.99173 893.29614 886.00000
77.00197 891.39657 913.00000
77.01221 889.71851 897.00000
77.02245 888.26130 898.00000
77.03269 887.00994 848.00000
77.04293 885.94312 879.00000
77.05318 885.03804 914.00000
77.06342 884.27207 893.00000
77.07366 883.62530 859.00000
77.08390 883.08461 825.00000
77.09414 882.62203 891.00000
77.10438 882.21431 927.00000
77.11462 881.90120 872.00000
77.12487 881.67170 884.00000
77.13511 881.50407 900.00000
77.14535 881.39335 899.00000
77.15559 881.33741 938.00000
77.16583 881.33532 840.00000
77.17607 881.38769 876.00000
77.18631 881.49613 830.00000
77.19656 881.66411 942.00000
77.20680 881.89351 940.00000
77.21704 882.19083 836.00000
77.22728 882.55906 866.00000
77.23752 882.97204 852.00000
77.24776 883.42719 903.00000
77.25800 884.08278 879.00000
77.26825 884.87770 885.00000
77.27849 885.82346 867.00000
77.28873 886.94584 902.00000
77.29897 888.27528 843.00000
77.30921 889.84623 905.00000
77.31945 891.69543 872.00000
77.32969 893.85850 901.00000
77.33994 896.36113 888.00000
77.35018 899.20463 873.00000
77.36042 902.34510 869.00000
77.37066 905.66621 857.00000
77.38090 908.95615 895.00000
77.39114 911.90804 931.00000
77.40139 914.16629 909.00000
77.41163 915.42242 927.00000
77.42187 915.52411 919.00000
77.43211 914.53414 912.00000
77.44235 912.70181 937.00000
77.45259 910.36965 938.00000
77.46283 907.87347 901.00000
77.47308 905.47800 894.00000
77.48332 903.35497 939.00000
77.49356 901.58896 904.00000
77.50380 900.19477 859.00000
77.51404 899.13758 861.00000
77.52428 898.35443 886.00000
77.53452 897.77852 918.00000
77.54477 897.35954 871.00000
77.55501 897.07927 887.00000
77.56525 896.94991 888.00000
77.57549 896.99756 842.00000
77.58573 897.23833 951.00000
77.59597 897.65575 922.00000
77.60621 898.18548 861.00000
77.61646 898.71206 943.00000
77.62670 899.08323 867.00000
77.63694 899.14427 892.00000
77.64718 898.78347 833.00000
77.65742 897.96936 934.00000
77.66766 896.75949 913.00000
77.67790 895.27490 964.00000
77.68815 893.66021 946.00000
77.69839 892.04626 847.00000
77.70863 890.52818 888.00000
77.71887 889.15853 900.00000
77.72911 887.95362 904.00000
77.73935 886.90808 868.00000
77.74960 885.98859 854.00000
77.75984 885.15596 855.00000
77.77008 884.37359 839.00000
77.78032 883.61567 866.00000
77.79056 882.87077 896.00000
77.80080 882.14275 910.00000
77.81104 881.44812 860.00000
77.82129 880.79615 860.00000
77.83153 880.19608 868.00000
77.84177 879.65225 905.00000
77.85201 879.16497 887.00000
77.86225 878.73546 909.00000
77.87249 878.38564 859.00000
77.88273 878.15486 864.00000
77.89298 877.86174 878.00000
77.90322 877.59315 828.00000
77.91346 877.35385 895.00000
77.92370 877.13985 854.00000
77.93394 876.94796 853.00000
77.94418 876.77581 900.00000
77.95442 876.62066 854.00000
77.96467 876.48042 898.00000
77.97491 876.35341 874.00000
77.98515 876.23804 829.00000
77.99539 876.13300 857.00000
78.00563 876.03720 860.00000
78.01587 875.94967 901.00000
78.02611 875.87020 966.00000
78.03636 875.80642 863.00000
78.04660 875.77909 879.00000
78.05684 875.74366 871.00000
78.06708 875.68933 868.00000
78.07732 875.63759 877.00000
78.08756 875.59012 891.00000
78.09781 875.54658 867.00000
78.10805 875.50668 846.00000
78.11829 875.47015 899.00000
78.12853 875.43677 854.00000
78.13877 875.40632 896.00000
78.14901 875.37862 846.00000
78.15925 875.35352 874.00000
78.16950 875.33085 893.00000
78.17974 875.31051 876.00000
78.18998 875.29236 837.00000
78.20022 875.27632 878.00000
78.21046 875.26228 843.00000
78.22070 875.25012 860.00000
78.23094 875.23902 916.00000
78.24119 875.22790 867.00000
78.25143 875.22040 893.00000
78.26167 875.21570 840.00000
78.27191 875.21297 918.00000
78.28215 875.21145 852.00000
78.29239 875.21155 890.00000
78.30263 875.21331 838.00000
78.31288 875.21670 915.00000
78.32312 875.22173 916.00000
78.33336 875.22839 867.00000
78.34360 875.23671 889.00000
78.35384 875.24669 864.00000
78.36408 875.25836 888.00000
78.37433 875.27174 901.00000
78.38457 875.28685 859.00000
78.39481 875.30371 836.00000
78.40505 875.32234 855.00000
78.41529 875.34275 822.00000
78.42553 875.36496 838.00000
78.43577 875.38898 898.00000
78.44602 875.41480 913.00000
78.45626 875.44253 894.00000
78.46650 875.47337 909.00000
78.47674 875.50724 879.00000
78.48698 875.54037 902.00000
78.49722 875.57510 911.00000
78.50746 875.61166 865.00000
78.51771 875.65012 899.00000
78.52795 875.69061 880.00000
78.53819 875.73334 866.00000
78.54843 875.77885 843.00000
78.55867 875.82875 872.00000
78.56891 875.88394 882.00000
78.57915 875.94171 890.00000
78.58940 876.00193 843.00000
78.59964 876.06729 916.00000
78.60988 876.13880 880.00000
78.62012 876.21743 846.00000
78.63036 876.30426 841.00000
78.64060 876.40053 834.00000
78.65084 876.50763 844.00000
78.66109 876.62719 885.00000
78.67133 876.76109 857.00000
78.68157 876.91151 857.00000
78.69181 877.08105 857.00000
78.70205 877.27276 826.00000
78.71229 877.49029 942.00000
78.72254 877.73801 828.00000
78.73278 878.02112 907.00000
78.74302 878.34589 936.00000
78.75326 878.71978 890.00000
78.76350 879.15167 918.00000
78.77374 879.65198 930.00000
78.78398 880.23267 882.00000
78.79423 880.90705 898.00000
78.80447 881.68900 915.00000
78.81471 882.59137 940.00000
78.82495 883.62464 906.00000
78.83519 884.78867 927.00000
78.84543 886.05826 956.00000
78.85567 887.38259 827.00000
78.86592 888.67407 896.00000
78.87616 889.81060 955.00000
78.88640 890.65526 951.00000
78.89664 891.09278 998.00000
78.90688 891.06814 906.00000
78.91712 890.60556 924.00000
78.92736 889.79696 848.00000
78.93761 888.76893 870.00000
78.94785 887.64759 945.00000
78.95809 886.53545 909.00000
78.96833 885.50281 889.00000
78.97857 884.59056 858.00000
78.98881 883.82060 939.00000
78.99905 883.19775 871.00000
79.00930 882.71875 838.00000
79.01954 882.37753 862.00000
79.02978 882.16735 858.00000
79.04002 882.08181 919.00000
79.05026 882.11477 825.00000
79.06050 882.25912 926.00000
79.07075 882.50435 873.00000
79.08099 882.83301 800.00000
79.09123 883.21661 851.00000
79.10147 883.60840 944.00000
79.11171 883.94831 871.00000
79.12195 884.17302 888.00000
79.13219 884.22829 898.00000
79.14244 884.08567 928.00000
79.15268 883.75047 888.00000
79.16292 883.25824 925.00000
79.17316 882.66248 885.00000
79.18340 882.01767 900.00000
79.19364 881.36789 892.00000
79.20388 880.74807 930.00000
79.21413 880.17802 899.00000
79.22437 879.66655 921.00000
79.23461 879.21504 868.00000
79.24485 878.82048 854.00000
79.25509 878.47762 893.00000
79.26533 878.17890 859.00000
79.27557 877.90532 858.00000
79.28582 877.64154 904.00000
79.29606 877.43084 886.00000
79.30630 877.26192 846.00000
79.31654 877.11047 853.00000
79.32678 876.98194 890.00000
79.33702 876.86923 861.00000
79.34726 876.77018 914.00000
79.35751 876.68313 897.00000
79.36775 876.60647 836.00000
79.37799 876.53868 865.00000
79.38823 876.47865 875.00000
79.39847 876.42542 866.00000
79.40871 876.37595 884.00000
79.41896 876.30980 849.00000
79.42920 876.20260 900.00000
79.43944 876.11858 872.00000
79.44968 876.08854 893.00000
79.45992 876.05456 881.00000
79.47016 876.03233 870.00000
79.48040 876.01261 838.00000
79.49065 875.99591 837.00000
79.50089 875.98156 924.00000
79.51113 875.96933 905.00000
79.52137 875.95903 901.00000
79.53161 875.95043 869.00000
79.54185 875.94263 878.00000
79.55209 875.93434 824.00000
79.56234 875.92900 851.00000
79.57258 875.92606 893.00000
79.58282 875.92455 900.00000
79.59306 875.92418 880.00000
79.60330 875.92484 823.00000
79.61354 875.92647 821.00000
79.62378 875.92903 870.00000
79.63403 875.93246 894.00000
79.64427 875.93669 812.00000
79.65451 875.94167 847.00000
79.66475 875.94737 853.00000
79.67499 875.95374 885.00000
79.68523 875.96076 849.00000
79.69547 875.96838 910.00000
79.70572 875.97659 869.00000
79.71596 875.98535 881.00000
79.72620 875.99464 835.00000
79.73644 876.00443 902.00000
79.74668 876.01471 891.00000
79.75692 876.02539 839.00000
79.76717 876.03627 851.00000
79.77741 876.04759 847.00000
79.78765 876.05962 874.00000
79.79789 876.07208 884.00000
79.80813 876.08494 855.00000
79.81837 876.09817 902.00000
79.82861 876.11177 840.00000
79.83886 876.12574 873.00000
79.84910 876.14006 867.00000
79.85934 876.15508 852.00000
79.86958 876.17213 883.00000
79.87982 876.18838 889.00000
79.89006 876.20409 849.00000
79.90030 876.22006 893.00000
79.91055 876.23621 939.00000
79.92079 876.25152 895.00000
79.93103 876.26532 867.00000
79.94127 876.28141 893.00000
79.95151 876.29880 894.00000
79.96175 876.31535 908.00000
79.97199 876.33065 915.00000
79.98224 876.34800 888.00000
79.99248 876.36521 880.00000
80.00272 876.38065 839.00000
80.01296 876.39904 899.00000
80.02320 876.43195 874.00000
80.03344 876.52396 820.00000
80.04368 876.68583 878.00000
80.05393 876.83254 833.00000
80.06417 876.87608 844.00000
80.07441 876.89998 900.00000
80.08465 876.92335 854.00000
80.09489 876.94715 836.00000
80.10513 876.97108 855.00000
80.11538 876.99529 889.00000
80.12562 877.01980 854.00000
80.13586 877.04463 912.00000
80.14610 877.07189 918.00000
80.15634 877.11666 846.00000
80.16658 877.14828 861.00000
80.17682 877.17470 916.00000
80.18707 877.20136 885.00000
80.19731 877.23270 963.00000
80.20755 877.28764 894.00000
80.21779 877.38441 868.00000
80.22803 877.46731 866.00000
80.23827 877.50045 914.00000
80.24851 877.52976 880.00000
80.25876 877.55941 853.00000
80.26900 877.58940 842.00000
80.27924 877.61974 874.00000
80.28948 877.65031 891.00000
80.29972 877.68047 873.00000
80.30996 877.70974 885.00000
80.32020 877.74137 874.00000
80.33045 877.77355 924.00000
80.34069 877.80612 930.00000
80.35093 877.84143 843.00000
80.36117 877.89559 913.00000
80.37141 877.93271 874.00000
80.38165 877.96706 874.00000
80.39189 878.00180 908.00000
80.40214 878.03686 871.00000
80.41238 878.07230 844.00000
80.42262 878.10815 935.00000
80.43286 878.14431 913.00000
80.44310 878.18077 870.00000
80.45334 878.21797 884.00000
80.46359 878.25566 901.00000
80.47383 878.29382 911.00000
80.48407 878.33247 907.00000
80.49431 878.37182 878.00000
80.50455 878.41385 887.00000
80.51479 878.45516 949.00000
80.52503 878.49595 863.00000
80.53528 878.53722 893.00000
80.54552 878.57904 838.00000
80.55576 878.62143 856.00000
80.56600 878.66440 929.00000
80.57624 878.70797 878.00000
80.58648 878.75214 935.00000
80.59672 878.79694 844.00000
80.60697 878.84238 900.00000
80.61721 878.88847 920.00000
80.62745 878.93524 841.00000
80.63769 878.98271 868.00000
80.64793 879.03229 912.00000
80.65817 879.10285 888.00000
80.66841 879.24084 888.00000
80.67866 879.33625 919.00000
80.68890 879.39233 816.00000
80.69914 879.44597 860.00000
80.70938 879.50045 872.00000
80.71962 879.55540 872.00000
80.72986 879.61014 899.00000
80.74010 879.66628 853.00000
80.75035 879.72450 863.00000
80.76059 879.78385 906.00000
80.77083 879.84425 840.00000
80.78107 879.90575 878.00000
80.79131 879.96840 912.00000
80.80155 880.03223 907.00000
80.81180 880.09728 900.00000
80.82204 880.16400 948.00000
80.83228 880.23778 879.00000
80.84252 880.33595 891.00000
80.85276 880.44549 926.00000
80.86300 880.52111 844.00000
80.87324 880.59523 909.00000
80.88349 880.67116 819.00000
80.89373 880.74882 862.00000
80.90397 880.82828 919.00000
80.91421 880.90961 854.00000
80.92445 880.99291 882.00000
80.93469 881.07828 870.00000
80.94493 881.16581 905.00000
80.95518 881.25561 885.00000
80.96542 881.34778 856.00000
80.97566 881.44246 874.00000
80.98590 881.53976 900.00000
80.99614 881.63980 917.00000
81.00638 881.74274 931.00000
81.01662 881.84871 859.00000
81.02687 881.95785 853.00000
81.03711 882.07033 878.00000
81.04735 882.18628 875.00000
81.05759 882.30587 879.00000
81.06783 882.42923 845.00000
81.07807 882.55652 901.00000
81.08831 882.68787 874.00000
81.09856 882.82341 885.00000
81.10880 882.96323 903.00000
81.11904 883.10743 934.00000
81.12928 883.25608 884.00000
81.13952 883.40924 855.00000
81.14976 883.56693 948.00000
81.16001 883.72921 865.00000
81.17025 883.89610 878.00000
81.18049 884.06769 915.00000
81.19073 884.24410 868.00000
81.20097 884.42552 880.00000
81.21121 884.61227 937.00000
81.22145 884.80481 878.00000
81.23170 885.00377 825.00000
81.24194 885.20999 889.00000
81.25218 885.42448 961.00000
81.26242 885.64853 878.00000
81.27266 885.88362 930.00000
81.28290 886.13149 956.00000
81.29314 886.39410 860.00000
81.30339 886.67367 895.00000
81.31363 886.97274 876.00000
81.32387 887.29406 887.00000
81.33411 887.64076 922.00000
81.34435 888.01641 880.00000
81.35459 888.42505 880.00000
81.36483 888.87132 885.00000
81.37508 889.36062 845.00000
81.38532 889.89921 911.00000
81.39556 890.49444 899.00000
81.40580 891.15497 912.00000
81.41604 891.89107 842.00000
81.42628 892.71491 896.00000
81.43652 893.64098 919.00000
81.44677 894.68648 871.00000
81.45701 895.87180 915.00000
81.46725 897.22090 907.00000
81.47749 898.76166 870.00000
81.48773 900.52574 901.00000
81.49797 902.54788 962.00000
81.50822 904.86376 891.00000
81.51846 907.50567 910.00000
81.52870 910.49452 891.00000
81.53894 913.82676 918.00000
81.54918 917.45548 899.00000
81.55942 921.26723 898.00000
81.56966 925.06181 901.00000
81.57991 928.54900 907.00000
81.59015 931.37998 911.00000
81.60039 933.22103 944.00000
81.61063 933.85065 897.00000
81.62087 933.23432 912.00000
81.63111 931.53383 916.00000
81.64135 929.04741 941.00000
81.65160 926.11852 935.00000
81.66184 923.05685 957.00000
81.67208 920.10051 915.00000
81.68232 917.40651 986.00000
81.69256 915.06325 931.00000
81.70280 913.10948 908.00000
81.71304 911.55283 847.00000
81.72329 910.38412 926.00000
81.73353 909.58710 899.00000
81.74377 909.14427 896.00000
81.75401 909.03972 906.00000
81.76425 909.25822 936.00000
81.77449 909.78189 935.00000
81.78473 910.58561 883.00000
81.79498 911.62821 898.00000
81.80522 912.84298 919.00000
81.81546 914.12916 946.00000
81.82570 915.35024 906.00000
81.83594 916.34588 897.00000
81.84618 916.96089 937.00000
81.85643 917.08101 924.00000
81.86667 916.66863 925.00000
81.87691 915.76099 891.00000
81.88715 914.47650 980.00000
81.89739 912.95721 907.00000
81.90763 911.34311 926.00000
81.91787 909.74890 897.00000
81.92812 908.25420 937.00000
81.93836 906.90530 944.00000
81.94860 905.72237 964.00000
81.95884 904.70791 919.00000
81.96908 903.85388 882.00000
81.97932 903.14695 910.00000
81.98956 902.57188 929.00000
81.99981 902.11339 928.00000
82.01005 901.75731 871.00000
82.02029 901.49100 901.00000
82.03053 901.30343 881.00000
82.04077 901.18500 844.00000
82.05101 901.12755 857.00000
82.06125 901.12517 880.00000
82.07150 901.17183 873.00000
82.08174 901.26272 934.00000
82.09198 901.39416 809.00000
82.10222 901.56424 888.00000
82.11246 901.76771 913.00000
82.12270 902.00401 912.00000
82.13295 902.26919 966.00000
82.14319 902.56214 937.00000
82.15343 902.88244 936.00000
82.16367 903.22921 891.00000
82.17391 903.60174 919.00000
82.18415 903.99949 931.00000
82.19439 904.42212 880.00000
82.20464 904.86944 946.00000
82.21488 905.34141 887.00000
82.22512 905.83811 907.00000
82.23536 906.35973 866.00000
82.24560 906.90661 911.00000
82.25584 907.47915 903.00000
82.26608 908.07788 900.00000
82.27633 908.70344 951.00000
82.28657 909.35653 935.00000
82.29681 910.03772 940.00000
82.30705 910.74767 898.00000
82.31729 911.48863 919.00000
82.32753 912.26143 875.00000
82.33777 913.06710 944.00000
82.34802 913.90673 900.00000
82.35826 914.78201 879.00000
82.36850 915.69426 935.00000
82.37874 916.64535 946.00000
82.38898 917.63714 912.00000
82.39922 918.67161 890.00000
82.40946 919.75092 977.00000
82.41971 920.87736 923.00000
82.42995 922.05342 928.00000
82.44019 923.28201 974.00000
82.45043 924.56685 934.00000
82.46067 925.91038 906.00000
82.47091 927.31740 895.00000
82.48116 928.78946 915.00000
82.49140 930.33052 991.00000
82.50164 931.94393 940.00000
82.51188 933.63263 932.00000
82.52212 935.40268 977.00000
82.53236 937.25896 947.00000
82.54260 939.20643 904.00000
82.55285 941.25029 984.00000
82.56309 943.39597 949.00000
82.57333 945.64908 918.00000
82.58357 948.01538 967.00000
82.59381 950.50072 954.00000
82.60405 953.11096 977.00000
82.61429 955.85193 896.00000
82.62454 958.72929 993.00000
82.63478 961.74846 965.00000
82.64502 964.91439 968.00000
82.65526 968.23092 951.00000
82.66550 971.70262 973.00000
82.67574 975.33528 1049.00000
82.68598 979.12998 1049.00000
82.69623 983.08919 980.00000
82.70647 987.21540 994.00000
82.71671 991.51142 1011.00000
82.72695 995.98106 949.00000
82.73719 1000.62988 945.00000
82.74743 1005.46623 925.00000
82.75767 1010.50282 1029.00000
82.76792 1015.75802 986.00000
82.77816 1021.25021 1017.00000
82.78840 1027.00996 1080.00000
82.79864 1033.07256 1070.00000
82.80888 1039.48321 1037.00000
82.81912 1046.29656 1034.00000
82.82937 1053.58001 1054.00000
82.83961 1061.39444 1054.00000
82.84985 1069.81614 1091.00000
82.86009 1078.93015 1088.00000
82.87033 1088.83110 1061.00000
82.88057 1099.62468 1102.00000
82.89081 1111.42965 1139.00000
82.90106 1124.38054 1079.00000
82.91130 1138.63113 1114.00000
82.92154 1154.35874 1110.00000
82.93178 1171.76947 1138.00000
82.94202 1191.10455 1192.00000
82.95226 1212.64777 1259.00000
82.96250 1236.73437 1253.00000
82.97275 1263.76132 1309.00000
82.98299 1294.19916 1329.00000
82.99323 1328.60549 1327.00000
83.00347 1367.64483 1314.00000
83.01371 1412.09131 1427.00000
83.02395 1462.85124 1480.00000
83.03419 1520.97112 1581.00000
83.04444 1587.63274 1657.00000
83.05468 1664.12504 1850.00000
83.06492 1751.77136 1880.00000
83.07516 1851.78160 1939.00000
83.08540 1964.98728 2104.00000
83.09564 2091.41292 2090.00000
83.10588 2229.65540 2286.00000
83.11613 2376.11333 2475.00000
83.12637 2524.25954 2612.00000
83.13661 2664.36980 2804.00000
83.14685 2784.27943 2983.00000
83.15709 2871.56308 3062.00000
83.16733 2916.85129 3090.00000
83.17758 2916.91302 3025.00000
83.18782 2875.85510 2987.00000
83.19806 2803.52621 2910.00000
83.20830 2713.02646 2666.00000
83.21854 2617.43140 2617.00000
83.22878 2526.83995 2510.00000
83.23902 2448.50774 2342.00000
83.24927 2387.09317 2270.00000
83.25951 2345.20712 2210.00000
83.26975 2323.95004 2149.00000
83.27999 2323.26803 2288.00000
83.29023 2342.06626 2188.00000
83.30047 2378.10074 2176.00000
83.31071 2427.74354 2237.00000
83.32096 2485.82357 2295.00000
83.33120 2545.84970 2295.00000
83.34144 2600.37007 2310.00000
83.35168 2643.45908 2532.00000
83.36192 2671.75126 2549.00000
83.37216 2684.29534 2637.00000
83.38240 2681.75678 2633.00000
83.39265 2664.96933 2619.00000
83.40289 2633.97563 2612.00000
83.41313 2588.10882 2581.00000
83.42337 2526.93374 2546.00000
83.43361 2451.35061 2449.00000
83.44385 2364.14592 2367.00000
83.45409 2269.70990 2284.00000
83.46434 2173.16180 2129.00000
83.47458 2079.36782 2098.00000
83.48482 1992.24939 1938.00000
83.49506 1914.50594 1793.00000
83.50530 1847.66802 1695.00000
83.51554 1792.31444 1671.00000
83.52579 1748.30582 1588.00000
83.53603 1714.94567 1538.00000
83.54627 1691.04195 1587.00000
83.55651 1674.89838 1542.00000
83.56675 1664.15608 1588.00000
83.57699 1655.97656 1437.00000
83.58723 1647.12932 1485.00000
83.59748 1634.36982 1531.00000
83.60772 1615.19602 1560.00000
83.61796 1588.34582 1552.00000
83.62820 1554.04063 1453.00000
83.63844 1513.78304 1414.00000
83.64868 1469.82023 1398.00000
83.65892 1424.53328 1404.00000
83.66917 1379.98271 1293.00000
83.67941 1337.65239 1286.00000
83.68965 1298.46878 1245.00000
83.69989 1262.78865 1192.00000
83.71013 1230.65615 1174.00000
83.72037 1201.91230 1143.00000
83.73061 1176.28957 1164.00000
83.74086 1153.47581 1121.00000
83.75110 1133.15348 1012.00000
83.76134 1115.02148 1072.00000
83.77158 1098.80572 1121.00000
83.78182 1084.26276 1093.00000
83.79206 1071.17972 1048.00000
83.80230 1059.37208 1064.00000
83.81255 1048.68082 1039.00000
83.82279 1038.96919 997.00000
83.83303 1030.11968 1026.00000
83.84327 1022.03128 1009.00000
83.85351 1014.61748 1042.00000
83.86375 1007.80513 990.00000
83.87400 1001.52562 1020.00000
83.88424 995.73596 1013.00000
83.89448 990.37071 949.00000
83.90472 985.38160 991.00000
83.91496 980.73977 979.00000
83.92520 976.41290 988.00000
83.93544 972.37189 933.00000
83.94569 968.59103 1006.00000
83.95593 965.04851 982.00000
83.96617 961.72421 932.00000
83.97641 958.59939 932.00000
83.98665 955.65800 982.00000
83.99689 952.88233 947.00000
84.00713 950.26122 932.00000
84.01738 947.78450 985.00000
84.02762 945.44135 994.00000
84.03786 943.22126 918.00000
84.04810 941.11666 936.00000
84.05834 939.11567 939.00000
84.06858 937.21315 982.00000
84.07882 935.40270 950.00000
84.08907 933.67831 899.00000
84.09931 932.03445 957.00000
84.10955 930.46606 960.00000
84.11979 928.96850 945.00000
84.13003 927.53776 963.00000
84.14027 926.16950 961.00000
84.15051 924.85991 884.00000
84.16076 923.60581 894.00000
84.17100 922.40408 919.00000
84.18124 921.25194 908.00000
84.19148 920.14801 876.00000
84.20172 919.08945 934.00000
84.21196 918.07203 911.00000
84.22221 917.09387 940.00000
84.23245 916.14976 919.00000
84.24269 915.24326 947.00000
84.25293 914.37121 882.00000
84.26317 913.53122 888.00000
84.27341 912.72215 876.00000
84.28365 911.94200 955.00000
84.29390 911.18982 955.00000
84.30414 910.46486 954.00000
84.31438 909.76542 921.00000
84.32462 909.09032 945.00000
84.33486 908.43863 852.00000
84.34510 907.80933 894.00000
84.35534 907.20145 936.00000
84.36559 906.61415 901.00000
84.37583 906.04638 920.00000
84.38607 905.49734 901.00000
84.39631 904.96629 932.00000
84.40655 904.45251 879.00000
84.41679 903.95534 949.00000
84.42703 903.47414 946.00000
84.43728 903.00833 905.00000
84.44752 902.55733 929.00000
84.45776 902.12061 947.00000
84.46800 901.69766 922.00000
84.47824 901.28801 932.00000
84.48848 900.89120 893.00000
84.49872 900.50681 907.00000
84.50897 900.13442 935.00000
84.51921 899.77366 925.00000
84.52945 899.42417 955.00000
84.53969 899.08561 980.00000
84.54993 898.75764 890.00000
84.56017 898.43998 902.00000
84.57042 898.13233 898.00000
84.58066 897.83443 876.00000
84.59090 897.54602 936.00000
84.60114 897.26687 884.00000
84.61138 896.99677 901.00000
84.62162 896.73550 895.00000
84.63186 896.48289 971.00000
84.64211 896.23886 892.00000
84.65235 896.00364 889.00000
84.66259 895.77602 900.00000
84.67283 895.55638 889.00000
84.68307 895.34464 944.00000
84.69331 895.14071 849.00000
84.70355 894.94424 885.00000
84.71380 894.75414 830.00000
84.72404 894.57127 858.00000
84.73428 894.39770 882.00000
84.74452 894.23172 867.00000
84.75476 894.07311 905.00000
84.76500 893.92185 878.00000
84.77524 893.77790 881.00000
84.78549 893.64125 887.00000
84.79573 893.51187 892.00000
84.80597 893.38973 882.00000
84.81621 893.27482 879.00000
84.82645 893.16710 907.00000
84.83669 893.06656 915.00000
84.84693 892.97313 870.00000
84.85718 892.88679 885.00000
84.86742 892.80748 816.00000
84.87766 892.73432 918.00000
84.88790 892.65476 882.00000
84.89814 892.52675 866.00000
84.90838 892.41378 870.00000
84.91863 892.36560 900.00000
84.92887 892.32943 885.00000
84.93911 892.30043 909.00000
84.94935 892.27887 921.00000
84.95959 892.26515 906.00000
84.96983 892.25976 934.00000
84.98007 892.26339 914.00000
84.99032 892.27682 932.00000
85.00056 892.30101 848.00000
85.01080 892.33709 881.00000
85.02104 892.38630 907.00000
85.03128 892.44995 856.00000
85.04152 892.52899 920.00000
85.05176 892.62499 911.00000
85.06201 892.74292 919.00000
85.07225 892.88209 935.00000
85.08249 893.03462 889.00000
85.09273 893.17892 870.00000
85.10297 893.38863 898.00000
85.11321 893.64605 928.00000
85.12345 893.94322 928.00000
85.13370 894.28405 893.00000
85.14394 894.67432 929.00000
85.15418 895.12073 911.00000
85.16442 895.63086 843.00000
85.17466 896.21297 894.00000
85.18490 896.87879 873.00000
85.19514 897.64320 877.00000
85.20539 898.51989 899.00000
85.21563 899.52570 904.00000
85.22587 900.68050 942.00000
85.23611 902.00652 925.00000
85.24635 903.52793 901.00000
85.25659 905.26944 901.00000
85.26684 907.25368 924.00000
85.27708 909.49650 876.00000
85.28732 911.99938 937.00000
85.29756 914.73841 929.00000
85.30780 917.65033 930.00000
85.31804 920.61858 971.00000
85.32828 923.46613 921.00000
85.33853 925.96239 897.00000
85.34877 927.86146 905.00000
85.35901 928.95600 997.00000
85.36925 929.13720 876.00000
85.37949 928.42845 923.00000
85.38973 926.97521 888.00000
85.39997 924.99868 947.00000
85.41022 922.73865 837.00000
85.42046 920.40906 958.00000
85.43070 918.17535 907.00000
85.44094 916.15079 930.00000
85.45118 914.40375 886.00000
85.46142 912.96935 916.00000
85.47166 911.86096 917.00000
85.48191 911.07957 929.00000
85.49215 910.62064 934.00000
85.50239 910.47834 947.00000
85.51263 910.64781 928.00000
85.52287 911.12560 904.00000
85.53311 911.90856 881.00000
85.54336 912.99101 859.00000
85.55360 914.36033 981.00000
85.56384 915.99103 933.00000
85.57408 917.83849 919.00000
85.58432 919.83458 921.00000
85.59456 921.88890 922.00000
85.60480 923.89915 904.00000
85.61505 925.77154 962.00000
85.62529 927.44651 935.00000
85.63553 928.91990 965.00000
85.64577 930.24966 961.00000
85.65601 931.54374 947.00000
85.66625 932.93360 953.00000
85.67649 934.54148 954.00000
85.68674 936.44887 990.00000
85.69698 938.66956 976.00000
85.70722 941.12890 971.00000
85.71746 943.65300 950.00000
85.72770 945.97602 978.00000
85.73794 947.77596 989.00000
85.74818 948.74162 979.00000
85.75843 948.65525 947.00000
85.76867 947.45742 976.00000
85.77891 945.26168 986.00000
85.78915 942.31343 964.00000
85.79939 938.91725 1009.00000
85.80963 935.36801 1000.00000
85.81987 931.90697 925.00000
85.83012 928.70594 927.00000
85.84036 925.87097 900.00000
85.85060 923.45581 962.00000
85.86084 921.47804 869.00000
85.87108 919.93374 915.00000
85.88132 918.80878 958.00000
85.89157 918.08598 958.00000
85.90181 917.74874 1005.00000
85.91205 917.78189 910.00000
85.92229 918.17157 891.00000
85.93253 918.90467 891.00000
85.94277 919.96752 948.00000
85.95301 921.34579 910.00000
85.96326 923.03633 941.00000
85.97350 924.94107 932.00000
85.98374 927.00197 873.00000
85.99398 929.05644 1014.00000
86.00422 930.94549 989.00000
86.01446 932.50382 993.00000
86.02470 933.56306 980.00000
86.03495 933.98976 992.00000
86.04519 933.70410 957.00000
86.05543 932.68839 984.00000
86.06567 930.99021 967.00000
86.07591 928.72568 948.00000
86.08615 926.03887 912.00000
86.09639 923.10138 906.00000
86.10664 920.08488 948.00000
86.11688 917.11971 944.00000
86.12712 914.32226 930.00000
86.13736 911.75984 946.00000
86.14760 909.46582 926.00000
86.15784 907.44872 946.00000
86.16808 905.70009 934.00000
86.17833 904.20124 911.00000
86.18857 902.92862 971.00000
86.19881 901.85795 902.00000
86.20905 900.96806 920.00000
86.21929 900.24211 918.00000
86.22953 899.66839 892.00000
86.23978 899.23909 901.00000
86.25002 898.94806 897.00000
86.26026 898.78582 883.00000
86.27050 898.73583 880.00000
86.28074 898.77216 952.00000
86.29098 898.85628 886.00000
86.30122 898.93970 929.00000
86.31147 898.98049 981.00000
86.32171 898.88430 932.00000
86.33195 898.64213 970.00000
86.34219 898.19632 919.00000
86.35243 897.55515 879.00000
86.36267 896.70891 849.00000
86.37291 895.80258 960.00000
86.38316 894.89629 880.00000
86.39340 893.99154 931.00000
86.40364 893.11755 894.00000
86.41388 892.29601 876.00000
86.42412 891.53873 885.00000
86.43436 890.85005 870.00000
86.44460 890.22927 854.00000
86.45485 889.67266 905.00000
86.46509 889.17523 886.00000
86.47533 888.73290 905.00000
86.48557 888.33667 926.00000
86.49581 887.98351 920.00000
86.50605 887.66584 866.00000
86.51629 887.37987 842.00000
86.52654 887.12248 905.00000
86.53678 886.88982 859.00000
86.54702 886.67192 885.00000
86.55726 886.44674 894.00000
86.56750 886.24369 888.00000
86.57774 886.08525 894.00000
86.58799 885.94352 878.00000
86.59823 885.81460 916.00000
86.60847 885.69728 902.00000
86.61871 885.59053 885.00000
86.62895 885.49344 917.00000
86.63919 885.40522 882.00000
86.64943 885.32518 859.00000
86.65968 885.25273 886.00000
86.66992 885.19104 863.00000
86.68016 885.16640 878.00000
86.69040 885.13062 888.00000
86.70064 885.08537 885.00000
86.71088 885.04460 852.00000
86.72112 885.00901 936.00000
86.73137 884.97812 888.00000
86.74161 884.95177 905.00000
86.75185 884.93080 845.00000
86.76209 884.91429 934.00000
86.77233 884.90225 882.00000
86.78257 884.89527 881.00000
86.79281 884.90050 901.00000
86.80306 884.91774 891.00000
86.81330 884.92279 883.00000
86.82354 884.91807 821.00000
86.83378 884.86826 908.00000
86.84402 884.80947 891.00000
86.85426 884.82452 952.00000
86.86450 884.84956 895.00000
86.87475 884.87846 864.00000
86.88499 884.91125 863.00000
86.89523 884.94800 901.00000
86.90547 884.98879 855.00000
86.91571 885.03374 888.00000
86.92595 885.08302 894.00000
86.93620 885.13679 897.00000
86.94644 885.19537 955.00000
86.95668 885.25893 867.00000
86.96692 885.32778 888.00000
86.97716 885.40224 919.00000
86.98740 885.48266 870.00000
86.99764 885.56942 840.00000
87.00789 885.66280 912.00000
87.01813 885.76208 890.00000
87.02837 885.86443 964.00000
87.03861 885.94151 882.00000
87.04885 886.06412 879.00000
87.05909 886.19975 934.00000
87.06933 886.34563 885.00000
87.07958 886.50248 916.00000
87.08982 886.67122 894.00000
87.10006 886.85295 861.00000
87.11030 887.04895 834.00000
87.12054 887.26075 963.00000
87.13078 887.49020 902.00000
87.14102 887.73949 848.00000
87.15127 888.01093 880.00000
87.16151 888.30634 955.00000
87.17175 888.63241 911.00000
87.18199 888.99309 833.00000
87.19223 889.39318 866.00000
87.20247 889.83993 920.00000
87.21271 890.33523 904.00000
87.22296 890.88791 877.00000
87.23320 891.50447 886.00000
87.24344 892.18957 893.00000
87.25368 892.94778 870.00000
87.26392 893.78108 895.00000
87.27416 894.68018 901.00000
87.28441 895.62811 878.00000
87.29465 896.59627 929.00000
87.30489 897.54404 931.00000
87.31513 898.42258 881.00000
87.32537 899.18363 886.00000
87.33561 899.79195 921.00000
87.34585 900.23693 945.00000
87.35610 900.53627 926.00000
87.36634 900.73446 839.00000
87.37658 900.89725 919.00000
87.38682 901.08678 927.00000
87.39706 901.35936 923.00000
87.40730 901.76250 910.00000
87.41754 902.33506 906.00000
87.42779 903.10977 963.00000
87.43803 904.11511 882.00000
87.44827 905.37764 932.00000
87.45851 906.92384 920.00000
87.46875 908.78036 920.00000
87.47899 910.97155 882.00000
87.48923 913.51742 881.00000
87.49948 916.42629 945.00000
87.50972 919.68495 899.00000
87.51996 923.24485 938.00000
87.53020 927.00223 914.00000
87.54044 930.78920 891.00000
87.55068 934.36562 982.00000
87.56092 937.43540 931.00000
87.57117 939.69119 897.00000
87.58141 940.85649 941.00000
87.59165 940.83759 938.00000
87.60189 939.67849 1003.00000
87.61213 937.55878 946.00000
87.62237 934.74064 946.00000
87.63262 931.50767 942.00000
87.64286 928.11788 990.00000
87.65310 924.77917 915.00000
87.66334 921.63859 963.00000
87.67358 918.78999 915.00000
87.68382 916.28655 901.00000
87.69406 914.14974 911.00000
87.70431 912.38133 930.00000
87.71455 910.97225 865.00000
87.72479 909.90858 985.00000
87.73503 909.17518 862.00000
87.74527 908.75742 975.00000
87.75551 908.64114 937.00000
87.76575 908.81126 939.00000
87.77600 909.24866 923.00000
87.78624 909.92649 861.00000
87.79648 910.79786 898.00000
87.80672 911.79744 857.00000
87.81696 912.83432 922.00000
87.82720 913.79094 931.00000
87.83744 914.53476 866.00000
87.84769 914.93827 886.00000
87.85793 914.90531 885.00000
87.86817 914.39394 928.00000
87.87841 913.42556 945.00000
87.88865 912.07626 936.00000
87.89889 910.45439 917.00000
87.90913 908.68876 886.00000
87.91938 906.88475 932.00000
87.92962 905.12385 908.00000
87.93986 903.46142 885.00000
87.95010 901.92989 949.00000
87.96034 900.54288 921.00000
87.97058 899.30213 920.00000
87.98083 898.20172 935.00000
87.99107 897.23139 867.00000
88.00131 896.37899 917.00000
88.01155 895.63199 912.00000
88.02179 894.97837 879.00000
88.03203 894.40706 922.00000
88.04227 893.90813 876.00000
88.05252 893.47290 902.00000
88.06276 893.09399 915.00000
88.07300 892.76397 892.00000
88.08324 892.47744 933.00000
88.09348 892.22952 880.00000
88.10372 892.01593 943.00000
88.11396 891.83303 932.00000
88.12421 891.67762 870.00000
88.13445 891.54700 881.00000
88.14469 891.43880 843.00000
88.15493 891.35096 864.00000
88.16517 891.28174 881.00000
88.17541 891.22959 933.00000
88.18565 891.19318 902.00000
88.19590 891.17136 914.00000
88.20614 891.16311 919.00000
88.21638 891.16781 890.00000
88.22662 891.18441 879.00000
88.23686 891.21225 866.00000
88.24710 891.25077 867.00000
88.25734 891.29946 936.00000
88.26759 891.35792 934.00000
88.27783 891.42577 880.00000
88.28807 891.50271 916.00000
88.29831 891.58848 890.00000
88.30855 891.68285 857.00000
88.31879 891.78566 931.00000
88.32904 891.89677 894.00000
88.33928 892.01608 877.00000
88.34952 892.14350 879.00000
88.35976 892.27899 887.00000
88.37000 892.42255 875.00000
88.38024 892.57417 908.00000
88.39048 892.73389 879.00000
88.40073 892.90177 891.00000
88.41097 893.07790 886.00000
88.42121 893.26237 877.00000
88.43145 893.45531 915.00000
88.44169 893.65688 856.00000
88.45193 893.86723 921.00000
88.46217 894.08657 881.00000
88.47242 894.31511 918.00000
88.48266 894.55308 916.00000
88.49290 894.80075 909.00000
88.50314 895.05840 927.00000
88.51338 895.32633 881.00000
88.52362 895.60489 880.00000
88.53386 895.89446 932.00000
88.54411 896.19540 897.00000
88.55435 896.50812 868.00000
88.56459 896.83307 855.00000
88.57483 897.17073 893.00000
88.58507 897.52161 893.00000
88.59531 897.88626 912.00000
88.60555 898.26526 858.00000
88.61580 898.65923 888.00000
88.62604 899.06883 942.00000
88.63628 899.49478 893.00000
88.64652 899.93782 854.00000
88.65676 900.39875 944.00000
88.66700 900.87841 880.00000
88.67725 901.37738 870.00000
88.68749 901.89522 919.00000
88.69773 902.43604 933.00000
88.70797 903.00202 854.00000
88.71821 903.60110 918.00000
88.72845 904.21703 902.00000
88.73869 904.85676 884.00000
88.74894 905.52405 933.00000
88.75918 906.22042 962.00000
88.76942 906.94736 941.00000
88.77966 907.70641 952.00000
88.78990 908.49915 926.00000
88.80014 909.32723 920.00000
88.81038 910.19235 903.00000
88.82063 911.09624 925.00000
88.83087 912.04063 903.00000
88.84111 913.02727 874.00000
88.85135 914.05791 903.00000
88.86159 915.13422 919.00000
88.87183 916.25784 917.00000
88.88207 917.43031 951.00000
88.89232 918.65307 888.00000
88.90256 919.92836 923.00000
88.91280 921.26641 917.00000
88.92304 922.66249 870.00000
88.93328 924.10171 916.00000
88.94352 925.59202 941.00000
88.95376 927.11659 948.00000
88.96401 928.62804 970.00000
88.97425 930.25816 959.00000
88.98449 931.98302 915.00000
88.99473 933.77420 922.00000
89.00497 935.63246 935.00000
89.01521 937.56225 960.00000
89.02546 939.56929 946.00000
89.03570 941.66074 939.00000
89.04594 943.84533 914.00000
89.05618 946.13350 936.00000
89.06642 948.53744 952.00000
89.07666 951.07119 974.00000
89.08690 953.75069 987.00000
89.09715 956.59333 962.00000
89.10739 959.61730 939.00000
89.11763 962.85121 970.00000
89.12787 966.31745 967.00000
89.13811 970.04420 945.00000
89.14835 974.06259 932.00000
89.15859 978.39802 965.00000
89.16884 983.06645 1001.00000
89.17908 988.18168 997.00000
89.18932 993.78072 961.00000
89.19956 999.90943 988.00000
89.20980 1006.63553 982.00000
89.22004 1014.03740 1021.00000
89.23028 1022.20554 1038.00000
89.24053 1031.24475 1028.00000
89.25077 1041.27502 1055.00000
89.26101 1052.43540 1046.00000
89.27125 1064.88770 1072.00000
89.28149 1078.81872 1042.00000
89.29173 1094.44390 1173.00000
89.30198 1112.01039 1038.00000
89.31222 1131.79953 1194.00000
89.32246 1154.12610 1165.00000
89.33270 1179.33385 1246.00000
89.34294 1207.78380 1212.00000
89.35318 1239.82957 1276.00000
89.36342 1275.77391 1306.00000
89.37367 1315.79759 1409.00000
89.38391 1359.85317 1437.00000
89.39415 1407.52108 1510.00000
89.40439 1457.84146 1562.00000
89.41463 1509.16377 1644.00000
89.42487 1559.09501 1638.00000
89.43511 1604.65286 1655.00000
89.44536 1642.69990 1750.00000
89.45560 1670.62108 1823.00000
89.46584 1687.00590 1819.00000
89.47608 1692.07222 1752.00000
89.48632 1687.59157 1807.00000
89.49656 1676.36784 1741.00000
89.50680 1661.51352 1760.00000
89.51705 1645.78994 1710.00000
89.52729 1631.16234 1648.00000
89.53753 1618.59531 1708.00000
89.54777 1608.05944 1725.00000
89.55801 1598.72185 1762.00000
89.56825 1589.29890 1621.00000
89.57849 1578.51589 1738.00000
89.58874 1565.55458 1708.00000
89.59898 1550.33683 1716.00000
89.60922 1533.55555 1544.00000
89.61946 1516.45525 1602.00000
89.62970 1500.51505 1629.00000
89.63994 1487.15493 1554.00000
89.65019 1477.53472 1532.00000
89.66043 1472.45173 1568.00000
89.67067 1472.30210 1581.00000
89.68091 1477.06930 1482.00000
89.69115 1486.32138 1585.00000
89.70139 1499.22242 1621.00000
89.71163 1514.58568 1625.00000
89.72188 1531.00147 1616.00000
89.73212 1547.05081 1629.00000
89.74236 1561.56371 1652.00000
89.75260 1573.82777 1679.00000
89.76284 1583.64336 1655.00000
89.77308 1591.18020 1668.00000
89.78332 1596.68591 1609.00000
89.79357 1600.17204 1617.00000
89.80381 1601.21862 1660.00000
89.81405 1598.98931 1682.00000
89.82429 1592.46002 1565.00000
89.83453 1580.75232 1610.00000
89.84477 1563.42229 1617.00000
89.85501 1540.60636 1695.00000
89.86526 1512.98902 1548.00000
89.87550 1481.66664 1486.00000
89.88574 1447.97198 1524.00000
89.89598 1413.30258 1494.00000
89.90622 1378.97136 1423.00000
89.91646 1346.09249 1353.00000
89.92670 1315.51259 1389.00000
89.93695 1287.79080 1368.00000
89.94719 1263.21269 1266.00000
89.95743 1241.82901 1335.00000
89.96767 1223.50779 1269.00000
89.97791 1207.98964 1296.00000
89.98815 1194.94728 1232.00000
89.99840 1184.04698 1231.00000
90.00864 1175.00319 1217.00000
90.01888 1167.61111 1222.00000
90.02912 1161.74357 1253.00000
90.03936 1157.30996 1183.00000
90.04960 1154.19106 1253.00000
90.05984 1152.16929 1199.00000
90.07009 1150.87774 1170.00000
90.08033 1149.78595 1204.00000
90.09057 1148.23730 1153.00000
90.10081 1145.54243 1237.00000
90.11105 1141.11127 1123.00000
90.12129 1134.58345 1137.00000
90.13153 1125.90756 1132.00000
90.14178 1115.33852 1093.00000
90.15202 1103.35895 1085.00000
90.16226 1090.56094 1117.00000
90.17250 1077.53146 1094.00000
90.18274 1064.77081 1110.00000
90.19298 1052.65262 1085.00000
90.20322 1041.41832 1007.00000
90.21347 1031.19229 1037.00000
90.22371 1022.00515 1017.00000
90.23395 1013.81644 993.00000
90.24419 1006.53340 936.00000
90.25443 1000.02677 1041.00000
90.26467 994.14280 930.00000
90.27491 988.71776 957.00000
90.28516 983.60261 996.00000
90.29540 978.67322 1009.00000
90.30564 973.85372 1031.00000
90.31588 969.11411 989.00000
90.32612 964.46425 930.00000
90.33636 959.93958 1000.00000
90.34661 955.58492 1005.00000
90.35685 951.44151 955.00000
90.36709 947.53972 951.00000
90.37733 943.89631 893.00000
90.38757 940.51483 991.00000
90.39781 937.39111 959.00000
90.40805 934.50805 916.00000
90.41830 931.85282 940.00000
90.42854 929.40314 949.00000
90.43878 927.14215 880.00000
90.44902 925.05255 919.00000
90.45926 923.11781 976.00000
90.46950 921.32280 917.00000
90.47974 919.65383 925.00000
90.48999 918.09870 938.00000
90.50023 916.64652 886.00000
90.51047 915.28764 892.00000
90.52071 914.01349 869.00000
90.53095 912.81648 900.00000
90.54119 911.68985 886.00000
90.55143 910.62763 916.00000
90.56168 909.62457 932.00000
90.57192 908.67614 977.00000
90.58216 907.77742 884.00000
90.59240 906.92519 882.00000
90.60264 906.11529 906.00000
90.61288 905.34495 898.00000
90.62312 904.61142 886.00000
90.63337 903.91215 902.00000
90.64361 903.24484 927.00000
90.65385 902.60737 925.00000
90.66409 901.99782 882.00000
90.67433 901.41448 955.00000
90.68457 900.85611 878.00000
90.69482 900.32051 932.00000
90.70506 899.80693 889.00000
90.71530 899.31346 885.00000
90.72554 898.83917 895.00000
90.73578 898.38309 932.00000
90.74602 897.94424 917.00000
90.75626 897.52169 908.00000
90.76651 897.11452 911.00000
90.77675 896.72166 943.00000
90.78699 896.34286 927.00000
90.79723 895.97766 960.00000
90.80747 895.62499 895.00000
90.81771 895.28423 903.00000
90.82795 894.95488 915.00000
90.83820 894.63641 837.00000
90.84844 894.32831 922.00000
90.85868 894.03010 937.00000
90.86892 893.74135 895.00000
90.87916 893.46164 857.00000
90.88940 893.19057 871.00000
90.89964 892.92778 923.00000
90.90989 892.67291 884.00000
90.92013 892.42565 886.00000
90.93037 892.18567 873.00000
90.94061 891.95269 873.00000
90.95085 891.72642 918.00000
90.96109 891.50660 907.00000
90.97133 891.29298 915.00000
90.98158 891.08531 912.00000
90.99182 890.88338 898.00000
91.00206 890.68696 911.00000
91.01230 890.49586 953.00000
91.02254 890.31019 876.00000
91.03278 890.13195 910.00000
91.04303 889.95266 914.00000
91.05327 889.78053 936.00000
91.06351 889.61329 866.00000
91.07375 889.45033 903.00000
91.08399 889.29149 925.00000
91.09423 889.13663 920.00000
91.10447 888.98562 953.00000
91.11472 888.83834 914.00000
91.12496 888.69465 858.00000
91.13520 888.55445 881.00000
91.14544 888.41761 879.00000
91.15568 888.28416 898.00000
91.16592 888.15508 914.00000
91.17616 888.02955 910.00000
91.18641 887.90541 891.00000
91.19665 887.78393 851.00000
91.20689 887.66522 875.00000
91.21713 887.54921 889.00000
91.22737 887.43583 908.00000
91.23761 887.32498 895.00000
91.24785 887.21660 892.00000
91.25810 887.11062 877.00000
91.26834 887.00696 902.00000
91.27858 886.90545 872.00000
91.28882 886.80567 883.00000
91.29906 886.70849 965.00000
91.30930 886.61350 863.00000
91.31954 886.52053 868.00000
91.32979 886.42953 907.00000
91.34003 886.34063 883.00000
91.35027 886.25375 931.00000
91.36051 886.16832 847.00000
91.37075 886.08079 873.00000
91.38099 885.96449 794.00000
91.39124 885.86563 874.00000
91.40148 885.78620 892.00000
91.41172 885.70958 876.00000
91.42196 885.63450 827.00000
91.43220 885.56092 812.00000
91.44244 885.48880 875.00000
91.45268 885.41816 884.00000
91.46293 885.34934 893.00000
91.47317 885.28149 848.00000
91.48341 885.21487 918.00000
91.49365 885.14890 860.00000
91.50389 885.07747 930.00000
91.51413 884.99665 865.00000
91.52437 884.93389 899.00000
91.53462 884.87343 939.00000
91.54486 884.81218 878.00000
91.55510 884.75228 872.00000
91.56534 884.69531 946.00000
91.57558 884.63981 905.00000
91.58582 884.58351 909.00000
91.59606 884.50540 876.00000
91.60631 884.35705 849.00000
91.61655 884.27770 838.00000
91.62679 884.22798 885.00000
91.63703 884.16961 928.00000
91.64727 884.12109 884.00000
91.65751 884.07323 856.00000
91.66775 884.02638 896.00000
91.67800 883.98040 938.00000
91.68824 883.93525 898.00000
91.69848 883.89093 871.00000
91.70872 883.84741 842.00000
91.71896 883.80467 916.00000
91.72920 883.76270 889.00000
91.73945 883.72148 884.00000
91.74969 883.68002 930.00000
91.75993 883.63031 867.00000
91.77017 883.57703 855.00000
91.78041 883.53787 906.00000
91.79065 883.50037 886.00000
91.80089 883.46211 894.00000
91.81114 883.41042 825.00000
91.82138 883.31670 960.00000
91.83162 883.27952 882.00000
91.84186 883.24547 913.00000
91.85210 883.20738 912.00000
91.86234 883.17458 868.00000
91.87258 883.14237 887.00000
91.88283 883.11073 835.00000
91.89307 883.07966 868.00000
91.90331 883.04915 859.00000
91.91355 883.01921 872.00000
91.92379 882.99011 854.00000
91.93403 882.96186 892.00000
91.94427 882.93243 882.00000
91.95452 882.90405 851.00000
91.96476 882.87688 930.00000
91.97500 882.85009 900.00000
91.98524 882.82376 891.00000
91.99548 882.79791 857.00000
92.00572 882.77253 888.00000
92.01596 882.74757 923.00000
92.02621 882.72299 902.00000
92.03645 882.69899 820.00000
92.04669 882.67544 887.00000
92.05693 882.65234 859.00000
92.06717 882.62967 917.00000
92.07741 882.60743 822.00000
92.08766 882.58562 893.00000
92.09790 882.56422 848.00000
92.10814 882.54324 867.00000
92.11838 882.52266 881.00000
92.12862 882.50248 882.00000
92.13886 882.48270 869.00000
92.14910 882.46309 858.00000
92.15935 882.44287 865.00000
92.16959 882.42396 866.00000
92.17983 882.40572 917.00000
92.19007 882.38787 848.00000
92.20031 882.37040 898.00000
92.21055 882.35329 868.00000
92.22079 882.33654 849.00000
92.23104 882.32016 804.00000
92.24128 882.30413 900.00000
92.25152 882.28847 904.00000
92.26176 882.27315 862.00000
92.27200 882.25818 870.00000
92.28224 882.24356 879.00000
92.29248 882.22928 921.00000
92.30273 882.21535 917.00000
92.31297 882.20175 912.00000
92.32321 882.18849 857.00000
92.33345 882.17557 897.00000
92.34369 882.16298 862.00000
92.35393 882.15072 856.00000
92.36417 882.13879 789.00000
92.37442 882.12719 855.00000
92.38466 882.11592 889.00000
92.39490 882.10497 886.00000
92.40514 882.09435 859.00000
92.41538 882.08406 910.00000
92.42562 882.07409 889.00000
92.43587 882.06444 792.00000
92.44611 882.05512 871.00000
92.45635 882.04612 881.00000
92.46659 882.03744 870.00000
92.47683 882.02908 892.00000
92.48707 882.02105 863.00000
92.49731 882.01334 878.00000
92.50756 882.00596 894.00000
92.51780 881.99890 909.00000
92.52804 881.99216 886.00000
92.53828 881.98576 890.00000
92.54852 881.97968 851.00000
92.55876 881.97393 887.00000
92.56900 881.96852 890.00000
92.57925 881.96343 859.00000
92.58949 881.95869 900.00000
92.59973 881.95428 837.00000
92.60997 881.95021 865.00000
92.62021 881.94648 890.00000
92.63045 881.94310 857.00000
92.64069 881.94007 867.00000
92.65094 881.93739 869.00000
92.66118 881.93506 856.00000
92.67142 881.93310 883.00000
92.68166 881.93150 878.00000
92.69190 881.93027 856.00000
92.70214 881.92941 871.00000
92.71238 881.92899 906.00000
92.72263 881.92942 886.00000
92.73287 881.93029 890.00000
92.74311 881.93106 808.00000
92.75335 881.93217 860.00000
92.76359 881.93368 932.00000
92.77383 881.93561 831.00000
92.78408 881.93796 899.00000
92.79432 881.94074 845.00000
92.80456 881.94396 902.00000
92.81480 881.94763 860.00000
92.82504 881.95176 852.00000
92.83528 881.95635 932.00000
92.84552 881.96142 856.00000
92.85577 881.96699 850.00000
92.86601 881.97305 828.00000
92.87625 881.97963 947.00000
92.88649 881.98673 879.00000
92.89673 881.99437 815.00000
92.90697 882.00256 814.00000
92.91721 882.01132 857.00000
92.92746 882.02067 878.00000
92.93770 882.03156 893.00000
92.94794 882.05238 884.00000
92.95818 882.06745 870.00000
92.96842 882.07979 877.00000
92.97866 882.09237 930.00000
92.98890 882.10564 902.00000
92.99915 882.11963 899.00000
93.00939 882.13434 903.00000
93.01963 882.14644 864.00000
93.02987 882.13110 893.00000
93.04011 882.12978 931.00000
93.05035 882.14682 897.00000
93.06060 882.16599 877.00000
93.07084 882.18606 890.00000
93.08108 882.20709 896.00000
93.09132 882.22909 850.00000
93.10156 882.25212 884.00000
93.11180 882.27620 923.00000
93.12204 882.30139 903.00000
93.13229 882.32772 880.00000
93.14253 882.35523 912.00000
93.15277 882.38272 906.00000
93.16301 882.40433 905.00000
93.17325 882.44552 866.00000
93.18349 882.48135 893.00000
93.19373 882.51598 858.00000
93.20398 882.55198 910.00000
93.21422 882.58956 862.00000
93.22446 882.62879 846.00000
93.23470 882.66973 875.00000
93.24494 882.71247 856.00000
93.25518 882.75707 882.00000
93.26542 882.80362 890.00000
93.27567 882.85220 890.00000
93.28591 882.90291 911.00000
93.29615 882.95584 892.00000
93.30639 883.01110 891.00000
93.31663 883.06881 919.00000
93.32687 883.12906 900.00000
93.33711 883.19199 899.00000
93.34736 883.25773 895.00000
93.35760 883.32641 881.00000
93.36784 883.39817 908.00000
93.37808 883.47317 894.00000
93.38832 883.55155 966.00000
93.39856 883.63347 864.00000
93.40881 883.71835 895.00000
93.41905 883.79978 855.00000
93.42929 883.87701 927.00000
93.43953 883.97364 896.00000
93.44977 884.07582 907.00000
93.46001 884.18250 925.00000
93.47025 884.29385 931.00000
93.48050 884.41004 882.00000
93.49074 884.53124 917.00000
93.50098 884.65767 897.00000
93.51122 884.78952 871.00000
93.52146 884.92707 888.00000
93.53170 885.07057 880.00000
93.54194 885.21703 878.00000
93.55219 885.34202 855.00000
93.56243 885.48690 824.00000
93.57267 885.65722 906.00000
93.58291 885.83781 838.00000
93.59315 886.02787 905.00000
93.60339 886.22808 891.00000
93.61363 886.43774 924.00000
93.62388 886.66203 851.00000
93.63412 886.90125 928.00000
93.64436 887.15650 848.00000
93.65460 887.42958 844.00000
93.66484 887.72250 910.00000
93.67508 888.03551 873.00000
93.68532 888.35709 911.00000
93.69557 888.71580 876.00000
93.70581 889.11028 932.00000
93.71605 889.53601 877.00000
93.72629 889.99383 900.00000
93.73653 890.48408 843.00000
93.74677 891.00578 886.00000
93.75702 891.55637 928.00000
93.76726 892.13185 862.00000
93.77750 892.72735 845.00000
93.78774 893.33854 918.00000
93.79798 893.96336 906.00000
93.80822 894.60385 919.00000
93.81846 895.26720 899.00000
93.82871 895.96576 920.00000
93.83895 896.71577 889.00000
93.84919 897.53411 913.00000
93.85943 898.44614 922.00000
93.86967 899.47198 931.00000
93.87991 900.63203 886.00000
93.89015 901.94776 886.00000
93.90040 903.44104 871.00000
93.91064 905.13417 946.00000
93.92088 907.04960 867.00000
93.93112 909.20904 927.00000
93.94136 911.62933 878.00000
93.95160 914.30799 920.00000
93.96184 917.28478 868.00000
93.97209 920.53148 950.00000
93.98233 924.00734 906.00000
93.99257 927.64147 946.00000
94.00281 931.32427 968.00000
94.01305 934.90795 910.00000
94.02329 938.21801 939.00000
94.03353 941.07798 930.00000
94.04378 943.34391 959.00000
94.05402 944.93858 918.00000
94.06426 945.87205 949.00000
94.07450 946.23987 917.00000
94.08474 946.20004 918.00000
94.09498 945.93841 976.00000
94.10523 945.63431 975.00000
94.11547 945.43333 946.00000
94.12571 945.42929 951.00000
94.13595 945.65999 938.00000
94.14619 946.09751 956.00000
94.15643 946.65743 990.00000
94.16667 947.20587 976.00000
94.17692 947.58617 938.00000
94.18716 947.65032 998.00000
94.19740 947.29289 973.00000
94.20764 946.47709 1006.00000
94.21788 945.24294 1031.00000
94.22812 943.69531 963.00000
94.23836 941.97803 976.00000
94.24861 940.24454 969.00000
94.25885 938.63369 1055.00000
94.26909 937.25414 956.00000
94.27933 936.17675 948.00000
94.28957 935.43223 914.00000
94.29981 935.01177 995.00000
94.31005 934.86967 911.00000
94.32030 934.92826 943.00000
94.33054 935.08652 976.00000
94.34078 935.23319 997.00000
94.35102 935.26375 914.00000
94.36126 935.09821 992.00000
94.37150 934.69535 878.00000
94.38174 934.05917 979.00000
94.39199 933.23454 955.00000
94.40223 932.29666 970.00000
94.41247 931.33189 954.00000
94.42271 930.42152 924.00000
94.43295 929.62509 917.00000
94.44319 928.96889 897.00000
94.45344 928.44032 897.00000
94.46368 927.99023 904.00000
94.47392 927.53644 898.00000
94.48416 926.98066 924.00000
94.49440 926.22499 988.00000
94.50464 925.19302 961.00000
94.51488 923.84658 974.00000
94.52513 922.19299 937.00000
94.53537 920.28074 902.00000
94.54561 918.18643 910.00000
94.55585 915.99824 960.00000
94.56609 913.80103 964.00000
94.57633 911.66562 912.00000
94.58657 909.64651 911.00000
94.59682 907.78286 970.00000
94.60706 906.09108 945.00000
94.61730 904.57736 841.00000
94.62754 903.23652 861.00000
94.63778 902.05568 909.00000
94.64802 901.01614 857.00000
94.65826 900.09525 968.00000
94.66851 899.26912 947.00000
94.67875 898.51507 898.00000
94.68899 897.81412 880.00000
94.69923 897.15276 883.00000
94.70947 896.52360 926.00000
94.71971 895.92531 886.00000
94.72995 895.36028 871.00000
94.74020 894.83204 905.00000
94.75044 894.34273 890.00000
94.76068 893.89115 931.00000
94.77092 893.47182 930.00000
94.78116 893.07514 890.00000
94.79140 892.68820 875.00000
94.80165 892.29754 926.00000
94.81189 891.89154 892.00000
94.82213 891.46249 881.00000
94.83237 891.00849 931.00000
94.84261 890.53293 833.00000
94.85285 890.04328 887.00000
94.86309 889.54920 893.00000
94.87334 889.06061 852.00000
94.88358 888.58626 865.00000
94.89382 888.13292 876.00000
94.90406 887.70514 875.00000
94.91430 887.30540 965.00000
94.92454 886.93442 868.00000
94.93478 886.59126 890.00000
94.94503 886.27551 887.00000
94.95527 885.98609 888.00000
94.96551 885.72026 866.00000
94.97575 885.47627 884.00000
94.98599 885.25207 851.00000
94.99623 885.04582 880.00000
95.00647 884.85585 878.00000
95.01672 884.68060 892.00000
95.02696 884.51871 864.00000
95.03720 884.36893 849.00000
95.04744 884.23017 856.00000
95.05768 884.10145 894.00000
95.06792 883.98190 887.00000
95.07816 883.87076 853.00000
95.08841 883.76735 901.00000
95.09865 883.67106 904.00000
95.10889 883.58135 872.00000
95.11913 883.49776 891.00000
95.12937 883.41986 861.00000
95.13961 883.34725 881.00000
95.14986 883.27962 901.00000
95.16010 883.21664 886.00000
95.17034 883.15804 887.00000
95.18058 883.10359 899.00000
95.19082 883.05306 837.00000
95.20106 883.00625 910.00000
95.21130 882.96323 848.00000
95.22155 882.92332 862.00000
95.23179 882.88651 889.00000
95.24203 882.85272 875.00000
95.25227 882.82186 896.00000
95.26251 882.79422 856.00000
95.27275 882.76993 881.00000
95.28299 882.74722 890.00000
95.29324 882.72672 933.00000
95.30348 882.70856 865.00000
95.31372 882.69270 904.00000
95.32396 882.67909 876.00000
95.33420 882.66769 892.00000
95.34444 882.65850 867.00000
95.35468 882.65154 870.00000
95.36493 882.64685 872.00000
95.37517 882.64450 866.00000
95.38541 882.64459 839.00000
95.39565 882.64724 879.00000
95.40589 882.65261 913.00000
95.41613 882.66087 883.00000
95.42637 882.67225 845.00000
95.43662 882.68698 875.00000
95.44686 882.70533 885.00000
95.45710 882.72760 834.00000
95.46734 882.75421 916.00000
95.47758 882.78554 861.00000
95.48782 882.82195 846.00000
95.49807 882.86389 962.00000
95.50831 882.91190 891.00000
95.51855 882.96653 860.00000
95.52879 883.02845 896.00000
95.53903 883.09838 896.00000
95.54927 883.17715 845.00000
95.55951 883.26570 894.00000
95.56976 883.36510 871.00000
95.58000 883.47656 826.00000
95.59024 883.60149 866.00000
95.60048 883.74148 894.00000
95.61072 883.89840 855.00000
95.62096 884.07455 897.00000
95.63120 884.27191 859.00000
95.64145 884.49333 914.00000
95.65169 884.74203 875.00000
95.66193 885.02155 900.00000
95.67217 885.33588 887.00000
95.68241 885.68945 841.00000
95.69265 886.08709 854.00000
95.70289 886.53389 848.00000
95.71314 887.03503 873.00000
95.72338 887.59536 865.00000
95.73362 888.21879 901.00000
95.74386 888.90734 905.00000
95.75410 889.66053 934.00000
95.76434 890.47203 900.00000
95.77458 891.32564 905.00000
95.78483 892.19705 918.00000
95.79507 893.05095 903.00000
95.80531 893.84174 905.00000
95.81555 894.51731 890.00000
95.82579 895.02798 918.00000
95.83603 895.33756 865.00000
95.84628 895.40870 882.00000
95.85652 895.25211 910.00000
95.86676 894.87704 867.00000
95.87700 894.32889 909.00000
95.88724 893.65902 903.00000
95.89748 892.91736 894.00000
95.90772 892.14851 890.00000
95.91797 891.38541 881.00000
95.92821 890.63066 920.00000
95.93845 889.94119 940.00000
95.94869 889.33545 867.00000
95.95893 888.80185 880.00000
95.96917 888.34093 883.00000
95.97941 887.95216 899.00000
95.98966 887.63367 873.00000
95.99990 887.38301 958.00000
96.01014 887.19760 897.00000
96.02038 887.07501 887.00000
96.03062 887.01303 839.00000
96.04086 887.00985 881.00000
96.05110 887.06516 906.00000
96.06135 887.17846 879.00000
96.07159 887.33143 881.00000
96.08183 887.54446 874.00000
96.09207 887.79092 858.00000
96.10231 888.04566 866.00000
96.11255 888.29923 888.00000
96.12279 888.53233 876.00000
96.13304 888.71911 894.00000
96.14328 888.84012 886.00000
96.15352 888.87549 901.00000
96.16376 888.81269 946.00000
96.17400 888.64944 884.00000
96.18424 888.39323 880.00000
96.19449 888.05937 907.00000
96.20473 887.66786 945.00000
96.21497 887.24010 889.00000
96.22521 886.79607 935.00000
96.23545 886.35250 857.00000
96.24569 885.92215 938.00000
96.25593 885.51372 896.00000
96.26618 885.13248 866.00000
96.27642 884.78064 812.00000
96.28666 884.45671 853.00000
96.29690 884.16404 926.00000
96.30714 883.89965 881.00000
96.31738 883.66091 869.00000
96.32762 883.44459 864.00000
96.33787 883.24145 897.00000
96.34811 883.05164 895.00000
96.35835 882.89255 880.00000
96.36859 882.74950 912.00000
96.37883 882.61977 864.00000
96.38907 882.50190 869.00000
96.39931 882.39450 870.00000
96.40956 882.29609 894.00000
96.41980 882.20656 851.00000
96.43004 882.12467 887.00000
96.44028 882.04951 840.00000
96.45052 881.98048 852.00000
96.46076 881.91691 892.00000
96.47100 881.85818 829.00000
96.48125 881.80360 869.00000
96.49149 881.75345 913.00000
96.50173 881.70705 865.00000
96.51197 881.66400 921.00000
96.52221 881.62401 866.00000
96.53245 881.58650 858.00000
96.54270 881.54910 898.00000
96.55294 881.51661 883.00000
96.56318 881.48652 886.00000
96.57342 881.45843 889.00000
96.58366 881.43219 844.00000
96.59390 881.40763 819.00000
96.60414 881.38432 897.00000
96.61439 881.36264 858.00000
96.62463 881.34256 903.00000
96.63487 881.32379 922.00000
96.64511 881.30621 843.00000
96.65535 881.28975 873.00000
96.66559 881.27434 865.00000
96.67583 881.26042 875.00000
96.68608 881.25276 885.00000
96.69632 881.24439 871.00000
96.70656 881.23327 845.00000
96.71680 881.22243 865.00000
96.72704 881.21197 887.00000
96.73728 881.20249 889.00000
96.74752 881.19368 896.00000
96.75777 881.18550 927.00000
96.76801 881.17792 848.00000
96.77825 881.17091 874.00000
96.78849 881.16445 844.00000
96.79873 881.15852 842.00000
96.80897 881.15309 835.00000
96.81922 881.14814 860.00000
96.82946 881.14365 867.00000
96.83970 881.13961 940.00000
96.84994 881.13600 843.00000
96.86018 881.13281 853.00000
96.87042 881.13001 875.00000
96.88066 881.12760 887.00000
96.89091 881.12557 785.00000
96.90115 881.12390 843.00000
96.91139 881.12363 856.00000
96.92163 881.13483 925.00000
96.93187 881.14808 865.00000
96.94211 881.15085 850.00000
96.95235 881.15121 831.00000
96.96260 881.15176 901.00000
96.97284 881.15261 855.00000
96.98308 881.15376 845.00000
96.99332 881.15521 907.00000
97.00356 881.15695 876.00000
97.01380 881.15898 897.00000
97.02404 881.16128 822.00000
97.03429 881.16387 868.00000
97.04453 881.16673 859.00000
97.05477 881.16986 875.00000
97.06501 881.17327 904.00000
97.07525 881.17694 894.00000
97.08549 881.18087 852.00000
97.09573 881.18507 895.00000
97.10598 881.18953 846.00000
97.11622 881.19425 857.00000
97.12646 881.19924 848.00000
97.13670 881.20448 825.00000
97.14694 881.20999 912.00000
97.15718 881.21575 867.00000
97.16743 881.22178 875.00000
97.17767 881.22806 913.00000
97.18791 881.23461 872.00000
97.19815 881.24143 871.00000
97.20839 881.24851 909.00000
97.21863 881.25585 923.00000
97.22887 881.26347 945.00000
97.23912 881.27136 920.00000
97.24936 881.27952 948.00000
97.25960 881.28796 925.00000
97.26984 881.29667 893.00000
97.28008 881.30567 938.00000
97.29032 881.31496 855.00000
97.30056 881.32454 843.00000
97.31081 881.33442 847.00000
97.32105 881.34459 872.00000
97.33129 881.35507 967.00000
97.34153 881.36586 905.00000
97.35177 881.37697 928.00000
97.36201 881.38839 830.00000
97.37225 881.40015 906.00000
97.38250 881.41224 885.00000
97.39274 881.42468 878.00000
97.40298 881.43746 819.00000
97.41322 881.45061 817.00000
97.42346 881.46412 876.00000
97.43370 881.47800 915.00000
97.44394 881.49227 892.00000
97.45419 881.50694 912.00000
97.46443 881.52201 831.00000
97.47467 881.53750 855.00000
97.48491 881.55342 898.00000
97.49515 881.56978 843.00000
97.50539 881.58659 853.00000
97.51564 881.60387 846.00000
97.52588 881.62163 919.00000
97.53612 881.63989 923.00000
97.54636 881.65867 833.00000
97.55660 881.67797 915.00000
97.56684 881.69783 825.00000
97.57708 881.71824 862.00000
97.58733 881.73925 872.00000
97.59757 881.76086 856.00000
97.60781 881.78310 910.00000
97.61805 881.80600 906.00000
97.62829 881.82956 837.00000
97.63853 881.85382 894.00000
97.64877 881.87869 857.00000
97.65902 881.90438 889.00000
97.66926 881.93090 855.00000
97.67950 881.95824 882.00000
97.68974 881.98642 911.00000
97.69998 882.01547 898.00000
97.71022 882.04543 892.00000
97.72046 882.07633 912.00000
97.73071 882.10820 929.00000
97.74095 882.14108 902.00000
97.75119 882.17501 894.00000
97.76143 882.21002 832.00000
97.77167 882.24616 854.00000
97.78191 882.28344 914.00000
97.79215 882.32192 868.00000
97.80240 882.36162 910.00000
97.81264 882.40259 850.00000
97.82288 882.44484 894.00000
97.83312 882.48842 866.00000
97.84336 882.53335 851.00000
97.85360 882.57965 888.00000
97.86385 882.62736 864.00000
97.87409 882.67648 927.00000
97.88433 882.72704 907.00000
97.89457 882.77905 923.00000
97.90481 882.83215 869.00000
97.91505 882.88393 879.00000
97.92529 882.93998 875.00000
97.93554 882.99798 868.00000
97.94578 883.05755 843.00000
97.95602 883.11870 865.00000
97.96626 883.18149 942.00000
97.97650 883.24597 855.00000
97.98674 883.31194 905.00000
97.99698 883.37938 874.00000
98.00723 883.44954 875.00000
98.01747 883.52203 869.00000
98.02771 883.59695 879.00000
98.03795 883.67455 901.00000
98.04819 883.75511 894.00000
98.05843 883.83876 904.00000
98.06867 883.92429 908.00000
98.07892 884.01470 919.00000
98.08916 884.11071 872.00000
98.09940 884.21188 885.00000
98.10964 884.31865 856.00000
98.11988 884.43162 925.00000
98.13012 884.55145 915.00000
98.14036 884.67887 867.00000
98.15061 884.81467 837.00000
98.16085 884.95971 866.00000
98.17109 885.11495 912.00000
98.18133 885.28146 854.00000
98.19157 885.46041 848.00000
98.20181 885.65310 831.00000
98.21206 885.86088 861.00000
98.22230 886.08560 859.00000
98.23254 886.32907 894.00000
98.24278 886.59335 841.00000
98.25302 886.88078 844.00000
98.26326 887.19387 955.00000
98.27350 887.53570 912.00000
98.28375 887.91018 888.00000
98.29399 888.32093 826.00000
98.30423 888.77230 940.00000
98.31447 889.26923 927.00000
98.32471 889.81722 907.00000
98.33495 890.42232 876.00000
98.34519 891.09109 895.00000
98.35544 891.83049 897.00000
98.36568 892.64759 923.00000
98.37592 893.54925 895.00000
98.38616 894.54143 889.00000
98.39640 895.62827 932.00000
98.40664 896.81160 869.00000
98.41688 898.08940 875.00000
98.42713 899.45378 882.00000
98.43737 900.89060 952.00000
98.44761 902.37835 923.00000
98.45785 903.88759 892.00000
98.46809 905.38032 944.00000
98.47833 906.80822 924.00000
98.48857 908.12063 945.00000
98.49882 909.25581 951.00000
98.50906 910.14941 953.00000
98.51930 910.74334 927.00000
98.52954 910.99542 921.00000
98.53978 910.88891 979.00000
98.55002 910.43772 998.00000
98.56027 909.68476 929.00000
98.57051 908.69425 866.00000
98.58075 907.54076 915.00000
98.59099 906.29861 971.00000
98.60123 905.03409 880.00000
98.61147 903.80124 1039.00000
98.62171 902.64063 919.00000
98.63196 901.57961 938.00000
98.64220 900.63574 908.00000
98.65244 899.82183 853.00000
98.66268 899.14034 868.00000
98.67292 898.59133 917.00000
98.68316 898.17285 934.00000
98.69340 897.88178 884.00000
98.70365 897.71444 887.00000
98.71389 897.66691 888.00000
98.72413 897.73503 877.00000
98.73437 897.91415 905.00000
98.74461 898.19872 873.00000
98.75485 898.58168 922.00000
98.76509 899.05391 863.00000
98.77534 899.60366 885.00000
98.78558 900.21605 952.00000
98.79582 900.87261 930.00000
98.80606 901.55092 930.00000
98.81630 902.22429 955.00000
98.82654 902.86176 902.00000
98.83678 903.42875 972.00000
98.84703 903.89041 936.00000
98.85727 904.21017 926.00000
98.86751 904.33723 940.00000
98.87775 904.29242 935.00000
98.88799 904.07880 886.00000
98.89823 903.68234 888.00000
98.90848 903.13027 954.00000
98.91872 902.44841 960.00000
98.92896 901.67163 908.00000
98.93920 900.83641 911.00000
98.94944 899.97727 915.00000
98.95968 899.12413 886.00000
98.96992 898.30059 928.00000
98.98017 897.52480 913.00000
98.99041 896.80826 921.00000
99.00065 896.15607 890.00000
99.01089 895.56025 877.00000
99.02113 895.03547 920.00000
99.03137 894.58819 872.00000
99.04161 894.20261 895.00000
99.05186 893.87861 931.00000
99.06210 893.61065 899.00000
99.07234 893.39499 865.00000
99.08258 893.22816 910.00000
99.09282 893.10701 903.00000
99.10306 893.02871 912.00000
99.11330 892.99075 906.00000
99.12355 892.99084 876.00000
99.13379 893.02681 925.00000
99.14403 893.09641 893.00000
99.15427 893.19715 911.00000
99.16451 893.32602 928.00000
99.17475 893.47925 855.00000
99.18499 893.65216 868.00000
99.19524 893.83901 897.00000
99.20548 894.03321 917.00000
99.21572 894.22773 895.00000
99.22596 894.41585 856.00000
99.23620 894.59204 931.00000
99.24644 894.75287 871.00000
99.25669 894.89748 926.00000
99.26693 895.02770 918.00000
99.27717 895.14758 933.00000
99.28741 895.26161 911.00000
99.29765 895.36757 907.00000
99.30789 895.47755 908.00000
99.31813 895.61340 915.00000
99.32838 895.76404 905.00000
99.33862 895.93588 920.00000
99.34886 896.12933 902.00000
99.35910 896.34562 892.00000
99.36934 896.58538 935.00000
99.37958 896.84878 909.00000
99.38982 897.13571 938.00000
99.40007 897.44587 934.00000
99.41031 897.77889 904.00000
99.42055 898.13438 910.00000
99.43079 898.51197 885.00000
99.44103 898.91138 974.00000
99.45127 899.33242 894.00000
99.46151 899.77502 929.00000
99.47176 900.23926 891.00000
99.48200 900.72539 912.00000
99.49224 901.23381 873.00000
99.50248 901.76464 946.00000
99.51272 902.31740 961.00000
99.52296 902.89756 943.00000
99.53320 903.50373 862.00000
99.54345 904.13792 915.00000
99.55369 904.80171 922.00000
99.56393 905.49718 890.00000
99.57417 906.22661 829.00000
99.58441 906.99253 920.00000
99.59465 907.79768 870.00000
99.60490 908.64506 934.00000
99.61514 909.53788 919.00000
99.62538 910.47960 918.00000
99.63562 911.47395 922.00000
99.64586 912.52498 1003.00000
99.65610 913.63707 930.00000
99.66634 914.81501 984.00000
99.67659 916.06410 965.00000
99.68683 917.39019 907.00000
99.69707 918.79986 922.00000
99.70731 920.30049 912.00000
99.71755 921.90043 908.00000
99.72779 923.60922 928.00000
99.73803 925.43769 933.00000
99.74828 927.39823 927.00000
99.75852 929.50504 947.00000
99.76876 931.77432 901.00000
99.77900 934.22460 1003.00000
99.78924 936.87699 921.00000
99.79948 939.75554 934.00000
99.80972 942.88756 1000.00000
99.81997 946.30389 917.00000
99.83021 950.03872 1022.00000
99.84045 954.13267 986.00000
99.85069 958.62904 975.00000
99.86093 963.57608 996.00000
99.87117 969.02675 978.00000
99.88141 975.03808 1002.00000
99.89166 981.66988 990.00000
99.90190 988.98258 983.00000
99.91214 997.03351 1031.00000
99.92238 1005.87105 1052.00000
99.93262 1015.52610 1039.00000
99.94286 1026.00010 1070.00000
99.95311 1037.24945 1144.00000
99.96335 1049.16695 1152.00000
99.97359 1061.56265 1130.00000
99.98383 1074.14885 1216.00000
99.99407 1086.53673 1183.00000
100.00431 1098.25370 1308.00000
