#------------------------------------------------------------------------------
#$Date: 2019-10-09 09:46:25 +0300 (Wed, 09 Oct 2019) $
#$Revision: 219190 $
#$URL: file:///home/coder/svn-repositories/cod/cif/7/23/44/7234482.cif $
#------------------------------------------------------------------------------
#
# This file is available in the Crystallography Open Database (COD),
# http://www.crystallography.net/
#
# All data on this site have been placed in the public domain by the
# contributors.
#
data_7234482
loop_
_publ_author_name
'Felix Fahrnbauer'
'Stefan Maier'
'Martin Grundei'
'Nadja Giesbrecht'
'Markus Nentwig'
'Tobias Rosenthal'
'Gerald Wagner'
'G. Jeffrey Snyder'
'Oliver Oeckler'
_publ_section_title
;
 Heterostructures of skutterudites and germanium antimony tellurides -
 structure analysis and thermoelectric properties of bulk samples
;
_journal_name_full               'Journal of Materials Chemistry C'
_journal_page_first              10525
_journal_page_last               10533
_journal_paper_doi               10.1039/C5TC01509J
_journal_volume                  3
_journal_year                    2015
_chemical_formula_sum            'Co Ge0.74 Sb1.53 Te0.74'
_chemical_formula_weight         393.6
_chemical_name_common            'GeTe-doped cobalt antimonide'
_space_group_crystal_system      cubic
_space_group_IT_number           204
_space_group_name_Hall           '-I 2 2 3'
_space_group_name_H-M_alt        'I m -3'
_atom_sites_solution_hydrogens   none
_atom_sites_solution_primary     model
_atom_sites_solution_secondary   none
_cell_angle_alpha                90
_cell_angle_beta                 90
_cell_angle_gamma                90
_cell_formula_units_Z            8
_cell_length_a                   8.9166(3)
_cell_length_b                   8.9166(3)
_cell_length_c                   8.9166(3)
_cell_measurement_temperature    293(2)
_cell_volume                     708.92(4)
_computing_cell_refinement       SAINT
_computing_data_collection       'Spec software'
_computing_data_reduction        SAINT
_computing_structure_refinement  'SHELXL-2014/7 (Sheldrick, 2014)'
_computing_structure_solution    model
_diffrn_ambient_temperature      293(2)
_diffrn_measured_fraction_theta_full 1.000
_diffrn_measured_fraction_theta_max 0.991
_diffrn_measurement_device_type  'Heavy Duty (Huber)'
_diffrn_measurement_method       oscillation
_diffrn_radiation_type           synchrotron
_diffrn_radiation_wavelength     0.2946
_diffrn_reflns_av_R_equivalents  0.0521
_diffrn_reflns_av_unetI/netI     0.0334
_diffrn_reflns_Laue_measured_fraction_full 1.000
_diffrn_reflns_Laue_measured_fraction_max 0.991
_diffrn_reflns_limit_h_max       16
_diffrn_reflns_limit_h_min       -17
_diffrn_reflns_limit_k_max       17
_diffrn_reflns_limit_k_min       -17
_diffrn_reflns_limit_l_max       12
_diffrn_reflns_limit_l_min       -17
_diffrn_reflns_number            4064
_diffrn_reflns_point_group_measured_fraction_full 1.000
_diffrn_reflns_point_group_measured_fraction_max 0.991
_diffrn_reflns_theta_full        10.18
_diffrn_reflns_theta_max         17.13
_diffrn_reflns_theta_min         1.34
_diffrn_source                   'ESRF beamline ID11'
_exptl_absorpt_coefficient_mu    10.267
_exptl_absorpt_correction_T_max  1
_exptl_absorpt_correction_T_min  0.49
_exptl_absorpt_correction_type   multi-scan
_exptl_absorpt_process_details   SADABS
_exptl_crystal_colour            metallic_dark_grey
_exptl_crystal_density_diffrn    7.375
_exptl_crystal_description       microcrystallite
_exptl_crystal_F_000             1338.2
_exptl_crystal_size_max          0.0003
_exptl_crystal_size_mid          0.0002
_exptl_crystal_size_min          0.0001
_refine_diff_density_max         2.754
_refine_diff_density_min         -2.361
_refine_diff_density_rms         0.414
_refine_ls_extinction_coef       none
_refine_ls_extinction_method     none
_refine_ls_goodness_of_fit_ref   1.202
_refine_ls_hydrogen_treatment    none
_refine_ls_matrix_type           full
_refine_ls_number_parameters     10
_refine_ls_number_reflns         562
_refine_ls_number_restraints     0
_refine_ls_restrained_S_all      1.202
_refine_ls_R_factor_all          0.0475
_refine_ls_R_factor_gt           0.0353
_refine_ls_shift/su_max          0.000
_refine_ls_shift/su_mean         0.000
_refine_ls_structure_factor_coef Fsqd
_refine_ls_weighting_details
'w=1/[\s^2^(Fo^2^)+(0.0329P)^2^+4.9500P] where P=(Fo^2^+2Fc^2^)/3'
_refine_ls_weighting_scheme      calc
_refine_ls_wR_factor_gt          0.0804
_refine_ls_wR_factor_ref         0.0827
_reflns_Friedel_coverage         0.000
_reflns_Friedel_fraction_full    .
_reflns_Friedel_fraction_max     .
_reflns_number_gt                470
_reflns_number_total             562
_reflns_threshold_expression     'I > 2\s(I)'
_cod_data_source_file            J-Mater-Chem-C-2015-3-10525.cif
_cod_data_source_block           FFSM21B_K1
_cod_original_cell_volume        708.93(6)
_cod_database_code               7234482
_shelx_space_group_comment
;
The symmetry employed for this shelxl refinement is uniquely defined
by the following loop, which should always be used as a source of
symmetry information in preference to the above space-group names.
They are only intended as comments.
;
_exptl_absorpt_special_details
;
There is almost no absorption in such a microcrystal, the correction
by SADABS with a transmission ratio 0.49 / 1 describes scaling and beam
inhomogeneity rather than absorption.
;
_shelx_res_file
;

    xprep_csad11.res created by SHELXL-2014/7


TITL xprep in Im-3
CELL 0.29460   8.91663 8.91663 8.91663  90.000  90.000  90.000
ZERR   8   0.00026  0.00026  0.00026   0.000   0.000   0.000

LATT  2
SYMM -X, -Y, Z
SYMM -X, Y, -Z
SYMM X, -Y, -Z
SYMM Z, X, Y
SYMM Z, -X, -Y
SYMM -Z, -X, Y
SYMM -Z, X, -Y
SYMM Y, Z, X
SYMM -Y, Z, -X
SYMM Y, -Z, -X
SYMM -Y, -Z, X
SFAC Co Sb Ge Te
DISP Co 0.1905 0.1817
DISP Sb 0.0537 2.0709
DISP Ge 0.2870 0.3609
DISP Te -0.0510 2.2176
UNIT 8 12.24 5.93 5.93

SHEL 0.5 1000
ACTA

L.S. 10
BOND
FMAP 2
PLAN 20
EADP Sb2 Ge2 Te2
EXYZ Sb2 Ge2 Te2

WGHT    0.032900    4.950000
FVAR       0.13085   0.50596
CO1   1    0.250000    0.250000    0.250000    10.16667    0.00827    0.00827 =
         0.00827    0.00071    0.00071    0.00071
SB2   2    0.500000    0.343490    0.164588    20.50000    0.00715    0.01361 =
         0.01591   -0.00065    0.00000    0.00000
GE2   3    0.500000    0.343490    0.164588   -20.25000    0.00715    0.01361 =
         0.01591   -0.00065    0.00000    0.00000
TE2   4    0.500000    0.343490    0.164588   -20.25000    0.00715    0.01361 =
         0.01591   -0.00065    0.00000    0.00000
HKLF 4

REM  xprep in Im-3
REM R1 =  0.0353 for     470 Fo > 4sig(Fo)  and  0.0475 for all     562 data
REM     10 parameters refined using      0 restraints

END

WGHT      0.0335     11.3188

REM Highest difference peak  2.754,  deepest hole -2.361,  1-sigma level  0.414
Q1    1   0.5000  0.3257  0.2200  10.50000  0.05    2.75
Q2    1   0.5000  0.5000  0.5000  10.04167  0.05    2.30
Q3    1   0.5000  0.5000  0.0565  10.25000  0.05    1.68
Q4    1   0.5000  0.5000  0.1573  10.25000  0.05    1.56
Q5    1   0.4270  0.5000  0.0342  10.50000  0.05    1.51
Q6    1   0.5000  0.1580  0.0968  10.50000  0.05    1.47
Q7    1   0.5000  0.1641  0.0000  10.25000  0.05    1.43
Q8    1   0.5000  0.2058  0.0554  10.50000  0.05    1.43
Q9    1   0.5000  0.5000  0.2333  10.25000  0.05    1.35
Q10   1   0.5000  0.3293  0.2913  10.50000  0.05    1.32
Q11   1   0.5000  0.1599  0.2845  10.50000  0.05    1.31
Q12   1   0.3006  0.3697  0.1688  11.00000  0.05    1.31
Q13   1   0.4619  0.5000  0.2992  10.50000  0.05    1.25
Q14   1   0.4330  0.5000  0.2089  10.50000  0.05    1.24
Q15   1   0.5000  0.3978  0.0700  10.50000  0.05    1.23
Q16   1   0.5000  0.2203  0.2511  10.50000  0.05    1.19
Q17   1   0.3825  0.3340  0.1934  11.00000  0.05    1.15
Q18   1   0.3746  0.2264  0.0000  10.50000  0.05    1.15
Q19   1   0.5000  0.2503  0.0000  10.25000  0.05    1.14
Q20   1   0.4564  0.2529  0.1839  11.00000  0.05    1.10
;
_shelx_res_checksum              10910
_shelx_hkl_file
;
   0  -1   1  113.93    6.26
   0  -1  -1  106.58    6.02
   1  -1   0  110.52    6.23
   0   2   0  365.97   18.60
   0  -2   0  360.12   18.64
   1  -1  -2  197.83   10.60
  -2   1  -1  210.45   10.96
  -1   1   2  213.30   10.81
  -1  -2  -1  211.98   10.89
  -1   2   1  207.64   10.74
   1  -2  -1  188.98   10.58
  -1   2  -1  217.31   11.04
  -2   1   1  197.71   10.80
   1   2  -1  186.33   10.67
   2  -1  -1  204.65   10.91
   0  -2   2   19.21    2.04
   0   2  -2   16.81    1.87
  -2   0   2   17.46    1.42
   2   0  -2   21.89    1.43
   0   2   2   22.82    2.10
   0  -2  -2   21.73    1.75
   2  -2   0   19.68    2.28
  -2   2   2    0.46    1.10
   2  -2  -2    1.28    1.25
   2   2  -2    1.67    0.76
   2  -2   2    7.12    1.93
  -3   1   0 6408.03  300.72
   0   3  -1 5891.83  300.00
  -1  -3   0 1269.46   65.22
   1  -3   0 1233.92   65.57
  -1   3   0 1266.69   65.57
   3   0  -1 1364.41   66.77
   1   3   0 1388.40   65.49
  -3   0   1 1421.20   67.02
  -2   1   3 1998.66  102.44
   1   3  -2 2149.58  103.51
  -1   3   2 2048.91  102.14
   1  -3   2 2155.76  102.83
  -1  -3   2 2125.10  103.46
   2  -1  -3 2176.96  102.68
   3  -2   1 2078.87  102.78
  -1   3  -2 1960.80  102.56
   1   2  -3   32.03    2.66
   3  -1  -2   36.95    2.71
   2  -3   1   38.61    3.07
  -2  -3   1   31.07    2.30
   2   3  -1   30.57    2.16
  -1   2   3   27.89    2.86
   1  -2  -3   36.90    2.65
  -2   3  -1   37.04    3.29
  -2   3   1   30.82    2.81
  -3   1   2   30.25    2.54
   2  -3  -1   28.45    2.89
  -2  -3  -1   30.08    2.70
   3   0  -3 1037.30   55.14
  -3   0   3 1124.57   55.40
   0  -3   3 1097.74   55.17
   0   3  -3 1167.92   55.14
   0   3   3 1069.31   55.27
  -3   3   0 1171.41   55.68
   0  -3  -3 1072.77   54.70
  -3   3  -2  830.67   42.24
  -2   3  -3  910.13   42.69
   3  -2  -3  833.69   41.59
  -3  -3   2  773.53   42.27
  -2   3   3  818.32   41.71
   3  -3   2  794.78   42.22
  -2  -3   3  884.81   42.38
   2   3  -3  815.41   42.12
  -3   2   3  823.49   41.54
   2  -3  -3  899.18   41.71
  -3   3   2  796.63   41.76
   0  -4   0  199.47   11.07
  -4   0   0  212.06   11.47
   0   4  -2 1520.05   79.39
   0   4   2 1667.88   79.11
   0  -4  -2 1548.60   78.76
   0  -4   2 1532.88   79.38
  -4   2   0 1682.91   79.82
   4  -2   0 1676.58   79.56
  -1   4  -1   67.52    4.53
  -1  -4  -1   57.17    3.77
   1   4  -1   55.80    3.82
  -1   4   1   57.02    3.92
   4  -1  -1   52.79    3.96
  -4   1  -1   58.96    4.62
  -1  -4   1   63.26    4.23
  -4   1   1   68.74    4.36
   1   4   1   54.90    4.03
   1  -4   1   62.55    4.70
  -3   1   4  235.34   11.88
   4  -3   1  206.63   12.24
   1   4  -3  213.58   12.09
  -1  -4  -3  221.18   12.33
   4  -3  -1  237.09   12.42
   3   1  -4  224.19   11.72
   3  -1  -4  223.24   11.69
  -4   3  -1  231.22   12.91
  -1   4  -3  217.91   12.66
  -1  -4   3  216.58   11.95
  -2  -4   0 2890.52  137.04
  -2   4   0 2876.33  137.76
  -4   0   2 2736.64  138.79
   4   0  -2 2794.38  138.68
   2  -4   0 2779.82  137.78
   2   4   0 2754.33  136.89
  -2   2   4 1779.00   85.30
  -4   2   2 1667.06   85.04
   2  -4  -2 1857.59   85.32
  -2  -4   2 1792.31   85.48
   4  -2  -2 1758.65   85.30
   2   4  -2 1636.82   84.77
   2  -2  -4 1694.60   84.49
   2  -4   2 1737.92   85.45
  -2   4   2 1682.91   84.86
  -2  -4  -2 1640.37   85.01
   1   3  -4 1974.69  102.00
   3  -4  -1 1974.95  102.43
  -3   4  -1 2097.83  102.86
   3  -4   1 2160.17  102.51
  -4   1   3 2223.79  101.98
  -1   3  -4 2060.54  102.29
   4  -1  -3 2245.87  102.25
  -1   3   4 2026.77  102.24
  -3   4   1 2118.74  102.71
  -3  -4   1 1994.06  101.60
   3   4  -1 2012.17  101.85
  -3  -4  -1 1987.08  101.85
  -3   3   4 1099.50   55.84
   3  -3  -4 1192.53   55.91
   3   4  -3 1117.76   55.96
   3  -4   3 1084.65   56.58
   4  -3  -3 1059.28   56.03
  -3  -4   3 1145.72   56.41
  -3   3  -4 1037.75   56.83
   3   3  -4 1130.21   57.42
  -4   3   3 1207.56   56.12
   3  -4  -3 1183.50   56.50
   0   4  -4   91.91    6.05
   4  -4   0   76.37    6.42
   0  -4   4   83.97    5.78
  -4   0   4   94.88    5.26
   0  -4  -4   87.99    5.66
  -4   4   0   99.84    6.76
   4   0  -4   92.18    5.19
  -4  -4   0   97.77    5.85
  -2  -4   4  116.39    6.85
   4  -4  -2  122.77    7.49
  -2   4  -4  105.11    7.61
   4  -4   2  102.76    7.16
   2   4  -4  108.16    7.04
  -4   2   4  123.58    6.76
  -4  -4   2  106.16    6.17
  -4   4   2  126.84    7.76
  -2   4   4  111.66    7.05
  -4   4  -2  109.42    7.83
   4   4  -4 1733.97   91.15
  -4   4   4 1807.44   89.20
   4  -4  -4 1940.78   89.80
  -4  -4   4 1839.74   92.09
  -4   4  -4 1717.78   90.28
   0   5  -1    2.45    2.13
   5  -1   0    2.79    2.38
  -5   1   0    2.94    2.38
   0  -5   1    9.13    2.42
   0  -5  -1    7.29    1.74
   0   5   1    2.16    1.71
   0   5   3 1250.13   60.72
   3   0  -5 1150.67   60.11
  -5   3   0 1187.36   61.29
   0  -5  -3 1287.29   60.69
  -1  -5   0  325.07   17.46
  -5   0   1  334.02   17.48
   1  -5   0  330.06   18.08
   1   5   0  341.94   17.55
  -1   5   0  331.97   17.95
  -1   5   2   23.09    2.67
  -1  -5   2   18.44    3.46
  -1  -5  -2   19.87    2.58
   1  -5   2   16.38    3.58
   1  -5  -2   20.18    2.65
   1   5  -2   15.90    3.04
  -5   2   1   23.14    3.36
   5  -2  -1   17.70    3.49
   2  -1  -5   19.26    2.65
   1  -5   4   -0.91    2.97
  -5   4  -1    4.22    3.59
  -1   5  -4    1.48    3.11
   4   1  -5    2.48    1.14
   5  -4   1    3.35    2.87
   5  -4  -1    4.31    3.13
   1   5  -4   -1.95    2.77
   1  -5  -4   -0.63    2.04
  -1  -5  -4    2.89    2.16
  -4   1   5    0.66    2.15
  -1  -5   4    3.40    2.36
  -5   4   1    1.06    3.12
   4  -1  -5   -1.56    1.54
   2  -5  -1   47.94    3.91
  -2   5  -1   41.98    4.27
  -2   5   1   46.07    3.69
   2  -5   1   48.19    4.40
   5  -1  -2   43.89    3.75
  -5  -1   2   38.75    3.25
  -2  -5   1   40.08    3.33
   1  -2  -5   33.55    3.63
   2   5  -1   38.34    3.21
  -2  -5  -3  629.54   30.26
   2  -5  -3  554.55   29.59
   5  -3   2  541.39   30.32
   2  -5   3  636.12   30.27
  -3   2   5  555.84   29.66
   5  -3  -2  574.26   29.87
  -2   5  -3  555.60   30.18
  -2   5   3  576.68   29.74
  -5   3   2  579.14   30.29
  -5   3  -2  588.12   30.55
  -5   0   3 2395.24  113.34
   3  -5   0 2228.66  113.23
  -3  -5   0 2418.10  112.31
  -3   5   0 2245.88  113.16
   3   5   0 2264.26  112.57
   0  -3  -5 2208.25  112.85
   3  -5  -2   -1.22    2.63
   2  -3  -5    0.48    1.92
  -3   5  -2    2.24    3.71
  -3  -5   2    6.18    2.05
  -3  -5  -2    6.47    2.52
  -5   2  -3   10.46    3.65
  -2   3   5    3.35    2.83
   3  -5   2    1.88    2.94
  -3   5   2    8.70    2.53
   5  -2  -3    4.18    2.82
  -5   2   3    0.73    2.41
   2   3  -5    3.97    2.16
   3   5  -2    5.91    1.51
  -5   4   3  103.14    6.49
  -3   5  -4   84.20    6.79
   3  -5   4   84.72    6.91
   3   5  -4   92.44    5.80
  -4   3   5   92.59    6.15
  -3  -5   4   90.35    5.76
  -5   4  -3  102.62    7.51
   4   3  -5   85.84    5.26
   3  -5  -4   95.90    6.20
   5  -4   3   79.42    7.00
   4  -3  -5   98.79    6.07
   1   4  -5    7.37    2.29
   4  -5  -1    1.42    3.38
   4  -5   1   13.42    3.35
   5  -1  -4   15.09    2.79
  -1  -4  -5   10.06    3.01
   1  -4  -5    4.58    2.16
  -1   4  -5    2.14    3.02
  -5   1   4    6.00    1.80
  -5  -1   4    9.35    1.55
  -4  -5  -1   10.55    2.45
  -4   5   1    6.83    3.13
  -4  -5   1   11.16    2.21
  -1   4   5   14.58    3.33
  -4   5  -1   17.30    3.72
  -5   3  -4  715.57   36.16
  -5   3   4  699.72   34.68
   3   4  -5  643.29   34.38
  -3   4   5  658.75   34.77
   4  -5  -3  657.67   35.28
   3  -4  -5  695.37   34.77
  -4   5  -3  731.32   36.23
   4   5  -3  645.16   33.86
  -3   4  -5  703.79   35.91
   5  -3  -4  667.01   34.89
   5   0  -5   71.79    4.77
   0  -5  -5   77.39    5.57
  -5  -5   0   80.93    5.39
   0  -5   5   79.87    6.38
   0   5  -5   75.98    5.61
  -5   0   5   69.99    4.68
  -5   5   0   65.18    6.69
   5  -5   0   79.12    6.30
   2   5  -5    1.77    2.75
  -2   5   5   -1.06    2.85
  -2  -5  -5    6.06    3.55
  -5   5   2   -0.87    3.58
  -2   5  -5    1.73    3.63
  -5   5  -2    2.53    4.24
   2  -5  -5    4.84    2.48
  -2  -5   5    0.63    2.67
  -5   2   5   -1.42    2.05
   5  -5   2    5.03    3.68
  -5  -5   2    5.19    1.58
   5  -2  -5   -0.02    2.56
   5  -5  -2   -4.50    3.71
  -5   4   5    7.37    2.74
   5   5  -4    9.70    1.70
   4  -5  -5   12.36    2.92
  -4   5  -5    3.53    4.19
  -4  -5   5    4.65    2.52
   5  -5  -4    4.00    3.27
  -5   5  -4    4.67    4.05
   5  -5   4   16.37    4.60
   4   5  -5    8.93    2.02
  -5   4  -5   15.06    4.20
  -4   5   5   12.39    2.93
   5  -4  -5    4.48    2.89
  -5  -5   4    5.32    2.24
   0  -6   0 4658.04  230.87
   0   6   0 4849.65  230.46
  -6   0   0 4708.08  231.11
   0   6   2  339.76   17.49
   0  -6   2  319.56   18.19
   0   6  -2  319.78   17.75
  -6   2   0  341.26   18.11
   6  -2   0  309.77   17.62
   6  -4   0  386.40   21.13
  -6   4   0  424.00   22.28
   0   6   4  387.25   21.79
   0   6  -4  385.95   21.52
   4   0  -6  389.25   20.12
   0  -6   4  390.18   21.23
   0  -6  -4  411.17   21.28
   6  -1  -1   46.49    4.04
  -1   6   1   40.74    3.80
   1   6  -1   41.67    3.63
  -6   1  -1   35.41    4.42
   1   6   1   38.64    3.53
   1  -6  -1   35.13    4.13
   1  -6   1   44.11    4.99
  -1  -6  -1   35.86    3.73
  -1   6  -1   39.94    4.33
  -1   6   3 2464.99  127.99
   1   6  -3 2535.46  128.25
   1   6   3 2609.79  128.90
  -6   3   1 2553.26  128.95
  -1  -6   3 2573.65  128.64
   1  -6   3 2435.91  128.71
   6  -3   1 2721.45  128.80
  -1  -6  -3 2795.22  128.26
  -6   3  -1 2701.97  129.15
   3  -1  -6 2759.48  127.75
  -6  -5   1    6.04    2.62
   6  -5   1    7.16    3.68
   5  -1  -6    2.59    2.00
  -1  -6   5    5.70    3.33
   1  -6  -5    2.37    2.59
  -1   6  -5    2.96    3.95
  -1   6   5    3.29    3.69
  -6   5   1    3.61    3.97
   1   6  -5   -2.86    3.34
  -1  -6  -5    6.31    2.70
   1  -6   5   -1.46    3.52
   6  -5  -1    0.01    3.91
  -6   5  -1   11.93    5.00
   5   1  -6    1.46    1.42
  -5   1   6   -1.54    2.92
  -6   0   2  284.31   15.59
   2  -6   0  313.25   16.75
   2   6   0  277.25   15.44
  -2   6   0  299.75   16.53
  -2  -6   0  273.38   15.45
   2  -2  -6 1043.36   50.54
  -2   6  -2  918.64   51.25
  -2  -6  -2 1077.52   50.53
  -2   6   2 1021.98   50.88
   6  -2  -2  922.49   50.65
   2   6   2 1016.80   51.01
  -2  -6   2  943.43   50.45
   2  -6  -2 1035.36   51.12
   2  -6   2 1018.36   51.31
  -6   2  -2 1060.84   51.67
   2  -6  -4    0.42    2.56
   6  -4  -2    2.83    3.79
  -6   4   2    6.71    3.41
  -2   6   4    2.07    2.66
  -6   4  -2    3.91    3.65
  -2   6  -4    3.23    3.99
   4  -2  -6    2.51    2.10
   6  -4   2    6.09    3.62
  -4   2   6    8.00    3.06
   2  -6   4    6.10    3.59
  -2  -6   4    7.99    2.97
  -2  -6  -4    1.77    2.44
   2   6  -4    0.71    2.90
   3  -6  -1  429.34   24.44
   3   6   1  452.67   24.40
   6  -1  -3  466.66   24.01
  -3   6  -1  448.86   24.93
  -3  -6   1  463.01   23.76
  -3  -6  -1  453.70   23.94
   3   6  -1  458.78   23.52
  -6   1   3  485.44   24.23
  -6  -1   3  502.68   23.94
  -3   6   1  454.77   24.88
  -3   3   6  696.72   34.05
   3  -6   3  637.75   34.24
  -6   3   3  648.44   33.98
   3  -6  -3  709.69   34.31
  -6   3  -3  618.86   34.82
  -3  -6   3  677.70   33.57
   3   6  -3  668.13   32.84
  -3  -6  -3  629.81   33.68
  -3   6  -3  624.11   34.85
  -3   6   3  621.58   33.56
  -3  -6   5  617.14   31.31
   6  -5   3  621.80   32.80
  -3   6   5  605.84   31.99
   3   6  -5  607.90   31.27
  -6   5  -3  630.58   33.11
  -3   6  -5  576.69   32.19
   3  -6  -5  665.37   32.08
  -6   5   3  564.62   32.57
  -6  -5   3  631.27   30.77
   5  -3  -6  660.24   31.50
  -3  -6  -5  561.11   32.44
  -5   3   6  601.86   31.48
  -4   6   0  445.95   24.17
   0   4  -6  436.67   23.41
   0  -4  -6  442.52   23.69
  -4  -6   0  416.13   22.58
   4  -6   0  431.18   23.81
   6   0  -4  465.08   22.83
  -4   6  -2   92.69    6.94
  -4  -6   2   80.54    5.42
  -6   2   4   67.50    5.38
   4  -6  -2   87.82    6.85
   2   4  -6   73.32    5.52
  -4  -6  -2   88.29    6.26
   2  -4  -6   74.34    5.77
   4   6  -2   83.79    5.20
  -4   6  -4  858.31   44.16
   4  -6  -4  889.60   43.55
   4   6  -4  788.53   41.44
  -4  -6  -4  895.72   43.90
   6  -4  -4  908.85   43.49
   4  -6   4  851.89   43.51
   4  -4  -6  855.12   42.31
  -6   4  -4  810.87   43.59
  -4   4  -6  767.23   43.28
  -4   4   6  846.64   42.70
  -4  -6   4  808.42   42.28
   4   4  -6  792.07   41.87
  -4   6   4  843.52   42.90
  -6   4   4  798.59   42.51
  -1   5  -6  174.24   10.17
  -6   1   5  146.27    8.83
   1  -5  -6  148.49    9.45
  -5  -6   1  148.05    8.77
   1   5  -6  155.54    9.19
  -5  -6  -1  152.66    9.25
  -1  -5  -6  163.22   10.02
  -5   6  -1  149.74   10.44
   6  -1  -5  164.33    9.34
   3  -5  -6 1289.32   60.03
  -3   5   6 1105.97   59.99
   6  -3  -5 1286.37   60.24
  -6   3  -5 1095.35   61.51
  -6   3   5 1218.41   59.76
  -3   5  -6 1252.54   61.62
  -5  -6   3 1245.00   59.58
   5  -6  -3 1165.87   61.05
  -5   6  -3 1184.00   61.69
   3   5  -6 1106.39   59.27
  -5   6   3 1227.99   60.81
   5   6  -3 1182.25   59.33
  -5   5  -6   45.29    6.87
   5  -5  -6   36.99    4.68
   6  -5  -5   51.32    5.48
  -5   5   6   52.22    5.29
  -5   6  -5   40.09    6.56
   5  -6  -5   34.26    5.23
  -5   6   5   41.13    4.88
   5   6  -5   44.96    3.12
  -6   5  -5   44.24    6.68
  -6   5   5   41.58    4.52
  -5  -6   5   37.87    3.89
  -6   6   0 5096.67  255.93
  -6   0   6 5459.13  254.94
  -6  -6   0 5451.78  254.39
   0  -6  -6 5082.56  253.90
   6  -6   0 5278.16  255.39
   6   0  -6 4986.68  254.24
  -2   6   6  129.69    8.77
   6  -6  -2  112.30    8.93
   6  -6   2  110.31    8.52
  -2   6  -6  127.93    8.73
  -2  -6  -6  113.00    8.12
   2   6  -6  104.90    7.92
  -6   6  -2  118.17    9.72
  -6  -6   2  111.68    6.75
   2  -6  -6  107.09    7.57
  -6   2   6  121.55    7.43
   6  -6  -4   19.84    4.37
  -6   6  -4   20.22    5.80
  -6   6   4   21.04    4.33
  -6  -6   4   21.30    3.34
  -6   4  -6   24.38    5.17
  -4   6  -6   10.83    5.28
   6  -4  -6   18.08    3.74
   4   6  -6   24.93    3.95
   6  -6   4   30.30    5.13
  -6   4   6   22.07    3.65
  -4   6   6   29.93    4.49
   6   6  -6 1264.85   63.53
  -6   6   6 1236.81   63.95
  -6   6  -6 1293.95   65.54
   0  -7   1   94.60    6.84
   0   7   1   93.02    6.41
   0  -7   3  344.86   18.98
   7  -3   0  332.29   18.73
   0   7  -3  344.26   18.83
   0   7   3  328.02   18.54
   0  -7  -3  365.95   18.78
   0   7   5  210.44   12.99
   5   0  -7  195.11   11.11
   0  -7  -5  219.70   12.48
  -7   5   0  208.60   13.91
   0   7  -5  210.46   12.72
  -1  -7   0    0.88    2.73
  -1   7   0    2.51    2.84
   1  -7   0    8.88    3.50
   1   7   0    1.24    2.40
  -7   0   1    3.94    2.79
  -7   2   1  144.63    9.55
  -1  -7  -2  142.70    8.50
  -1   7  -2  136.26    9.03
   1   7  -2  142.99    8.54
  -1  -7   2  152.36    9.11
   7  -2  -1  127.62    8.92
   1   7   2  149.00    8.76
   1  -7   2  146.78    9.61
  -7   4  -1   63.70    6.63
   1   7  -4   60.75    5.74
   1  -7   4   59.50    5.40
   4   1  -7   63.25    4.68
  -1  -7   4   58.35    5.56
  -7   4   1   54.81    6.57
   7  -4   1   69.22    5.73
   7  -4  -1   58.52    5.31
   1   7   4   57.58    6.24
   4  -1  -7   64.14    4.35
   7  -6  -1   -5.19    4.43
   1  -7  -6    0.02    3.12
  -1   7  -6   -1.85    4.34
  -6   1   7   -3.85    3.50
   6   1  -7   -1.40    1.73
   6  -1  -7    0.77    2.43
   1   7  -6    6.97    3.99
  -7   6  -1   -4.29    4.94
  -1  -7  -6   -0.05    3.06
  -1  -7   6   -0.49    3.94
  -1   7   6    0.42    4.53
  -7  -6   1    3.46    3.02
   7  -6   1    8.22    4.48
  -7   6   1   -5.09    4.97
  -2  -7   1  158.15    8.97
   7  -1  -2  147.01    8.80
  -2  -7  -1  131.62    8.40
  -7   1   2  132.14    9.02
  -7   1  -2  153.68    9.61
  -2   7  -1  149.47    9.15
   2  -7  -1  129.58    9.02
   2  -7   1  139.85    9.79
   2   7  -1  132.37    8.37
   2  -7  -3 1133.79   60.74
   7  -3  -2 1220.77   61.24
  -2  -7   3 1147.42   60.73
   2   7   3 1238.38   61.69
  -2   7  -3 1273.75   61.73
  -7   3  -2 1276.30   61.99
  -7   3   2 1171.67   61.42
   2   7  -3 1266.05   60.42
  -2   7   3 1129.42   60.79
   3  -2  -7 1229.29   60.03
  -2  -7  -3 1149.78   60.39
   2  -7   3 1277.00   62.08
   5   2  -7   19.69    2.41
   2   7  -5   24.47    4.80
  -7   5  -2   30.04    6.31
  -2  -7   5   24.63    4.61
  -2   7  -5   19.52    4.56
  -7   5   2   27.98    5.20
   2  -7   5   24.47    5.13
  -7  -5   2   28.79    3.51
   7  -5  -2   16.75    4.65
  -2   7   5   23.40    4.53
  -5   2   7   24.05    5.11
   5  -2  -7   19.01    3.18
   7   0  -3 3379.43  161.00
  -3   7   0 3217.93  162.19
   3  -7   0 3313.92  162.39
   3   7   0 3303.12  160.73
  -3  -7   0 3242.86  160.67
  -7   0   3 3305.52  161.30
   3  -7  -2   37.82    4.76
  -3  -7   2   44.89    4.39
  -3   7  -2   44.47    5.90
   3   7   2   37.01    4.97
  -3  -7  -2   43.91    3.75
   3  -7   2   28.33    5.15
  -7   2  -3   45.57    5.56
   3   7  -2   39.08    3.50
  -7   2   3   29.16    4.58
   7  -2  -3   34.02    4.30
  -3  -7   4  172.47   10.52
  -7   4   3  175.01   11.28
  -4   3   7  167.88   10.73
   3  -7  -4  172.14   10.57
   4  -3  -7  165.85    9.79
  -7   4  -3  169.92   11.30
   3   7  -4  183.50    9.69
  -3  -7  -4  187.42   10.31
   7  -4  -3  152.22   10.88
   3  -7   4  162.70   10.95
  -3   7   4  155.06   10.10
  -3   7  -4  164.33   11.33
  -7   6   3 1859.59   87.61
   3  -7   6 1834.83   88.31
  -6   3   7 1789.52   86.04
  -7   6  -3 1710.17   88.80
   7  -6  -3 1798.98   87.51
  -7  -6   3 1639.59   84.98
  -3  -7  -6 1722.52   87.49
   6  -3  -7 1730.76   85.69
  -3  -7   6 1630.05   85.75
   3   7  -6 1690.46   85.80
  -3   7  -6 1689.46   87.69
  -3   7   6 1713.01   86.71
   7  -6   3 1733.88   87.56
   4  -7  -1   68.10    7.17
   4   7  -1   60.43    4.73
  -4  -7   1   54.21    4.44
  -7   1   4   53.12    4.69
   4  -7   1   47.96    6.66
   7   1  -4   50.36    4.10
  -4  -7  -1   59.65    4.64
  -4   7   1   51.96    5.65
  -4   7  -1   64.96    6.27
   7  -1  -4   58.82    5.01
   4   7  -3 1335.12   67.37
  -4  -7   3 1374.67   68.18
  -4   7  -3 1391.60   70.51
  -4  -7  -3 1424.03   68.59
  -7   3  -4 1335.10   70.23
   4  -7  -3 1456.01   69.57
   7  -3  -4 1306.72   68.53
  -7   3   4 1402.25   68.69
  -3   4   7 1330.89   69.03
  -4   7   3 1278.14   68.73
   3  -4  -7 1409.23   68.17
  -4   7   5    6.05    3.48
  -5   4  -7    5.06    5.81
  -7   5  -4    0.76    4.96
  -7   5   4    2.87    3.49
   7  -5  -4   10.20    4.58
  -5   4   7    1.87    3.30
  -7  -5   4    1.22    1.68
   5  -4  -7    3.34    2.83
   4  -7  -5    4.83    4.06
  -4  -7  -5    8.13    4.30
   5   4  -7    6.19    1.85
   4  -7   5   -0.62    4.79
  -4  -7   5    4.35    2.83
  -4   7  -5   -8.38    5.39
   4   7  -5    5.10    2.32
   0   5  -7   33.72    5.02
   0  -5  -7   36.20    4.53
  -5   7   0   21.21    4.58
   7   0  -5   35.98    3.82
   5  -7   0   33.23    6.27
  -7   0   5   23.96    3.06
  -5  -7   0   30.46    3.62
  -7  -2   5   36.49    2.68
  -5   7   2   40.32    5.62
   5  -7   2   42.98    5.54
   7  -2  -5   34.74    5.19
   5  -7  -2   40.25    6.12
   2  -5  -7   40.05    4.25
  -5  -7  -2   44.50    4.30
   2   5  -7   37.71    4.33
  -5  -7   2   42.54    3.76
  -2   5  -7   38.72    5.88
  -7   2   5   44.99    3.90
   5  -7  -4   16.68    4.20
  -4   5  -7   24.11    4.63
  -5  -7  -4   17.88    4.65
   4  -5  -7   22.91    4.16
  -4   5   7   26.88    4.39
  -5   7   4   26.33    4.42
  -5   7  -4   29.12    5.69
   7  -4  -5   28.80    5.14
  -5  -7   4   13.22    3.51
  -7   4   5   13.95    3.40
  -7   4  -5   15.21    5.09
   5  -7   4   24.29    4.88
   4   5  -7   20.33    3.43
   5   7  -6   14.55    2.81
  -7   6   5   23.72    4.55
  -7   6  -5   21.29    5.62
   5  -7  -6   22.76    4.36
  -6   5  -7   15.43    5.88
  -7  -6   5   20.86    2.29
   6  -5  -7   25.51    4.85
  -6   5   7   20.35    4.40
  -5   7  -6   18.64    5.95
  -5  -7   6   22.45    3.92
  -5   7   6   21.27    3.89
   7   1  -6   47.69    3.67
   1  -6  -7   47.94    4.49
  -6   7   1   34.11    5.84
   7  -1  -6   32.80    4.82
  -7   1   6   44.27    3.94
   1   6  -7   39.71    5.16
  -6  -7   1   44.39    3.74
   6  -7   1   39.76    6.27
  -6  -7  -1   48.73    4.71
  -6   7  -1   35.38    5.95
  -1  -6  -7   41.33    5.08
  -7  -1   6   39.07    3.90
  -1   6  -7   45.79    6.16
  -3   6  -7  165.05   10.60
  -6  -7   3  131.64    8.60
   7  -3  -6  136.44    9.56
   3  -6  -7  155.82    9.40
  -3   6   7  158.73   10.68
  -6   7   3  142.57    9.93
   6  -7  -3  146.95   10.36
   6  -7   3  156.89   10.34
  -7   3   6  139.77    9.10
   3   6  -7  148.19    9.27
  -6  -7  -3  153.50   10.17
  -6   7   5  119.38    8.66
   6   7  -5  122.22    7.34
  -6  -7   5  125.24    7.72
   5  -6  -7  141.61    9.11
  -5   6   7  131.22    9.20
  -6   7  -5  114.89   10.36
   7  -5  -6  124.26    9.11
   6  -7  -5  111.19    8.76
   6  -7   5  123.40   10.17
   5   6  -7  121.91    7.34
  -7   5  -6  120.37   10.61
  -7   5   6  118.22    8.26
  -5   6  -7  143.13   10.00
  -7   7   0    9.11    6.30
   7  -7   0    4.51    5.25
  -7  -7   0    6.49    3.10
   0  -7  -7   10.31    3.29
  -7  -7   2  128.04    7.57
  -7  -7  -2  124.44    9.30
   7   2  -7  121.93    7.10
  -2   7   7  135.82   10.08
  -7   2   7  126.85    8.18
  -7   7   2  116.13    9.60
   7  -7   2  109.34    9.09
   2   7  -7  144.82    8.95
  -7  -7   4   56.15    4.73
  -4   7  -7   47.98    7.02
  -7   7  -4   50.93    8.04
  -4   7   7   45.13    6.21
   4  -7  -7   62.01    5.58
   7  -4  -7   66.14    6.09
   7  -7  -4   71.60    7.75
  -7   4  -7   76.70    8.73
   4   7  -7   59.49    5.81
   7  -7   4   50.57    7.42
  -7   4   7   65.76    5.90
   6  -7  -7    1.73    4.61
  -7  -7   6    4.28    2.36
  -7   7  -6    5.40    6.86
   7  -6  -7   17.40    5.14
  -6   7  -7    4.36    6.51
  -7   6  -7   18.43    6.81
   7  -7  -6    3.79    4.97
  -7   6   7    7.39    4.34
  -6   7   7   11.93    4.33
  -7   7   6    0.56    4.58
   6   7  -7    3.79    1.95
  -8   0   0  809.16   40.18
   0  -8   0  744.78   40.46
   0  -8   2  824.07   45.51
  -8   2   0  919.05   46.01
   0   8  -2  912.37   45.34
   0  -8  -2  845.84   44.97
   0   8   2  901.11   45.10
   0   8   4  139.26    9.75
   0   8  -4  154.25   10.13
   0  -8  -4  161.41    9.56
   4   0  -8  151.48    9.12
   0  -8   4  156.02   10.42
   8  -4   0  157.01   10.31
   6   0  -8    0.07    2.15
   8  -6   0    4.23    4.22
   0   8  -6   -1.12    4.50
  -8   6   0    1.64    6.00
   0  -8  -6    2.70    3.43
   0   8   6    2.64    5.71
   0  -8   6    2.22    4.34
  -8   1   1  133.00    8.85
  -8  -1   1  125.41    8.69
   1  -8   1  137.35    9.05
  -8   1  -1  131.63    8.73
   1   8   1  127.67    8.11
  -1   8   1  130.10    8.21
   1  -8  -1  145.65    9.20
  -1  -8   1  114.71    8.54
   1  -8   3   37.37    5.89
  -8   3  -1   40.72    5.74
  -1   8   3   37.32    4.73
  -8   3   1   46.32    6.35
  -1   8  -3   50.76    6.18
  -1  -8   3   49.65    5.50
  -1  -8  -3   51.91    4.62
   1  -8  -3   46.75    4.64
   1   8  -3   47.42    4.55
   8  -3  -1   33.95    5.28
   3  -1  -8   39.28    4.53
  -8   5   1   35.15    7.25
   1  -8   5   39.28    5.19
  -1  -8  -5   25.29    4.46
   1  -8  -5   38.64    4.51
   8  -5  -1   27.94    5.58
  -1   8  -5   37.53    6.71
  -1   8   5   40.14    5.30
  -8   5  -1   50.02    8.02
   1   8   5   46.45    7.02
  -1  -8   5   26.58    5.07
   8  -5   1   30.79    6.37
   5   1  -8   29.79    3.26
   1  -8   7  109.26    9.57
   1   8  -7  108.85    9.32
  -1  -8  -7  125.60    8.62
  -1  -8   7  130.44    9.47
  -8   7   1  137.71   10.28
  -8  -7   1  119.46    7.82
   7  -1  -8  127.60    8.15
  -8   7  -1  149.80   11.80
   1  -8  -7  125.05    8.51
   7   1  -8  127.63    7.65
   8  -7   1  139.56    9.73
  -1   8  -7  116.39   10.24
  -1   8   7  122.11   10.63
  -2  -8   0  438.94   23.43
  -2   8   2  358.07   20.67
  -2  -8  -2  405.97   20.86
   8  -2  -2  380.23   20.77
  -8   2  -2  401.37   22.09
   2   8  -2  363.07   20.22
  -8  -2   2  377.23   20.21
  -2   8  -2  403.59   21.40
   2  -2  -8  429.93   20.97
   2  -8  -2  359.40   21.47
  -8   2   2  355.44   20.81
   2  -8  -4    3.14    3.48
   2   8   4    3.67    4.81
  -8   4  -2   -8.17    5.13
   2  -8   4    4.88    4.32
   2   8  -4   -1.06    3.31
  -2   8  -4   -0.58    5.30
   8  -4  -2   -0.41    3.90
  -2  -8   4    3.78    3.99
   8  -4   2    3.72    4.89
  -2  -8  -4    4.16    3.11
  -8   4   2   -6.51    4.61
  -2   8   4   -2.74    3.30
   4  -2  -8   -2.68    2.45
   6   2  -8   16.13    2.33
   8  -6  -2   11.35    4.73
   2   8  -6   18.18    4.26
   2  -8  -6    8.90    3.39
  -8   6  -2   11.16    6.01
  -2   8  -6    8.05    5.49
  -8   6   2   15.49    5.12
  -2   8   6   12.13    4.18
   2  -8   6   14.47    4.76
  -2  -8   6   20.72    4.10
  -8  -6   2   16.78    3.32
  -6   2   8   15.35    4.23
  -2  -8  -6   12.20    3.56
   6  -2  -8   17.55    2.85
   3   8   1  423.95   23.82
  -8   1   3  453.46   24.02
  -3  -8  -1  458.72   23.71
  -3  -8   1  456.60   23.90
   3  -8  -1  447.63   24.78
   3  -8   1  425.86   24.83
  -8  -1   3  442.76   23.36
   1  -3  -8  478.16   24.38
   3   8  -1  447.16   23.27
  -3   8   1  447.82   24.20
   8  -1  -3  406.39   23.30
   3  -3  -8  178.06   10.42
  -3  -8  -3  205.17   11.42
  -3   8   3  171.62   11.38
  -8   3  -3  173.16   12.46
  -3  -8   3  175.64   11.51
  -8  -3   3  185.83   10.46
   3   8  -3  192.79   10.70
  -8   3   3  189.90   11.52
   3  -8  -3  193.07   12.13
   3  -8   3  180.05   12.47
   8  -3  -3  198.85   11.79
   8  -5   3  136.44   10.19
  -3   8  -5  118.56   10.19
   8  -5  -3  119.96    9.78
  -8  -5   3  125.93    7.41
  -5   3   8  139.77    9.68
   5  -3  -8  116.05    7.93
  -8   5   3  134.39   10.05
  -3   8   5  125.74    8.89
  -8   5  -3  125.80   10.13
   3  -8   5  129.33    9.32
  -3  -8  -5  119.59    8.44
  -3  -8   5  141.20    8.69
   3   8  -5  123.73    8.00
  -3   8   7  387.42   21.14
   8  -7  -3  335.77   20.84
   8  -7   3  380.71   21.44
  -8  -7   3  366.66   18.99
   3   8  -7  372.06   19.85
  -3  -8   7  391.21   20.40
   3  -8  -7  343.11   20.32
  -7   3   8  389.32   20.13
  -8   7   3  348.15   21.17
   7  -3  -8  358.12   20.08
  -3  -8  -7  358.20   20.80
  -3   8  -7  357.09   21.40
  -4  -8   0   22.22    3.55
  -8   0   4   17.68    3.80
   4  -8   0   24.63    4.96
   8   0  -4   30.18    3.70
  -4   8   0   19.95    4.99
   0  -4  -8   31.34    5.37
   4   8   0   18.41    3.94
  -8   2  -4   -0.15    5.93
  -8  -2   4   -0.42    2.58
  -4  -8  -2    8.72    2.83
  -4   8   2    0.10    3.82
   4  -8   2    0.71    4.82
  -4  -8   2    9.10    3.06
  -8   2   4    6.03    3.98
   4   8  -2    2.29    2.44
   2  -4  -8   -2.43    2.74
  -4   8  -2   -0.40    5.67
   8  -2  -4    1.30    3.30
   8  -4  -4  517.72   26.16
   4  -8  -4  535.25   27.30
  -8  -4   4  483.85   25.15
  -4  -8  -4  493.34   25.92
  -8   4  -4  489.50   27.52
   4  -4  -8  498.62   25.48
  -8   4   4  485.89   26.59
  -4   8   4  510.07   26.55
  -4  -8   4  443.77   25.87
   4   4  -8  459.96   24.95
  -4   8  -4  442.28   27.24
  -8  -4   4  463.45   24.98
   8  -6  -4  140.54   10.79
  -8  -6   4  162.50    8.79
  -8   6   4  152.96   10.96
   4  -8  -6  158.39   10.68
  -4   8  -6  179.24   11.83
  -8   6  -4  146.15   11.43
   6  -4  -8  160.51    9.82
  -4  -8   6  175.73   10.16
  -6   4   8  141.84   10.51
   4  -8   6  186.38   12.00
  -4  -8  -6  158.19   11.18
  -5   8  -1   53.31    6.84
   5  -8   1   41.98    6.44
   5  -8  -1   50.47    7.69
   5   8  -1   45.28    5.18
  -5  -8  -1   51.30    4.56
  -5  -8   1   46.08    4.13
  -1  -5  -8   51.25    6.37
  -8  -1   5   42.06    3.58
  -1   5  -8   43.08    6.03
   1   5  -8   45.99    4.84
   8   1  -5   54.52    3.95
  -5   8   1   39.89    6.29
  -8   1   5   42.77    4.15
   1  -5  -8   39.32    4.61
   8  -1  -5   45.84    5.21
   3  -5  -8   48.41    4.66
   8  -3  -5   36.42    5.69
   3   5  -8   37.59    4.28
  -3   5  -8   34.05    6.24
  -8   3   5   42.91    4.70
   5   8  -3   41.15    4.06
  -5   8  -3   46.86    8.06
   5  -8  -3   32.31    6.26
   5  -8   3   44.12    6.37
  -5   8   3   46.32    5.24
  -5  -8  -3   41.78    4.84
  -5  -8   3   36.18    5.03
  -8   3  -5   50.91    7.30
  -5   5  -8    6.59    5.83
  -5  -8  -5    7.34    4.97
  -5   5   8   15.36    5.28
   5  -8  -5    1.89    5.39
   5  -8   5   10.85    5.07
  -5   8   5    7.32    4.34
  -8   5  -5   -1.28    6.40
   5   5  -8   11.90    2.53
  -5  -8   5    5.33    3.65
  -8   5   5    5.57    3.62
   5   8  -5    5.10    2.38
   8  -5  -5    9.22    4.76
   5  -5  -8   15.06    3.35
  -5   8  -5   18.61    6.35
  -8   7  -5   45.87    7.87
   5  -8  -7   54.63    7.01
   5   8  -7   48.62    4.22
   8  -7  -5   37.62    7.90
  -7   5  -8   42.73    8.49
  -8   7   5   36.15    6.13
  -5   8  -7   46.90    8.79
   7  -5  -8   42.16    5.94
  -5   8   7   56.56    6.44
  -7   5   8   47.86    6.34
  -5  -8   7   51.63    5.82
  -6  -8   0   10.54    2.79
   0   6  -8    2.99    4.41
   0  -6  -8   11.37    3.44
   8   0  -6    4.86    3.02
   6  -8   0    5.81    5.24
  -6   8   0    1.33    5.16
  -8   0   6    4.90    2.16
  -2   6  -8    6.16    4.75
  -6  -8   2    7.35    2.89
  -2  -6  -8   11.76    5.32
   6  -8   2   16.59    5.00
   8  -2  -6   11.13    3.78
   2  -6  -8    8.61    3.40
  -6   8  -2   23.60    6.22
  -6   8   2   22.25    5.24
   2   6  -8    7.44    3.55
  -8   2   6   10.30    2.89
   4   6  -8  669.22   34.64
  -8   4  -6  671.21   37.55
   4  -6  -8  702.93   35.18
  -6   8   4  708.00   36.47
  -6   8  -4  658.68   37.57
  -6  -8  -4  704.18   36.53
  -4   6  -8  703.94   37.27
  -6  -8   4  636.24   34.74
   8  -4  -6  661.26   35.97
   6   8  -4  652.75   34.45
  -4   6   8  689.63   36.94
   6   6  -8  260.99   13.16
  -8   6  -6  243.04   16.14
  -8   6   6  240.91   14.79
   6  -8   6  235.32   15.97
  -6   8  -6  249.94   16.48
  -6  -8  -6  241.60   15.98
   6   8  -6  235.60   13.15
   8  -6  -6  263.72   15.88
  -6   6   8  273.00   15.44
   6  -6  -8  272.23   15.02
   6  -8  -6  260.45   15.86
  -6   8   6  235.56   14.73
  -6  -8   6  248.42   13.77
   1  -7  -8   94.05    7.20
   8   1  -7  102.95    6.77
   8  -1  -7  104.05    7.45
   1   7  -8  105.09    7.95
  -1  -7  -8  107.96    7.40
  -8   1   7  104.55    6.93
  -7   8  -1   94.06   10.21
  -7   8   1   90.57    8.91
  -7  -8   1  105.97    6.89
   7  -8   1  113.18    8.63
   7  -8   3   13.12    5.49
  -8   3   7   18.39    3.29
  -7   8   3   13.86    5.17
  -3   7  -8    7.28    5.84
  -7   8  -3   16.18    6.59
   7  -8  -3   16.29    5.87
  -7  -8   3    9.04    3.07
  -7  -8  -3   16.57    4.69
   8  -3  -7    5.35    4.13
  -3  -7  -8   18.33    5.65
   3   7  -8    6.03    4.43
  -3   7   8   26.49    5.72
  -5   7  -8   20.90    6.08
  -7  -8   5   37.66    4.26
  -7   8  -5   14.87    7.38
   7  -8  -5   47.46    8.03
  -8   5  -7   31.73    7.12
   5   7  -8   26.90    3.76
  -5   7   8   29.43    6.22
  -8   5   7   26.88    4.75
   7  -8   5   33.88    6.43
   7  -7  -8   91.46    8.26
  -7   8  -7  115.27   10.02
   8  -7  -7  101.48    9.28
  -8   7   7  102.73    8.34
  -8   7  -7  104.91   10.56
  -7   8   7   91.71    8.29
  -7   7  -8   79.73    9.91
   7  -8  -7   85.54    8.95
  -7   7   8   89.53    8.57
  -8   8   0   -1.08    6.40
   0  -8  -8    7.40    4.01
   8   0  -8    5.82    3.21
   0   8  -8    4.74    4.90
   8  -8   0    3.94    5.68
  -8  -8   0    2.07    3.28
  -2   8  -8    8.70    6.40
  -8   8   2   22.39    6.31
  -8  -8   2   15.62    3.20
  -2  -8  -8   31.84    5.23
   8  -2  -8   19.52    3.85
   8   2  -8   20.79    3.01
  -8  -8  -2   25.58    5.07
   2  -8  -8   22.40    4.20
   2   8  -8   18.46    4.63
  -8   8  -2    5.29    7.85
   8  -8   2   28.00    5.80
   8  -8  -2   21.93    6.12
  -2   8   8   27.09    6.98
  -8   4  -8  145.00   12.44
   8  -8   4  150.09   11.63
  -4   8   8  115.42   11.41
  -4  -8  -8  139.17   10.78
  -8   8  -4  138.44   12.70
  -8   4   8  149.81    9.58
   4   8  -8  121.48    9.33
  -8   8   4  124.48    9.63
  -8  -8   4  145.25    8.54
   4  -8  -8  154.38    9.77
   8  -8  -4  118.55   10.57
  -8   8   6  124.27    9.40
  -8  -8   6  130.11    7.67
  -6   8  -8  144.18   11.49
   8  -6  -8  129.53    9.67
  -6   8   8  130.01   10.22
   8  -8  -6  112.57   10.35
  -8   6   8  128.45    9.86
  -8   8  -8   46.37    8.87
   8  -8  -8   42.23    8.10
  -8   8   8   59.57    8.41
   0   9   1 1513.87   79.41
  -9   1   0 1623.48   79.99
   0   9  -1 1605.50   79.30
   0  -9  -1 1662.05   80.09
   0  -9   1 1537.60   80.04
  -9   3   0  304.84   19.09
   0  -9  -3  295.58   17.70
   0   9  -3  293.47   18.35
   9  -3   0  335.78   18.49
   0  -9   3  339.21   18.92
   0   9   3  341.44   18.04
   0   9   5  757.25   37.94
   0  -9   5  665.44   37.44
   9  -5   0  722.05   37.78
  -9   5   0  691.19   38.35
   0  -9  -5  710.74   37.12
   0  -9   7 1217.96   60.47
   0   9   7 1035.58   61.10
   7   0  -9 1158.21   57.81
   0   9  -7 1230.94   60.44
   9  -7   0 1204.86   60.62
  -1   9   0  341.26   18.13
  -9   0   1  301.72   17.90
  -9   0  -1  324.74   18.86
  -1  -9   0  318.51   18.09
  -1   9  -2  529.75   27.31
  -1  -9  -2  494.01   26.35
  -1  -9   2  476.50   27.09
   1  -9   2  450.93   27.04
  -1   9   2  493.92   26.52
   9  -2  -1  543.10   26.78
   1   9   2  464.55   25.99
   1   9  -2  489.28   25.67
  -9   2   1  489.20   27.07
  -9   2  -1  479.05   26.97
   4  -1  -9  542.27   29.07
   9  -4   1  545.09   30.92
  -9   4  -1  530.41   30.92
  -1  -9  -4  567.59   30.33
  -1   9   4  545.95   30.22
   9  -4  -1  604.93   31.02
   1   9   4  561.87   30.98
  -9   4   1  599.76   31.76
   1  -9   4  552.95   31.03
  -1   9  -4  606.05   31.12
   1   9  -4  578.36   30.66
   1  -9  -4  618.49   30.58
  -1   9  -6  130.09   11.32
  -1  -9   6  136.53    9.25
  -1  -9  -6  150.22    9.44
   1  -9  -6  152.95    9.43
  -9   6   1  124.74   11.45
   9  -6   1  152.77   10.59
   6  -1  -9  149.79    8.65
   1  -9   6  125.17    9.90
   1   9  -6  149.79   10.32
   9  -6  -1  143.28    9.97
  -1   9   6  132.41   10.23
   6   1  -9  156.05    8.30
   1  -9  -8  134.44    9.23
   9  -8  -1  151.92   11.39
  -9  -8  -1  142.86    9.90
   8   1  -9  129.96    8.34
   8  -1  -9  138.81    9.13
  -9  -8   1  128.90    8.40
  -1  -9  -8  137.40    9.38
   1   9  -8  137.84   10.12
  -9   8  -1  110.91   11.86
  -2   9  -1   25.99    5.36
   2   9  -1   19.87    3.84
  -9  -1   2   20.65    4.45
   2  -9   1   22.39    5.06
  -9   1   2   16.30    4.45
   2   9   1   18.78    3.27
   9  -1  -2   24.54    5.27
  -9   1  -2   15.93    4.93
  -2  -9   1   28.48    4.94
   2  -9  -1   27.37    5.61
  -2   9   1   14.48    3.68
  -2  -9  -1   20.18    3.86
   3  -2  -9  143.99    9.21
  -2  -9  -3  148.72    9.01
   2   9  -3  143.93    8.71
  -2   9  -3  145.76   10.50
  -2  -9   3  139.30    9.90
   2  -9   3  138.59   10.28
   9  -3  -2  123.62    8.92
  -9   3  -2  117.42   10.25
  -9   3   2  155.35   10.44
   2  -9  -3  125.23    9.67
  -2  -9  -5    1.59    3.45
  -2   9  -5    9.14    5.85
  -2  -9   5    9.09    4.68
   5  -2  -9    3.08    2.68
  -9   5   2   -1.64    5.45
   9  -5  -2    1.65    4.35
   2   9  -5    6.30    4.30
   2  -9  -5    6.27    3.84
   5   2  -9    4.19    2.91
  -9   5  -2    6.08    6.33
   2  -9   5    7.02    4.89
   9  -5   2    2.36    5.17
  -2   9   5    4.67    4.07
  -2  -9   7   26.04    5.60
   2  -9  -7   24.92    5.29
  -9   7  -2   33.97    7.98
  -2   9  -7   20.37    6.33
  -9  -7   2   30.35    3.60
   9  -7  -2   19.37    5.47
   2   9  -7   24.04    5.07
  -9   7   2   19.30    6.19
  -2  -9  -7   25.39    5.41
   9  -7   2   18.09    5.95
   2  -9   7   24.53    5.49
   7   2  -9   21.97    2.88
  -2   9   7   22.96    6.50
   3  -9   0  143.99   10.65
  -3   9   0  117.83    9.40
  -9   0   3  118.78    8.77
   3   9   0  132.62    8.26
   3  -9   2  285.96   17.19
  -3   9   2  296.73   16.39
   9  -2  -3  282.02   15.98
  -9  -2   3  260.64   15.13
  -9   2   3  272.04   16.49
  -3  -9  -2  276.67   15.67
  -3  -9   2  289.76   16.20
   3   9   2  285.70   16.92
  -3   9  -2  279.42   16.76
   3  -9  -2  274.85   16.89
   2  -3  -9  280.94   16.17
   9  -4  -3  435.85   23.61
  -9   4   3  442.48   24.39
   3   9  -4  396.40   22.57
   4  -3  -9  454.13   22.58
  -9   4  -3  413.20   24.47
  -3  -9   4  436.03   23.51
  -3   9   4  438.05   23.50
  -3  -9  -4  414.82   23.31
   3  -9  -4  412.75   23.98
   3  -9   4  455.63   24.41
  -3  -9  -6  104.31    7.95
   3  -9   6  107.25    9.30
   6  -3  -9  124.18    7.74
   9  -6  -3  126.70    9.34
  -3  -9   6  129.29    8.69
  -3   9   6  110.20    8.55
   3   9  -6  120.65    8.53
   3  -9  -6  117.55    8.16
   6   3  -9  113.57    6.57
  -9   6  -3  104.74   10.08
  -9   6   3  107.83   10.24
  -9  -6   3  109.29    6.78
   9  -6   3  114.60   10.73
   8  -3  -9   66.17    6.54
  -9   8   3   65.08    8.57
  -9  -8   3   71.39    5.06
  -8   3   9   74.14    8.01
   3   9  -8   87.64    7.62
  -3   9  -8   55.20    9.32
   3  -9  -8   69.86    6.97
  -9   8  -3   74.67   12.76
   9  -8  -3   75.30    9.74
  -4   9  -1  103.36    7.96
  -4  -9   1   90.33    6.33
   9  -1  -4   95.22    6.88
  -4   9   1   83.11    7.75
  -9   1   4   87.05    6.90
   1  -4  -9   95.00    7.25
   4   9   1   97.47    7.97
  -9  -1   4   84.63    6.95
   4   9  -1   93.74    6.52
   4  -9  -3  241.45   14.24
   9  -3  -4  234.03   14.04
  -4   9   3  245.03   14.40
  -9   3   4  238.36   14.61
  -4  -9   3  242.70   14.02
  -4  -9  -3  224.89   13.66
  -9   3  -4  224.04   15.34
   4   9  -3  242.02   13.15
  -9  -3   4  230.70   12.75
  -4   9  -3  222.73   15.32
   4  -9   3  246.07   14.66
  -4  -9  -5   42.18    5.53
  -9   5  -4   40.85    8.01
  -4   9  -5   50.21    8.64
   4   9  -5   35.61    4.14
  -4   9   5   48.12    6.59
   5  -4  -9   40.05    4.80
   4  -9   5   43.90    6.79
   9  -5  -4   53.59    7.14
  -4  -9   5   39.51    6.04
  -7   4   9   80.36    9.03
   4  -9   7   81.25   10.39
   9  -7  -4   84.35    9.50
   7  -4  -9  102.02    7.07
  -4  -9   7   89.73    7.47
   4   9  -7   81.15    7.14
  -9   7  -4   92.22   10.41
  -9  -7   4   91.48    5.72
  -4  -9  -7   94.03    7.71
  -9   7   4   99.14    9.17
  -4   9  -7  107.95   10.36
   9  -7   4   84.35   10.09
  -4   9   7  103.67    9.19
   4  -9  -7   91.54    7.86
   0   5  -9  359.26   19.86
   5   9   0  324.73   19.29
  -5   9   0  326.93   20.60
  -5  -9   0  334.64   18.78
   5  -9   0  389.93   20.82
   5  -9  -2  168.64   11.77
  -5  -9   2  180.96   10.51
  -2   5  -9  149.58   11.97
   9  -2  -5  173.62   10.74
   2   5  -9  178.27   10.50
   2  -5  -9  187.52   10.47
  -9   2   5  151.79   10.50
  -9  -2   5  152.58    9.31
  -5  -9  -2  176.67   10.62
  -5   9  -2  174.74   12.14
   5   9  -2  159.97   10.21
  -4   5  -9  216.89   14.56
  -5   9  -4  224.45   14.68
   9  -4  -5  207.12   13.39
  -5  -9  -4  208.84   12.71
   5   9  -4  226.42   11.97
  -5  -9   4  204.06   12.84
   5  -9  -4  222.11   13.71
  -5   9   4  195.21   13.21
   5  -9   4  207.34   13.51
  -9   4  -5  211.49   14.69
  -9   4   5  209.45   13.11
  -5  -9  -6  222.63   13.65
   6  -5  -9  188.40   12.37
  -5  -9   6  209.73   12.42
   5  -9  -6  192.38   13.32
  -6   5   9  207.63   13.14
  -6   5  -9  201.04   14.63
  -5   9  -6  237.85   15.38
   5   9  -6  214.25   11.66
   5  -9   6  201.77   13.87
  -5   9   6  208.10   13.45
  -9   6  -5  197.31   14.42
   6   5  -9  201.74   11.33
   9  -6  -5  225.55   13.44
  -8   5   9   54.33    6.61
  -9  -8   5   40.32    4.43
   5  -9  -8   35.36    6.68
   9  -8  -5   39.58    6.76
   8  -5  -9   40.53    7.03
  -5   9   8   49.49    7.84
   5   9  -8   41.03    5.05
  -9   8  -5   25.18    9.01
  -5  -9  -8   50.50    8.94
  -9   8   5   40.88    7.01
  -8   5  -9   47.19    9.49
  -5   9  -8   34.51    8.06
  -1  -6  -9  813.68   42.48
  -9  -1   6  806.38   40.31
  -1   6  -9  873.19   42.90
  -6   9   1  750.45   43.27
  -6   9  -1  758.06   43.64
   9   1  -6  877.76   40.66
   1  -6  -9  816.90   42.06
  -6  -9   1  807.97   41.07
  -9   1   6  779.43   40.73
   9  -1  -6  841.13   41.24
   6  -9   1  774.08   43.38
   1   6  -9  785.85   41.76
   6  -9  -1  835.41   43.78
  -6  -9  -3  243.87   13.93
   3  -6  -9  239.44   13.87
  -9   3  -6  215.97   15.74
   3   6  -9  233.79   13.38
  -6  -9   3  227.94   13.77
  -6   9   3  232.62   14.78
  -3   6  -9  242.63   14.71
   6  -9   3  210.07   15.01
  -6   9  -3  245.90   15.25
  -9   3   6  240.88   13.80
   6   9  -3  232.31   13.72
   9  -3  -6  247.99   14.13
   6  -9  -3  248.18   15.47
  -6  -9  -5  412.64   23.55
  -6   9   5  390.70   22.98
  -6  -9   5  386.04   21.76
   6  -9   5  444.40   23.98
  -6   9  -5  414.61   25.02
  -5   6  -9  402.09   23.95
   5   6  -9  390.55   21.21
   6   9  -5  391.66   20.96
   5  -6  -9  374.04   22.10
   6  -9  -5  405.95   23.33
   9  -5  -6  433.98   23.42
  -9   5   6  428.36   22.97
  -6   9   7  744.25   40.64
  -7   6  -9  738.93   41.91
  -9   7   6  740.80   40.64
   7  -6  -9  820.56   40.87
  -6  -9   7  715.09   38.92
   6   9  -7  817.78   38.55
  -6  -9  -7  789.45   42.19
  -6   9  -7  800.04   42.82
  -9   7  -6  799.22   42.92
  -7   6   9  749.68   40.60
   6  -9  -7  734.65   40.90
   0   7  -9  103.02    8.27
   0  -7  -9  107.11    7.82
  -7   9   0   80.68    9.26
  -9   0   7  109.25    6.50
  -7  -9   0  106.20    7.13
   2   7  -9  394.01   21.90
   7  -9  -2  428.83   23.85
  -7   9  -2  382.07   24.46
  -9   2   7  401.72   21.48
  -2   7  -9  372.35   22.91
  -7  -9   2  420.89   21.56
  -2  -7  -9  392.36   23.40
  -7  -9  -2  408.54   21.70
   7  -9   2  372.65   22.89
   2  -7  -9  438.44   22.41
   9  -2  -7  423.44   22.14
  -9   4   7  447.54   25.12
  -4   7  -9  476.92   26.68
   9  -4  -7  484.61   25.73
   7  -9  -4  455.75   26.64
  -7  -9   4  495.10   24.78
   4  -7  -9  436.27   24.89
   4   7  -9  454.73   24.67
  -7  -9  -4  461.40   26.25
  -7   9  -6   48.07   10.27
   7   9  -6   43.39    5.06
  -7  -9  -6   33.27    7.60
   7  -9  -6   66.33    8.66
   6  -7  -9   56.44    6.88
   6   7  -9   56.28    5.10
   9  -6  -7   39.90    8.32
  -9   6   7   44.22    6.10
   7  -9   6   45.52    7.94
  -9   6  -7   41.93    8.43
  -6   7  -9   31.08    7.89
  -6   7   9   58.07    8.13
  -7  -9   6   45.93    5.29
  -7   9   8  162.82   12.11
   7   9  -8  131.96    7.94
  -9   8  -7  149.14   12.45
  -9   8   7  126.22   10.78
  -7  -9  -8  127.64   12.93
  -8   7  -9  150.64   12.70
   7  -9  -8  156.86   12.32
  -7   9  -8  128.45   13.68
   9  -8  -7  129.09   10.96
  -1  -8  -9    8.50    4.27
  -9   1   8    9.42    3.15
  -8   9   1    8.27    6.35
   9  -1  -8    1.11    4.40
   1   8  -9    6.40    5.36
  -1   8  -9    8.71    5.05
  -8  -9   1    4.59    3.33
   9   1  -8    7.15    3.17
   8  -9  -1   23.71    6.33
   8  -9   1    9.66    6.28
   1  -8  -9   18.63    4.16
  -8   9  -1   19.48    7.74
  -8  -9  -1    3.04    3.71
   8  -9  -3   30.14    6.47
   3  -8  -9   36.24    5.63
  -3   8   9   26.03    7.53
  -8   9   3   30.47    6.26
  -8   9  -3   26.97    8.79
   3   8  -9   42.94    6.21
  -3   8  -9   41.26    7.41
  -8  -9  -3   33.48    5.94
  -8  -9   3   41.25    4.54
   9  -3  -8   30.62    6.00
  -9   3   8   36.24    5.36
  -3  -8  -9   54.09    7.93
   8  -9   3   37.26    6.39
   8  -9   5   31.58    7.13
  -5  -8  -9   19.41    8.06
   9  -5  -8   21.06    5.50
  -8   9   5   10.81    5.21
  -5   8  -9   14.78    7.01
   8  -9  -5    9.39    7.01
  -9   5   8   19.09    4.53
  -8  -9   5   13.90    4.21
  -8   9  -5   27.43    9.07
   5  -8  -9    9.49    4.52
  -9   5  -8   19.87    7.99
  -5   8   9   18.33    7.01
  -8  -9  -5   17.42    6.95
   5   8  -9   14.98    4.19
  -8   9   7   -3.94    5.68
   9  -7  -8    1.17    6.35
  -7   8   9   -2.27    6.06
   7  -8  -9    1.41    5.58
   7   8  -9    1.04    1.86
  -9   7  -8   -9.62    8.40
   8  -9  -7   -1.16    6.18
  -9   7   8   -0.74    5.54
  -8  -9   7    1.90    3.09
  -7   8  -9    5.67    8.65
  -8   9  -7    0.18    9.05
   0  -9  -9   56.30    6.15
   9  -9   0   46.13    6.51
   9   0  -9   44.30    5.61
  -9   9   0   46.10    8.30
   0   9  -9   55.74    8.00
   9  -9   2   58.15    9.16
  -9  -9   2   71.12    5.69
  -9   9  -2   65.55   12.29
  -9   2   9   64.82    7.59
   9  -2  -9   79.49    6.51
   2   9  -9   73.80    7.97
   9  -9  -2   90.57   10.67
  -9  -9  -2   72.03    7.71
  -2   9  -9   69.90    8.02
  -9   9   2   56.34    9.53
   2  -9  -9   72.23    7.19
   9   2  -9   76.60    5.30
  -2  -9  -9   63.24    7.13
   9  -9   4  120.22   10.93
   9  -9  -4  117.02   11.15
  -9   4   9  135.79    9.22
  -9  -9   4  115.77    7.60
  -4   9   9  100.28   12.01
  -9   9   4  132.14   10.41
   9  -4  -9  140.27    9.72
   4   9  -9  134.58    9.64
  -9   4  -9  107.71   13.04
  -9  -9  -4  108.49   10.90
  -9   6   9   65.54    8.02
  -6  -9  -9   53.96   11.60
   6   9  -9   57.99    4.90
   9  -6  -9   69.11    8.22
  -9   9   6   64.85    7.96
  -6   9   9   66.83    8.78
  -9   9  -6   62.20   12.00
  -6   9  -9   52.59    9.64
  -9   6  -9   37.31    9.73
   6  -9  -9   64.70    8.39
  -9  -9   6   48.84    4.74
  -8   9   9   16.17    6.85
   9  -8  -9   17.17    6.94
  -9   8   9   15.45    5.84
  -9   9   8   17.90    6.34
   8  -9  -9   10.40    7.77
   9  -9  -8    7.40    7.32
   0  10   0  201.16   12.12
   0 -10   0  203.46   13.15
 -10   0   0  207.89   13.48
   0 -10  -2    0.88    4.52
   0  10   2    2.55    3.71
   0 -10   2    2.74    5.25
   0  10  -2    4.27    4.27
 -10   2   0    7.24    4.73
   4   0 -10  514.53   28.32
  10  -4   0  542.59   29.63
   0 -10   4  575.61   29.84
   0  10  -4  533.75   29.22
   0 -10  -4  512.68   28.88
 -10   4   0  547.98   30.40
 -10   6   0    6.75    7.51
   0 -10  -6    8.71    4.22
   0  10   6    5.14    6.49
   0  10  -6    2.67    5.51
  10  -6   0    6.15    5.25
   6   0 -10    7.01    2.67
   0 -10   6    0.34    4.72
 -10  -8   0   98.00    8.17
   0  10  -8  105.74   10.68
   0 -10   8  104.15    9.60
  -1  10  -1    8.76    4.35
   1 -10  -1   17.19    4.60
 -10   1   1    7.60    4.52
 -10  -1   1   17.26    4.64
  -1 -10   1    4.64    4.60
  -1  10   1    9.67    3.57
   1  10  -1   13.01    3.32
  -1 -10  -1   14.31    4.33
   1 -10   1    6.64    5.25
 -10   1  -1    1.04    5.68
   1  10   1    6.65    3.50
  -1 -10  -3  119.00    8.35
  -1  10   3   99.55    7.87
   3  -1 -10  112.82    8.39
   1 -10   3  103.40    9.45
 -10   3  -1   96.69    9.08
 -10   3   1  114.90    9.32
  10  -3  -1  103.16    8.97
   1  10   3  124.16    8.36
  -1 -10   3  101.31    9.58
   1  10  -3  109.59    7.40
   1 -10  -3  122.30    8.95
  10  -5   1   -1.60    5.35
   1 -10   5    6.96    5.54
   1  10  -5    6.60    5.37
   1 -10  -5   -2.96    4.28
  -1  10  -5    0.26    6.09
  -1 -10   5   -6.73    5.57
 -10   5  -1   -2.86    6.93
  10  -5  -1    1.04    5.06
   5   1 -10    1.01    3.29
   1  10   5   -2.94    5.61
 -10   5   1    1.78    6.54
  -1  10   5    5.71    4.90
   5  -1 -10    2.89    2.88
  -1 -10  -5    1.60    4.24
   1  10  -7   25.71    5.59
   7   1 -10   20.86    3.09
 -10  -7   1   11.71    4.21
  -1  10  -7   12.33    6.64
 -10   7  -1    8.65    7.52
 -10   7   1   16.46    6.78
   1 -10   7   14.27    5.41
  -1  10   7   19.98    6.81
  10  -7   1   22.04    6.04
   1 -10  -7    8.49    4.27
  10  -7  -1   19.44    5.31
  -1 -10   7   13.35    5.66
 -10  -9  -1   61.23    7.00
  -1 -10  -9   51.72    7.10
   9  -1 -10   63.45    6.28
 -10  -9   1   61.18    5.48
   1 -10  -9   60.87    6.98
  10  -9   1   78.97    8.95
   9   1 -10   63.10    5.85
  10  -9  -1   55.38    8.45
  -1  10  -9   54.64    9.91
 -10   9  -1   60.21    9.81
 -10   9   1   70.82   10.67
   1  10  -9   46.57    9.59
   2  10   0  154.02    9.39
   2 -10   0  148.29   11.14
  -2 -10   0  163.86   10.66
  -2  10   0  135.75    9.94
 -10   2   2   34.84    6.80
   2  10   2   24.67    5.08
 -10   2  -2   32.70    6.97
  -2 -10   2   25.38    4.87
 -10  -2   2   26.98    5.25
   2 -10   2   30.90    5.87
  10  -2  -2   30.45    5.38
   2  10  -2   27.63    4.63
  -2 -10  -2   31.90    4.85
   2 -10  -2   32.30    6.39
  -2  10  -2   32.47    5.80
   2  10  -4  630.60   32.68
  -2 -10   4  626.76   33.18
  -2  10  -4  627.68   34.13
  10  -4  -2  586.16   33.22
   2  10   4  639.04   34.02
 -10   4   2  621.25   33.75
   2 -10  -4  659.81   34.14
   2 -10   4  624.72   34.14
 -10   4  -2  566.23   34.10
  -2  10  -6  547.16   31.64
   6   2 -10  573.72   28.47
 -10   6  -2  584.42   32.92
 -10   6   2  543.04   31.31
   2  10  -6  537.56   30.31
  -2  10   6  577.62   30.88
  10  -6   2  573.43   31.41
   6  -2 -10  524.57   28.93
   2 -10   6  606.35   31.10
  -2 -10   6  602.26   30.26
   2 -10  -6  514.33   30.17
  -2  10  -8  183.84   14.72
 -10   8  -2  162.34   14.00
  -2  10   8  183.34   13.95
   2 -10   8  153.43   12.43
  10  -8   2  153.55   12.20
   2  10  -8  181.58   12.42
   8   2 -10  156.21    9.67
  -2 -10   8  171.10   11.91
   8  -2 -10  169.50   10.77
  10  -8  -2  194.61   13.01
 -10  -8   2  173.63   10.13
   3 -10   1  739.51   39.25
 -10   1  -3  777.07   40.15
  -3  10  -1  696.40   38.95
  10  -1  -3  727.57   37.51
  -3 -10  -1  728.09   37.75
 -10   1   3  713.52   38.16
   3 -10  -1  718.41   39.02
   3  10   1  715.99   37.74
   3  10  -1  730.99   37.33
  -3  10   1  713.02   38.32
 -10  -1   3  710.28   37.31
  -3 -10   3  518.03   28.02
  10  -3  -3  526.43   27.47
   3 -10   3  518.96   28.74
 -10  -3   3  527.97   26.77
   3 -10  -3  457.91   28.07
 -10   3  -3  478.43   28.06
   3  -3 -10  507.42   26.50
  -3  10  -3  527.77   28.61
   5  -3 -10  273.00   15.83
  -3  10  -5  289.62   18.32
 -10   5   3  298.98   16.95
  -3 -10   5  299.15   17.10
  -3  10   5  307.59   17.21
   3  10  -5  271.80   16.01
   3 -10  -5  261.87   16.96
  -3 -10   7  652.47   32.64
 -10   7   3  595.81   34.21
   3 -10   7  576.75   33.66
   3 -10  -7  655.86   32.99
  -3  10   7  657.93   33.79
 -10   7  -3  606.91   34.68
   7  -3 -10  601.59   31.77
   3  10  -7  610.20   32.07
 -10  -7   3  557.17   30.73
   7   3 -10  629.75   30.47
  10  -7  -3  601.81   33.71
  10  -7   3  572.62   33.51
 -10   9   3  144.47   12.51
 -10   9  -3  151.56   13.64
   9  -3 -10  153.00   10.46
  10  -9   3  140.73   11.61
 -10  -9  -3  132.50   11.38
  -3  10  -9  126.82   11.79
   3  10  -9  140.20   10.98
 -10  -9   3  152.87    8.57
   3 -10  -9  149.71   10.31
  -9   3  10  133.36   10.77
 -10   0   4  659.32   34.38
  -4  10   0  658.29   36.21
  -4 -10   0  688.96   34.77
   4 -10   0  653.04   36.41
   4  10   0  649.33   34.47
  -4  10  -2  611.17   33.44
  -4 -10   2  605.00   31.95
   4  10  -2  631.41   31.22
  10  -2  -4  586.75   31.30
   2  -4 -10  620.83   32.14
 -10   2   4  570.15   31.85
  -4 -10  -2  563.92   31.71
   4  10   2  593.55   32.26
  -4  10   2  653.44   33.06
   4 -10   2  634.02   33.29
 -10   2  -4  594.74   33.77
 -10  -2   4  590.34   30.88
   4 -10  -2  596.29   33.02
 -10   4   4  121.51   10.09
   4  -4 -10  111.91    7.86
  -4 -10  -4  126.95    8.53
  -4  10  -4  137.57   10.94
   4 -10  -4  110.55    9.54
  10  -4  -4  117.58    9.49
  -4 -10   4  110.68    9.02
   4 -10   4  106.83    9.73
  -4  10   4  128.35    9.43
 -10   4  -4  109.61   10.63
 -10  -4   4  124.70    7.26
  -4 -10  -6   28.02    5.70
 -10  -6   4   30.24    3.24
  -4  10  -6   32.99    6.99
  -4 -10   6   38.05    5.71
   4 -10   6   47.19    7.51
  -4  10   6   49.76    7.18
   4 -10  -6   35.38    7.56
 -10   6  -4   28.26    7.16
  10  -6  -4   32.51    5.82
   6  -4 -10   33.80    4.87
 -10   6   4   31.37    6.25
  10  -8  -4    8.35    6.72
   4  10  -8    6.55    4.86
   8  -4 -10    2.29    4.77
 -10   8   4    1.19    6.70
 -10  -8   4    3.88    2.47
  -8   4  10    5.00    6.13
   4 -10  -8   -4.17    5.36
  -4 -10   8    3.08    4.97
  10  -8   4    4.68    7.95
  -4 -10  -8    4.16    4.93
 -10   8  -4    4.17    9.52
  -4  10  -8   -1.28    8.08
  -4  10   8    6.82    6.26
   1  -5 -10   -1.47    4.16
 -10  -1   5   -0.30    3.60
  -5 -10  -1    0.52    3.67
  -5 -10   1    2.12    3.82
  -5  10  -1    0.77    5.92
  10  -1  -5   -4.09    3.76
   5 -10  -1   -2.69    6.00
   5  10  -1    3.81    4.59
  -5  10   1    9.64    5.38
   5 -10   1   -5.25    6.14
 -10   1   5    7.54    4.11
 -10   3  -5   41.65    8.88
   3   5 -10   48.45    5.93
   3  -5 -10   44.34    5.20
  10  -3  -5   53.51    6.50
  -5  10  -3   48.46    9.33
 -10  -3   5   55.58    4.04
   5  10  -3   49.69    5.03
  -5  10   3   56.38    6.02
 -10   3   5   60.34    6.23
   5 -10  -3   38.85    7.74
   5 -10   3   47.64    7.81
 -10   5   5    5.69    5.16
  -5 -10   5    7.46    5.33
   5   5 -10    5.39    3.42
  -5  10   5   -0.08    5.18
   5 -10   5    3.09    6.00
  10  -5  -5    6.63    5.75
   5 -10  -5    7.28    6.06
   5  -5 -10    1.94    3.72
  -5   5 -10   -0.16    7.77
  -5  10  -5    4.72    8.13
   5  10  -5    6.81    3.07
 -10   5  -5    1.00    7.05
  -5 -10  -5    0.69    4.16
   7  -5 -10    2.64    4.17
   5 -10   7   -2.68    7.02
  -7   5  10   13.50    6.71
 -10   7  -5   -5.12    8.98
  -5  10  -7   -3.91    8.12
   5 -10  -7    8.30    6.30
 -10   7   5    5.21    5.75
   7   5 -10   -0.97    2.56
  -5 -10   7    2.94    4.53
  -5 -10  -7   -2.41    5.06
  -5  10   7   -1.30    5.42
  -7   5 -10   -0.92    8.94
  10  -7  -5    8.31    6.09
   5  10  -7   -3.11    3.18
 -10  -7   5    0.32    2.19
   5 -10  -9   27.22    6.52
  -5  10   9   26.30    7.97
  10  -9   5   14.41    9.31
   9  -5 -10   41.88    7.79
  -5  10  -9   11.87    8.48
   5  10  -9   25.45    4.27
  -5 -10  -9   28.08    6.95
  10  -9  -5   14.84    7.76
  -9   5  10   29.96    5.99
 -10   9   5   28.94    5.88
   0   6 -10    4.78    4.98
  -6  10   0   10.32    6.82
   0  -6 -10    1.64    4.92
  -6 -10   0    7.23    3.46
 -10   0   6    9.80    2.96
   6 -10   0    2.72    6.75
  10   0  -6   11.85    3.36
  -6  10  -2  224.45   14.61
   6 -10   2  188.00   13.83
  -2   6 -10  207.84   14.08
  -6 -10   2  219.03   12.42
   2   6 -10  197.76   12.18
  -6 -10  -2  198.69   12.12
 -10   2   6  210.33   12.25
   2  -6 -10  201.48   12.18
   6  10  -2  178.34   12.39
 -10   4   6   11.17    4.27
  10  -4  -6   21.96    5.55
  -6 -10  -4    9.63    4.33
   6  10  -4    8.28    3.29
   4   6 -10   12.40    3.80
   4  -6 -10   18.42    3.77
  -4   6 -10    5.62    6.97
  -6  10  -4    4.34    8.02
  -6 -10   4   10.54    4.76
 -10   4  -6   11.27    7.40
   6 -10   4    5.81    6.22
   6 -10  -4   10.67    6.35
  -6  10   4    4.19    5.38
  -6 -10   6  131.56    8.93
 -10   6   6  137.11   10.07
  -6 -10  -6  123.04    9.23
  -6  10  -6  118.19   13.01
   6 -10  -6  119.00   10.53
   6 -10   6  147.98   11.33
   6  10  -6  127.06    8.06
  10  -6  -6  122.19   10.56
   6   6 -10  124.87    8.23
  -6  10   6  128.33    9.74
  -6   6 -10  130.64   11.78
  -8   6  10    4.01    6.42
  -6 -10  -8   21.55    7.82
  -8   6 -10   29.31    8.79
   8  -6 -10    9.40    5.43
  -6 -10   8   13.01    4.87
 -10   8  -6    9.41   10.54
 -10   8   6    7.41    5.96
   6 -10  -8   22.25    6.48
  10  -8  -6   12.28    7.12
  -6  10  -8   21.87    9.12
  -6  10   8   14.56    6.68
   7 -10   1   16.59    6.91
   1   7 -10   15.69    5.07
  -7 -10   1   18.90    3.69
  -1   7 -10    9.35    5.89
  -7  10   1   24.15    7.00
  -7 -10  -1   20.86    3.83
  -7  10  -1   22.27    7.06
 -10  -1   7   18.53    3.07
  10  -1  -7   17.76    4.07
   7 -10  -1   11.62    7.02
  10   1  -7   13.82    2.83
   1  -7 -10   24.84    4.28
  -7  10  -3   75.92   12.03
 -10   3  -7   81.43   11.72
  -3   7 -10  104.79    9.92
   7 -10  -3  108.34   10.06
  -7 -10   3   93.11    7.34
   3   7 -10  111.15    7.66
  -7  10   3  115.35    9.62
 -10   3   7   96.95    7.33
  10  -3  -7   82.42    8.51
   7 -10   3   85.42   10.10
  -3  -7 -10  118.65   10.39
   7 -10  -5   13.11    7.09
  -7 -10   5    2.14    4.61
  -7  10   5    8.26    5.55
  -5   7  10   13.37    7.69
   5   7 -10    4.71    3.88
 -10   5  -7   16.00    9.32
  -7  10  -5   10.55    9.58
  -5   7 -10    5.14    8.16
  10  -5  -7    8.15    5.40
  -7 -10  -5   -0.73    5.47
   7  10  -5   13.46    3.87
 -10   5   7    5.70    4.51
   5  -7 -10   -0.02    4.01
   7 -10   5    6.37    6.56
  -7  10  -7    9.56    9.31
 -10   7   7   38.16    6.50
  -7 -10  -7   23.35    7.84
  -7   7  10   36.66    7.76
  10  -7  -7   40.81    6.63
  -7   7 -10   25.00    9.03
   7 -10  -7   17.77    6.39
  -7  10   7   19.28    6.29
   7  -7 -10   22.66    5.05
   7  10  -7   32.01    4.20
  -7 -10   7   17.79    4.35
 -10   7  -7   41.81    9.13
  -7  10   9   69.31    9.58
   7 -10  -9   41.82    9.38
   9  -7 -10   54.67    8.58
 -10   9   7   76.02    8.58
  -9   7  10   70.61    9.10
  10  -9  -7   50.70    9.61
 -10   0   8  553.54   28.36
   0  -8 -10  536.22   30.01
  10   0  -8  546.68   28.79
  -8 -10   0  535.49   29.31
  -8  10   0  587.23   32.39
   0   8 -10  580.96   30.31
 -10   2   8  172.12   11.03
   2  -8 -10  185.46   12.02
   2   8 -10  211.00   12.34
  -8 -10   2  192.81   11.31
  -2   8 -10  196.29   12.78
  10  -2  -8  194.35   12.20
   8 -10   2  172.20   13.02
  -8 -10  -2  184.88   11.76
  -8  10   4    4.05    5.70
  -8 -10   4    9.69    4.10
  -4  -8 -10   13.21    8.48
 -10   4  -8    0.32    8.77
  -4   8 -10    5.56    7.15
 -10   4   8   13.83    4.35
  10  -4  -8    4.49    5.65
   4  -8 -10    7.78    4.32
  -8  10  -4   11.77    9.74
   8 -10   4    5.25    7.66
  -4   8  10   -0.99    8.28
   8 -10  -4    3.16    7.07
   4   8 -10    5.69    4.90
  -8 -10  -4    4.55    5.25
 -10   6   8   62.81    7.26
  -8  10   6   59.40    8.38
  -6   8  10   52.31   10.87
  -8 -10  -6   48.20    9.05
   6  -8 -10   64.25    7.16
  -8 -10   6   59.99    5.88
 -10   6  -8   55.32   10.98
   8 -10   6   68.16   10.46
  -8  10  -6   75.23   12.25
  10  -6  -8   84.97    8.84
  -6   8 -10   67.14    9.92
  -8   8  10    9.46    6.42
  10  -8  -8    0.43    7.92
  -8  10   8    4.34    6.68
  -8 -10  -8    7.72    9.75
 -10   8   8   10.87    6.18
   8  -8 -10   16.94    6.81
   8 -10  -8    6.83    7.39
   1  -9 -10  265.95   16.32
   9 -10   1  272.37   18.11
  10  -1  -9  285.09   16.31
  -1  -9 -10  279.24   17.16
  -1   9 -10  308.09   17.97
   1   9 -10  254.66   17.23
  10   1  -9  270.63   15.33
  -9  10   1  284.74   18.47
 -10   1   9  278.35   16.33
  -9 -10   1  299.83   15.99
   9 -10  -1  288.12   18.34
  -9  10  -1  313.53   19.03
   9 -10   3  274.13   17.08
 -10   3   9  228.72   14.50
   9 -10  -3  227.34   18.19
  -9  10  -3  236.14   17.64
  -9  10   3  264.25   17.14
  -9 -10   3  243.85   13.66
  -3  -9 -10  253.91   15.86
  -9 -10  -3  230.43   14.70
   3   9 -10  265.26   15.18
   3  -9 -10  254.40   15.25
  10  -5  -9  108.28    9.53
  -9  10   5  103.58   10.42
 -10   5   9  130.75    9.25
  -5  -9 -10  114.39   12.35
  -9 -10  -5  116.63   10.41
   9 -10  -5  106.17   12.07
  -5   9 -10  125.69   12.94
   5  -9 -10  104.38    9.25
  -9 -10   5  105.88    7.88
   5   9 -10  115.28    8.85
  -9 -10  -7  285.91   19.45
  -9 -10   7  270.85   14.94
   7  -9 -10  275.03   17.98
   9 -10  -7  265.11   18.63
  10  -7  -9  279.63   17.93
  -7   9  10  295.71   19.54
 -10   7   9  279.06   17.61
  -9  10   7  281.74   18.56
   9 -10  -9   79.63   10.32
 -10   9   9   93.25    9.87
   9  -9 -10   79.70    9.71
   0 -10 -10   33.23    6.60
  10 -10   0   32.11    7.29
 -10 -10   0   31.12    5.30
  10   0 -10   28.17    5.56
   0  10 -10   16.67    7.30
 -10  10   0   51.41   10.41
 -10 -10   2   38.11    4.61
   2  10 -10   47.36    8.98
 -10 -10  -2   29.82    5.41
 -10   2  10   36.54    5.84
  10 -10   2   35.47    7.86
  10 -10  -2   37.76    7.70
   2 -10 -10   35.19    7.28
  10  -2 -10   46.03    6.73
 -10  10   2   42.79    8.88
 -10  10   4  354.15   23.47
  -4  10 -10  399.79   23.69
 -10 -10   4  392.86   20.38
 -10   4  10  386.61   22.05
  10 -10  -4  390.84   24.20
   4  10 -10  392.58   21.75
 -10 -10  -4  387.55   23.38
  -4  10  10  413.34   25.89
  10  -4 -10  335.47   21.27
  -6  10  10  205.01   16.38
 -10   6  10  207.22   14.02
 -10  10   6  201.58   13.55
 -10 -10  -6  194.73   15.09
   6 -10 -10  182.86   13.14
  10 -10  -6  169.05   14.27
   8 -10 -10  104.65   10.99
  10 -10  -8  105.05   12.34
  10  -8 -10   98.09    9.60
   0 -11  -1   39.17    7.57
   0  11  -1   42.64    5.44
   0  11   1   33.28    5.67
   0 -11   1   42.41    7.05
 -11  -1   0   36.29    7.22
   0  11  -3  514.50   29.04
   0 -11  -3  502.32   28.79
   0 -11   3  552.82   30.36
 -11   3   0  540.61   30.25
   0  11   3  595.48   29.70
   0  11  -5    2.67    5.31
   0 -11   5   -3.65    6.43
   0 -11  -5   -1.60    4.38
 -11   5   0   -1.93    7.63
   5   0 -11   -1.56    3.10
  11  -5   0    5.05    5.63
   0  11   5    0.97    5.41
   0 -11  -7   84.08    7.16
   0  11   7   65.71   10.89
   0  11  -7   58.67    8.64
  11  -7   0   73.77    8.51
   7   0 -11   85.17    5.81
   0 -11   7   69.71    8.59
 -11  -9   0  221.57   12.96
   0  11  -9  217.11   15.17
   9   0 -11  210.51   12.27
  11  -9   0  219.10   14.86
 -11   9   0  203.29   16.49
   0 -11  -9  186.97   13.36
 -11   0   1  183.68   12.38
  -1 -11   0  190.78   12.06
  -1  11   0  190.31   11.73
   1 -11  -2   11.83    5.71
   1  11  -2    3.24    3.85
 -11   2  -1    9.84    6.06
  -1  11  -2    7.33    5.14
  -1 -11  -2    8.74    4.49
 -11   2   1    6.59    5.74
  -1  11   2    1.65    4.60
  -1 -11   2    2.49    6.29
 -11  -2   1   -2.06    4.91
   1  11   2    7.03    3.96
   1 -11   2   -3.80    6.22
  -1  11   4   31.22    5.93
  -1 -11   4   15.99    6.32
  -1  11  -4   20.67    5.97
   4  -1 -11   13.73    4.13
 -11   4  -1   32.76    6.74
   1  11   4   15.04    5.41
  -1 -11  -4   28.58    5.29
 -11   4   1   14.10    7.19
   1 -11  -4   15.96    5.01
   1  11  -4   23.63    4.82
   1 -11   4   34.29    7.36
  11  -4  -1   24.28    5.57
 -11   6  -1  118.46   12.76
   1  11   6  129.61   12.47
   6  -1 -11  129.43    8.12
  -1 -11   6  130.95    9.72
   1 -11   6  125.12    9.90
 -11   6   1  143.64   12.21
  -1  11   6  127.49   10.65
  11  -6  -1  113.80   10.57
   6   1 -11  118.32    7.91
  11  -6   1  110.03   10.31
   1 -11  -6  130.34    9.41
  -1  11  -6  135.92   10.72
  -1 -11  -8    1.34    5.05
   1 -11  -8    2.42    4.89
  11  -8   1    3.14    7.02
  -1 -11   8    3.46    6.37
 -11  -8   1    5.35    4.34
 -11   8   1    5.36    8.30
  -1  11   8   -3.71    8.72
  -1  11  -8   -7.24    7.41
   8  -1 -11    3.76    3.52
 -11   8  -1    4.91    9.26
   1  11  -8    3.03    6.41
   8   1 -11    1.65    2.68
   1 -11   8   -1.81    6.72
   1  11 -10   16.78    7.49
  11 -10  -1   23.30    7.92
 -11 -10  -1   10.50    4.68
  -1  11 -10   15.37    7.43
 -11 -10   1   19.49    3.88
  10  -1 -11   15.51    4.72
 -11  -1   2    2.63    4.41
   2 -11   1   -0.99    5.84
  -2 -11  -1    4.14    4.38
   2 -11  -1    5.09    5.38
   2  11  -1    5.06    3.66
 -11   1  -2    1.71    5.93
  -2  11  -1   -1.55    4.79
 -11   1   2    0.30    5.24
  -2  11   1    7.34    4.47
  -2 -11   1   10.73    5.00
   3  -2 -11   52.79    6.54
  11  -3  -2   54.56    7.30
  -2 -11   3   45.74    7.70
 -11   3   2   49.39    8.53
   2  11   3   57.09    6.96
   2 -11   3   57.81    9.16
  -2  11  -3   48.58    8.60
  -2  11   3   50.28    5.93
  -2 -11  -3   62.97    5.86
 -11  -3   2   50.43    6.44
   2  11  -3   51.48    5.46
 -11   3  -2   37.73    7.36
   2 -11  -5    6.46    4.79
  -2  11   5    6.29    4.89
   5  -2 -11    2.14    3.03
   2 -11   5    1.98    6.06
  -2  11  -5    7.20    6.67
  11  -5  -2    7.23    5.36
 -11   5   2    8.79    6.91
  -2 -11  -5    1.78    4.37
  -2 -11   5    7.39    5.56
   2  11   5    0.66    7.25
   2  11  -5   -1.47    4.92
 -11   5  -2    1.85    7.71
   7   2 -11    4.94    2.53
   2 -11  -7   12.98    5.21
  11  -7   2   -0.51    6.46
  -2  11   7   18.42    6.90
  11  -7  -2    8.43    5.66
 -11   7   2   -2.38    6.74
  -2 -11   7   11.82    6.05
  -2  11  -7    5.40    7.75
   7  -2 -11    3.87    3.41
   2  11  -7    4.69    5.39
   2 -11   7    2.19    6.27
  -2 -11  -7   11.67    4.92
 -11  -7   2    2.60    4.01
 -11   7  -2    1.87    9.58
  -2  11  -9   14.63    8.00
  -2  11   9   -1.04    9.77
   2 -11  -9    7.38    5.05
 -11  -9  -2   10.49    6.31
  11  -9  -2   27.95    6.90
  -2 -11  -9   17.64    5.20
   2  11  -9   22.28    6.42
   9  -2 -11   28.00    5.86
 -11   9  -2   14.03   10.49
 -11   9   2   22.35    7.86
  11  -9   2   18.19    7.42
  -3 -11   0  414.32   22.75
   3 -11   0  374.09   23.70
  -3  11   0  403.42   23.01
 -11   0   3  405.79   22.87
  -3 -11   2    0.26    5.27
 -11   2   3    3.34    5.57
   3 -11  -2    3.98    5.92
  -3 -11  -2    4.97    4.22
  -3  11  -2    1.24    6.27
  11  -2  -3    3.13    4.56
   3 -11   2   -3.85    6.95
   3  11  -2   -1.19    3.73
 -11   2  -3   -9.45    6.30
   2  -3 -11   -2.56    5.10
   3  11   2   -1.67    5.10
 -11  -2   3    1.56    4.08
  -3  11   2   -3.01    4.24
  -3 -11  -4   19.79    4.71
   3  11  -4   31.27    4.77
  -3  11  -4   15.87    6.96
   3 -11  -4   27.83    6.16
  -3  11   4   40.38    6.31
  11  -4  -3   30.35    5.04
  -3 -11   4   15.77    5.69
 -11  -4   3   26.20    4.28
   3  11   4   11.75    6.70
   3 -11   4   30.18    6.53
 -11   4   3   22.35    6.31
 -11   4  -3   33.84    7.06
   4  -3 -11   29.52    3.81
  11  -6  -3  199.95   14.35
   3 -11  -6  228.93   13.75
  -3 -11   6  233.28   13.50
   3 -11   6  191.98   14.26
  -3 -11  -6  225.62   13.61
  -3  11  -6  246.57   16.65
 -11   6   3  213.69   14.60
   3  11  -6  240.33   13.29
   6   3 -11  214.24   12.19
 -11   6  -3  191.92   15.67
   3 -11  -8   16.28    5.62
   8   3 -11    9.36    2.15
  -3 -11  -8   16.67    5.45
 -11   8   3    6.42    8.20
  11  -8   3    8.38    7.63
  11  -8  -3   12.11    6.92
  -3  11  -8   15.00    8.12
  -3  11   8   16.95    7.65
 -11   8  -3    5.20   10.48
   3  11  -8   15.03    6.07
 -11  -8   3   10.23    2.72
   3 -11   8   16.21    6.95
   8  -3 -11   15.26    4.50
 -11 -10   3   20.33    4.05
  -3  11 -10   24.86    9.54
  11 -10  -3   28.58    7.90
   3  11 -10   23.29    6.75
  10  -3 -11   21.20    5.45
 -11  10   3   25.14    8.51
 -11 -10  -3   33.45    6.64
  11  -1  -4   -2.15    3.95
   4  11   1    3.99    5.57
   1  -4 -11    1.31    5.78
 -11  -1   4    4.93    4.33
   4 -11   1    0.77    6.46
   4 -11  -1   -0.30    6.69
  -4 -11  -1   -6.40    4.10
 -11   1   4    2.69    4.78
  -4  11  -1   -1.90    6.42
   4  11  -1   -1.44    3.86
  -4  11   1    6.00    5.33
  -4 -11   1    0.86    4.82
   4 -11  -3   82.68    8.61
  -4  11  -3   60.18    9.17
  -4 -11   3   67.70    7.95
   3  -4 -11   71.27    6.91
  -4  11   3   77.43    7.55
 -11  -3   4   80.81    6.49
 -11   3   4   91.08    8.29
  11  -3  -4   93.45    7.40
  -4 -11  -3   88.19    6.77
 -11   3  -4   90.35   10.76
   4 -11   3   82.55    9.43
   4  11  -3   80.90    6.70
   4 -11  -5    4.00    6.57
   4  11  -5    4.74    3.66
 -11   5  -4   -7.37    7.20
  -4 -11   5    3.45    5.81
  11  -5  -4    8.06    5.13
  -4 -11  -5    4.79    4.53
  -4  11  -5   -4.88    8.00
 -11   5   4   10.46    6.66
 -11  -5   4    6.87    3.65
   4 -11   5    0.98    6.60
  -4  11   5    5.05    5.32
   5  -4 -11    5.76    3.71
   7  -4 -11    3.11    4.03
   7   4 -11    0.11    2.11
  -4  11   7    4.71    6.20
  -4 -11   7    2.44    4.86
  -4 -11  -7   -6.61    4.89
   4  11  -7    9.27    4.10
 -11   7   4    4.42    6.81
  11  -7  -4    2.40    6.77
 -11   7  -4   14.60    8.88
   4 -11   7    1.21    6.94
  -4  11  -7    4.99    7.95
 -11  -7   4    1.03    2.16
   4 -11  -7    0.33    6.38
  -9   4  11   33.40    6.81
   4  11  -9   38.57    7.07
  -4  11  -9   35.97    8.86
 -11   9   4   30.98    7.82
  11  -9  -4   19.81    7.72
 -11  -9   4   21.14    3.67
   9  -4 -11   29.76    5.44
 -11   0   5   99.59    7.62
   5 -11   0   81.06   10.24
  -5 -11   0   97.45    7.71
   5  11   0   96.90    8.87
  11  -2  -5    2.16    4.08
   5  11  -2    8.44    3.65
 -11   2   5    4.74    5.37
  -5  11  -2    0.79    6.61
   2  -5 -11    8.76    4.01
   5 -11  -2   14.51    6.38
 -11  -2   5    7.11    3.51
  -5 -11  -2    5.03    4.23
  -5  11   2    4.34    5.09
   5 -11   2    6.54    6.36
 -11   2  -5    8.02    7.77
  -5 -11   4   28.42    5.59
 -11   4   5   16.75    5.59
 -11  -4   5   26.12    3.66
  -5  11  -4   17.83    8.76
 -11   4  -5   17.81    7.94
   5 -11   4   22.37    6.12
  11  -4  -5   28.41    5.37
  -5 -11  -4   13.77    4.23
  -5  11   4   23.94    5.21
   4   5 -11   26.37    4.67
   6  -5 -11   43.79    6.02
   5 -11   6   49.91    8.89
 -11   6  -5   62.94   10.16
   5  11  -6   60.46    5.61
  -5 -11  -6   55.28    7.48
   6   5 -11   63.17    5.23
 -11   6   5   66.80    8.89
   5 -11  -6   50.67    9.70
  -5 -11   6   54.43    6.70
  -5  11  -6   54.85   11.96
  11  -6  -5   47.21    6.99
  -5  11   6   62.81    8.11
   5 -11   8    0.99    8.94
   5  11  -8   -1.56    3.62
   5 -11  -8    8.88    6.92
  -8   5  11    2.66    7.19
 -11   8   5   -6.52    6.85
  -5  11  -8   -9.56   10.38
  11  -8  -5    3.38    7.49
  -5  11   8    8.08    7.03
  -8   5 -11   -6.56    9.93
 -11  -8   5    2.27    2.78
  -5 -11  -8   -4.72    5.93
  -5 -11   8    3.43    4.76
  10  -5 -11   10.64    5.81
  -5  11 -10    9.76    9.50
 -10   5  11   15.09    7.64
  11 -10  -5    9.09    8.64
 -11 -10  -5   35.08    8.71
  -6  11   1   18.00    6.71
  -6  11  -1   22.60    7.03
   6  11  -1   43.29    6.55
  11  -1  -6   25.35    5.44
  -6 -11   1   27.67    5.42
  -1   6 -11   24.15    6.21
  -6 -11  -1   25.25    5.35
   1  -6 -11   29.57    5.52
   1   6 -11   29.58    5.58
   6 -11   1   21.64    6.80
 -11  -1   6   30.52    4.01
 -11   1   6   36.94    5.09
  -1  -6 -11   27.05    6.87
   6 -11  -1   32.52    6.68
 -11  -3   6  350.28   17.75
   6 -11  -3  346.77   20.82
   3   6 -11  349.72   19.69
   6 -11   3  344.06   20.79
  11  -3  -6  319.50   19.73
  -6  11  -3  321.13   21.36
  -6  11   3  381.85   21.28
  -6 -11  -3  365.43   19.97
   6  11  -3  356.31   19.63
 -11   3  -6  352.71   21.72
  -6 -11   3  352.24   19.59
  -3   6 -11  339.81   21.38
   6 -11   5   -2.41    7.09
   5  -6 -11   -4.26    4.03
  -6 -11   5    1.43    4.89
   6 -11  -5   -1.27    6.35
  -6  11  -5  -10.08    9.17
 -11   5   6   -4.00    5.03
  -5   6 -11    1.83    7.63
 -11   5  -6   -9.41    8.65
  -6  11   5   -4.70    5.66
  -6 -11  -5    7.88    5.20
   5   6 -11    0.07    3.61
   6  11  -5   -1.73    3.39
  11  -5  -6   -4.23    5.83
  -6 -11  -7   44.44    7.72
  -6 -11   7   54.96    6.60
  -7   6 -11   60.42   11.20
  11  -7  -6   64.36   10.67
 -11   7   6   39.34    7.79
   6 -11   7   59.63   10.09
   6 -11  -7   44.01    9.21
  -6  11  -7   57.40    9.99
   6  11  -7   39.82    5.18
  -7   6  11   58.30   11.24
  -6  11   7   35.27    6.72
   7  -6 -11   47.93    6.54
 -11   9   6  139.59   11.32
  -9   6  11  142.52   13.59
  11  -9  -6  141.13   13.43
   9  -6 -11  135.53   11.19
  -7 -11   0  150.40    9.10
   0   7 -11  158.15   10.59
  11   0  -7  137.53    9.08
   0  -7 -11  132.66    9.84
  -7  11   0  133.26   11.90
  -2   7 -11    1.36    7.26
  -2  -7 -11   -3.35    7.11
 -11  -2   7    2.05    1.90
 -11   2   7    1.96    3.75
   7 -11  -2   -6.93    7.28
   2   7 -11    2.35    4.71
   2  -7 -11   -3.72    4.58
  -7  11   2   -1.68    6.18
  -7 -11   2    0.92    4.00
  -7  11  -2    4.83    8.57
   7 -11   2    2.47    6.48
  -7 -11  -2    2.84    4.31
  -4   7 -11   30.89    7.92
  -7  11   4   12.52    5.90
  -7 -11  -4   10.24    4.77
  11  -4  -7   12.37    5.75
   7  11  -4   11.71    4.84
   4  -7 -11    9.33    4.48
  -7  11  -4   21.06    9.86
   7 -11   4   14.48    7.55
   4   7 -11    5.89    4.11
  -7 -11   4   12.56    5.12
   7 -11  -4   13.59    7.46
 -11   4   7   23.16    4.58
 -11   4  -7    1.40    9.05
 -11   6   7   82.85    8.55
  -7  11   6   86.48    9.91
  -7 -11  -6   78.03    8.45
   7  11  -6   91.38    6.74
   6  -7 -11   80.27    7.71
  11  -6  -7  102.90   10.60
   7 -11  -6  108.01   10.04
  -6   7 -11  115.11   12.62
  -7  11  -6   87.66   12.11
   7 -11   6  103.84   11.15
  -7 -11   6  109.63    8.53
  11  -8  -7    9.02    7.45
  -7 -11   8    3.99    4.53
 -11   8   7    2.26    6.00
   7 -11  -8   13.24    7.58
   8  -7 -11    4.70    6.35
  -8   7  11    2.82    8.60
  11 -10  -7    4.49    9.58
  10  -7 -11    5.08    6.45
 -10   7  11    4.62    7.66
 -11  -1   8    0.13    2.66
   8 -11  -1    5.63    7.73
   8 -11   1    4.70    7.80
   1  -8 -11    1.04    4.51
 -11   1   8    4.95    3.24
  11   1  -8    1.48    2.90
  11  -1  -8    9.28    4.28
  -8 -11   1    4.23    4.01
  -8  11   1    5.11    8.06
  -1  -8 -11   -0.22    4.95
   1   8 -11    2.94    5.73
  -1   8 -11   -0.12    6.58
  -8  11  -1    6.36    8.31
  -8 -11  -1    3.62    4.19
   3   8 -11   23.72    5.37
  -8  11  -3   21.29    9.29
  -3   8 -11    5.13    7.39
  -8  11   3    5.43    6.92
   8 -11  -3   18.70    8.20
   8 -11   3    8.00    6.87
  11  -3  -8   23.87    5.87
  -8 -11  -3   15.30    4.67
  -8 -11   3   10.30    4.42
  -8  11   5    3.22    6.05
   8 -11   5   -6.60    7.32
  -8 -11   5   -2.20    5.07
  -8 -11  -5   -1.21    5.24
 -11   5   8    0.21    5.30
  11  -5  -8   -0.15    6.38
   8 -11  -5    2.40    8.03
   5   8 -11    3.17    4.48
  -5   8 -11   -6.28    8.86
   5  -8 -11    2.94    4.43
   8 -11  -7   -3.23    8.36
 -11   7   8    3.64    5.95
  11  -7  -8    8.45    6.97
  -7   8  11   10.27    9.09
   7  -8 -11    5.46    5.52
  -8 -11  -7    5.73    7.47
  -8 -11   7    7.34    3.97
 -11   9   8    1.64    7.59
   9  -8 -11    4.71    7.56
  -9   8  11    8.83    8.32
  11  -9  -8   13.35    7.94
  -9 -11   0  134.39    8.72
   9 -11   0  137.45   12.83
   0   9 -11  137.93   10.96
 -11   0   9  121.86    8.41
  -9  11   0  108.91   12.45
   0  -9 -11  107.53    9.33
  -9 -11   2   -0.61    3.86
  -9  11   2   -1.83    7.55
   2   9 -11   -0.60    6.27
 -11   2   9   -2.91    3.72
   9 -11   2   -2.01    8.22
   2  -9 -11    1.57    5.06
   9 -11  -2    1.92    8.23
  -9 -11  -2   -2.11    4.43
  -2   9 -11    4.43    7.44
  -2  -9 -11   -3.57    5.72
  11  -2  -9   -4.03    4.95
  -9 -11  -4   10.71    5.14
   4   9 -11   11.71    5.71
  -4   9 -11   22.11    7.51
 -11   4   9   10.79    4.80
  -9 -11   4   17.76    4.46
  -9  11   4   11.44    6.54
   4  -9 -11    7.97    4.99
   9 -11  -4   19.24    8.07
  11  -4  -9   19.11    5.96
   9 -11  -6   79.12   11.80
 -11   6   9   83.47    8.63
  11  -6  -9   92.04    9.86
   6  -9 -11   69.88    8.16
  -6   9  11   85.97   14.71
  -9 -11   6   73.40    6.82
  -8   9  11    0.28    9.11
  11  -8  -9    7.30    7.92
   8  -9 -11    1.47    7.39
 -11   8   9    5.02    6.46
  10  -9 -11    1.28    8.45
 -11   1  10   -1.56    4.66
  11  -1 -10    6.40    4.77
 -10 -11  -1   -2.65    4.26
 -10 -11   1    0.97    3.99
   1  10 -11    3.25    7.03
  -1  10 -11    3.92    7.52
  -3  10 -11   42.28    8.69
   3  10 -11   43.32    6.83
 -10 -11  -3   42.20    6.80
 -10 -11   3   40.70    5.01
  11  -3 -10   36.45    7.49
 -11   3  10   37.49    6.61
 -10 -11   5    4.28    4.23
  11  -5 -10   16.07    6.61
 -10 -11  -5    3.84    7.74
 -11   5  10    7.77    5.24
  -5  10 -11   -3.27    9.10
 -11   7  10    2.92    6.11
  11  -7 -10    5.02    8.18
  11  -9 -10   17.30    8.39
 -11 -11   0   16.65    4.43
   0  11 -11   17.05    8.09
 -11 -11  -2   -0.27    4.90
  -2  11 -11   -3.10    8.08
 -11 -11   2    6.36    3.37
   2  11 -11    0.73    7.04
 -11 -11  -4    6.43    7.33
  11  -4 -11   21.28    6.10
 -11   4  11    9.12    6.87
  -4  11 -11   11.39    9.15
 -11 -11  -6   28.93    8.90
 -11   6  11   15.40    6.37
  11  -6 -11    9.78    7.05
  11  -8 -11   -2.94    8.35
 -11   8  11   -0.66    7.40
 -12   0   0 1957.99  100.17
   0 -12   0 2029.13  100.95
   0  12   0 1979.35   99.26
   0 -12   2   45.25    7.92
 -12   2   0   37.91    6.49
   0  12   2   47.74    6.36
 -12  -2   0   60.33    8.18
   0  12  -2   43.32    5.76
   0 -12   4    5.76    6.58
   0  12  -4   11.38    5.82
   0 -12  -4   12.64    5.59
   4   0 -12   -2.11    4.95
   0  12   4   15.91    5.60
 -12   4   0   11.79    7.61
  12  -6   0  519.70   30.96
   6   0 -12  583.97   29.03
 -12   6   0  503.07   32.65
   0  12   6  609.86   32.87
   0 -12   6  609.25   31.42
   0  12  -6  539.11   30.72
   8   0 -12  143.54    7.90
 -12   8   0  117.75   13.87
  12  -8   0  118.83   10.96
   0 -12  -8  122.40    9.58
   0  12 -10   73.42   11.13
 -12 -10   0   54.45    6.18
 -12   1   1   12.74    6.41
   1  12   1    9.72    4.53
  -1 -12  -1    0.81    5.63
   1  12  -1    6.00    4.20
   1 -12   1    9.94    6.53
 -12   1  -1   14.63    6.24
  -1  12   1   17.63    4.98
  -1 -12   1    8.87    5.73
 -12  -1   1   10.86    5.48
   1 -12  -1   15.34    5.58
 -12  -1  -1    3.16    6.26
  -1  12  -1    2.52    4.85
   1  12   3  518.84   26.97
 -12   3   1  511.92   28.58
  -1  12   3  492.65   26.43
   1 -12  -3  471.45   26.75
  -1 -12  -3  482.66   26.86
  -1 -12   3  462.49   26.67
  -1  12  -3  529.56   27.64
 -12   3  -1  450.70   27.25
   1  12  -3  452.92   26.03
   1 -12   3  454.85   28.59
   1  12   5   -2.25    6.89
   5  -1 -12    2.98    3.54
  -1 -12   5   -4.23    6.53
   1 -12  -5    5.16    5.88
  12  -5  -1    4.68    5.86
 -12   5   1    3.27    8.11
 -12   5  -1    0.98    8.41
   1  12  -5    2.11    5.69
   1 -12   5    9.47    6.71
  -1  12  -5    2.66    6.50
  -1 -12  -5    9.18    5.02
   5   1 -12   -2.51    4.28
  -1  12   5   -2.19    5.77
  -1  12  -7   22.46    7.99
   1 -12  -7   11.85    5.48
   7   1 -12   18.23    3.10
  -1 -12  -7   13.48    5.37
  12  -7  -1    9.32    6.38
  12  -7   1   25.60    7.41
   1  12  -7    4.97    6.24
 -12   7   1    4.68    9.00
 -12   7  -1   27.17    8.72
  -1 -12   7   -0.17    6.26
  -1  12   7    9.92    8.04
   1 -12   7    9.07    6.67
   7  -1 -12   13.03    3.61
  12  -9  -1  222.60   16.47
  12  -9   1  239.72   16.07
 -12  -9   1  217.23   13.09
   9  -1 -12  204.64   13.24
  -1  12  -9  231.88   15.58
 -12   9   1  223.31   16.90
  -1 -12   9  252.78   15.81
   1  12  -9  218.91   15.82
   1 -12   9  196.89   16.00
 -12  -9  -1  210.17   14.37
 -12 -11  -1    9.46    4.49
  -2  12   0   84.25    7.81
 -12   0  -2   95.12   10.01
  -2 -12   0   91.48    9.28
  -2  12   2    4.36    5.30
 -12   2   2    1.78    6.32
 -12   2  -2    6.42    6.97
 -12  -2   2    5.32    5.10
  -2  12  -2    6.34    6.04
   2  12   2    5.73    4.89
  -2 -12   2    6.64    5.84
   2  12  -2   14.50    4.35
  -2 -12  -2    5.33    5.52
   2 -12   2    0.13    6.63
   2 -12  -2    7.53    5.87
   2  12   4  117.20   11.28
  -2 -12  -4   92.59    8.89
   2  12  -4  100.79    7.98
 -12   4   2  108.74   10.37
  -2 -12   4  100.11   10.04
  -2  12   4  122.23    9.42
  -2  12  -4  121.50    9.95
   4  -2 -12  106.51    8.01
 -12   4  -2  102.58   10.36
  12  -4  -2  113.34    8.87
   2 -12   4  101.84   10.66
   2 -12   6   27.97    6.62
  -2 -12   6   18.18    5.71
 -12   6   2   28.10    7.77
  12  -6  -2   13.89    6.24
  -2 -12  -6   18.03    5.52
   2 -12  -6   23.40    6.32
   6  -2 -12   28.90    5.13
 -12   6  -2   18.35    9.29
  -2  12   6   31.94    6.10
  -2  12  -6   10.38    8.14
   6   2 -12   15.01    3.54
  -2 -12   8  125.82   10.33
 -12   8   2  113.55   12.85
 -12   8  -2  106.39   14.79
 -12  -8   2  129.73    8.56
   2  12  -8  137.03   10.30
   8  -2 -12  132.55    8.44
  12  -8  -2  121.98   11.49
  -2  12  -8  131.32   12.44
   2 -12   8  133.08   12.16
   2  12 -10    3.75    7.65
 -12 -10   2   14.23    3.24
  -2  12 -10   16.14    8.46
 -12 -10  -2   -0.93    6.11
  -3  12   1   62.30    6.68
 -12  -1   3   45.11    7.26
   3 -12   1   57.13    9.73
  -3 -12  -1   54.93    6.32
  -3 -12   1   48.64    7.97
  -3  12  -1   39.00    8.28
   3  12   1   54.42    6.94
   3  12  -1   36.93    5.77
   3 -12  -1   37.17    8.10
  -3  12  -3  238.06   17.05
  -3 -12   3  232.64   16.01
   3 -12  -3  234.70   15.97
  12  -3  -3  262.72   15.73
  -3  12   3  280.56   15.92
 -12   3   3  281.57   16.98
  -3 -12  -3  257.23   15.62
   3 -12   3  243.42   15.83
   3  12   3  243.57   16.39
 -12   5  -3  127.23   11.72
   3  12  -5  106.30    7.83
  -3 -12  -5  123.31    9.17
  -3 -12   5  109.70   10.54
   3 -12  -5   96.76    9.67
   5  -3 -12  103.54    7.92
  12  -5  -3  124.87    9.95
   3 -12   5  103.86   10.60
  -3  12  -5  111.35   12.07
  -3  12   5   99.20    9.56
   7  -3 -12    5.28    3.83
  -3 -12  -7    1.65    5.45
 -12   7   3   -0.30    7.28
   3 -12   7   19.49    7.48
  -3  12  -7   11.55   10.10
 -12  -7   3   14.32    3.55
  12  -7  -3    7.96    6.13
  -3  12   7   12.94    6.75
   3  12  -7    9.39    5.64
   7   3 -12    7.43    2.72
   3 -12  -7   16.40    5.86
 -12   7  -3   10.39    9.97
  -3 -12   7   13.43    6.18
 -12   9   3  117.97   12.75
   3  12  -9  115.08   10.22
  -3  12  -9  111.06   14.01
 -12  -9   3  100.52    6.86
  -3 -12   9  114.17   10.18
   9  -3 -12  106.35    8.93
 -12 -11  -3  104.53   10.13
  -3  12 -11   78.63   13.48
  -4  12   0    2.28    5.55
  -4 -12   0    2.54    5.20
 -12   0   4    1.25    5.65
   4 -12   0    3.24    7.47
   4  12   0   -2.50    4.61
  12  -2  -4  260.13   15.04
   2  -4 -12  256.98   15.64
   4 -12  -2  257.74   16.29
 -12   2   4  228.74   15.34
   4  12  -2  258.77   14.24
 -12  -2   4  242.12   14.36
   4 -12   2  261.26   16.82
 -12   2  -4  233.32   16.92
  -4  12   2  218.17   15.26
   4  12   2  246.92   15.80
  -4 -12  -2  227.02   14.69
  -4 -12   2  229.17   14.32
  -4  12   4    0.07    5.90
 -12   4   4    1.19    6.07
  12  -4  -4   -2.31    5.10
   4  12  -4    5.58    4.03
  -4 -12  -4    2.64    4.78
   4  -4 -12   -0.10    3.93
   4 -12   4    0.43    6.66
  -4  12  -4    4.56    7.28
 -12  -4   4   -0.20    3.65
  -4 -12   4    0.53    5.92
 -12   4  -4    2.13    7.70
   4 -12  -4   -3.30    6.22
 -12   6   4  111.65   11.88
  -4 -12   6  130.69    9.99
   6  -4 -12  136.37    8.63
   4 -12   6  127.99   11.19
   4  12  -6  139.69    8.87
  -4  12   6  120.31   11.52
  12  -6  -4  123.98   10.76
 -12  -6   4  134.08    7.86
 -12   6  -4  143.56   13.91
   4 -12  -6  125.38   10.91
  -4  12  -6  102.24   13.60
 -12  -6   4  132.86    8.65
  -4  12  -8    0.80    9.92
   4 -12   8   25.93    8.61
   4  12  -8    2.99    4.50
   8  -4 -12   16.45    4.86
  -4 -12   8   18.16    6.17
 -12   8   4   23.69    7.62
 -12  -8   4   10.80    2.36
  12  -8  -4    5.56    7.76
  -4  12 -10   62.04   12.12
 -12 -10  -4   52.82    8.51
 -12   1   5   30.21    6.15
  -5 -12  -1   32.29    6.39
   5 -12   1   46.91    8.22
   5  12  -1   34.85    6.39
   1  -5 -12   38.57    8.37
  12  -1  -5   28.69    5.99
  -5 -12   1   28.17    5.55
   5 -12  -1   20.89    7.50
   5  12   1   49.23    8.32
   5 -12  -3  221.19   15.57
  12  -3  -5  264.90   14.62
  -5  12  -3  228.81   16.13
  -5 -12  -3  247.95   14.81
   3  -5 -12  215.79   14.19
 -12   3  -5  245.81   17.44
   5 -12   3  221.52   16.92
   5  -5 -12    7.15    4.19
  -5  12   5    4.32    6.12
  -5 -12   5   -3.83    5.73
 -12  -5   5    5.42    2.77
   5  12  -5   13.73    4.00
 -12   5   5    4.23    6.16
  -5  12  -5   11.15    9.77
  12  -5  -5   12.84    5.22
   5 -12   5   -1.96    7.24
  -5 -12  -5   12.83    5.18
 -12   5  -5   -1.34    8.77
   5 -12  -5    6.19    6.81
   5   5 -12    9.55    4.72
   7  -5 -12   39.73    5.54
  12  -7  -5   47.53    7.01
 -12  -7   5   32.54    2.94
 -12  -7   5   34.19    4.02
  -5 -12  -7   37.67    6.16
   5  12  -7   26.95    5.37
   5 -12  -7   19.67    7.97
 -12   7   5   33.38    7.71
 -12   9   5   88.37   10.40
  12  -9  -5   80.96   11.39
   9  -5 -12   95.68    9.05
 -11   5  12   -2.22    8.19
 -12 -11  -5   27.34    8.73
   6 -12   0  544.12   31.34
 -12   0   6  500.84   27.72
  -6  12   0  521.65   30.42
   0   6 -12  533.56   29.68
   0  -6 -12  537.00   30.26
  -6 -12   0  556.58   28.95
  -6 -12  -2   37.58    6.30
  -6  12  -2   54.16    9.46
  -6  12   2   33.82    6.35
   2   6 -12   30.95    5.95
 -12   2  -6   45.78    9.62
   2  -6 -12   31.27    6.72
  -2   6 -12   28.79    7.58
  12  -2  -6   32.71    6.20
   6  12  -2   48.01    7.40
   6 -12  -2   35.99    8.09
   6 -12   2   38.06    7.92
  -6 -12   2   49.63    6.65
 -12   2   6   29.99    4.81
   6 -12  -4   79.60   10.62
   4   6 -12   94.17    7.42
  12  -4  -6   97.81    8.56
   4  -6 -12   93.56    8.31
  -6 -12   4   89.67    9.48
 -12   4   6   81.20    8.68
  -6  12   4   98.98    9.44
  -4   6 -12  102.86   11.79
   6 -12   4  101.77   11.99
  -6  12  -4   97.49   11.74
  -6 -12  -4   88.76    7.75
   6  12  -4   99.62    7.60
 -12   6   6  858.99   45.22
  -6   6 -12  853.00   47.16
  -6  12  -6  828.07   46.64
  -6 -12   6  882.39   44.88
   6  12  -6  902.42   43.50
  -6 -12  -6  813.69   45.07
   6  -6 -12  875.91   44.71
  12  -6  -6  865.61   45.76
   8  -6 -12   -1.76    5.13
 -12   8   6   -6.36    6.74
  -6 -12   8   -1.07    5.57
  12  -8  -6   -5.30    7.62
 -10   6  12  -11.61    8.86
  10  -6 -12    7.88    6.68
 -12  -1   7   -1.26    2.58
  -7  12  -1    3.61    8.29
 -12   1   7   -5.47    3.64
   7 -12  -1    2.14    8.74
   7 -12   1   -7.44    7.77
  -7  12   1   -0.09    7.66
  12  -1  -7   -1.02    4.35
  -1   7 -12  -10.17    6.72
  -1  -7 -12    8.66    7.01
  -7 -12   1    8.97    4.56
   1   7 -12    4.24    6.03
  -7 -12  -1    2.00    4.63
   1  -7 -12    8.13    5.02
   7  12  -3  390.21   23.31
  -7 -12  -3  411.24   23.74
  -3   7 -12  415.00   24.71
  -7  12  -3  454.22   26.59
   7 -12   3  419.25   24.86
   3   7 -12  417.93   22.95
   3  -7 -12  437.69   23.73
  12  -3  -7  428.18   23.64
  -3  -7 -12  406.69   26.32
   5  -7 -12    7.30    4.59
  -5   7 -12    0.58    9.16
  12  -5  -7    6.14    6.63
   7 -12  -5    6.31    7.67
  -7 -12  -5    7.93    5.10
   7  12  -5   11.35    5.11
  -7 -12   5    7.71    5.53
 -12   5   7    5.69    5.18
  -7 -12   7    0.06    4.75
   7  -7 -12    1.49    4.91
 -12   7   7   -0.05    6.41
  12  -7  -7    3.63    7.69
 -12   9   7  216.05   15.27
  -9   7  12  195.76   16.40
   9  -7 -12  211.33   14.72
  11  -7 -12   17.98    7.03
 -11   7  12   13.21    8.87
   8 -12   0   62.93   10.55
  12   0  -8   80.40    6.45
  -8 -12   0   71.80    6.48
 -12   0   8   63.72    5.57
   2  -8 -12   43.72    7.89
  -8 -12  -2   64.64    6.91
  -2  -8 -12   72.57   11.17
  12  -2  -8   45.37    7.28
  -2   8 -12   58.97   10.26
   8 -12  -2   53.61   11.24
   2   8 -12   65.05    7.95
  -8 -12   2   62.01    6.45
   4  -8 -12   39.10    7.43
   4   8 -12   21.08    5.46
 -12   4   8   16.94    5.15
  -8 -12   4   28.00    6.01
  -8 -12  -4   19.98    5.03
  12  -4  -8   11.53    6.03
  -4   8 -12   27.91    9.02
 -12   6   8   -3.17    5.87
   6  -8 -12    3.90    5.28
  -8 -12   6    7.79    4.96
  -8 -12  -6    3.94    6.08
  12  -6  -8    7.72    7.15
 -12   8   8   12.54    6.93
  -8   8  12   19.37   10.18
  12  -8  -8    0.66    8.14
   8  -8 -12   13.44    6.99
  10  -8 -12   13.21    7.41
 -10   8  12   19.75   10.40
  -9 -12  -1   14.81    4.61
   1  -9 -12   22.83    5.52
  -1   9 -12    7.23    6.97
   1   9 -12   18.00    6.79
  -9 -12   1   19.91    4.56
 -12   1   9   18.23    3.45
   3  -9 -12   71.89    7.90
 -12   3   9   78.30    6.98
  -9 -12   3   65.25    7.10
   3   9 -12   66.89    9.02
  -9 -12  -3   62.95    7.21
  12  -3  -9   68.69    8.42
  -3   9 -12   76.89   10.03
 -12   5   9   50.67    6.84
   5  -9 -12   34.33    5.93
  12  -5  -9   42.21    7.30
  -9 -12   5   32.79    6.64
  -5   9 -12   33.91   10.20
  -9 -12  -5   46.85    7.27
   7  -9 -12   10.22    7.03
  12  -7  -9    2.32    7.38
 -12   7   9   -1.19    6.46
  12  -9  -9   39.66    8.56
 -10 -12   0  129.50    8.90
   0  10 -12  110.58   11.07
   2  10 -12    3.97    6.86
 -12   2  10    8.91    4.44
 -10 -12  -2    6.16    5.05
  -2  10 -12   21.18    8.90
 -10 -12   2   12.54    4.08
  -4  10 -12   87.36   11.54
  12  -4 -10   88.78    9.52
 -10 -12  -4   91.70    8.52
 -10 -12   4  107.05    7.97
 -12   6  10    2.87    5.62
  12  -6 -10    0.74    7.33
 -12   8  10  128.99   12.30
  12  -8 -10   94.08   11.87
 -11 -12   1   26.21    5.14
 -11 -12  -1   28.87    5.73
   1  11 -12   34.53    7.96
  -1  11 -12   42.00    8.52
 -11 -12  -3   41.75    6.41
 -12   3  11   38.12    7.85
  -3  11 -12   29.69    9.91
 -11 -12  -5   22.16    7.27
 -12   5  11   11.47    5.66
 -12   7  11   21.78    7.24
  12  -7 -11   10.25    8.24
 -12 -12   0  366.58   21.74
   0  12 -12  443.82   24.80
 -12 -12  -2   29.97    6.21
  -2  12 -12   16.63   10.15
 -12 -12  -4   -2.13    6.76
 -12   6  12  105.28   12.69
 -13   1   0   18.17    6.25
   0 -13   1   15.97    6.97
   0  13  -1   13.93    4.94
   0 -13  -1    7.06    6.16
   0  13   1   13.48    5.14
 -13  -1   0   32.52    6.72
   0  13  -3  108.46    8.91
   0 -13   3   84.08   10.10
   0 -13  -3  102.71    9.53
 -13   3   0  100.59   11.78
 -13   5   0   49.81    9.42
   5   0 -13   55.33    6.85
   0 -13   5   59.04    8.75
   0  13  -5   59.03    8.04
   0 -13  -5   57.71    8.12
   0  13   5   52.37    8.25
   0 -13   7   -1.07    6.58
 -13   7   0   -8.10   10.48
   0  13  -7   -3.08    7.19
  13  -7   0    4.65    7.29
   7   0 -13    2.62    3.47
   0  13  -9   41.38    8.93
 -13  -9   0   45.08    7.09
   0 -13   9   39.82    7.92
   0  13 -11   52.23   10.81
 -13 -11   0   43.26    5.66
 -13   0   1    3.39    5.96
  -1  13   0   11.13    5.35
   1  13   0   11.72    4.73
  -1 -13   0   -4.34    5.82
   1 -13   0    2.07    7.01
 -13   0  -1    6.43    7.57
  -1  13   2   33.66    7.14
   1  13   2   28.67    5.54
  -1  13  -2   40.78    6.99
 -13   2  -1   43.52    6.86
   1 -13   2   30.67    8.40
   1 -13  -2   35.12    6.96
  -1 -13   2   34.26    7.00
 -13   2   1   48.51    9.42
   1  13  -2   34.30    6.61
  -1 -13  -2   38.35    7.82
 -13  -2   1   41.62    8.28
 -13   4   1   18.34    8.19
  -1  13  -4   13.49    6.94
  -1 -13  -4   17.69    5.87
  -1  13   4   25.73    5.52
   1 -13  -4    7.96    7.03
  -1 -13   4   22.77    8.26
   1 -13   4   28.68    7.64
   1  13  -4   15.48    5.27
   4  -1 -13   13.05    5.24
 -13   4  -1    1.16    8.45
 -13   6   1   -5.52    9.02
  13  -6  -1   -0.35    6.26
  -1 -13  -6    1.01    5.79
   1  13   6   -7.95    8.30
   1 -13   6    5.83    6.43
 -13   6  -1    0.29   10.56
  -1 -13   6   -1.60    6.40
   1 -13  -6    4.91    6.46
  -1  13  -6   -3.09    6.81
   6  -1 -13    5.01    3.64
   1  13  -6   -4.12    6.55
   6   1 -13   -2.90    3.40
 -13   8   1   49.29    9.95
   8  -1 -13   35.45    5.09
  13  -8   1   38.41    8.65
   1  13  -8   33.13    7.17
  -1 -13   8   28.74    7.78
  13  -8  -1   45.02    9.00
  -1  13  -8   48.51    9.23
   1 -13   8   43.49    7.80
 -13 -10   1    9.52    3.78
 -13 -10  -1    1.58    5.78
   1  13 -10    5.91    8.41
  -1  13 -10    4.48   10.69
 -13 -12  -1    1.03    4.62
  -1  13 -12   -7.36   10.76
 -13   1   2   43.11    6.93
  -2 -13  -1   43.91    7.47
  -2 -13   1   43.66    7.03
   2  13   1   57.08    7.43
 -13  -1  -2   37.92    8.31
  -2  13   1   37.08    7.65
   2 -13   1   36.33    7.62
   2  13  -1   48.72    7.15
 -13  -1   2   54.90    7.27
 -13   1  -2   53.65   10.27
 -13   3  -2  386.27   23.75
  -2 -13   3  413.27   24.13
   2  13   3  394.13   23.11
  -2  13  -3  434.10   24.72
   3  -2 -13  423.48   23.52
 -13   3   2  415.79   24.83
 -13  -3   2  361.46   22.65
  -2 -13  -3  386.54   23.27
  -2  13   3  400.85   23.06
   2 -13   3  424.51   24.72
   2 -13   5   21.16    6.82
  -2  13  -5    9.85    7.11
   2 -13  -5   15.03    7.17
  -2 -13  -5   12.46    5.71
 -13   5  -2   16.86    9.34
  13  -5  -2    3.87    5.93
   2  13   5   15.53    8.32
  -2  13   5    9.90    6.05
 -13   5   2    9.79    8.87
   5  -2 -13    2.26    4.13
   2  13  -5   14.73    4.88
  -2 -13   5   10.10    7.73
  -2  13  -7   48.05    8.58
 -13   7   2   43.74    9.43
   2  13  -7   43.79    8.56
   7  -2 -13   47.25    5.89
  -2 -13   7   59.44    9.31
 -13   7  -2   28.11   11.65
   7   2 -13   42.10    4.72
   2 -13   7   47.69   10.26
  13  -7  -2   35.38    7.56
   2  13  -9  152.12   11.53
  -2  13  -9  131.46   14.39
 -13  -9   2  145.62    8.34
  -2 -13   9  143.74   11.55
   2 -13   9  134.63   12.41
  13  -9  -2  115.71   12.62
  -2  13 -11   10.31   10.98
 -13 -11  -2   -5.14    5.82
   3  13   0  941.14   49.20
  -3  13   0  984.31   50.37
   3 -13   0  948.42   51.30
 -13   0  -3  929.51   51.68
  -3 -13   0  976.67   50.51
 -13   0   3  916.62   49.98
  -3 -13   2   12.28    6.49
  -3  13   2   11.23    5.54
   3 -13  -2    7.55    7.38
   2  -3 -13    8.51    6.65
   3  13  -2   16.16    4.93
  -3  13  -2   12.28    7.03
 -13   2  -3   14.27    7.99
   3 -13   2   -1.67    8.76
   3  13   2   15.74    6.40
  -3 -13  -2   12.79    5.49
 -13   2   3   18.33    7.21
  -3  13  -4   55.01   10.27
   3  13   4   77.60   10.13
  -3 -13   4   44.38    9.14
  -3 -13  -4   57.35    7.42
  -3  13   4   56.68    8.28
  13  -4  -3   57.74    8.09
   3 -13  -4   61.49    9.20
 -13   4  -3   60.19   10.63
 -13   4   3   71.47    9.27
   3  13  -4   56.11    6.61
 -13  -4   3   48.02    7.07
   4  -3 -13   55.62    6.62
   3 -13   4   66.80   10.46
   6  -3 -13  652.33   32.46
  -3 -13  -6  554.73   33.40
  13  -6  -3  586.94   34.08
   3 -13   6  598.91   33.91
 -13   6   3  596.94   34.99
  -3  13  -6  670.13   36.20
  -3 -13   6  603.76   33.82
   6   3 -13  611.40   32.29
 -13   6  -3  655.28   36.17
   3 -13   8    3.13    8.49
   3  13  -8    1.29    6.10
  13  -8  -3    4.74    6.99
 -13  -8   3    4.81    2.85
   8  -3 -13    5.38    4.28
 -13   8   3    8.03    8.51
  -3 -13   8   12.82    6.52
  -3  13  -8    0.71    9.70
  -3  13 -10   41.22   10.87
 -13 -10  -3   45.26    9.43
 -13 -12  -3  166.80   11.14
  -4  13   1   16.03    6.07
   4 -13  -1   10.47    8.38
 -13   1   4   20.61    6.52
 -13  -1   4   21.65    5.83
  -4  13  -1   18.93    7.43
  -4 -13  -1    8.11    5.70
   4  13   1   20.64    6.31
  -4 -13   1   23.95    6.09
   4 -13   1   10.82    7.82
   4  13  -1   19.89    4.56
 -13   1  -4   28.09    9.14
  -4  13  -3  437.03   26.24
  -4 -13  -3  405.51   24.83
   4  13  -3  459.27   24.24
  13  -3  -4  467.39   24.86
   4 -13   3  452.34   26.67
   3  -4 -13  455.33   24.37
 -13  -3   4  466.92   23.87
 -13   3   4  403.47   25.09
  -4  13   3  480.04   25.82
  -4 -13   3  396.39   24.98
   4  13   3  415.45   25.97
 -13   5   4    4.28    7.06
 -13   5  -4  -10.95    9.18
   4 -13  -5    1.05    7.75
  -4  13  -5    4.23    8.07
   4 -13   5   -7.14    7.32
 -13  -5   4   -1.24    4.06
   5  -4 -13   -0.58    3.89
   4  13  -5    0.30    4.55
  -4 -13   5   12.31    7.91
  13  -5  -4    5.74    6.25
  -4 -13  -5   -0.84    5.49
   7  -4 -13   33.94    5.99
 -13  -7   4   35.14    3.50
  13  -7  -4   35.45    6.83
 -13   7   4   36.36    8.82
  -4 -13   7   28.78    6.26
  -4  13  -7   53.67   10.74
   4 -13   7   56.60   10.31
   9  -4 -13  172.30   12.00
  13  -9  -4  166.66   13.59
 -13 -11  -4   -0.31    7.77
  -5 -13   0    6.39    5.21
 -13   0   5    8.89    5.26
   5  13   0   14.28    6.81
   5 -13   0    5.45    8.50
  -5  13   0   12.54    6.76
   0  -5 -13    5.66    7.75
 -13   2  -5   27.51    9.55
  -5  13   2   21.92    6.07
   2  -5 -13   13.94    5.11
 -13   2   5   10.62    5.96
 -13  -2   5   17.13    4.32
  -5  13  -2    9.45    9.04
   5 -13   2   19.23    7.99
   5  13  -2   14.74    4.49
  13  -2  -5   17.99    5.24
   5 -13  -2    8.15    8.65
  -5 -13  -2   11.34    4.98
  -5 -13   2    6.06    5.73
  13  -4  -5    4.54    5.86
  -5  13  -4   11.06    9.37
   5  13  -4    3.56    4.65
   5 -13  -4    8.43    7.98
   5 -13   4   19.23    8.16
  -5 -13   4    4.58    6.90
   4  -5 -13    0.73    4.55
 -13   4   5    1.97    7.57
 -13   4  -5   11.48    9.88
  -5 -13  -4   13.06    5.33
 -13  -4   5    6.94    3.66
   5 -13   6   21.91    8.27
 -13   6   5    7.51    7.51
   6  -5 -13    8.23    4.26
  -5 -13   6   15.22    6.32
   5  13  -6   10.09    4.23
  -5 -13  -6   -1.00    5.90
  13  -6  -5    1.84    6.68
  -5 -13   8   11.73    5.98
 -13   8   5    4.67    8.84
   8  -5 -13   15.07    5.13
  13  -8  -5   20.55    8.29
  10  -5 -13   -1.88    6.97
   1  -6 -13   10.98    5.86
 -13  -1   6   14.40    4.03
  -1   6 -13   17.44    7.89
  -6 -13   1   16.66    5.94
  -1  -6 -13    0.91    8.79
  -6 -13  -1   11.67    5.27
   6  13  -1   11.46    6.41
   6 -13   1   18.70    8.79
   6 -13  -1   16.47    7.75
   1   6 -13   18.50    7.39
 -13   1   6   18.31    5.03
   6  13  -3   40.58    6.53
  -3   6 -13   36.55    9.21
 -13   3   6   61.32    7.50
  -6 -13   3   63.31    8.16
   3   6 -13   53.49    7.38
 -13  -3   6   43.63    4.47
   3  -6 -13   42.54    7.08
 -13   3  -6   37.01    9.76
  13  -3  -6   60.47    7.11
   6 -13   3   44.33    8.26
  -6 -13  -3   47.70    7.29
 -13   5   6   46.24    7.37
  -6 -13  -5   31.57    5.98
  -6 -13   5   38.84    8.10
  13  -5  -6   51.30    8.50
   5  -6 -13   41.04    6.75
  -5   6 -13   55.50   11.93
  13  -7  -6    1.76    6.87
   7  -6 -13    3.35    4.99
 -13   7   6   -2.16    7.20
  -6 -13   7    1.22    5.27
  13  -9  -6    6.52    7.66
   9  -6 -13   17.29    6.44
 -13   0   7    4.55    3.32
  -7 -13   0    7.96    5.02
   0  -7 -13    0.86    6.23
   0   7 -13    0.14    6.86
 -13  -2   7   31.67    3.26
   2  -7 -13   34.44    5.72
   2   7 -13   17.59    6.60
  -2   7 -13   25.28    8.14
  -7 -13  -2   24.06    5.17
  -7 -13   2   25.17    6.01
  13  -2  -7   29.65    6.41
   4  -7 -13   29.98    6.45
  -7 -13   4   26.47    6.00
  13  -4  -7   17.38    5.78
  -4   7 -13   21.59    8.77
   7  13  -4   25.91    5.93
   4   7 -13   18.97    4.81
  -7 -13  -4   20.90    5.58
 -13   4   7   18.48    5.63
   6  -7 -13   -4.48    5.43
 -13   6   7   -0.55    6.27
  13  -6  -7    1.65    7.12
  -7 -13   6    0.06    6.18
 -13   8   7   38.21    7.13
   8  -7 -13   38.06    7.75
  13  -8  -7   42.91    8.94
  10  -7 -13    3.71    7.72
 -12   7  13    1.17    9.68
 -13  -1   8   42.24    4.05
   1   8 -13   44.85    7.68
  -8 -13  -1   28.03    6.05
  -1   8 -13   46.15    9.58
 -13   1   8   39.40    5.01
  -8 -13   1   49.85    6.84
   1  -8 -13   35.40    6.07
  -3   8 -13  134.48   13.08
   3   8 -13  124.44   10.40
  -8 -13  -3  132.60   10.36
  -8 -13   3  133.81   10.04
 -13   3   8  142.90    9.62
  -8 -13   5   16.30    5.62
  13  -5  -8   14.69    6.21
  -8 -13  -5   13.68    6.57
   5  -8 -13   17.83    5.61
 -13   5   8   18.87    5.59
   7  -8 -13   32.49    6.02
 -13   7   8   49.90    8.64
  13  -7  -8   44.59    8.51
   9  -8 -13   41.96    7.66
  -9 -13   0  431.24   23.63
   0   9 -13  418.36   24.59
 -13   2   9    9.50    3.91
   2   9 -13    4.65    7.35
  -2   9 -13    9.99    9.00
  -9 -13   2   16.53    4.85
  -9 -13  -2   14.62    5.11
  -4   9 -13   45.79    8.98
  -9 -13   4   34.20    6.41
  -9 -13  -4   25.66    5.95
  13  -4  -9   27.67    6.39
  13  -6  -9  231.57   16.15
  13  -8  -9    2.18    8.67
 -13   8   9   -0.83    7.10
 -10 -13   1    5.06    4.52
  -1  10 -13    3.99    8.13
 -10 -13  -1   12.66    4.90
   1  10 -13   12.14    7.62
 -10 -13   3  247.32   14.18
 -10 -13  -3  223.85   14.33
  -3  10 -13  245.99   17.67
 -13   3  10  242.95   14.32
 -13   5  10    5.13    5.58
  13  -7 -10    8.42    8.41
 -13   7  10   19.81    6.66
 -11 -13   0   22.92    4.49
   0  11 -13   23.02    8.72
 -11 -13  -2    4.21    5.06
  -2  11 -13    5.50    8.88
 -11 -13  -4   -4.55    6.19
 -13   6  11   16.40    6.54
  -1  12 -13    8.33    9.81
 -12 -13  -1    0.72    4.66
 -12 -13  -3   10.70    5.86
 -13 -13  -2   20.80    4.98
 -14   0   0   62.93    9.19
   0  14  -2    4.09    5.98
   0 -14   2    2.74    8.28
   0  14   2   11.01    5.65
 -14  -2   0   15.16    7.08
   0 -14  -2   12.78    7.52
 -14   2   0   13.31    8.95
   0  14  -4  357.56   19.93
   0 -14  -4  307.24   20.63
 -14   4   0  309.71   22.61
   0 -14   4  315.70   20.55
   0  14   4  362.43   20.51
   0  14  -6  228.92   14.78
   6   0 -14  225.72   13.47
  14  -6   0  223.84   15.83
   0 -14   8   41.27    8.74
   0  14  -8   58.76    9.37
 -14 -10   0   47.27    6.65
   0 -14  10   47.57   10.16
   0  14 -10   36.21    9.63
  -1  14  -1   71.58    7.63
   1 -14   1   45.76    8.59
 -14   1   1   58.32   10.18
  -1 -14   1   69.39    9.41
  -1  14   1   48.11    8.69
 -14  -1   1   46.49    9.52
  -1 -14  -1   52.81    8.40
 -14   1  -1   56.18    9.63
   1  14  -1   68.07    8.02
   1  14   1   65.29    8.00
   1 -14  -1   51.76    8.86
  -1 -14   3   59.70   10.46
  -1 -14  -3   57.21   10.25
 -14   3   1   50.24   10.76
   1  14   3   67.12    8.75
   1 -14   3   70.35   13.43
  -1  14   3   58.96    8.81
 -14   3  -1   68.30   12.25
   1 -14  -3   55.48    9.87
 -14  -3   1   56.42    8.58
   1  14  -3   62.90    7.09
   5   1 -14    6.20    5.71
  14  -5  -1    7.32    7.65
   1  14  -5   18.78    6.09
   1 -14   5   19.93    9.07
  -1 -14   5   16.56    7.88
 -14   5   1   14.00   10.65
 -14   5  -1    8.90    9.47
   5  -1 -14   15.03    4.27
  -1  14  -5   16.22    6.99
   1 -14   7   57.49    9.37
  14  -7  -1   48.98    8.35
 -14   7   1   53.54   11.35
   7  -1 -14   60.51    5.99
  -1  14  -7   57.61    9.75
  -1 -14   7   56.55   10.77
   1  14  -7   49.18    9.10
  -1 -14   9   31.56    8.00
   1  14  -9   30.86    7.73
 -14  -9   1   37.37    5.85
  -1  14  -9    5.69    9.18
   1 -14   9   18.31    8.99
  -1  14 -11    1.17   10.73
 -14 -11  -1    4.46    4.82
 -14   0  -2    3.15    8.19
 -14   0   2    9.49    7.25
   2  14   0    5.57    5.23
   2 -14   0   18.43    8.05
  -2  14   0   14.62    6.41
  -2 -14   0   12.86    6.56
  -2 -14  -2   10.02    6.95
 -14   2   2   15.11    7.92
 -14   2  -2   -0.41    8.24
   2  14   2   16.61    6.19
  -2  14  -2   15.43    6.50
   2 -14  -2   15.51    7.54
   2  14  -2   12.87    5.20
  -2 -14   2   11.26    8.08
   2 -14   2   33.53    9.07
 -14  -2   2   16.07    5.55
  -2  14   2   11.76    6.45
  -2 -14   4   85.71   11.06
 -14   4  -2   81.85   13.32
 -14  -4   2   81.74    8.65
   4  -2 -14   93.85    8.06
   2  14  -4   76.29    7.48
   2 -14   4   79.28   11.88
 -14   4   2   73.93   11.44
  -2  14  -4   69.02    9.63
  -2 -14  -4   96.65    8.81
   6   2 -14   36.22    6.69
  14  -6  -2   27.65    6.80
 -14   6   2   51.83   10.50
  -2  14  -6   37.86    8.67
   6  -2 -14   29.47    5.93
   2 -14   6   45.58    9.47
 -14   6  -2   44.42   11.12
   2  14  -6   27.92    6.13
  -2 -14   6   51.49   10.21
  -2 -14   8   17.68    8.00
   2 -14   8    5.73    8.39
  14  -8  -2   16.60    7.81
   2  14  -8   13.91    7.46
 -14  -8   2   18.22    4.39
  -2  14  -8   17.99    9.81
  -2 -14  10    3.03    8.45
 -14 -10  -2    2.23    6.99
 -14 -12  -2   16.63    5.23
  -3 -14  -1   74.15    9.33
  -3 -14   1   62.29    8.25
 -14   1  -3   51.76   10.30
   3  14   1   68.82    8.58
   3  14  -1   64.30    7.71
   3 -14  -1   40.26    9.23
   3 -14   1   63.52   11.12
 -14  -1   3   56.06    8.58
  -3  14   1   52.61    7.55
  -3  14  -1   44.22    8.76
 -14   3   3   36.82    9.21
   3  14  -3   35.29    5.35
   3 -14   3   32.90   10.03
   3  -3 -14   45.89    8.51
   3  14   3   46.78    8.83
 -14  -3   3   46.50    6.82
  -3  14  -3   37.15    8.45
  -3 -14  -3   44.52    8.56
  -3 -14   3   55.26    8.75
  -3 -14   5    2.45    7.62
 -14  -5   3   16.07    5.38
 -14   5   3    4.39    8.78
 -14   5  -3    9.88   11.38
   5  -3 -14   14.59    4.43
  -3 -14  -5   23.75    6.28
  -3  14  -5    6.17    8.92
  14  -5  -3    7.81    6.20
   3  14  -5    5.79    5.10
   3 -14   5    5.89    8.29
   3 -14   7   78.83   10.97
   3  14  -7   67.24    7.53
   7  -3 -14   67.53    6.66
 -14   7   3   49.99   10.57
  14  -7  -3   55.44    8.42
  -3  14  -7   91.37   12.36
  -3 -14   9   10.86    6.84
 -14 -11  -3   -3.86    6.96
  -4 -14   0   40.95    8.00
   4 -14   0   35.28    9.98
 -14   0  -4   26.22    9.89
 -14   0   4   47.10    8.06
   2  -4 -14   54.39    8.88
 -14   2   4   53.09    8.93
   4  14  -2   66.04    7.30
  -4 -14   2   56.03    8.82
   4  14   2   53.17   10.19
 -14  -2   4   70.15    7.49
   4 -14   2   40.92    9.41
   4  -4 -14    2.50    4.81
  -4  14  -4    5.47    9.54
 -14   4  -4    0.89    9.76
  14  -4  -4   -2.38    5.97
   4 -14   4    2.07    8.86
  -4 -14   4   11.73    7.09
  -4 -14  -4   -2.91    5.91
 -14  -4   4    0.47    4.49
   4  14  -4   -0.89    5.10
 -14   4   4    1.24    7.57
  14  -6  -4   26.74    7.12
   4  14  -6   18.23    4.92
  -4 -14   6   21.92    7.26
   6  -4 -14   17.83    4.59
 -14   6   4   17.29    8.49
   8  -4 -14    3.36    4.83
  14  -8  -4   14.27    8.00
 -14   8   4    2.93   10.59
   5  14   1   18.28    7.92
 -14   1  -5   26.18    9.45
 -14   1   5   14.18    5.87
  -5 -14  -1   15.45    6.50
 -14  -1   5   24.18    5.51
   5  14  -1   28.89    6.24
   1  -5 -14   37.83    7.27
  -5 -14   1   25.99    7.24
  -5 -14   3   53.09    8.99
   5  14  -3   56.04    7.29
 -14   3   5   71.02    9.61
  -5 -14  -3   37.92    7.67
   3  -5 -14   53.55    8.25
 -14  -3   5   38.90    6.79
 -14   3  -5   53.00   10.79
  14  -3  -5   59.93    8.26
  -5 -14   5    4.44    6.80
   5  14  -5    1.15    4.90
  14  -5  -5    6.59    6.66
   5  -5 -14   11.39    4.84
 -14   5   5    4.78    8.44
   7  -5 -14   23.25    5.11
  -5 -14   7   37.18    6.27
  14  -7  -5   17.25    6.71
 -14   7   5   15.01    9.12
   9  -5 -14   14.27    5.56
 -14   0   6  267.86   15.05
   0  -6 -14  235.68   16.99
  -6 -14   0  259.88   16.04
   2   6 -14  141.27   12.24
   6  14  -2  121.77   11.55
 -14   2   6  143.27   10.60
  14  -2  -6  126.59   10.24
 -14  -2   6  150.38    9.07
   2  -6 -14  135.76   10.31
  -6 -14  -2  134.21   10.67
   6  14  -4   43.07    6.52
 -14   4   6   26.67    6.72
  -4   6 -14   17.00    9.64
   4  -6 -14   39.76    7.42
  -6 -14  -4   36.59    7.95
  14  -4  -6   39.50    7.83
  -6 -14   4   18.69    7.22
  -6 -14   6   28.10    6.71
 -14   6   6   26.90    6.84
  14  -6  -6   21.13    6.41
   6  -6 -14   19.88    5.38
 -14   8   6    8.14    8.29
   8  -6 -14   -4.35    5.34
  14  -8  -6   -3.54    7.80
   1  -7 -14   32.27    6.41
  -1   7 -14   36.83    8.88
   1   7 -14   42.86    9.03
  -7 -14   1   34.36    6.54
 -14   1   7   34.00    5.27
  14  -3  -7   39.50    7.71
  -7 -14   3   41.35    8.37
 -14   3   7   51.42    6.50
   7  14  -3   58.03    9.29
  -3   7 -14   55.24   11.94
   3  -7 -14   48.06    7.85
  -7 -14  -3   46.45    7.66
  14  -5  -7    7.54    6.68
  -7 -14   5   15.46    6.82
 -14   5   7    7.88    6.01
   5  -7 -14    9.88    5.74
   7  -7 -14   25.43    5.60
 -14   7   7   39.14    7.64
  14  -7  -7   17.63    8.14
   9  -7 -14   18.92    7.34
   0   8 -14   36.52    8.34
  -8 -14   0   59.02    7.19
   2   8 -14   11.95    6.11
  -8 -14   2   11.32    6.18
  -8 -14  -2   22.36    5.12
  -2   8 -14   13.39    9.00
 -14   2   8   18.64    4.13
  -8 -14   4    8.58    6.20
 -14   4   8   14.03    5.09
  -8 -14  -4    9.92    6.03
 -14   6   8   17.24    6.40
  14  -6  -8    5.61    7.46
 -14   8   8    8.15    7.28
  14  -8  -8   18.92    8.37
  -1   9 -14   17.69    8.88
   1   9 -14   17.86    7.41
  -9 -14   1   17.71    5.33
  -9 -14  -1   15.35    5.26
  -3   9 -14   11.89    9.55
  -9 -14  -3   14.43    5.65
 -14   3   9   10.88    4.55
  -9 -14   3   12.16    6.15
 -14   5   9    2.14    5.57
  14  -7  -9   20.47    8.84
 -14   7   9   16.76    6.92
 -10 -14   0   10.48    5.45
   0  10 -14    9.25    8.37
  -2  10 -14    3.96    9.92
 -10 -14   2    2.05    5.47
 -10 -14  -2    5.33    5.79
 -14   6  10   15.28    6.02
  -1  11 -14    5.28    9.07
 -11 -14  -1   -0.41    5.03
 -11 -14  -3   23.32    5.76
 -12 -14  -2    6.66    5.61
 -13 -14  -3   20.63    6.14
   0 -15   1  243.24   18.36
   0  15   1  251.72   17.36
   0  15  -1  304.85   17.59
 -15  -1   0  286.65   18.41
   0 -15  -1  248.41   18.01
 -15   1   0  288.47   18.93
 -15  -3   0   83.16    9.81
 -15   3   0   68.94   13.02
   0 -15   3   91.17   11.73
   0  15  -3   75.60    8.34
 -15   5   0  117.25   13.86
   0  15  -5  104.08   10.79
   0 -15   5   86.97   13.00
   5   0 -15  108.51    9.48
   0  15  -7  249.43   16.71
   0 -15   7  225.58   17.83
   0 -15   9   21.68    8.69
   0  15  -9    2.22    8.40
  -1 -15   0   49.97    7.84
 -15   0   1   45.63    8.92
   1  15   0   53.44    9.30
   1 -15   0   48.50    9.97
 -15   0  -1   50.75    9.20
  -1  15   0   61.96    9.11
 -15  -2  -1   66.14   10.93
  -1 -15  -2   69.45   10.90
  -1 -15   2   72.01   12.02
 -15  -2   1   83.02   10.21
  -1  15  -2   56.12    8.25
   1  15   2   61.99    9.06
   1 -15   2   54.02   11.96
 -15   2  -1   81.37   11.82
   1  15  -2   77.43    8.12
 -15   2   1   75.24   12.93
 -15   4  -1  102.89   14.12
 -15   4   1   78.66   14.86
  -1 -15   4   80.86   14.18
 -15  -4   1   92.24    9.77
  -1  15  -4   84.34   10.89
   4  -1 -15   87.64    9.84
   1  15  -4  103.83    9.13
   1 -15   4  123.48   14.63
   6  -1 -15   21.89    4.63
  15  -6  -1    9.92    9.33
  -1 -15   6   28.52    9.18
  -1  15  -6   16.17    8.62
   1 -15   6   34.16    8.79
   1  15  -6   23.40    7.19
 -15   6   1   40.56   11.39
  -1 -15   8   37.05    8.71
   1  15  -8   13.62    7.90
  -1  15  -8   16.01    9.07
   1 -15   8   25.16    9.03
   1 -15  10   58.43   11.02
  -1 -15  10   67.80   11.58
  -2 -15   1    4.81    8.30
 -15  -1  -2   10.99    9.31
 -15  -1   2    3.30    7.71
   2  15   1    0.73    6.21
 -15   1  -2   -0.53    9.09
 -15   1   2   10.36    8.09
   2 -15   1    7.55    9.20
   2  15  -1   16.03    6.11
  -2 -15  -1    5.27    7.85
   3  -2 -15   -0.76    7.26
   2  15  -3    9.66    5.86
  -2 -15   3    2.68    7.99
   2 -15   3   -0.59    9.83
 -15  -3   2    6.31    5.86
  -2  15  -3    6.38    7.60
 -15   3  -2   18.35    9.85
 -15   3   2    3.31    8.89
  -2 -15   5   -6.06    8.53
   5  -2 -15    2.81    5.02
 -15  -5   2   -0.07    6.22
   2 -15   5    9.08    9.27
  15  -5  -2    4.46    8.26
   2  15  -5    0.10    5.65
 -15   5  -2   15.50   10.58
 -15   5   2    0.78   11.25
  -2  15  -5    3.79    8.31
  -2 -15   7   17.74    7.67
 -15   7   2   17.30   11.16
   2 -15   7   26.97    9.09
   2  15  -7   20.70    6.54
  15  -7  -2    7.52    8.36
   2  15  -9   -8.55    8.29
  -2 -15   9    5.92    7.68
 -15   0  -3    3.51    9.32
   3  15   0    0.79    6.20
  -3 -15   0    2.90    7.68
 -15   0   3    2.17    7.14
 -15   2   3   51.66    9.12
 -15  -2   3   61.51    8.53
   3  15  -2   82.11    8.68
  -3 -15   2   57.74   10.54
 -15   2  -3   73.01   12.40
   3  15   2   83.29    9.68
   2  -3 -15   65.97   11.26
  -3 -15  -2   46.17    9.84
 -15  -4   3  132.25    9.90
   4  -3 -15  128.76   10.18
 -15   4   3  133.33   13.77
 -15   4  -3  143.90   14.23
 -15   6   3    7.78    9.53
  15  -6  -3    7.33    6.92
   3  15  -6    6.14    5.56
   6  -3 -15    3.93    4.82
  -3 -15   6    5.94    7.88
  -3 -15   8   25.67    7.48
 -15 -12  -3    1.07    7.06
 -15   1   4   28.04    7.69
   4  15  -1   35.56    6.04
  -4 -15   1   26.65    7.51
  -4 -15  -1   55.00   10.33
 -15  -1   4   33.68    7.04
 -15   1  -4   53.63    9.59
   4  15   1   37.94    7.99
   1  -4 -15   37.33    8.64
   4  15   3   14.84    9.36
   4  15  -3   20.49    5.56
  -4 -15   3   14.56    8.06
 -15  -3   4    6.37    5.61
  -4 -15  -3   15.80    7.11
   3  -4 -15    8.94    5.51
 -15   3  -4   24.36   10.09
 -15   3   4   13.36    7.97
  -4 -15   5    7.21    8.95
   5  -4 -15   15.10    5.49
  15  -5  -4    9.64    7.00
   4  15  -5   11.89    5.16
 -15   5   4   10.91    8.14
  15  -7  -4   16.91    7.78
  -4 -15   7   22.99    7.33
   7  -4 -15   33.35    6.45
 -15   7   4   24.96   10.52
 -15 -11  -4    3.61    8.30
  -5 -15   0   48.50    9.61
 -15   0   5   59.37    7.77
   5  15   0   60.83   10.88
 -15   0  -5   69.74   12.14
 -15   2   5   24.88    6.75
   5  15  -2   28.36    6.03
  -5 -15   2   29.59    7.37
   5  15   2   40.76    9.20
   2  -5 -15   38.16    6.96
  -5 -15  -2   26.10    6.89
  15  -4  -5   29.91    6.98
   5  15  -4   33.75    6.86
 -15   4   5   22.74    8.20
   4  -5 -15   36.75    7.49
  -5 -15   4   49.13    9.85
  -5 -15   6   37.31    7.57
 -15   6   5   54.51    9.53
  15  -6  -5   31.36    7.77
   6  -5 -15   36.01    7.31
  15  -8  -5    2.97    8.85
   8  -5 -15    7.40    5.51
 -15   1   6  189.16   13.31
   6  15  -1  208.29   14.54
  -6 -15  -1  170.57   13.49
  -6 -15   1  210.99   14.74
  -6 -15   3   48.81    9.57
  15  -3  -6   51.06    9.14
  -6 -15  -3   61.95    8.18
   6  15  -3   64.08    8.57
 -15   3   6   54.40    8.89
   3  -6 -15   66.46    7.86
   5  -6 -15   77.75    8.57
 -15   5   6   92.63    9.88
  15  -5  -6   57.68    9.50
  -6 -15   5   65.38    9.23
   7  -6 -15  112.64    9.48
  15  -7  -6  107.93   12.06
  -7 -15   0   21.13    6.70
   0   7 -15   18.39    8.62
  -7 -15  -2   89.20    9.15
 -15   2   7   70.28    7.18
   7  15  -2   75.57   10.01
  -2   7 -15   61.94   12.00
  -7 -15   2   54.94    8.99
 -15   4   7  109.80    9.09
  -7 -15   4  112.88   10.71
 -15   6   7    5.77    6.73
   6  -7 -15    3.19    5.65
  15  -6  -7   10.10    6.97
  15  -8  -7   12.01    7.68
   8  -7 -15   18.75    5.99
  -1   8 -15    6.15    9.74
  -8 -15   1    2.31    6.67
  -8 -15  -1    0.32    6.07
   1   8 -15    2.21    8.33
  -8 -15   3    2.17    6.28
  -8 -15  -3   11.54    6.05
 -15   5   8   -2.15    5.84
 -15   7   8   -0.79    7.10
  -9 -15   0   -1.63    5.64
   0   9 -15    1.44    8.95
  -9 -15  -2   23.70    5.99
  -9 -15   2   13.73    6.43
  -2   9 -15   18.01   10.43
 -15   6   9   -0.58    6.42
 -10 -15   1   22.21    5.93
  -1  10 -15   10.97   10.06
 -10 -15  -1   10.87    5.86
 -11 -15  -2    1.26    5.64
 -16   0   0   11.38    7.79
   0 -16   2  101.10   13.37
 -16  -2   0  103.37   12.09
 -16   2   0  105.14   13.36
 -16  -4   0   10.40    8.27
   0  16  -4   -0.27    6.95
 -16   4   0   -5.70   11.81
   0 -16   4   16.94   10.43
   4   0 -16    5.03    7.39
   0 -16   6   21.09    8.99
   0  16  -6   35.97    7.42
   0  16  -8   -2.19    8.78
   0 -16   8    8.97    9.88
 -16  -1  -1    8.34    9.43
   1  16  -1    4.87    6.54
  -1 -16   1   20.56    9.75
 -16   1   1    5.02    9.22
 -16   1  -1    6.11    8.36
 -16  -1   1   -1.72    8.01
 -16  -3  -1   14.59    9.39
 -16   3  -1   17.29   10.52
  -1 -16   3    9.55    8.69
 -16   3   1    2.65   11.22
   1  16  -3   21.61    6.63
 -16  -3   1   20.02    7.67
   5  -1 -16    3.00    5.09
  -1 -16   5   -3.29    9.49
   1  16  -5   -6.44    6.87
 -16   5   1  -12.12   11.90
 -16  -5   1   -2.94    7.38
   1  16  -7   13.47    7.79
  -1 -16   7    0.04    7.78
   1  16  -9   12.89    8.88
  -1 -16   9   17.28    9.25
 -16   0   2  216.90   16.90
  -2 -16   0  241.89   16.99
 -16  -2   2  135.37   10.60
 -16   2   2  129.17   13.89
  -2 -16   2  125.94   13.81
   2  16  -2  135.64   11.42
 -16  -2  -2  114.72   13.72
 -16   2  -2  113.86   12.86
   4  -2 -16   20.33    6.64
  -2 -16   4   17.97    8.95
 -16   4   2    2.09   10.96
 -16  -4   2   16.57    6.88
   2  16  -4   14.97    6.52
  16  -6  -2   15.04    9.58
 -16   6   2   26.71   12.41
   2  16  -6   13.47    6.33
  -2 -16   6   17.45    9.25
  -2 -16   8    5.79    8.24
   2  16  -8   -6.22    7.32
 -16  -1  -3  158.47   15.11
  -3 -16  -1  135.45   13.53
 -16   1   3  170.71   14.12
 -16  -1   3  184.63   12.83
 -16   1  -3  152.94   14.78
   3  -3 -16  126.66   12.45
  -3 -16   3  144.86   13.19
 -16   3   3  128.91   15.04
   3  16  -3  141.84   11.57
  -3 -16   5  103.59   12.47
   3  16  -5   68.75    9.05
   5  -3 -16   66.72    8.36
 -16   5   3   87.02   12.93
  -3 -16   7  179.41   14.15
   3  16  -7  168.25   12.29
 -16   0  -4   23.23   11.64
   4  16   0   18.61    6.99
  -4 -16   0   33.93    9.23
 -16   0   4   35.56    7.54
   4  16  -2   15.92    6.06
 -16   2   4   14.65    7.74
  -4 -16   2   -1.25    8.60
   2  -4 -16   10.24    8.22
 -16   4   4  196.07   14.38
   4  16  -4  196.55   12.82
  -4 -16   4  187.87   15.64
 -16   6   4  113.24   12.85
   6  -4 -16   91.64    9.41
  -4 -16   6   90.55   11.10
   5  16  -1   -2.56    7.44
 -16   1   5   -0.24    6.68
   5  16   1    5.11    8.95
  -5 -16  -1   20.79    8.84
  -5 -16   1    0.17    7.42
 -16   3   5   10.56    7.58
  -5 -16   3   17.46    8.93
   5  16  -3    9.70    6.20
   3  -5 -16    8.86    6.19
  16  -5  -5    0.34    7.69
  -5 -16   5    4.80    8.17
   5  -5 -16    0.44    5.49
 -16   5   5    0.50    9.33
   7  -5 -16    2.20    5.54
  16  -7  -5    7.27    8.38
   6  16   0   46.24    9.64
  -6 -16   0   47.50   10.00
   6  16  -2   -2.13    8.20
  -6 -16   2    4.83    7.93
  -6 -16   4  114.80   11.28
 -16   4   6   83.01   10.51
  16  -6  -6    2.29    7.69
   6  -6 -16    3.77    6.15
 -16   6   6    5.41    9.01
  -7 -16  -1    4.78    6.88
  -7 -16   1    2.46    8.23
  -1   7 -16    7.56    9.17
  -7 -16   3   14.35    7.52
 -16   5   7    3.59    6.76
 -16   7   7    7.89    7.66
  -8 -16   0   26.61    7.77
  -8 -16   2   11.75    6.92
  -9 -16  -1   94.36    8.89
  -9 -16   1   91.72    9.77
  -1   9 -16   63.67   13.66
 -10 -16   0   95.54    9.27
 -17  -1   0   33.16    9.52
 -17   1   0   35.29   11.16
 -17   3   0  206.31   18.68
 -17  -3   0  194.04   15.38
 -17   0   1   65.24   12.24
 -17   0  -1   78.84   13.25
 -17   2   1   13.07   10.95
 -17  -2   1    5.95    7.39
 -17  -2  -1   -4.69    9.82
 -17   2  -1   -3.65   10.51
   4  -1 -17   18.83    7.89
 -17   4   1   -0.12   10.87
 -17  -4  -1   15.33   10.40
 -17  -1   2   -6.20    8.63
 -17   1  -2   -3.57   11.29
 -17  -1  -2   -4.21   11.13
 -17   1   2    5.50   10.20
   3  -2 -17   -1.71    8.37
 -17  -3  -2    2.45   10.99
 -17   3   2   -0.87   11.41
  -2 -17   5    1.37    9.98
   2  17  -5   -0.84    6.73
 -17   5   2   -4.40   12.41
  -2 -17   7    1.33    9.48
   2  17  -7   -1.77    7.21
  -2 -17   9   21.00    9.75
 -17   0   3   55.22   11.00
 -17   0  -3   35.89   11.83
   2  -3 -17    6.60    9.46
 -17   2   3   -1.53    9.90
 -17  -2  -3    5.82   10.94
 -17   4   3    9.80   11.23
   4  -3 -17   -5.60    6.33
  -3 -17   4    7.84   10.01
   3  17  -4    4.73    6.92
  -3 -17   6   25.39    8.97
   3  17  -6   12.04    6.98
  -4 -17   1    8.66    8.35
 -17   3   4    0.47    8.90
   4  17  -3    9.39    6.32
   3  -4 -17   -0.66    6.79
  -4 -17   3    2.68    9.46
   5  -4 -17    3.37    5.82
  -4 -17   5    1.17    9.50
 -17   5   4   -8.58    9.60
   5  17  -2    7.43    6.54
  -5 -17   2    7.57    9.03
 -17   4   5    3.23    9.35
  -5 -17   4   13.88    9.66
   6  -5 -17   19.91    6.12
 -17   6   5   17.63   10.76
   6  17  -1   16.49    9.38
  -6 -17   1   29.13    8.19
  -6 -17   3  145.56   13.81
  -7 -17   0   62.69   11.00
  -7 -17   2   17.68    8.14
  -9 -17   0   31.53    8.00
 -18   2   0   13.97   11.32
 -18  -2   0    4.35    8.80
 -18  -1  -1    0.43   10.30
 -18   1   1   -5.59   11.53
 -18   1  -1    9.68   11.13
 -18   3   1   76.53   15.47
 -18  -3  -1   51.29   10.39
   3  -1 -18   56.73   12.28
 -18   0  -2   -0.60   11.09
 -18   2   2    4.45   10.16
 -18  -2  -2   18.80   11.01
 -18  -4  -2   13.86   12.34
 -18   4   2    9.59   12.02
 -18   3   3   68.82   13.68
 -18  -3  -3   69.03   12.97
  -4 -18   6   21.03    9.53
 -19   1   0    1.29   12.29
 -19   0  -1   -5.39   11.53
 -19   2   1    4.60   13.50
   0   0   0    0.00    0.00
;
_shelx_hkl_checksum              63607
loop_
_space_group_symop_operation_xyz
'x, y, z'
'-x, -y, z'
'-x, y, -z'
'x, -y, -z'
'z, x, y'
'z, -x, -y'
'-z, -x, y'
'-z, x, -y'
'y, z, x'
'-y, z, -x'
'y, -z, -x'
'-y, -z, x'
'x+1/2, y+1/2, z+1/2'
'-x+1/2, -y+1/2, z+1/2'
'-x+1/2, y+1/2, -z+1/2'
'x+1/2, -y+1/2, -z+1/2'
'z+1/2, x+1/2, y+1/2'
'z+1/2, -x+1/2, -y+1/2'
'-z+1/2, -x+1/2, y+1/2'
'-z+1/2, x+1/2, -y+1/2'
'y+1/2, z+1/2, x+1/2'
'-y+1/2, z+1/2, -x+1/2'
'y+1/2, -z+1/2, -x+1/2'
'-y+1/2, -z+1/2, x+1/2'
'-x, -y, -z'
'x, y, -z'
'x, -y, z'
'-x, y, z'
'-z, -x, -y'
'-z, x, y'
'z, x, -y'
'z, -x, y'
'-y, -z, -x'
'y, -z, x'
'-y, z, x'
'y, z, -x'
'-x+1/2, -y+1/2, -z+1/2'
'x+1/2, y+1/2, -z+1/2'
'x+1/2, -y+1/2, z+1/2'
'-x+1/2, y+1/2, z+1/2'
'-z+1/2, -x+1/2, -y+1/2'
'-z+1/2, x+1/2, y+1/2'
'z+1/2, x+1/2, -y+1/2'
'z+1/2, -x+1/2, y+1/2'
'-y+1/2, -z+1/2, -x+1/2'
'y+1/2, -z+1/2, x+1/2'
'-y+1/2, z+1/2, x+1/2'
'y+1/2, z+1/2, -x+1/2'
loop_
_atom_site_label
_atom_site_type_symbol
_atom_site_fract_x
_atom_site_fract_y
_atom_site_fract_z
_atom_site_U_iso_or_equiv
_atom_site_adp_type
_atom_site_occupancy
_atom_site_site_symmetry_order
_atom_site_calc_flag
_atom_site_refinement_flags_posn
_atom_site_refinement_flags_adp
_atom_site_refinement_flags_occupancy
_atom_site_disorder_assembly
_atom_site_disorder_group
Co1 Co 0.2500 0.2500 0.2500 0.0083(2) Uani 1 6 d S T P . .
Sb2 Sb 0.5000 0.34349(4) 0.16459(4) 0.01223(12) Uani 0.51(3) 2 d S T P . .
Ge2 Ge 0.5000 0.34349(4) 0.16459(4) 0.01223(12) Uani 0.247(17) 2 d S T P . .
Te2 Te 0.5000 0.34349(4) 0.16459(4) 0.01223(12) Uani 0.247(17) 2 d S T P . .
loop_
_atom_site_aniso_label
_atom_site_aniso_U_11
_atom_site_aniso_U_22
_atom_site_aniso_U_33
_atom_site_aniso_U_23
_atom_site_aniso_U_13
_atom_site_aniso_U_12
Co1 0.0083(2) 0.0083(2) 0.0083(2) 0.00071(16) 0.00071(16) 0.00071(16)
Sb2 0.00715(14) 0.01361(16) 0.01591(16) -0.00065(10) 0.000 0.000
Ge2 0.00715(14) 0.01361(16) 0.01591(16) -0.00065(10) 0.000 0.000
Te2 0.00715(14) 0.01361(16) 0.01591(16) -0.00065(10) 0.000 0.000
loop_
_atom_type_symbol
_atom_type_description
_atom_type_scat_dispersion_real
_atom_type_scat_dispersion_imag
_atom_type_scat_source
Co Co 0.1905 0.1817 'International Tables Vol C Tables 4.2.6.8 and 6.1.1.4'
Sb Sb 0.0537 2.0709 'International Tables Vol C Tables 4.2.6.8 and 6.1.1.4'
Ge Ge 0.2870 0.3609 'International Tables Vol C Tables 4.2.6.8 and 6.1.1.4'
Te Te -0.0510 2.2176 'International Tables Vol C Tables 4.2.6.8 and 6.1.1.4'
loop_
_geom_angle_atom_site_label_1
_geom_angle_atom_site_label_2
_geom_angle_atom_site_label_3
_geom_angle
_geom_angle_site_symmetry_1
_geom_angle_site_symmetry_3
Te2 Co1 Ge2 0.00(2) 37 37
Te2 Co1 Sb2 0.0 37 37
Ge2 Co1 Sb2 0.0 37 37
Te2 Co1 Te2 94.356(11) 37 45
Ge2 Co1 Te2 94.356(11) 37 45
Sb2 Co1 Te2 94.356(11) 37 45
Te2 Co1 Te2 85.644(11) 37 9
Ge2 Co1 Te2 85.644(11) 37 9
Sb2 Co1 Te2 85.644(11) 37 9
Te2 Co1 Te2 180.0 45 9
Te2 Co1 Sb2 85.6 37 5
Ge2 Co1 Sb2 85.6 37 5
Sb2 Co1 Sb2 85.644(11) 37 5
Te2 Co1 Sb2 85.6 45 5
Te2 Co1 Sb2 94.4 9 5
Te2 Co1 Sb2 94.4 37 41
Ge2 Co1 Sb2 94.4 37 41
Sb2 Co1 Sb2 94.356(11) 37 41
Te2 Co1 Sb2 94.4 45 41
Te2 Co1 Sb2 85.6 9 41
Sb2 Co1 Sb2 180.0 5 41
Te2 Co1 Sb2 85.6 37 9
Ge2 Co1 Sb2 85.6 37 9
Sb2 Co1 Sb2 85.644(11) 37 9
Te2 Co1 Sb2 180.0 45 9
Te2 Co1 Sb2 0.0 9 9
Sb2 Co1 Sb2 94.356(11) 5 9
Sb2 Co1 Sb2 85.644(11) 41 9
Te2 Co1 Sb2 94.4 37 45
Ge2 Co1 Sb2 94.4 37 45
Sb2 Co1 Sb2 94.356(11) 37 45
Te2 Co1 Sb2 0.0 45 45
Te2 Co1 Sb2 180.0 9 45
Sb2 Co1 Sb2 85.644(11) 5 45
Sb2 Co1 Sb2 94.356(11) 41 45
Sb2 Co1 Sb2 180.0 9 45
Te2 Co1 Te2 94.356(11) 37 41
Ge2 Co1 Te2 94.356(11) 37 41
Sb2 Co1 Te2 94.356(11) 37 41
Te2 Co1 Te2 94.356(11) 45 41
Te2 Co1 Te2 85.644(11) 9 41
Sb2 Co1 Te2 180.0 5 41
Sb2 Co1 Te2 0.00(2) 41 41
Sb2 Co1 Te2 85.644(11) 9 41
Sb2 Co1 Te2 94.356(11) 45 41
Te2 Co1 Ge2 85.644(11) 37 5
Ge2 Co1 Ge2 85.644(11) 37 5
Sb2 Co1 Ge2 85.644(11) 37 5
Te2 Co1 Ge2 85.644(11) 45 5
Te2 Co1 Ge2 94.356(11) 9 5
Sb2 Co1 Ge2 0.00(2) 5 5
Sb2 Co1 Ge2 180.0 41 5
Sb2 Co1 Ge2 94.356(11) 9 5
Sb2 Co1 Ge2 85.644(11) 45 5
Te2 Co1 Ge2 180.0 41 5
Te2 Co1 Ge2 94.356(11) 37 41
Ge2 Co1 Ge2 94.356(11) 37 41
Sb2 Co1 Ge2 94.356(11) 37 41
Te2 Co1 Ge2 94.356(11) 45 41
Te2 Co1 Ge2 85.644(11) 9 41
Sb2 Co1 Ge2 180.0 5 41
Sb2 Co1 Ge2 0.00(2) 41 41
Sb2 Co1 Ge2 85.644(11) 9 41
Sb2 Co1 Ge2 94.356(11) 45 41
Te2 Co1 Ge2 0.00(2) 41 41
Ge2 Co1 Ge2 180.0 5 41
Co1 Sb2 Co1 126.273(15) . 16
Co1 Sb2 Te2 109.488(7) . 2_665
Co1 Sb2 Te2 109.488(7) 16 2_665
Co1 Sb2 Sb2 109.488(7) . 2_665
Co1 Sb2 Sb2 109.488(7) 16 2_665
Te2 Sb2 Sb2 0.0 2_665 2_665
Co1 Sb2 Ge2 109.488(7) . 2_665
Co1 Sb2 Ge2 109.488(7) 16 2_665
Te2 Sb2 Ge2 0.000(15) 2_665 2_665
Sb2 Sb2 Ge2 0.000(15) 2_665 2_665
Co1 Sb2 Te2 107.745(8) . 26
Co1 Sb2 Te2 107.745(8) 16 26
Te2 Sb2 Te2 90.0 2_665 26
Sb2 Sb2 Te2 90.0 2_665 26
Ge2 Sb2 Te2 90.0 2_665 26
Co1 Sb2 Ge2 107.745(8) . 26
Co1 Sb2 Ge2 107.745(8) 16 26
Te2 Sb2 Ge2 90.0 2_665 26
Sb2 Sb2 Ge2 90.0 2_665 26
Ge2 Sb2 Ge2 90.0 2_665 26
Te2 Sb2 Ge2 0.0 26 26
Co1 Sb2 Sb2 107.745(8) . 26
Co1 Sb2 Sb2 107.745(8) 16 26
Te2 Sb2 Sb2 90.0 2_665 26
Sb2 Sb2 Sb2 90.0 2_665 26
Ge2 Sb2 Sb2 90.0 2_665 26
Te2 Sb2 Sb2 0.0 26 26
Ge2 Sb2 Sb2 0.0 26 26
loop_
_geom_bond_atom_site_label_1
_geom_bond_atom_site_label_2
_geom_bond_distance
_geom_bond_site_symmetry_2
Co1 Te2 2.49881(18) 37
Co1 Ge2 2.49881(18) 37
Co1 Sb2 2.49881(18) 37
Co1 Te2 2.49881(18) 45
Co1 Te2 2.49881(18) 9
Co1 Sb2 2.49881(18) 5
Co1 Sb2 2.49881(18) 41
Co1 Sb2 2.49881(18) 9
Co1 Sb2 2.49881(18) 45
Co1 Te2 2.49881(18) 41
Co1 Ge2 2.49881(18) 5
Co1 Ge2 2.49881(18) 41
Sb2 Co1 2.49881(18) 16
Sb2 Te2 2.7911(7) 2_665
Sb2 Sb2 2.7911(7) 2_665
Sb2 Ge2 2.7911(7) 2_665
Sb2 Te2 2.9352(7) 26
Sb2 Ge2 2.9352(7) 26
Sb2 Sb2 2.9352(7) 26
