#------------------------------------------------------------------------------
#$Date: 2019-11-18 10:26:47 +0200 (Mon, 18 Nov 2019) $
#$Revision: 230985 $
#$URL: file:///home/coder/svn-repositories/cod/cif/7/23/51/7235154.cif $
#------------------------------------------------------------------------------
#
# This file is available in the Crystallography Open Database (COD),
# http://www.crystallography.net/
#
# All data on this site have been placed in the public domain by the
# contributors.
#
data_7235154
loop_
_publ_author_name
'Benjamin P. Cherniawski'
'Steven A. Lopez'
'Edmund K. Burnett'
'Ilhan Yavuz'
'Lei Zhang'
'Sean R. Parkin'
'Kendall N. Houk'
'Alejandro L. Briseno'
_publ_section_title
;
 The effect of hexyl side chains on molecular conformations, crystal
 packing, and charge transport of oligothiophenes
;
_journal_name_full               'Journal of Materials Chemistry C'
_journal_page_first              582
_journal_page_last               588
_journal_paper_doi               10.1039/C6TC04612F
_journal_volume                  5
_journal_year                    2017
_chemical_formula_moiety         'C6 H2 S2, 2(C4 H3 S)'
_chemical_formula_sum            'C14 H8 S4'
_chemical_formula_weight         304.44
_space_group_crystal_system      triclinic
_space_group_IT_number           2
_space_group_name_Hall           '-P 1'
_space_group_name_H-M_alt        'P -1'
_atom_sites_solution_hydrogens   difmap
_atom_sites_solution_primary     direct
_atom_sites_solution_secondary   difmap
_cell_angle_alpha                87.647(5)
_cell_angle_beta                 77.952(4)
_cell_angle_gamma                82.023(4)
_cell_formula_units_Z            2
_cell_length_a                   5.7171(3)
_cell_length_b                   8.6010(6)
_cell_length_c                   13.2287(8)
_cell_measurement_reflns_used    3651
_cell_measurement_temperature    90.0(2)
_cell_measurement_theta_max      66.93
_cell_measurement_theta_min      3.42
_cell_volume                     629.96(7)
_computing_cell_refinement       '<i>APEX2</i> (Bruker-AXS, 2006)'
_computing_data_collection       '<i>APEX2</i> (Bruker-AXS, 2006)'
_computing_data_reduction        '<i>APEX2</i> (Bruker-AXS, 2006)'
_computing_molecular_graphics    '<i>XP in SHELXTL</i> (Sheldrick, 2008)'
_computing_publication_material
'<i>SHELX</i> (Sheldrick, 2008) and <i>CIFFIX</i> (Parkin, 2013)'
_computing_structure_refinement  '<i>SHELXL-2014/7</i> (Sheldrick, 2015b)'
_computing_structure_solution    '<i>SHELXT</i> (Sheldrick, 2015a)'
_diffrn_ambient_temperature      90.0(2)
_diffrn_detector_area_resol_mean 5.6
_diffrn_measured_fraction_theta_full 0.981
_diffrn_measured_fraction_theta_max 0.977
_diffrn_measurement_device_type  'Bruker X8 Proteum diffractometer'
_diffrn_measurement_method       '\f and \w scans'
_diffrn_radiation_type           CuK\a
_diffrn_radiation_wavelength     1.54178
_diffrn_reflns_av_R_equivalents  0.0479
_diffrn_reflns_av_unetI/netI     0.0418
_diffrn_reflns_Laue_measured_fraction_full 0.981
_diffrn_reflns_Laue_measured_fraction_max 0.977
_diffrn_reflns_limit_h_max       2
_diffrn_reflns_limit_h_min       -6
_diffrn_reflns_limit_k_max       10
_diffrn_reflns_limit_k_min       -10
_diffrn_reflns_limit_l_max       15
_diffrn_reflns_limit_l_min       -15
_diffrn_reflns_number            7897
_diffrn_reflns_point_group_measured_fraction_full 0.981
_diffrn_reflns_point_group_measured_fraction_max 0.977
_diffrn_reflns_theta_full        67.679
_diffrn_reflns_theta_max         68.275
_diffrn_reflns_theta_min         3.416
_diffrn_source                   'fine-focus rotating anode'
_exptl_absorpt_coefficient_mu    6.713
_exptl_absorpt_correction_T_max  0.956
_exptl_absorpt_correction_T_min  0.666
_exptl_absorpt_correction_type   multi-scan
_exptl_absorpt_process_details   '<i>SADABS</i> (Krause et al., 2015)'
_exptl_crystal_colour            yellow
_exptl_crystal_density_diffrn    1.605
_exptl_crystal_description       flake
_exptl_crystal_F_000             312
_exptl_crystal_size_max          0.270
_exptl_crystal_size_mid          0.130
_exptl_crystal_size_min          0.002
_refine_diff_density_max         0.372
_refine_diff_density_min         -0.298
_refine_diff_density_rms         0.078
_refine_ls_extinction_coef       .
_refine_ls_extinction_method     none
_refine_ls_goodness_of_fit_ref   1.160
_refine_ls_hydrogen_treatment    constr
_refine_ls_matrix_type           full
_refine_ls_number_parameters     203
_refine_ls_number_reflns         2255
_refine_ls_number_restraints     470
_refine_ls_restrained_S_all      1.058
_refine_ls_R_factor_all          0.0549
_refine_ls_R_factor_gt           0.0475
_refine_ls_shift/su_max          0.000
_refine_ls_shift/su_mean         0.000
_refine_ls_structure_factor_coef Fsqd
_refine_ls_weighting_details
'w=1/[\s^2^(Fo^2^)+(0.0575P)^2^+0.9557P] where P=(Fo^2^+2Fc^2^)/3'
_refine_ls_weighting_scheme      calc
_refine_ls_wR_factor_gt          0.1381
_refine_ls_wR_factor_ref         0.1441
_reflns_Friedel_coverage         0.000
_reflns_Friedel_fraction_full    .
_reflns_Friedel_fraction_max     .
_reflns_number_gt                1958
_reflns_number_total             2255
_reflns_threshold_expression     'I > 2\s(I)'
_cod_data_source_file            J-Mater-Chem-C-2017-5-582.cif
_cod_data_source_block           x14080
_cod_database_code               7235154
_shelx_space_group_comment
; 
The symmetry employed for this shelxl refinement is uniquely defined 
by the following loop, which should always be used as a source of 
symmetry information in preference to the above space-group names. 
They are only intended as comments. 
;
_shelx_estimated_absorpt_t_min   0.264
_shelx_estimated_absorpt_t_max   0.987
_exptl_absorpt_special_details
; 
In addition to absorption, multi-scan techniques also correct other slowly 
varying changes in scale factor over reciprocal space, such as those caused 
by x-ray beam inhomogeneity, goniometer imperfection, crystal decomposition, 
crystal longer than the x-ray beam cross section, absorption by the crystal 
mount etc.  These account, by and large, for much of the difference between 
estimated values of Tmin and Tmax and the _exptl_absorpt_correction_ values. 
;
_shelx_res_file
; 
 
    x14080.res created by SHELXL-2014/7 
 
 
TITL x14080w in P-1 
CELL  1.54178   5.7171   8.6010  13.2287   87.647   77.952   82.023 
ZERR        2   0.0003   0.0006   0.0008    0.005    0.004    0.004 
LATT  1 
SFAC C H S 
UNIT 28 16 8 
TEMP -183.000 
SIZE 0.270 0.130 0.002 
REM FORM flake 
REM COLR yellow 
L.S. 10 
BOND $H 
CONF 
LIST 4 
ACTA 
FMAP 2 
PLAN 10 
RIGU 
ISOR 
REM EXTI    0.000000 not of any use at all. 
WGHT    0.057500    0.955700 
FVAR       0.75838   0.85138   0.65536   0.62427   0.50778 
MOLE 1 
EXYZ C4a C4a' 
EADP S1A C3A' 
EADP C1A C2A' 
EADP C2A C1A' 
EADP C3A S1A' 
EADP C4A C4A' 
SAME 0.020 S1A' C1A' C2A' C3A' C4A' 
PART 1 
S1A   3    0.322941   -0.205003    0.854729    21.00000    0.02069    0.03391 = 
         0.03037    0.00264   -0.00931   -0.00759 
C1A   1    0.106208   -0.316633    0.918298    21.00000    0.02032    0.02930 = 
         0.03463    0.00322   -0.00345   -0.00388 
AFIX  43 
H1A   2    0.085892   -0.346133    0.989273    21.00000   -1.20000 
AFIX   0 
C2A   1   -0.031257   -0.356710    0.853674    21.00000    0.01814    0.02704 = 
         0.03830    0.00179   -0.00504   -0.00380 
AFIX  43 
H2A   2   -0.161534   -0.416406    0.874252    21.00000   -1.20000 
AFIX   0 
C3A   1    0.042837   -0.299000    0.752453    21.00000    0.01359    0.02602 = 
         0.04140   -0.00070   -0.00906   -0.00101 
AFIX  43 
H3A   2   -0.031087   -0.319640    0.697306    21.00000   -1.20000 
AFIX   0 
C4A   1    0.228025   -0.211553    0.739524    21.00000    0.01584    0.02385 = 
         0.03362   -0.00173   -0.00593    0.00029 
PART 2 
S1A'  3   -0.015274   -0.298891    0.744437   -21.00000    0.01359    0.02602 = 
         0.04140   -0.00070   -0.00906   -0.00101 
C1A'  1   -0.019327   -0.357300    0.871684   -21.00000    0.01814    0.02704 = 
         0.03830    0.00179   -0.00504   -0.00380 
AFIX  43 
H1A'  2   -0.131156   -0.419519    0.911367   -21.00000   -1.20000 
AFIX   0 
C2A'  1    0.160728   -0.301358    0.906899   -21.00000    0.02032    0.02930 = 
         0.03463    0.00322   -0.00345   -0.00388 
AFIX  43 
H2A'  2    0.184724   -0.315364    0.975792   -21.00000   -1.20000 
AFIX   0 
C3A'  1    0.307622   -0.219946    0.828621   -21.00000    0.02069    0.03391 = 
         0.03037    0.00264   -0.00931   -0.00759 
AFIX  43 
H3A'  2    0.445571   -0.176564    0.837945   -21.00000   -1.20000 
AFIX   0 
C4A'  1    0.228025   -0.211553    0.739524   -21.00000    0.01584    0.02385 = 
         0.03362   -0.00173   -0.00593    0.00029 
EXYZ C5a C5a' 
EADP C5a C5a' 
EADP C6a S2a' 
EADP S2a C6a' 
SAME 0.020 C5a' C6a' S2a' 
PART 1 
C5A   1    0.337329   -0.130352    0.647341    31.00000    0.01460    0.02389 = 
         0.03146   -0.00432   -0.00661    0.00147 
C6A   1    0.525703   -0.042117    0.631819    31.00000    0.01460    0.02971 = 
         0.02956   -0.00114   -0.00918   -0.00405 
AFIX  43 
H6A   2    0.611230   -0.025085    0.683828    31.00000   -1.20000 
AFIX   0 
S2A   3    0.218686   -0.134134    0.537619    31.00000    0.01526    0.02798 = 
         0.02957   -0.00155   -0.00911   -0.00576 
PART 2 
C5A'  1    0.337329   -0.130352    0.647341   -31.00000    0.01460    0.02389 = 
         0.03146   -0.00432   -0.00661    0.00147 
C6A'  1    0.266393   -0.122456    0.553028   -31.00000    0.01526    0.02798 = 
         0.02957   -0.00155   -0.00911   -0.00576 
AFIX  43 
H6A'  2    0.138535   -0.172617    0.539335   -31.00000   -1.20000 
AFIX   0 
S2A'  3    0.572659   -0.028604    0.647143   -31.00000    0.01460    0.02971 = 
         0.02956   -0.00114   -0.00918   -0.00405 
PART 0 
C7A   1    0.579937    0.022421    0.526993    11.00000    0.01386    0.02432 = 
         0.03348   -0.00790   -0.00638    0.00158 
MOLE 2 
EXYZ C4b C4b' 
EADP S1b C3b' 
EADP C1b C2b' 
EADP C2b C1b' 
EADP C3b S1b' 
EADP C4b C4b' 
SAME 0.020 S1b' C1b' C2b' C3b' C4b' 
PART 1 
S1B   3    0.523088    0.667131    0.186023    41.00000    0.01463    0.03843 = 
         0.03389    0.00430    0.00116   -0.00329 
C1B   1    0.479914    0.814052    0.097028    41.00000    0.02444    0.03418 = 
         0.03283    0.00346   -0.00258   -0.00847 
AFIX  43 
H1B   2    0.600544    0.836877    0.039316    41.00000   -1.20000 
AFIX   0 
C2B   1    0.253292    0.893685    0.118829    41.00000    0.02728    0.02986 = 
         0.03102    0.00260   -0.00666   -0.00552 
AFIX  43 
H2B   2    0.195605    0.978146    0.078089    41.00000   -1.20000 
AFIX   0 
C3B   1    0.111482    0.833863    0.211545    41.00000    0.02100    0.02750 = 
         0.03031    0.00459   -0.00724   -0.00295 
AFIX  43 
H3B   2   -0.050576    0.875797    0.239905    41.00000   -1.20000 
AFIX   0 
C4B   1    0.237741    0.708481    0.254671    41.00000    0.01809    0.02290 = 
         0.02924   -0.00288   -0.00538   -0.00548 
PART 2 
S1B'  3    0.074315    0.853174    0.202707   -41.00000    0.02100    0.02750 = 
         0.03031    0.00459   -0.00724   -0.00295 
C1B'  1    0.310691    0.883871    0.104158   -41.00000    0.02728    0.02986 = 
         0.03102    0.00260   -0.00666   -0.00552 
AFIX  43 
H1B'  2    0.301943    0.962424    0.051962   -41.00000   -1.20000 
AFIX   0 
C2B'  1    0.513028    0.782004    0.109601   -41.00000    0.02444    0.03418 = 
         0.03283    0.00346   -0.00258   -0.00847 
AFIX  43 
H2B'  2    0.662826    0.781939    0.062188   -41.00000   -1.20000 
AFIX   0 
C3B'  1    0.472053    0.673971    0.196336   -41.00000    0.01463    0.03843 = 
         0.03389    0.00430    0.00116   -0.00329 
AFIX  43 
H3B'  2    0.588278    0.591093    0.211522   -41.00000   -1.20000 
AFIX   0 
C4B'  1    0.237741    0.708481    0.254671   -41.00000    0.01809    0.02290 = 
         0.02924   -0.00288   -0.00538   -0.00548 
PART 0 
EXYZ C5b C5b' 
EADP C5b C5b' 
EADP C6b S2b' 
EADP S2b C6b' 
SAME 0.020 C5b' C6b' S2b' 
PART 1 
C5B   1    0.146770    0.625758    0.348747    51.00000    0.01437    0.02095 = 
         0.02747   -0.00226   -0.00631   -0.00388 
C6B   1    0.270790    0.515394    0.400961    51.00000    0.01096    0.02254 = 
         0.02920    0.00189   -0.00549   -0.00096 
AFIX  43 
H6B   2    0.437289    0.477714    0.378889    51.00000   -1.20000 
AFIX   0 
S2B   3   -0.154652    0.668658    0.408379    51.00000    0.00999    0.02154 = 
         0.02915    0.00078   -0.00475    0.00033 
PART 2 
C5B'  1    0.146770    0.625758    0.348747   -51.00000    0.01437    0.02095 = 
         0.02747   -0.00226   -0.00631   -0.00388 
C6B'  1   -0.084125    0.643183    0.406800   -51.00000    0.00999    0.02154 = 
         0.02915    0.00078   -0.00475    0.00033 
AFIX  43 
H6B'  2   -0.212900    0.713355    0.388651   -51.00000   -1.20000 
AFIX   0 
S2B'  3    0.336832    0.488589    0.403198   -51.00000    0.01096    0.02254 = 
         0.02920    0.00189   -0.00549   -0.00096 
PART 0 
C7B   1    0.112468    0.459187    0.498727    11.00000    0.01457    0.02086 = 
         0.03466   -0.00540   -0.00861   -0.00232 
 
HKLF 4 
 
REM  x14080w in P-1 
REM R1 =  0.0475 for    1958 Fo > 4sig(Fo)  and  0.0549 for all    2255 data 
REM    203 parameters refined using    470 restraints 
 
END 
 
WGHT      0.0575      0.9557 
 
REM Highest difference peak  0.372,  deepest hole -0.298,  1-sigma level  0.078 
Q1    1   0.2034  0.4884  0.4584  11.00000  0.05    0.37 
Q2    1   0.0311  0.6249  0.3581  11.00000  0.05    0.33 
Q3    1   0.2649 -0.3056  0.8680  11.00000  0.05    0.33 
Q4    1   0.7093  0.0371  0.4844  11.00000  0.05    0.31 
Q5    1   0.5942 -0.0022  0.5799  11.00000  0.05    0.30 
Q6    1  -0.2139  0.7877  0.4281  11.00000  0.05    0.29 
Q7    1   0.3568  0.6912  0.2405  11.00000  0.05    0.29 
Q8    1   0.5746  0.7545  0.1647  11.00000  0.05    0.28 
Q9    1   0.0467 -0.3823  0.7858  11.00000  0.05    0.27 
Q10   1   0.5350  0.6838  0.1170  11.00000  0.05    0.27 
;
_shelx_res_checksum              33317
_shelx_hkl_file
;
  -1   0   0 7.98575 1.28709   6
  -1   0   0 10.1315 1.10154   7
  -1   0   0 9.52165 1.23518   4
  -1   0   0 10.8851 1.24776   5
  -2   0   0 26.1349 2.75235   5
  -2   0   0 24.7328 3.00628   4
  -2   0   0 23.9572 2.55088   7
  -2   0   0 23.7999 3.09126   6
  -3   0   0 41.5361 3.96116   5
  -3   0   0 45.9774 4.60805   6
  -3   0   0 41.1260 3.96533   7
  -4   0   0 17.0993 2.54858  14
  -4   0   0 13.8552 2.87428   5
  -4   0   0 18.1139 3.58583   6
  -4   0   0 10.7106 2.18320  11
  -4   0   0 20.4389 2.71871  12
  -4   0   0 20.0679 2.54041  13
  -4   0   0 13.2338 2.10896  15
  -4   0   0 18.5650 2.16136  16
  -5   0   0 117.748 9.30808  12
  -5   0   0 108.083 7.98407  16
  -5   0   0 108.008 8.36193  15
  -5   0   0 101.587 9.46320  14
  -5   0   0 106.584 9.08183  11
  -5   0   0 117.308 8.69004  13
  -6   0   0 44.8706 4.90521  13
  -6   0   0 57.5120 4.88043  15
  -6   0   0 51.0360 5.49573  14
  -6   1   0 289.800 18.7411  15
  -6   1   0 248.402 21.0142  14
  -5   1   0 33.6003 3.86090  16
  -5   1   0 35.0978 4.48922  13
  -5   1   0 37.2558 5.07405  14
  -5   1   0 40.2211 4.43327  15
  -5   1   0 29.5166 4.40771  12
  -4   1   0 46.8725 4.93587  14
  -4   1   0 43.1457 6.06091   6
  -4   1   0 42.4294 4.05505  16
  -4   1   0 41.5385 4.28597  15
  -4   1   0 39.4372 4.11850  17
  -4   1   0 45.8349 4.36237  13
  -4   1   0 41.3257 4.44956  12
  -4   1   0 36.3204 4.44451  11
  -3   1   0 272.428 16.8885   7
  -3   1   0 261.401 18.9932   6
  -2   1   0 16.1537 2.06856   7
  -2   1   0 19.6629 2.83955   6
  -2   1   0 16.4729 1.84479   4
  -2   1   0 19.2553 2.22513   5
   1  -1   0 6947.90 439.715   1
   1  -1   0 6751.39 439.893   1
  -1   1   0 6375.56 379.459   4
  -1   1   0 6136.57 389.846   7
  -1   1   0 6398.43 439.638   1
  -1   1   0 6496.37 433.501   6
  -1   1   0 6128.32 412.836   3
  -1   1   0 6428.22 424.033   2
   0  -1   0 14.5183 1.98963   1
   0  -1   0 12.9347 1.67601   3
   0  -1   0 13.1827 2.06963   1
   0   1   0 12.9162 2.05445   1
   0   1   0 13.0981 2.05244   1
   0   1   0 16.4835 2.05303   3
   0   1   0 15.5178 1.86318   2
  -1  -1   0 602.668 42.6266   2
  -1  -1   0 613.633 37.3316   5
  -1  -1   0 657.605 44.4427   1
  -1  -1   0 617.724 42.6291   2
  -1  -1   0 650.982 38.3078   4
  -1  -1   0 653.243 41.5408   3
  -1  -1   0 624.143 41.5194   3
  -1  -1   0 675.707 44.4588   1
   1   1   0 680.875 44.5149   1
   1   1   0 699.767 44.4509   1
  -2  -1   0 76.7923 6.17718   1
  -2  -1   0 83.1530 6.07488   1
  -2  -1   0 80.3689 5.53967   3
  -2  -1   0 76.2017 5.58120   2
  -2  -1   0 80.4647 5.39083   3
  -2  -1   0 79.8376 5.96059   4
  -2  -1   0 82.8954 5.45805   5
  -2  -1   0 70.9155 6.00280   6
  -2  -1   0 81.5316 5.57023   2
   2   1   0 85.5436 6.02422   1
   2   1   0 79.7217 6.27334   1
  -3  -1   0 168.670 12.4575   6
  -3  -1   0 177.470 10.8522   5
  -4  -1   0 388.113 25.9055  13
  -4  -1   0 409.204 28.1414  12
  -4  -1   0 353.866 25.2309  15
  -4  -1   0 382.377 26.8725  11
  -4  -1   0 325.104 28.4437  14
  -4  -1   0 331.597 24.6405  18
  -4  -1   0 394.413 22.3331   5
  -5  -1   0 75.1362 7.47321   5
  -5  -1   0 103.682 7.70672  12
  -5  -1   0 91.0721 7.01167  13
  -5  -1   0 68.3350 7.53533  14
  -5  -1   0 90.2379 7.62052  11
  -5  -1   0 76.6884 6.62463  15
  -6  -1   0 32.0405 4.82034  14
  -6  -1   0 37.2770 4.05815  13
  -6   2   0 55.1119 4.88331  16
  -6   2   0 57.5094 5.27377  15
  -5   2   0 1.51976 2.52180  17
  -5   2   0 4.84291 2.26721  15
  -5   2   0 8.63934 3.13168  14
  -5   2   0 2.85098 2.32444  16
  -4   2   0 183.563 14.0921  13
  -4   2   0 192.419 13.3961  16
  -4   2   0 199.724 13.7976  15
  -4   2   0 206.967 15.5678  14
  -4   2   0 182.025 15.1068   6
  -4   2   0 190.333 14.4133  17
  -3   2   0 31.5904 4.49760   6
  -3   2   0 25.8425 2.81587  15
  -3   2   0 28.9663 3.45204   7
   2  -2   0 1.66587 1.48357   1
  -2   2   0 0.67991 1.29201   1
  -2   2   0 2.30691 0.89574   4
  -2   2   0 2.62862 1.10432   2
  -2   2   0 1.30500 1.78751   7
  -2   2   0 2.04171 1.21814   3
  -2   2   0 1.54239 1.43211   1
  -2   2   0 1.51389 0.92951   3
  -2   2   0 1.58209 0.94534   2
  -2   2   0 -0.2291 2.31701   6
   1  -2   0 3679.87 240.248   1
   1  -2   0 3752.26 240.394   1
  -1   2   0 3789.12 240.328   1
  -1   2   0 3212.66 207.022   4
  -1   2   0 3198.04 225.312   3
  -1   2   0 3303.83 231.363   2
  -1   2   0 3703.41 236.887   6
  -1   2   0 3382.17 213.166   7
  -1   2   0 3658.31 232.149   2
  -1   2   0 3579.69 240.232   1
   0  -2   0 894.805 58.6361   1
   0  -2   0 875.626 58.5349   1
   0  -2   0 825.420 54.6199   3
   0  -2   0 788.186 56.0824   2
   0   2   0 843.931 54.6190   3
   0   2   0 870.815 58.5124   1
   0   2   0 865.447 58.5782   1
   0   2   0 837.025 56.0574   2
  -1  -2   0 743.769 50.5863   1
  -1  -2   0 718.476 42.2615   5
  -1  -2   0 722.030 47.1069   3
  -1  -2   0 711.363 48.3408   2
  -1  -2   0 762.510 50.6006   1
   1   2   0 699.147 47.1128   3
   1   2   0 672.494 48.3022   2
   1   2   0 771.571 50.5598   1
   1   2   0 787.138 50.7264   1
  -2  -2   0 18.0904 2.16786   6
  -2  -2   0 16.9865 2.76900   1
  -2  -2   0 13.1763 1.85438   2
  -2  -2   0 18.7639 2.11841   2
  -2  -2   0 16.2504 2.10807   3
  -2  -2   0 15.0886 2.13359   5
  -2  -2   0 19.5970 2.99416   1
  -2  -2   0 18.1461 2.15544   3
   2   2   0 18.0253 2.75297   1
   2   2   0 19.3964 3.13247   1
  -3  -2   0 2.73973 2.00416   5
  -3  -2   0 1.53082 0.79256   3
  -3  -2   0 2.20471 1.72456   6
  -3  -2   0 2.80942 1.34442   3
  -3  -2   0 2.62448 1.16747   2
  -3  -2   0 1.58700 0.93177   2
  -4  -2   0 30.0161 3.84714  12
  -4  -2   0 34.1097 4.56721  11
  -4  -2   0 27.0706 3.29935  15
  -4  -2   0 26.1853 3.54311  13
  -4  -2   0 27.6346 2.23050  10
  -4  -2   0 23.9864 4.13366  14
  -4  -2   0 40.2139 4.16780   5
  -5  -2   0 59.5912 5.37494  13
  -5  -2   0 50.4054 6.29691  14
  -5  -2   0 67.5675 6.13653  12
  -6  -2   0 34.7150 5.03504  14
  -6  -2   0 43.2880 4.42038  13
  -6   3   0 1.69879 1.49033  16
  -5   3   0 46.0415 4.52957  16
  -5   3   0 42.2472 4.88613  15
  -5   3   0 33.6693 5.04701  17
  -4   3   0 57.4654 5.28766  16
  -4   3   0 73.2327 6.89651  14
  -4   3   0 56.3341 5.91215  15
  -4   3   0 58.0966 5.89754  17
  -3   3   0 278.533 21.7449  14
  -3   3   0 282.463 18.8197  16
  -3   3   0 279.357 20.4335   6
  -3   3   0 280.560 19.2589  15
  -3   3   0 262.180 18.6960  18
  -3   3   0 278.616 20.2652  17
  -3   3   0 288.950 18.0840   7
  -3   3   0 271.723 17.4287  10
  -2   3   0 909.770 55.5438   7
  -2   3   0 912.498 61.9210   6
  -2   3   0 925.819 58.5208   3
  -2   3   0 892.214 60.0735   2
   1  -3   0 65.8504 6.46105   1
   1  -3   0 71.7502 6.82646   1
  -1   3   0 73.1103 5.52320   7
  -1   3   0 75.7772 5.56744   2
  -1   3   0 58.5939 4.28439   4
  -1   3   0 73.0497 5.91290   3
  -1   3   0 69.6616 6.47192   1
  -1   3   0 69.9748 6.61755   1
   0  -3   0 0.82460 1.95726   3
   0  -3   0 -0.8561 1.99254   2
   0  -3   0 0.31371 2.77658   1
   0  -3   0 -1.4868 2.71609   1
   0   3   0 -0.8736 2.81558   2
   0   3   0 0.05077 2.20972   3
   0   3   0 -0.6682 2.37543   1
   0   3   0 -3.0504 3.72684   1
  -1  -3   0 1.52759 2.72846   1
  -1  -3   0 6.39279 2.96197   1
  -1  -3   0 0.54777 1.98024   3
  -1  -3   0 1.51373 1.61878   5
  -1  -3   0 0.42091 1.84723   2
   1   3   0 1.98910 2.56718   1
   1   3   0 1.15080 1.79277   2
   1   3   0 0.96901 2.90040   1
   1   3   0 1.70313 2.18084   3
  -2  -3   0 1783.78 102.113   5
  -2  -3   0 1716.97 121.705   1
  -2  -3   0 1810.32 113.704   3
  -2  -3   0 1773.20 116.702   2
  -3  -3   0 965.855 63.7293   2
  -3  -3   0 976.043 56.1517   5
  -3  -3   0 949.742 62.1217   3
  -4  -3   0 8.86188 2.54335  14
  -4  -3   0 8.97506 1.25475  10
  -4  -3   0 15.9443 3.30219  11
  -4  -3   0 12.2712 2.50568  12
  -4  -3   0 6.99485 2.19395  13
  -4  -3   0 9.30249 2.92752   5
  -5  -3   0 77.4901 6.70376  13
  -5  -3   0 86.7973 7.50363  12
  -5  -3   0 81.1543 7.76842  14
  -6  -3   0 3.95465 2.86236  14
  -6  -3   0 12.0207 2.56776  13
  -5   4   0 1.49083 2.63834  15
  -5   4   0 1.11650 2.35531  16
  -5   4   0 0.88306 2.35951  17
  -4   4   0 32.5591 4.87142  17
  -4   4   0 36.1097 5.00686  15
  -4   4   0 31.9394 3.87399  16
  -3   4   0 169.064 12.3095  15
  -3   4   0 165.524 12.8071  17
  -3   4   0 169.992 11.7556  16
  -3   4   0 163.097 11.7049  18
  -3   4   0 170.001 10.7510  10
  -3   4   0 168.497 12.0298   7
  -2   4   0 19.5709 2.68281   3
  -2   4   0 17.5588 3.25228   7
  -2   4   0 18.8024 2.74930   2
  -2   4   0 21.8318 1.89843   9
  -2   4   0 24.6897 2.46238  10
  -1   4   0 54.9660 5.26207   2
  -1   4   0 57.1568 5.36085   7
   0  -4   0 95.4575 9.34410   1
   0   4   0 97.2841 9.24601   1
   0   4   0 119.444 8.46799   3
   0   4   0 112.163 8.35517   2
   0   4   0 106.205 7.48055   7
   0   4   0 87.6685 9.19627   1
  -1  -4   0 1100.87 82.8064   1
  -1  -4   0 1270.15 77.0281   3
  -1  -4   0 1054.92 82.6127   1
  -1  -4   0 1229.27 68.9583   5
  -1  -4   0 1196.40 79.0250   2
   1   4   0 1223.49 79.0531   2
   1   4   0 1119.86 82.9479   1
   1   4   0 1330.07 77.2669   3
  -2  -4   0 44.5759 4.61321   5
  -2  -4   0 44.7726 5.04340   3
  -2  -4   0 46.9412 4.95418   2
  -3  -4   0 125.326 7.33170   8
  -3  -4   0 139.590 9.70813   2
  -3  -4   0 130.649 9.61158  13
  -3  -4   0 128.654 7.80260   9
  -3  -4   0 139.812 9.66552   3
  -3  -4   0 124.757 10.2339  12
  -3  -4   0 117.911 8.41499  10
  -3  -4   0 127.657 9.04586   5
  -4  -4   0 8.43118 2.36840  13
  -4  -4   0 7.21356 0.91338   9
  -4  -4   0 7.89752 2.25926   3
  -4  -4   0 6.83321 2.85298  14
  -4  -4   0 7.82812 2.18928  12
  -4  -4   0 8.44168 1.97275   2
  -4  -4   0 7.29263 1.42888  10
  -4  -4   0 4.28101 2.91349   5
  -5  -4   0 -1.7433 2.74050  14
  -5  -4   0 0.45732 2.42770  12
  -5  -4   0 -0.6435 2.06426  13
  -5  -4   0 -0.0262 1.19087  10
  -6  -4   0 29.6003 3.42296  13
  -6  -4   0 23.4801 3.25612  14
  -5   5   0 -4.3314 2.34878  17
  -5   5   0 1.49181 1.96586  16
  -4   5   0 1.40408 2.49183  16
  -4   5   0 1.07198 2.57947  17
  -4   5   0 0.13197 3.18999  15
  -3   5   0 14.9015 4.22071   7
  -2   5   0 28.2379 4.34386  17
  -2   5   0 31.3558 2.45342   9
  -2   5   0 27.7462 4.26648   7
  -2   5   0 36.2894 3.61705  15
  -2   5   0 31.9512 4.19778   2
  -2   5   0 29.5660 4.06265  18
  -2   5   0 27.3712 3.01980  10
  -2   5   0 27.9007 3.45560   3
  -2   5   0 27.6536 3.88907  16
  -1   5   0 3.24296 2.67598   7
  -1   5   0 2.51852 0.95042   8
  -1   5   0 0.23178 2.37713   2
  -1   5   0 2.18914 1.10947   9
   0   5   0 115.360 9.74552   3
   0   5   0 128.140 9.72390   2
   0   5   0 116.132 8.70816   7
  -1  -5   0 473.449 31.3810   3
  -1  -5   0 466.293 27.8844   5
  -2  -5   0 0.02436 2.34758   3
  -2  -5   0 -1.4922 2.36218   5
  -3  -5   0 -0.1111 2.23460   2
  -3  -5   0 2.18311 0.99966   9
  -3  -5   0 0.72585 0.83774   8
  -3  -5   0 -0.4388 2.60086   5
  -3  -5   0 1.67054 2.07841  13
  -3  -5   0 1.39279 1.54011  10
  -3  -5   0 1.61096 2.66255   3
  -4  -5   0 59.4677 6.81842  14
  -4  -5   0 60.5518 3.89761   9
  -4  -5   0 54.2350 6.18649   5
  -4  -5   0 61.4870 5.78941  12
  -4  -5   0 60.0697 5.77004  13
  -4  -5   0 60.8643 4.60015  10
  -5  -5   0 4.84724 2.33564  13
  -5  -5   0 2.25078 2.73768  14
  -5  -5   0 4.97139 1.34988  10
  -5  -5   0 5.87552 2.54417  12
  -6  -5   0 6.97574 2.08791  13
  -6  -5   0 7.79886 2.40734  14
  -4   6   0 31.2721 3.71283  16
  -4   6   0 29.0119 4.40216  17
  -3   6   0 44.5984 5.30264  17
  -3   6   0 44.3162 3.70500  10
  -3   6   0 37.3453 4.28109  16
  -2   6   0 122.175 10.9947   2
  -2   6   0 142.112 11.1112   7
  -2   6   0 149.842 9.65843  10
  -2   6   0 153.247 10.7205  18
  -2   6   0 153.993 8.88730   9
  -1   6   0 5.58732 3.53808   7
  -1   6   0 2.06838 2.71631   2
  -1   6   0 1.93885 1.09465   8
  -1   6   0 2.72171 1.26181   9
  -1   6   0 2.12529 1.58074  10
  -1   6   0 1.60715 2.33555  17
   0   6   0 1108.90 61.1364   8
   0   6   0 1083.19 66.6882   7
   0   6   0 1079.00 72.8618   2
  -1  -6   0 12.5758 3.02828   5
   1   6   0 14.8274 3.15295   7
  -2  -6   0 4.16389 3.04026   5
  -2  -6   0 7.17112 1.42029   9
  -2  -6   0 4.27108 3.06330   3
  -2  -6   0 4.64518 1.15976   8
  -2  -6   0 6.33244 3.14998   2
  -3  -6   0 18.4677 3.93883   2
  -3  -6   0 28.8414 3.94934  13
  -3  -6   0 11.7443 3.81612   3
  -3  -6   0 16.2894 2.35909  10
  -3  -6   0 13.0994 3.95355   5
  -3  -6   0 26.5304 2.38819   9
  -3  -6   0 21.7404 2.06100   8
  -4  -6   0 11.0789 1.24690   9
  -4  -6   0 11.5234 2.61648  13
  -4  -6   0 9.44621 1.78655  10
  -4  -6   0 6.12014 3.03691  14
  -5  -6   0 416.643 30.6105  13
  -5  -6   0 418.341 27.4333  10
  -5  -6   0 477.071 33.8962  14
  -4   7   0 11.3293 2.24300  17
  -4   7   0 7.35503 2.22453  16
  -3   7   0 11.9548 2.57956  17
  -2   7   0 6.31154 2.56747  18
  -2   7   0 7.84115 2.78985  17
  -2   7   0 6.49925 1.23911   9
  -1   7   0 206.077 15.7111  17
  -1   7   0 208.365 12.0418   8
  -1   7   0 219.924 12.7481   9
  -1   7   0 210.138 14.6559   7
  -1   7   0 205.482 13.6554  10
   0   7   0 27.4566 2.91052   9
   0   7   0 18.8721 4.32420   7
   0   7   0 21.2414 2.37058   8
  -2  -7   0 4.16993 1.32816   8
  -3  -7   0 27.8129 3.45044  10
  -3  -7   0 27.3724 2.43689   8
  -3  -7   0 33.0279 2.79785   9
  -4  -7   0 128.513 8.42090  10
  -4  -7   0 129.219 10.7529  14
  -4  -7   0 122.987 7.63827   9
  -4  -7   0 120.200 9.40666  13
  -5  -7   0 135.714 11.0826  14
  -3   8   0 7.89787 2.08845  17
  -2   8   0 245.612 18.8895  17
  -2   8   0 268.825 15.3394   9
  -1   8   0 178.054 13.5593  17
  -1   8   0 182.209 10.9761   9
   0   8   0 27.3637 2.76020   8
   0   8   0 36.0278 2.97206   9
  -1  -8   0 24.6215 2.39612   8
   1   8   0 25.0487 2.69071   8
  -2  -8   0 12.3231 1.66200   8
  -3  -8   0 126.768 7.77474   9
  -3  -8   0 121.006 7.24481   8
  -4  -8   0 18.6748 1.83778   9
  -4  -8   0 14.1370 2.13899  10
  -4  -8   0 29.6194 4.21429  14
  -2   9   0 21.5126 2.83109  17
  -1   9   0 2.33762 1.84222  18
  -1   9   0 4.08249 1.10719   9
   0   9   0 73.9768 4.48412   8
   0   9   0 68.1667 4.79403   9
   1   9   0 50.1071 3.58560   8
  -2  -9   0 9.96301 1.45017   8
  -3  -9   0 118.657 7.16564   9
  -3  -9   0 110.401 9.70326  14
  -4  -9   0 15.4993 2.58753  14
   0  10   0 4.56069 1.60732  18
   0  10   0 7.18359 1.05827   9
  -1 -10   0 -1.0421 0.96557   8
   1  10   0 -0.0620 0.93023   8
  -2 -10   0 110.563 6.19628   8
   2  10   0 101.644 6.23464   8
   2  10  -1 61.1869 3.60557   8
  -2 -10   1 51.8408 3.51250   8
   1  10  -1 0.77922 0.91081   8
  -1 -10   1 0.58733 0.97904   8
   0  10  -1 38.0730 3.75749  18
   0  10  -1 48.8831 3.06520   9
  -3  -9   1 39.7019 3.07861   9
  -3  -9   1 47.1297 4.81507  14
   2   9  -1 2.30947 1.33911   8
  -2  -9   1 1.30497 1.13866   8
   1   9  -1 707.239 41.6661   8
  -1  -9   1 776.387 41.7879   8
   0   9  -1 22.9328 2.26127   8
   0   9  -1 28.2990 2.65614   9
  -1   9  -1 13.2098 2.42675  18
  -1   9  -1 14.5826 1.83049   9
  -2   9  -1 4.36267 1.45326  18
  -4  -8   1 9.63115 1.70508  10
  -4  -8   1 9.32631 2.34215  14
  -4  -8   1 9.57183 1.08692   9
  -3  -8   1 39.5767 3.37122   9
  -3  -8   1 45.0506 3.00962   8
  -2  -8   1 150.548 8.93229   8
   1   8  -1 13.3305 1.69914   8
  -1  -8   1 11.6835 1.84130   8
   0   8  -1 155.865 9.05065   8
   0   8  -1 151.778 9.70228   9
  -1   8  -1 20.9572 1.85710   8
  -1   8  -1 14.9701 3.09211  17
  -1   8  -1 21.2624 2.41615   9
  -2   8  -1 218.414 11.8952   9
  -2   8  -1 180.686 13.7008  18
  -2   8  -1 203.612 14.7338  17
  -2   8  -1 188.097 12.8855  10
  -3   8  -1 129.410 9.75233  17
  -5  -7   1 22.7150 3.73205  14
  -4  -7   1 79.5991 5.59539  10
  -4  -7   1 72.8917 4.84028   9
  -4  -7   1 76.2838 7.26502  14
  -3  -7   1 117.390 8.21919  10
  -3  -7   1 119.322 7.08880   8
  -3  -7   1 122.918 7.56735   9
  -2  -7   1 35.0138 2.96802   8
   0   7  -1 30.6050 4.68132   7
   0   7  -1 30.4819 2.71226   8
  -1   7  -1 126.742 7.27046   8
  -1   7  -1 105.976 8.49690  10
  -1   7  -1 118.145 9.74488   7
  -1   7  -1 138.605 9.84330  17
  -2   7  -1 36.5365 2.83090   9
  -2   7  -1 40.2912 4.25109  18
  -2   7  -1 34.0428 3.70942  10
  -2   7  -1 31.1241 4.66314  17
  -3   7  -1 9.72670 2.69020  17
  -3   7  -1 10.1772 2.42228  18
  -4   7  -1 40.7101 4.19644  17
  -5  -6   1 3.86900 2.29472  13
  -5  -6   1 4.32411 2.62160  14
  -4  -6   1 131.232 7.85400   9
  -4  -6   1 123.858 8.60880  10
  -4  -6   1 125.808 9.72233  13
  -4  -6   1 133.632 11.1494  14
  -3  -6   1 5.08957 2.88801   2
  -3  -6   1 12.3988 3.55443   5
  -3  -6   1 9.54517 1.27773   8
  -3  -6   1 9.37139 1.37017   9
  -3  -6   1 7.15092 1.82840  10
  -2  -6   1 18.5459 3.77387   2
  -2  -6   1 18.3886 3.39462   3
  -2  -6   1 27.1274 2.32855   8
  -2  -6   1 21.7190 2.54907   9
  -2  -6   1 26.2810 3.75295   5
   0   6  -1 3.30958 3.57061   3
  -1   6  -1 83.7675 7.24762  17
  -1   6  -1 90.6040 7.82638   7
  -1   6  -1 94.5365 5.30346   8
  -1   6  -1 86.0073 7.85791   2
  -1   6  -1 87.4073 5.64748   9
  -1   6  -1 78.5832 6.13894  10
  -2   6  -1 164.659 12.2072   7
  -2   6  -1 172.065 11.0344  10
  -2   6  -1 157.521 12.4208   2
  -2   6  -1 172.944 12.9810  17
  -2   6  -1 162.439 12.3137  18
  -2   6  -1 176.246 10.2354   9
  -3   6  -1 56.1944 5.64894  17
  -3   6  -1 58.4625 5.36606  18
  -3   6  -1 50.2722 5.21769  16
  -4   6  -1 18.9204 3.09557  17
  -4   6  -1 14.2510 2.69087  16
  -6  -5   1 114.719 9.00603  14
  -6  -5   1 104.533 8.14262  13
  -5  -5   1 24.2282 2.72968  10
  -5  -5   1 23.9369 4.00859  14
  -5  -5   1 26.9147 3.24801  13
  -4  -5   1 210.605 14.9644  13
  -4  -5   1 207.757 12.2953   9
  -4  -5   1 225.351 16.6754  14
  -4  -5   1 205.817 13.2518  10
  -4  -5   1 182.897 13.6603   5
  -4  -5   1 194.964 16.1008  12
  -3  -5   1 33.2437 4.04526  13
  -3  -5   1 37.6420 2.80750   9
  -3  -5   1 25.8281 3.98680   3
  -3  -5   1 36.5715 3.47495  10
  -3  -5   1 33.1195 4.15925   5
  -3  -5   1 39.5452 4.93969   2
  -3  -5   1 36.8019 2.55546   8
  -2  -5   1 6.84047 1.11305   8
  -2  -5   1 10.1521 2.98090   2
  -2  -5   1 9.28174 2.75793   5
  -2  -5   1 7.94692 1.31423   9
  -2  -5   1 8.09500 3.04922   3
   1   5  -1 76.0404 5.98647   7
  -1  -5   1 68.8723 7.43543   3
  -1  -5   1 72.5391 5.88826   5
  -1  -5   1 88.2177 8.23806   2
   0   5  -1 916.797 59.7565   3
   0   5  -1 922.750 61.1790   2
   0   5  -1 911.581 55.9955   7
  -1   5  -1 10.7615 3.34612   3
  -1   5  -1 9.91597 2.91487   7
  -1   5  -1 11.7491 1.22871   8
  -1   5  -1 9.76476 1.36450   9
  -1   5  -1 10.0028 2.68397   2
  -2   5  -1 65.3460 6.47958   7
  -2   5  -1 60.9284 5.83274  17
  -2   5  -1 54.0376 5.94823  18
  -2   5  -1 63.3439 4.06071   9
  -2   5  -1 61.1357 4.62247  10
  -2   5  -1 64.4669 5.20918  16
  -2   5  -1 63.4892 5.67717   3
  -2   5  -1 64.6998 5.75507   2
  -3   5  -1 109.035 8.07660  16
  -3   5  -1 108.393 8.57575  15
  -3   5  -1 108.335 8.27426  18
  -3   5  -1 105.062 7.16710  10
  -3   5  -1 103.810 8.94604  17
  -3   5  -1 101.669 9.02864   7
  -4   5  -1 37.3350 4.89639  17
  -4   5  -1 39.6763 4.35717  16
  -5   5  -1 145.818 11.0170  17
  -5   5  -1 141.204 10.1479  16
  -6  -4   1 25.2286 3.57036  14
  -6  -4   1 32.6396 3.35262  13
  -5  -4   1 75.3747 6.97676  14
  -5  -4   1 61.7537 4.84131  10
  -5  -4   1 74.1440 6.12029  13
  -5  -4   1 71.1207 6.62239  12
  -4  -4   1 264.199 20.1302  12
  -4  -4   1 259.140 17.4518   3
  -4  -4   1 279.885 18.5999  13
  -4  -4   1 221.655 15.3657   9
  -4  -4   1 290.146 20.6183  14
  -4  -4   1 256.593 16.4763  10
  -4  -4   1 249.183 16.5848   5
  -3  -4   1 55.3570 5.60851   3
  -3  -4   1 55.5055 5.21851   2
  -3  -4   1 53.2292 4.05349  10
  -3  -4   1 52.4040 4.96467  12
  -3  -4   1 55.6657 5.37716   5
  -3  -4   1 49.8309 3.51841   9
  -3  -4   1 55.3016 4.89000  13
  -2  -4   1 21.1543 3.56643   3
  -2  -4   1 19.9230 3.03246   2
  -2  -4   1 20.3338 2.86801   5
   1   4  -1 662.079 39.7421   7
   1   4  -1 594.831 46.3741   1
  -1  -4   1 732.441 42.7388   3
  -1  -4   1 618.859 46.1841   1
  -1  -4   1 664.098 43.6594   2
  -1  -4   1 691.091 38.0489   5
  -1  -4   1 586.338 46.2481   1
   0   4  -1 187.792 11.7844   7
   0   4  -1 189.551 12.9724   2
   0   4  -1 188.465 12.8585   3
   0   4  -1 169.697 14.8294   1
   0  -4   1 153.069 14.3540   1
  -1   4  -1 403.552 26.1597   3
  -1   4  -1 388.319 24.6039   7
  -1   4  -1 391.355 26.6789   2
  -2   4  -1 20.8741 2.40513  10
  -2   4  -1 22.5029 1.88918   9
  -2   4  -1 22.8686 3.50733   7
  -2   4  -1 24.4435 3.43101  17
  -2   4  -1 23.9491 3.36840   2
  -3   4  -1 5.96605 2.41273  15
  -3   4  -1 6.11604 1.26444  10
  -3   4  -1 1.73356 3.19768   7
  -3   4  -1 6.02306 2.16905  16
  -3   4  -1 3.61755 2.25276  18
  -3   4  -1 6.88014 2.35101  17
  -4   4  -1 153.543 12.0459  15
  -4   4  -1 157.250 11.4784  18
  -4   4  -1 165.970 11.6389  16
  -4   4  -1 176.202 12.6524  17
  -5   4  -1 57.5559 5.88258  17
  -5   4  -1 56.1973 5.15599  16
  -5   4  -1 56.3203 5.56132  15
  -6  -3   1 0.25845 2.73003  14
  -6  -3   1 2.55004 2.30176  13
  -5  -3   1 26.5593 3.12312  13
  -5  -3   1 30.2774 3.82053  12
  -5  -3   1 21.1913 3.34906  14
  -4  -3   1 65.1738 4.63348  10
  -4  -3   1 65.2344 6.19020   5
  -4  -3   1 68.8610 6.63282  14
  -4  -3   1 66.5249 6.20103  12
  -4  -3   1 66.6173 5.66457  13
  -3  -3   1 64.2953 5.45299   5
  -3  -3   1 67.5837 5.63343   3
  -3  -3   1 66.2747 5.90845   6
  -3  -3   1 59.3627 3.99328   9
  -3  -3   1 70.2536 5.34362   2
  -3  -3   1 62.7127 6.27482  14
  -2  -3   1 255.769 16.9658   2
  -2  -3   1 238.273 14.9487   5
  -2  -3   1 244.071 16.6260   3
   1   3  -1 35.1673 4.25180   3
   1   3  -1 33.2322 4.73847   1
   1   3  -1 34.1319 4.95075   1
  -1  -3   1 33.6159 3.45259   5
  -1  -3   1 40.0245 4.62776   3
  -1  -3   1 37.8428 4.83245   1
  -1  -3   1 33.7151 5.00879   1
   0   3  -1 49.4169 4.82189   3
   0   3  -1 52.3937 6.28716   1
   0   3  -1 41.3672 5.63092   1
   0   3  -1 47.7870 4.04910   7
   0  -3   1 44.7463 5.74428   1
   0  -3   1 45.8045 4.83277   3
   0  -3   1 41.6132 5.58229   1
   0  -3   1 39.9085 4.39780   2
  -1   3  -1 -0.4229 1.78766   7
  -1   3  -1 -1.4609 1.94610   1
  -1   3  -1 -1.0953 1.67709   2
  -1   3  -1 -0.9496 2.26618   1
  -1   3  -1 -1.8023 1.84718   3
   1  -3   1 -0.7320 2.53613   1
   1  -3   1 -2.4574 2.26350   1
  -2   3  -1 75.8836 5.47140   2
  -2   3  -1 63.3625 5.91515   7
  -3   3  -1 17.3291 2.48092  15
  -3   3  -1 15.9900 1.81066  10
  -3   3  -1 14.3111 2.28802  16
  -3   3  -1 17.1718 2.97659  14
  -3   3  -1 14.0892 2.37809  18
  -3   3  -1 12.9948 3.14745   7
  -3   3  -1 17.2712 2.51081  17
  -4   3  -1 113.770 9.83909  14
  -4   3  -1 100.502 8.99893   7
  -4   3  -1 113.585 8.28615  18
  -4   3  -1 115.399 9.04064  17
  -4   3  -1 109.851 8.39243  16
  -4   3  -1 116.226 8.74669  15
  -5   3  -1 5.60114 2.49179  16
  -5   3  -1 1.25694 2.51763  15
  -5   3  -1 4.10165 2.87677  17
  -6   3  -1 10.8050 2.42837  16
  -6  -2   1 14.7466 2.83535  13
  -6  -2   1 12.0617 3.00655  14
  -5  -2   1 44.7103 5.24252  14
  -5  -2   1 33.5132 4.08461  15
  -5  -2   1 35.9067 4.55613  13
  -5  -2   1 42.9770 4.98387  12
  -4  -2   1 175.401 11.8147   5
  -4  -2   1 164.333 12.6676  15
  -4  -2   1 194.454 14.3909  14
  -4  -2   1 172.492 11.3325  10
  -4  -2   1 180.771 13.0024  13
  -4  -2   1 187.807 14.1688  12
  -3  -2   1 144.204 10.1303   3
  -3  -2   1 150.256 9.70275   5
  -3  -2   1 143.386 11.0214   6
  -3  -2   1 154.802 10.2613   2
   2   2  -1 2479.38 173.223   1
   2   2  -1 2693.93 173.065   1
  -2  -2   1 2665.57 162.357   3
  -2  -2   1 2151.95 166.398   2
  -2  -2   1 2698.19 166.426   2
  -2  -2   1 2776.00 170.014   6
  -2  -2   1 2612.53 173.060   1
  -2  -2   1 2643.16 145.603   5
  -2  -2   1 2271.01 162.033   3
  -2  -2   1 2332.13 173.016   1
   1   2  -1 6.13858 1.55714   2
   1   2  -1 6.41230 1.88721   3
   1   2  -1 12.8746 3.19270   1
   1   2  -1 9.76159 2.60107   1
  -1  -2   1 11.4658 2.68824   1
  -1  -2   1 7.75696 1.72453   2
  -1  -2   1 11.4967 2.05195   3
  -1  -2   1 9.82280 1.73295   5
  -1  -2   1 12.7338 2.98722   1
   0   2  -1 684.311 46.0143   1
   0   2  -1 680.509 46.1560   1
   0   2  -1 651.144 43.9705   2
   0   2  -1 683.704 42.8993   3
   0   2  -1 628.215 40.3002   7
   0  -2   1 607.884 43.9935   2
   0  -2   1 688.665 46.1214   1
   0  -2   1 704.127 46.1400   1
   0  -2   1 664.389 42.9223   3
  -1   2  -1 324.940 23.0334   1
  -1   2  -1 325.380 21.2961   3
  -1   2  -1 303.678 21.2015   3
  -1   2  -1 332.589 22.9751   1
  -1   2  -1 348.109 21.7942   2
  -1   2  -1 287.105 21.7742   2
  -1   2  -1 338.176 20.1642   7
   1  -2   1 342.800 23.1327   1
   1  -2   1 338.226 23.0578   1
  -2   2  -1 29.5806 3.37631   7
  -2   2  -1 21.8252 2.16267   3
  -2   2  -1 22.2919 2.64475   1
  -2   2  -1 25.8485 2.49158   4
  -2   2  -1 24.1425 2.24595   2
  -2   2  -1 30.6012 3.64216   6
   2  -2   1 23.3435 2.64954   1
   2  -2   1 21.7072 2.66032   1
  -3   2  -1 633.509 38.2473   7
  -3   2  -1 607.872 42.6682   6
  -4   2  -1 14.0737 2.33524  16
  -4   2  -1 12.4391 2.46918  15
  -4   2  -1 13.7962 2.28214  18
  -4   2  -1 19.8756 3.07110  14
  -4   2  -1 12.4576 2.36838  17
  -4   2  -1 14.9286 3.58792   7
  -4   2  -1 16.1869 2.71262  13
  -5   2  -1 29.2725 4.60245  14
  -5   2  -1 22.4074 3.03330  16
  -5   2  -1 23.7719 3.61827  17
  -5   2  -1 24.2568 3.11197  15
  -6   2  -1 187.013 12.9210  15
  -6   2  -1 173.909 12.5227  16
  -6  -1   1 1.83804 1.97714  15
  -6  -1   1 4.20078 2.72357  14
  -6  -1   1 1.70329 2.52431  13
  -5  -1   1 25.6473 3.81238  15
  -5  -1   1 28.8672 3.52830  13
  -5  -1   1 30.8396 4.43529  12
  -5  -1   1 36.7134 4.07256  14
  -4  -1   1 88.5923 7.04626   5
  -4  -1   1 92.7150 7.84993  11
  -4  -1   1 89.9198 7.22501  13
  -4  -1   1 96.2716 7.83009  12
  -4  -1   1 87.1086 6.99094  15
  -4  -1   1 86.9761 8.15090   6
  -4  -1   1 93.4140 7.92177  14
  -3  -1   1 3223.02 218.214   6
  -3  -1   1 3277.29 186.839   5
   2   1  -1 157.188 11.9261   1
   2   1  -1 175.358 11.7299   1
  -2  -1   1 169.999 10.0449   5
  -2  -1   1 155.074 11.7762   1
  -2  -1   1 162.435 11.5735   6
  -2  -1   1 158.319 10.7843   3
  -2  -1   1 154.019 10.6580   3
  -2  -1   1 169.853 11.7347   1
  -2  -1   1 174.856 11.0018   2
  -2  -1   1 146.690 10.9795   2
   1   1  -1 611.870 41.4596   1
   1   1  -1 676.496 41.3889   1
  -1  -1   1 620.447 41.3655   1
  -1  -1   1 548.058 39.6021   2
  -1  -1   1 600.566 39.6066   2
  -1  -1   1 550.626 38.5549   3
  -1  -1   1 603.023 34.6976   5
  -1  -1   1 604.342 41.3742   1
  -1  -1   1 590.771 38.6115   3
   0   1  -1 10.4799 1.37371   7
   0   1  -1 12.0567 1.65084   2
   0   1  -1 13.5392 1.79058   1
   0   1  -1 19.3913 2.64266   1
   0   1  -1 13.9329 1.54646   3
   0  -1   1 11.9941 1.70716   2
   0  -1   1 14.6126 2.10176   1
   0  -1   1 9.76127 1.10135   5
   0  -1   1 12.7565 1.88224   1
   0  -1   1 12.4077 1.45650   3
  -1   1  -1 498.569 33.6704   3
  -1   1  -1 526.974 33.6998   3
  -1   1  -1 524.013 31.8905   7
  -1   1  -1 550.945 34.5719   2
  -1   1  -1 507.365 31.0284   4
  -1   1  -1 553.859 36.0158   1
  -1   1  -1 503.151 36.0464   1
  -1   1  -1 529.311 35.5036   6
  -1   1  -1 469.340 34.5815   2
   1  -1   1 574.728 36.0817   1
   1  -1   1 539.081 36.0547   1
  -2   1  -1 1128.94 62.4022   5
  -2   1  -1 1100.58 65.6057   7
  -2   1  -1 1052.21 72.9731   6
  -2   1  -1 1048.28 63.9305   4
  -3   1  -1 135.939 9.46064   4
  -3   1  -1 150.670 9.71297   7
  -3   1  -1 135.904 10.9306   6
  -3   1  -1 154.736 9.26852   5
  -4   1  -1 103.976 7.71457  13
  -4   1  -1 94.4128 8.74413   6
  -4   1  -1 96.7899 7.52389  15
  -4   1  -1 102.304 7.29117  16
  -4   1  -1 96.4710 7.27683  18
  -4   1  -1 91.0447 7.82556  11
  -4   1  -1 106.043 8.50442  14
  -4   1  -1 101.979 8.23505  12
  -4   1  -1 97.5448 7.79775  17
  -5   1  -1 20.2835 2.77961  15
  -5   1  -1 19.3277 2.66482  16
  -5   1  -1 25.6840 3.35863  12
  -5   1  -1 26.2859 4.24234  14
  -5   1  -1 23.2093 3.21786  13
  -5   1  -1 22.6148 3.28779  17
  -5   1  -1 23.4324 3.22078  11
  -6   1  -1 468.245 31.0898  15
  -6   1  -1 439.625 34.9705  14
  -6   0   1 24.8035 3.40953  14
  -6   0   1 24.2644 2.90547  15
  -6   0   1 17.9600 3.05710  13
  -5   0   1 33.0226 3.56419  13
  -5   0   1 21.7056 3.03163  15
  -5   0   1 24.9347 3.64563  12
  -5   0   1 28.1656 3.68653  14
  -4   0   1 40.6651 4.19204  15
  -4   0   1 34.9475 4.79122  14
  -4   0   1 37.7475 3.79238  16
  -4   0   1 39.3394 4.78733   5
  -4   0   1 45.3946 4.53020  12
  -4   0   1 42.8733 4.19251  13
  -4   0   1 40.2069 4.74314  11
  -4   0   1 41.6748 5.89452   6
  -3   0   1 311.545 22.1851   6
  -3   0   1 321.187 19.0023   5
   2   0  -1 531.392 39.0898   1
  -2   0   1 544.686 37.4900   2
  -2   0   1 572.697 39.0315   1
  -2   0   1 621.338 37.5027   2
  -2   0   1 559.320 34.5681   7
  -2   0   1 632.169 33.1789   5
  -2   0   1 570.516 38.6918   6
  -2   0   1 524.872 39.0292   1
   1   0  -1 54.4938 4.72707   1
  -1   0   1 53.3441 3.78306   7
  -1   0   1 64.2032 4.19833   3
  -1   0   1 66.8473 4.67311   1
  -1   0   1 54.5538 4.53412   6
  -1   0   1 53.1723 4.22912   2
  -1   0   1 62.6297 4.15660   2
  -1   0   1 64.8870 3.99933   5
  -1   0   1 51.2269 4.67070   1
   0   0  -1 798.900 55.1410   3
   0   0  -1 911.458 58.8246   1
   0   0  -1 847.461 58.8155   1
   0   0   1 906.569 58.8192   1
   0   0   1 903.750 58.8240   1
   0   0   1 803.183 55.1341   3
  -1   0  -1 1.22198 1.11991   4
  -1   0  -1 3.69389 0.98677   1
  -1   0  -1 3.29069 0.71563   2
  -1   0  -1 1.67121 1.14771   6
  -1   0  -1 1.89414 1.07437   7
  -1   0  -1 1.10948 0.96896   5
   1   0   1 5.73483 1.14729   1
   1   0   1 4.05332 0.92002   1
  -2   0  -1 115.794 8.65332   6
  -2   0  -1 121.605 7.78559   7
  -2   0  -1 120.163 7.42761   5
  -2   0  -1 120.037 7.85241   4
  -3   0  -1 6.31651 2.10426   4
  -3   0  -1 6.63129 1.88346   5
  -3   0  -1 7.82765 2.24887   7
  -3   0  -1 6.96570 2.26525   6
  -4   0  -1 82.4897 6.44034  16
  -4   0  -1 97.4589 7.52552  12
  -4   0  -1 89.4498 7.55821  14
  -4   0  -1 83.6338 7.00858  17
  -4   0  -1 86.7029 7.19382  11
  -4   0  -1 97.2327 6.73226   5
  -4   0  -1 84.0223 6.55715  18
  -4   0  -1 83.5108 6.69772  15
  -4   0  -1 90.5873 6.90426  13
  -4   0  -1 87.3943 8.10788   6
  -5   0  -1 279.023 21.2826  11
  -5   0  -1 278.058 19.4895  16
  -5   0  -1 304.531 20.5585  13
  -5   0  -1 313.186 22.2787  12
  -5   0  -1 289.604 20.0184  15
  -5   0  -1 257.779 19.5363  18
  -5   0  -1 296.049 22.5905  14
  -6   0  -1 4.93434 2.59172  13
  -6   0  -1 0.72452 1.85053  15
  -6   0  -1 1.87743 2.23617  14
  -6   1   1 38.7082 4.84123  14
  -6   1   1 44.2220 4.43607  15
  -5   1   1 -0.1142 2.80534  14
  -5   1   1 -0.0373 2.00863  16
  -5   1   1 1.02711 2.57987  13
  -5   1   1 0.87184 2.23070  15
  -4   1   1 586.875 39.1070  15
  -4   1   1 559.738 38.2089  16
  -4   1   1 565.110 39.9022   6
  -4   1   1 586.248 40.0532  13
  -4   1   1 565.414 43.3287  12
  -3   1   1 244.955 15.8088   7
  -3   1   1 255.097 17.9689   6
   2  -1  -1 4.10382 1.44202   1
   2  -1  -1 3.99862 1.41735   1
  -2   1   1 5.38602 1.37610   1
  -2   1   1 4.06846 1.43428   1
  -2   1   1 3.85372 1.52653   7
  -2   1   1 4.76662 1.84509   5
  -2   1   1 3.92098 0.90116   2
  -2   1   1 4.61014 1.14152   2
  -2   1   1 4.39717 2.03387   6
   1  -1  -1 158.063 10.2157   1
  -1   1   1 140.484 10.0199   6
  -1   1   1 147.145 9.38788   3
  -1   1   1 128.097 9.50582   2
  -1   1   1 131.960 9.32903   3
  -1   1   1 133.864 8.87249   7
  -1   1   1 139.512 9.57737   2
  -1   1   1 148.789 10.2216   1
  -1   1   1 141.851 10.2460   1
   0  -1  -1 -1.0391 1.27120   3
   0  -1  -1 -0.1019 1.36552   2
   0  -1  -1 -0.4501 1.76550   1
   0  -1  -1 6.30124 2.40145   1
   0   1   1 -2.3468 1.20654   2
   0   1   1 -2.5561 1.14059   6
   0   1   1 -1.2383 1.58722   1
  -1  -1  -1 662.299 44.2550   1
  -1  -1  -1 591.961 37.1276   5
  -1  -1  -1 693.659 44.2132   1
  -1  -1  -1 658.892 38.1086   4
  -1  -1  -1 616.665 42.3982   2
  -1  -1  -1 605.144 41.3165   3
  -1  -1  -1 668.833 41.3207   3
  -1  -1  -1 631.855 42.4377   2
   1   1   1 668.161 44.2297   1
  -2  -1  -1 0.76554 1.27867   1
  -2  -1  -1 0.48579 0.83495   3
  -2  -1  -1 -0.7673 1.66431   4
  -2  -1  -1 0.26750 1.34428   5
  -2  -1  -1 -0.4604 0.90845   3
  -2  -1  -1 1.12568 1.33163   1
  -2  -1  -1 -0.2937 0.76991   2
  -2  -1  -1 0.50418 1.21404   6
  -2  -1  -1 0.06269 0.90651   2
   2   1   1 -0.0634 1.16407   1
  -3  -1  -1 724.912 51.4846   6
  -3  -1  -1 784.321 44.2799   5
  -3  -1  -1 775.427 45.5792   4
  -4  -1  -1 52.5625 4.90406  14
  -4  -1  -1 48.6378 4.42287  13
  -4  -1  -1 46.5004 4.74204   5
  -4  -1  -1 47.1659 4.41590  18
  -4  -1  -1 52.2911 4.88261  12
  -4  -1  -1 42.2610 4.16532  15
  -4  -1  -1 48.2617 4.87487  11
  -5  -1  -1 1052.20 78.2188  15
  -5  -1  -1 1042.13 67.3228   5
  -5  -1  -1 1186.22 88.2070  14
  -5  -1  -1 1215.96 80.2513  13
  -5  -1  -1 1272.40 86.9185  12
  -5  -1  -1 1153.33 82.9220  11
  -6  -1  -1 1.14447 2.43320  13
  -6  -1  -1 -3.2488 2.58737  14
  -6  -1  -1 1.36492 2.35945  12
  -6   2   1 66.9832 5.80267  15
  -6   2   1 64.4052 5.17209  16
  -5   2   1 22.2344 2.92427  16
  -5   2   1 10.8922 3.19169  14
  -5   2   1 17.4475 2.87897  15
  -4   2   1 5.78898 2.09144  16
  -4   2   1 9.89156 2.65358  13
  -4   2   1 8.30844 2.97129  14
  -4   2   1 5.23284 2.06736  17
  -4   2   1 9.04480 4.48413   6
  -4   2   1 4.73031 2.22583  15
  -3   2   1 11.1446 2.55431  14
  -3   2   1 20.9351 2.41714  16
  -3   2   1 13.6813 1.75220  10
  -3   2   1 18.9322 3.88694   6
  -3   2   1 15.5793 2.68729  13
  -3   2   1 11.3295 2.68312   7
  -3   2   1 17.0955 2.18064  15
   2  -2  -1 10.5764 2.24872   1
  -2   2   1 11.6418 2.10323   1
  -2   2   1 13.4233 2.85065   6
  -2   2   1 13.4472 2.40376   1
  -2   2   1 15.8974 2.36134   7
  -2   2   1 13.1584 1.71340   2
  -2   2   1 10.1255 1.46566   2
  -2   2   1 15.0119 1.84731   3
  -2   2   1 12.2808 1.55324   3
   1  -2  -1 7846.46 483.229   1
   1  -2  -1 7330.02 483.223   1
  -1   2   1 7030.08 483.210   1
  -1   2   1 6269.65 453.398   3
  -1   2   1 6095.71 465.695   2
  -1   2   1 7318.49 428.474   7
  -1   2   1 7113.63 453.966   3
  -1   2   1 6992.83 482.740   1
  -1   2   1 7646.71 476.292   6
  -1   2   1 7287.29 466.227   2
   0  -2  -1 4065.48 281.186   1
   0  -2  -1 4385.93 281.404   1
   0  -2  -1 3756.08 263.934   3
   0   2   1 4260.79 281.280   1
   0   2   1 4340.62 281.335   1
   0   2   1 4142.84 264.194   3
   0   2   1 4034.67 271.148   2
   0   2   1 4036.94 276.477   6
  -1  -2  -1 103.587 7.10208   4
  -1  -2  -1 106.724 8.65631   1
  -1  -2  -1 111.131 8.75237   1
  -1  -2  -1 104.027 7.80944   2
  -1  -2  -1 105.346 7.62754   3
   1   2   1 102.919 7.62552   3
   1   2   1 121.365 8.94101   1
   1   2   1 118.089 8.78956   1
   1   2   1 98.3063 7.71542   2
  -2  -2  -1 77.4483 5.63037   3
  -2  -2  -1 82.0458 5.50000   5
  -2  -2  -1 80.7444 6.45174   1
  -2  -2  -1 65.9900 5.43443   6
  -2  -2  -1 69.2132 5.51107   2
  -2  -2  -1 79.1556 5.77484   2
  -2  -2  -1 84.7114 6.10303   4
  -2  -2  -1 74.2823 6.55937   1
  -2  -2  -1 73.6688 5.42005   3
   2   2   1 80.2183 6.52450   1
  -3  -2  -1 23.3058 2.29651   2
  -3  -2  -1 27.0155 2.47381   2
  -3  -2  -1 25.2161 2.23433   3
  -3  -2  -1 31.0937 3.18720   5
  -3  -2  -1 25.7357 2.58165   3
  -4  -2  -1 50.6125 5.18278   5
  -4  -2  -1 57.8363 5.07303  18
  -4  -2  -1 55.5112 5.32830  11
  -4  -2  -1 54.1385 4.90442  13
  -4  -2  -1 59.8770 5.44754  12
  -4  -2  -1 53.3006 5.42231  14
  -4  -2  -1 52.9585 3.67289  10
  -5  -2  -1 279.225 20.7193  11
  -5  -2  -1 301.398 21.5336  12
  -5  -2  -1 241.030 17.3965   5
  -5  -2  -1 270.240 19.7352  13
  -5  -2  -1 286.045 21.7906  14
  -6  -2  -1 116.872 8.60474  13
  -6  -2  -1 104.884 9.17510  12
  -6  -2  -1 110.668 9.45932  14
  -5   3   1 16.1333 2.71071  15
  -5   3   1 11.1640 2.95132  17
  -5   3   1 15.3597 2.71110  16
  -4   3   1 8.28985 4.89239   6
  -4   3   1 12.1702 2.85132  17
  -4   3   1 11.8267 2.60690  16
  -4   3   1 22.2107 3.75498  14
  -4   3   1 13.0100 2.69874  15
  -3   3   1 36.3227 4.99255  14
  -3   3   1 35.4824 3.65692  16
  -3   3   1 25.9037 3.77540   7
  -3   3   1 35.7810 5.33980   6
  -3   3   1 31.0217 3.93622  17
  -3   3   1 31.2256 2.71664  10
  -3   3   1 31.2387 3.97519  15
  -2   3   1 572.431 41.5928   2
  -2   3   1 655.661 40.5738   3
  -2   3   1 632.651 38.6427   7
  -2   3   1 651.059 43.1339   6
   1  -3  -1 1010.83 73.0914   1
   1  -3  -1 1077.06 72.9152   1
  -1   3   1 1115.60 71.3994   6
  -1   3   1 1075.55 69.7754   2
  -1   3   1 1085.44 64.1616   7
  -1   3   1 965.471 72.8568   1
   0  -3  -1 122.210 9.30757   3
   0  -3  -1 127.646 10.5719   1
   0  -3  -1 130.211 10.9136   1
   0  -3  -1 142.282 9.96061   2
   0   3   1 140.819 9.56877   3
   0   3   1 128.241 9.62104   2
   0   3   1 128.083 10.6222   1
   0   3   1 126.175 10.6648   1
  -1  -3  -1 5.70962 2.49171   2
  -1  -3  -1 6.05163 2.70803   1
  -1  -3  -1 5.84929 3.48150   1
  -1  -3  -1 5.38658 2.02398   3
   1   3   1 2.76230 2.51639   2
   1   3   1 5.32809 2.97915   1
   1   3   1 2.51171 2.06929   3
   1   3   1 0.72137 3.05442   1
  -2  -3  -1 8.01059 1.99994   3
  -2  -3  -1 10.6943 2.17068   2
  -2  -3  -1 6.39935 2.96117   1
  -2  -3  -1 9.67516 2.15453   5
  -2  -3  -1 6.97909 2.98361   1
  -3  -3  -1 842.657 53.9015   3
  -3  -3  -1 841.022 55.3330   2
  -3  -3  -1 821.336 48.7939   5
  -4  -3  -1 62.3391 4.41425  10
  -4  -3  -1 64.9846 5.98640  12
  -4  -3  -1 59.2577 6.17770  14
  -4  -3  -1 67.0500 5.54932  13
  -4  -3  -1 68.5459 6.42758  11
  -4  -3  -1 62.3974 5.91385   5
  -5  -3  -1 7.09041 2.73877  12
  -5  -3  -1 1.15284 2.49689  14
  -5  -3  -1 2.75355 2.21111  13
  -6  -3  -1 45.7818 4.41788  13
  -6  -3  -1 40.3388 5.05977  14
  -6  -3  -1 40.2846 4.60681  12
  -5   4   1 2.68083 2.28648  16
  -5   4   1 2.61534 2.52633  15
  -5   4   1 1.73821 2.68016  17
  -4   4   1 25.9790 3.70089  16
  -4   4   1 19.7931 3.64086  17
  -4   4   1 31.9634 3.52092  15
  -3   4   1 71.7232 6.35109  15
  -3   4   1 70.1756 6.21829  17
  -3   4   1 74.0335 6.93681   7
  -3   4   1 63.7150 4.93743  10
  -3   4   1 68.1404 5.81089  16
  -2   4   1 2321.42 147.752   6
  -2   4   1 2264.13 144.175   2
  -2   4   1 2008.57 128.664   9
  -2   4   1 2032.28 144.668  16
  -2   4   1 2035.01 136.271  10
  -2   4   1 2333.80 156.147  17
  -2   4   1 2161.43 148.031  15
  -2   4   1 2209.83 140.367   3
  -2   4   1 2348.20 132.827   7
  -1   4   1 37.6799 4.37876   2
  -1   4   1 36.0325 4.35734   7
   0  -4  -1 67.8991 7.14250   1
   0   4   1 81.1695 6.81920   2
   0   4   1 67.5120 7.46095   1
  -1  -4  -1 49.7073 6.89470   1
  -1  -4  -1 65.9778 5.74803   3
  -1  -4  -1 44.0159 6.18729   1
  -1  -4  -1 59.9276 5.81533   2
   1   4   1 63.3983 6.03689   3
   1   4   1 56.3684 5.61483   2
   1   4   1 38.8389 6.21527   1
  -2  -4  -1 119.944 9.37199   2
  -2  -4  -1 119.304 9.15110   3
  -2  -4  -1 124.102 8.40326   5
  -3  -4  -1 141.110 9.89124   2
  -3  -4  -1 129.177 8.61122  10
  -3  -4  -1 133.425 9.77825  13
  -3  -4  -1 142.885 9.75806   3
  -3  -4  -1 128.119 10.2360  11
  -3  -4  -1 124.335 7.45519   8
  -3  -4  -1 124.437 7.93391   9
  -3  -4  -1 131.846 9.21752   5
  -4  -4  -1 7.83769 2.89431  14
  -4  -4  -1 12.6906 2.16045   2
  -4  -4  -1 11.7714 1.06006   9
  -4  -4  -1 9.01479 2.51692  13
  -4  -4  -1 10.3148 1.61348  10
  -4  -4  -1 5.83827 2.83916   5
  -4  -4  -1 11.3702 2.25452   3
  -4  -4  -1 18.6834 2.67345  12
  -5  -4  -1 1.29612 2.66244  14
  -5  -4  -1 1.77083 1.96041  13
  -5  -4  -1 1.05430 1.13009  10
  -5  -4  -1 5.36308 2.30724  12
  -6  -4  -1 156.575 10.3809  13
  -6  -4  -1 120.609 11.1010  12
  -6  -4  -1 143.578 11.6000  14
  -5   5   1 3.63024 1.93657  16
  -5   5   1 2.87838 2.29523  17
  -4   5   1 39.9191 4.45273  17
  -4   5   1 30.6801 4.04427  16
  -4   5   1 32.2643 4.06359  15
  -3   5   1 828.091 58.8009  15
  -3   5   1 871.343 57.4300  16
  -3   5   1 817.536 53.6033   7
  -3   5   1 918.112 62.1052  17
  -3   5   1 879.170 53.9755  10
  -2   5   1 24.0685 3.02191  10
  -2   5   1 23.6308 2.30846   9
  -2   5   1 27.9253 3.79972  18
  -2   5   1 30.2607 3.68830   2
  -2   5   1 22.0957 4.35331   7
  -2   5   1 31.2947 3.44690  16
  -2   5   1 29.6286 3.41044  15
  -2   5   1 23.4059 3.29195   3
  -2   5   1 38.2420 4.30864  17
  -1   5   1 191.869 11.9963   7
  -1   5   1 182.783 12.7592   2
  -1   5   1 170.527 9.79397   8
  -1   5   1 181.518 12.3750   3
  -1   5   1 142.479 10.2981   9
   0   5   1 50.7030 6.45225   2
   0   5   1 34.6184 4.21595   7
  -1  -5  -1 455.229 29.9358   3
  -1  -5  -1 439.203 30.8226   2
  -2  -5  -1 1213.51 70.9563   8
  -2  -5  -1 1291.26 84.3207   2
  -2  -5  -1 1275.56 82.0462   3
  -2  -5  -1 1292.79 73.7099   5
  -3  -5  -1 -0.4438 0.96837   9
  -3  -5  -1 1.25063 2.78281   5
  -3  -5  -1 -0.4097 2.34743   2
  -3  -5  -1 -1.4451 0.83244   8
  -3  -5  -1 -2.3946 2.10771  13
  -3  -5  -1 -2.7223 2.48460   3
  -3  -5  -1 1.27768 1.56592  10
  -4  -5  -1 126.530 7.49232   9
  -4  -5  -1 130.250 8.29393  10
  -4  -5  -1 127.880 10.0382  12
  -4  -5  -1 118.259 9.36541   5
  -4  -5  -1 103.799 10.7156  14
  -4  -5  -1 125.692 9.56664  13
  -5  -5  -1 25.6948 3.67974  12
  -5  -5  -1 29.8942 2.76226  10
  -5  -5  -1 27.0798 3.80290  13
  -6  -5  -1 150.917 10.6601  13
  -6  -5  -1 139.733 11.7716  14
  -4   6   1 38.1086 4.71490  17
  -4   6   1 39.6828 4.05367  16
  -3   6   1 58.6477 5.51255  16
  -3   6   1 65.5191 6.47729  17
  -3   6   1 68.3459 4.85938  10
  -2   6   1 263.815 19.7361   2
  -2   6   1 273.972 17.9506  10
  -2   6   1 277.646 19.1826  18
  -2   6   1 280.513 16.7879   9
  -2   6   1 274.782 18.9769   7
  -2   6   1 307.702 20.9179  17
  -2   6   1 288.361 19.1748  16
  -1   6   1 2.23368 1.09797   8
  -1   6   1 5.43862 3.68578   7
  -1   6   1 0.64747 2.68048   3
  -1   6   1 1.94466 1.27089   9
  -1   6   1 1.80406 1.55800  10
  -1   6   1 0.89010 2.85333   2
   0   6   1 286.092 16.3677   8
   0   6   1 282.803 20.5990   2
   0   6   1 293.069 18.7669   7
  -1  -6  -1 137.626 9.53709   5
   1   6   1 129.983 9.62832   7
  -2  -6  -1 108.233 6.03432   8
  -2  -6  -1 93.7806 8.68322   3
  -2  -6  -1 84.0975 6.34132   9
  -2  -6  -1 99.8247 8.04151   5
  -2  -6  -1 116.514 9.98425   2
  -3  -6  -1 247.034 13.7366   8
  -3  -6  -1 245.403 14.5379   9
  -3  -6  -1 253.343 15.8507   5
  -3  -6  -1 241.705 15.5682  10
  -3  -6  -1 242.214 17.5760   2
  -3  -6  -1 230.606 17.3522  13
  -3  -6  -1 225.682 17.0868   3
  -4  -6  -1 34.2123 3.48887  10
  -4  -6  -1 25.0837 4.23755  14
  -4  -6  -1 35.3327 4.49840  13
  -4  -6  -1 36.1857 2.56598   9
  -5  -6  -1 8.71848 2.30086  13
  -5  -6  -1 7.84115 2.98685  14
  -5  -6  -1 6.80570 1.43704  10
  -4   7   1 12.0115 2.21343  17
  -3   7   1 110.233 8.86423  17
  -2   7   1 5.57597 2.89042  17
  -2   7   1 4.37129 1.73600  10
  -2   7   1 4.07263 1.14355   9
  -1   7   1 5.18989 3.91454   7
  -1   7   1 9.56918 2.04028  10
  -1   7   1 8.02898 1.35312   8
  -1   7   1 10.9714 2.79470  17
  -1   7   1 6.05005 1.45101   9
   0   7   1 47.1610 5.63842   7
   0   7   1 38.2777 3.02790   8
   0   7   1 37.1081 3.41323   9
  -2  -7  -1 105.144 6.26208   8
  -2  -7  -1 99.0154 8.29887  13
  -2  -7  -1 93.1809 8.22747   5
  -3  -7  -1 27.4749 3.30483  13
  -3  -7  -1 21.9927 2.26562   8
  -3  -7  -1 26.9229 2.60874   9
  -3  -7  -1 24.9699 2.68998  10
  -4  -7  -1 34.8229 3.49654  10
  -4  -7  -1 37.5268 2.70594   9
  -4  -7  -1 35.2814 4.19381  13
  -4  -7  -1 35.1717 5.34999  14
  -5  -7  -1 204.277 14.1479  13
  -5  -7  -1 214.099 12.6526  10
  -5  -7  -1 172.697 15.6321  14
  -3   8   1 35.9945 3.98110  17
  -2   8   1 9.93073 2.46100  17
  -1   8   1 539.304 28.6182   8
  -1   8   1 505.211 30.2456   9
  -1   8   1 484.055 36.7646  17
   0   8   1 170.824 11.9686  17
   0   8   1 160.930 9.17482   8
   0   8   1 138.001 9.65789   9
  -1  -8  -1 29.1441 3.01982   8
   1   8   1 32.1623 2.93883   8
  -2  -8  -1 13.9268 1.69515   8
  -3  -8  -1 26.8954 2.32567   8
  -3  -8  -1 27.7212 2.63861   9
  -4  -8  -1 84.4871 5.23901   9
  -4  -8  -1 82.3750 6.04117  10
  -2   9   1 1.53025 1.58620  17
  -1   9   1 8.91969 1.89958  18
  -1   9   1 10.4890 1.31909   9
  -1   9   1 7.94963 2.02023  17
   0   9   1 46.8280 3.46108   9
   0   9   1 44.0758 3.15777   8
  -1  -9  -1 17.0604 1.95872   8
   1   9   1 21.3238 2.37253   8
  -2  -9  -1 19.6255 2.26957   8
  -3  -9  -1 203.889 12.3020   9
   0  10   1 3.91674 1.50977  18
   0  10   1 4.98746 0.98244   9
   1  10   1 11.5580 1.22945   8
  -2 -10  -1 36.3571 2.57810   8
   2  10   1 38.2615 2.65731   8
  -2 -10   2 6.11199 2.04986  14
   1  10  -2 11.7355 1.23350   8
  -1 -10   2 13.5227 1.39941   8
   0  10  -2 38.8830 3.55525  18
   0  10  -2 38.4322 2.73259   9
  -3  -9   2 184.680 10.3755   9
  -3  -9   2 157.363 13.6328  14
   2   9  -2 7.76591 1.32950   8
  -2  -9   2 9.92098 1.37093   8
   1   9  -2 615.851 33.4022   8
  -1  -9   2 569.844 33.4613   8
   0   9  -2 30.9058 2.84185   9
   0   9  -2 35.4431 2.60530   8
  -1   9  -2 5.88876 1.08302   9
  -1   9  -2 5.11689 2.18865  18
  -2   9  -2 10.8014 1.87185  18
  -4  -8   2 146.050 11.4985  14
  -4  -8   2 147.348 8.45581   9
  -4  -8   2 128.336 9.24808  10
  -3  -8   2 12.3517 1.35595   8
  -3  -8   2 10.2603 2.94513  14
  -3  -8   2 16.5020 1.69279   9
  -2  -8   2 40.1861 3.22812   8
   1   8  -2 2.26537 1.31792   8
  -1  -8   2 0.86875 1.57277   8
  -1   8  -2 204.890 12.2199  10
  -1   8  -2 190.356 11.2179   9
  -1   8  -2 162.464 10.5101   8
  -2   8  -2 46.1016 4.77682  17
  -2   8  -2 53.1603 3.47134   9
  -3   8  -2 57.6138 4.42106  17
  -3   8  -2 41.6307 4.12683  18
  -5  -7   2 2.87420 2.05584  14
  -4  -7   2 18.1006 1.98650   9
  -4  -7   2 18.4013 3.11327  14
  -4  -7   2 24.3080 3.05336  10
  -3  -7   2 4.41998 1.70210  10
  -3  -7   2 2.19603 1.05657   8
  -3  -7   2 5.01251 1.39029   9
  -2  -7   2 1049.10 58.8965   8
   1   7  -2 138.237 8.42050   8
   0   7  -2 5.24487 1.39899   8
  -1   7  -2 23.7670 4.64054   7
  -1   7  -2 30.0973 2.49543   8
  -2   7  -2 8.82989 1.30058   9
  -2   7  -2 10.9652 2.01558  10
  -2   7  -2 5.73322 3.18534  18
  -2   7  -2 9.66873 2.77002  17
  -3   7  -2 5.41052 2.42935  17
  -3   7  -2 3.97276 2.27819  18
  -4   7  -2 21.1818 3.22502  17
  -5  -6   2 3.16377 2.27875  14
  -5  -6   2 -0.4896 1.30949  10
  -4  -6   2 33.6642 3.33739  10
  -4  -6   2 28.0893 2.42901   9
  -3  -6   2 552.937 34.0006  10
  -3  -6   2 514.097 32.3108   5
  -3  -6   2 506.422 30.3293   8
  -3  -6   2 581.192 31.9958   9
  -2  -6   2 76.9299 7.75293   2
  -2  -6   2 68.9138 4.18050   8
  -2  -6   2 58.9467 4.36291   9
  -2  -6   2 44.4743 6.66887   3
   0   6  -2 213.550 14.9438   7
   0   6  -2 227.236 12.8932   8
   0   6  -2 258.904 17.2817   2
   0   6  -2 202.111 16.4270   3
  -1   6  -2 83.4423 8.71038   3
  -1   6  -2 96.5377 6.07020   9
  -1   6  -2 95.8359 8.16175   7
  -1   6  -2 86.4808 8.14923   2
  -1   6  -2 87.1465 6.59419  10
  -1   6  -2 106.322 7.68647  17
  -1   6  -2 95.7528 5.70726   8
  -2   6  -2 818.012 61.4798  17
  -2   6  -2 883.150 50.5709   9
  -2   6  -2 892.304 53.6385  10
  -2   6  -2 828.400 53.0483   7
  -2   6  -2 846.886 57.1891   2
  -2   6  -2 873.136 57.0928  18
  -3   6  -2 12.1501 1.76239  10
  -3   6  -2 10.5433 3.00856  18
  -3   6  -2 13.1540 2.72209  17
  -3   6  -2 14.0956 2.69917  16
  -4   6  -2 56.8073 5.10134  17
  -4   6  -2 49.2560 4.84519  16
  -4   6  -2 52.1736 4.67609  18
  -5   6  -2 6.33242 2.01014  17
  -6  -5   2 4.50251 2.01084  14
  -5  -5   2 3.38743 1.37691  10
  -5  -5   2 3.81042 2.72549  14
  -5  -5   2 4.91582 2.46176  13
  -4  -5   2 281.472 19.8803  13
  -4  -5   2 288.801 22.0389  14
  -4  -5   2 268.698 17.8115  10
  -3  -5   2 158.447 10.4844   8
  -3  -5   2 189.937 11.9421  10
  -3  -5   2 195.032 12.3302   5
  -3  -5   2 183.474 13.6028   3
  -3  -5   2 193.357 13.6444   2
  -3  -5   2 189.784 11.1023   9
  -2  -5   2 184.942 13.2825   2
  -2  -5   2 183.949 10.2839   8
  -2  -5   2 189.845 11.6588   5
  -2  -5   2 186.290 13.2668   3
  -2  -5   2 154.538 10.7819   9
  -1  -5   2 688.491 40.2144   5
   0   5  -2 40.9647 4.49899   7
   0   5  -2 28.6409 3.97988   2
   0   5  -2 18.7251 3.77067   3
  -1   5  -2 45.0588 4.60020   7
  -1   5  -2 35.9833 2.69520   8
  -1   5  -2 40.6697 4.91254   2
  -1   5  -2 33.6008 2.88942   9
  -1   5  -2 44.5497 5.77168   3
  -2   5  -2 49.9011 4.31989  16
  -2   5  -2 37.0038 4.56706   2
  -2   5  -2 41.9904 3.56148  10
  -2   5  -2 38.7182 2.96616   9
  -2   5  -2 42.4923 5.55166   7
  -2   5  -2 39.2899 5.18702  18
  -2   5  -2 45.3541 4.71112  17
  -3   5  -2 49.2341 6.15997   7
  -3   5  -2 56.5353 5.09654  16
  -3   5  -2 50.3874 5.59828  18
  -3   5  -2 52.5030 5.48443  17
  -3   5  -2 45.4053 3.99466  10
  -4   5  -2 56.5365 5.15901  18
  -4   5  -2 52.3983 5.50964  17
  -4   5  -2 52.7308 5.12326  16
  -5   5  -2 13.8954 2.85057  17
  -5   5  -2 12.4919 2.49505  16
  -6  -4   2 35.9450 4.24498  14
  -6  -4   2 35.1180 3.72182  13
  -5  -4   2 12.5227 2.73822  13
  -5  -4   2 4.91081 2.61875  14
  -5  -4   2 11.1361 1.41488  10
  -4  -4   2 396.691 31.3274  12
  -4  -4   2 420.635 31.8624  14
  -4  -4   2 414.442 27.5967   2
  -4  -4   2 394.518 25.8306  10
  -4  -4   2 402.267 28.8647  13
  -4  -4   2 432.438 24.2335   9
  -3  -4   2 7.27949 2.20132   2
  -3  -4   2 3.92691 2.54899  14
  -3  -4   2 5.43552 0.83718   8
  -3  -4   2 5.30972 0.92296   9
  -3  -4   2 5.85338 1.90968  13
  -3  -4   2 7.30373 2.81251   5
  -3  -4   2 7.61198 3.01669   3
  -3  -4   2 6.12107 1.45180  10
  -3  -4   2 6.55354 2.29246  12
  -2  -4   2 672.628 38.9082   5
  -2  -4   2 671.802 44.4626   2
  -2  -4   2 646.508 43.4475   3
   1   4  -2 10.7777 4.06709   1
  -1  -4   2 14.7965 2.24778   5
  -1  -4   2 14.2402 3.17455   3
   0   4  -2 4.04355 2.03666   7
   0   4  -2 4.07303 2.21970   2
   0   4  -2 0.66635 2.18431   1
   0   4  -2 2.21344 2.37649   3
   0  -4   2 4.06436 3.60497   1
   0  -4   2 4.58160 1.40464   5
  -1   4  -2 1267.34 82.2930   3
  -1   4  -2 1236.24 84.3762   2
  -1   4  -2 1326.44 77.5824   7
  -2   4  -2 27.5759 2.68754  10
  -2   4  -2 29.3441 3.53685   2
  -2   4  -2 23.7009 3.45091   7
  -2   4  -2 29.9310 2.18748   9
  -2   4  -2 31.3396 3.89445  17
  -2   4  -2 31.4236 4.27374  18
  -2   4  -2 30.7773 4.14762  15
  -3   4  -2 126.014 9.38567  18
  -3   4  -2 124.410 8.09914  10
  -3   4  -2 124.991 9.08483  16
  -3   4  -2 129.716 9.46513  15
  -3   4  -2 123.489 9.71896  17
  -3   4  -2 114.115 9.53316   7
  -4   4  -2 85.7242 6.89560  16
  -4   4  -2 83.3604 6.84549  18
  -4   4  -2 87.9360 7.31264  17
  -4   4  -2 73.8957 7.13517  15
  -5   4  -2 22.2952 3.56272  17
  -5   4  -2 31.0744 3.33176  16
  -6  -3   2 -2.2458 2.36083  14
  -6  -3   2 -0.2793 2.33548  13
  -5  -3   2 51.7751 5.16511  13
  -5  -3   2 51.0006 5.83998  14
  -4  -3   2 11.5271 2.30513  15
  -4  -3   2 15.9307 1.71016  10
  -4  -3   2 19.4160 3.04908  12
  -4  -3   2 17.7300 2.58035  13
  -4  -3   2 9.49093 2.81905   5
  -4  -3   2 17.7697 2.99509  14
  -3  -3   2 510.451 32.6745  10
  -3  -3   2 552.344 34.9708   2
  -3  -3   2 527.568 34.2080   3
  -3  -3   2 519.336 36.4372  13
  -3  -3   2 506.223 39.4608  12
  -3  -3   2 483.747 30.7901   9
  -3  -3   2 523.535 40.1227  14
  -3  -3   2 538.053 36.1676   6
  -3  -3   2 545.783 31.0263   5
  -2  -3   2 -0.8240 1.87377   3
  -2  -3   2 0.67306 1.92543   5
  -2  -3   2 -0.2005 1.71975   2
   1   3  -2 1061.10 70.1130   7
   1   3  -2 1111.13 80.1669   1
   1   3  -2 1128.15 76.7408   2
   1   3  -2 1164.46 80.6053   1
   1   3  -2 1128.29 74.8704   3
  -1  -3   2 1225.28 67.0103   5
  -1  -3   2 1164.25 80.3349   1
  -1  -3   2 1277.17 74.9448   3
  -1  -3   2 1218.73 76.8025   2
  -1  -3   2 1138.56 80.3809   1
   0   3  -2 1082.14 65.4125   3
   0   3  -2 1038.86 61.4219   7
   0   3  -2 976.851 70.0458   1
   0   3  -2 1050.85 67.0422   2
   0  -3   2 946.850 67.0525   2
   0  -3   2 1024.53 70.2875   1
   0  -3   2 924.587 58.3215   5
   0  -3   2 1040.28 65.4476   3
   0  -3   2 1042.29 70.3735   1
  -1   3  -2 4.04587 2.51920   1
  -1   3  -2 2.73951 1.60973   2
  -1   3  -2 2.59254 2.11224   1
  -1   3  -2 2.80443 2.03821   3
  -1   3  -2 3.35667 1.94471   7
   1  -3   2 0.35437 2.13457   1
   1  -3   2 2.09330 2.50770   1
  -2   3  -2 322.728 21.3132   2
  -2   3  -2 340.878 20.0942   7
  -2   3  -2 290.239 19.1894   4
  -3   3  -2 106.850 8.23353   7
  -3   3  -2 98.4854 8.93916  14
  -3   3  -2 112.428 8.42384  17
  -3   3  -2 104.233 7.79008  16
  -3   3  -2 109.544 8.21545  15
  -3   3  -2 103.264 6.86293  10
  -3   3  -2 111.919 7.96411  18
  -4   3  -2 429.228 30.5403  17
  -4   3  -2 432.528 28.3253  16
  -4   3  -2 390.409 26.8471   7
  -4   3  -2 436.662 28.3266  18
  -4   3  -2 412.489 29.0485  15
  -5   3  -2 75.2971 6.55070  17
  -5   3  -2 62.3192 5.61807  18
  -5   3  -2 70.3705 6.26049  15
  -5   3  -2 65.4700 5.95243  16
  -6   3  -2 61.6871 5.32541  17
  -6  -2   2 24.2779 3.79405  13
  -6  -2   2 34.3372 3.58487  14
  -5  -2   2 59.9404 5.74903  13
  -5  -2   2 53.0613 5.38310  15
  -5  -2   2 64.7944 6.19476  14
  -4  -2   2 60.9809 5.56625  13
  -4  -2   2 61.9910 6.05214   5
  -4  -2   2 65.3362 6.15494  12
  -4  -2   2 70.8163 6.35764  14
  -4  -2   2 60.7079 5.60541  15
  -3  -2   2 11.9186 2.97536   6
  -3  -2   2 16.1881 2.31926   3
  -3  -2   2 12.4169 1.94466   2
  -3  -2   2 10.8724 2.23930   5
  -2  -2   2 110.464 9.92417   1
  -2  -2   2 133.095 10.0066   1
  -2  -2   2 137.200 8.22397   5
  -2  -2   2 128.028 8.96705   2
  -2  -2   2 119.844 8.90925   3
   1   2  -2 298.443 20.3538   1
   1   2  -2 279.696 20.5646   1
   1   2  -2 274.435 19.0179   2
  -1  -2   2 270.724 20.3468   1
  -1  -2   2 283.665 20.3386   1
  -1  -2   2 273.920 18.6289   3
  -1  -2   2 284.998 19.0506   2
  -1  -2   2 286.858 16.6411   5
   0   2  -2 42.8440 3.93543   2
   0   2  -2 43.9182 4.84613   1
   0   2  -2 38.9288 3.34269   7
   0   2  -2 39.4923 5.10014   1
   0   2  -2 41.3276 4.16953   3
   0  -2   2 45.1884 4.91333   1
   0  -2   2 36.7590 4.24817   3
   0  -2   2 37.6037 5.09047   1
   0  -2   2 35.8771 2.88991   5
  -1   2  -2 889.837 62.7996   1
  -1   2  -2 948.188 55.4228   7
  -1   2  -2 970.206 60.2463   2
  -1   2  -2 934.791 58.7250   3
  -1   2  -2 871.837 62.9224   1
  -1   2  -2 807.996 58.6286   3
   1  -2   2 928.967 62.9782   1
   1  -2   2 956.213 62.9821   1
  -2   2  -2 1.87866 1.82303   7
  -2   2  -2 0.75158 1.02768   2
  -2   2  -2 1.37595 1.33301   4
  -2   2  -2 1.18092 1.40142   1
  -2   2  -2 0.04379 0.86342   3
  -2   2  -2 0.66217 1.53203   1
  -2   2  -2 0.47807 1.03956   2
   2  -2   2 0.91389 1.38776   1
  -3   2  -2 834.863 49.0935   7
  -3   2  -2 766.938 47.9208   4
  -4   2  -2 83.8074 7.68526  14
  -4   2  -2 85.9363 7.04726  15
  -4   2  -2 92.5453 6.78977  18
  -4   2  -2 91.6549 6.70128  16
  -4   2  -2 83.7132 7.24845  11
  -4   2  -2 75.7878 7.25683  13
  -4   2  -2 92.6996 7.19181  17
  -4   2  -2 91.2746 7.53388   7
  -5   2  -2 13.0174 2.59265  18
  -5   2  -2 15.9017 2.66295  16
  -5   2  -2 9.99357 2.56590  15
  -5   2  -2 11.7607 2.96080  14
  -5   2  -2 14.4249 3.04886  17
  -6   2  -2 3.11152 2.54901  16
  -6   2  -2 -0.9460 2.72634  17
  -6  -1   2 28.6093 4.03369  14
  -6  -1   2 20.3382 3.12634  13
  -6  -1   2 29.4749 3.77823  15
  -5  -1   2 65.2684 6.50540  14
  -5  -1   2 58.0180 5.74925  13
  -5  -1   2 63.1651 5.69396  15
  -4  -1   2 10.3913 2.32663  13
  -4  -1   2 8.73070 3.04222   5
  -4  -1   2 7.27197 2.37925  14
  -4  -1   2 9.21884 2.42785  12
  -4  -1   2 7.76527 2.00057  15
  -4  -1   2 6.69604 3.67113   6
  -4  -1   2 6.49051 0.97410  10
  -3  -1   2 37.1992 3.08574   2
  -3  -1   2 37.0993 4.01121   5
  -3  -1   2 38.3709 4.83732   6
  -3  -1   2 29.6089 2.82893   2
   2   1  -2 343.933 24.7222   1
  -2  -1   2 386.389 24.1245   6
  -2  -1   2 360.535 23.2414   2
  -2  -1   2 366.858 22.7101   3
  -2  -1   2 320.007 24.4118   1
  -2  -1   2 335.496 24.5409   1
  -2  -1   2 316.111 23.2141   2
   1   1  -2 325.999 20.4325   1
   1   1  -2 286.749 20.5463   1
   1   1  -2 244.771 18.8366   3
  -1  -1   2 284.499 18.8587   3
  -1  -1   2 287.788 16.9313   5
  -1  -1   2 297.793 20.3952   1
  -1  -1   2 285.234 19.2776   2
   0   1  -2 40.0096 3.72513   3
   0   1  -2 40.2044 3.30531   2
   0   1  -2 40.7845 3.96219   1
   0   1  -2 34.6325 2.90985   7
   0   1  -2 35.5393 4.02891   1
   0  -1   2 42.6918 3.54942   2
   0  -1   2 38.2558 3.97642   1
   0  -1   2 37.0294 2.58721   5
   0  -1   2 36.1035 3.47147   3
  -1   1  -2 103.565 6.59990   7
  -1   1  -2 93.7794 7.51697   1
  -1   1  -2 91.9409 6.67618   3
  -1   1  -2 82.9290 6.83715   2
  -1   1  -2 98.7566 6.83117   3
  -1   1  -2 97.5526 6.39143   4
  -1   1  -2 101.081 7.39313   1
  -1   1  -2 103.158 6.83459   2
   1  -1   2 103.585 7.52059   1
   1  -1   2 112.057 7.54413   1
  -2   1  -2 22.7083 2.92128   6
  -2   1  -2 23.7027 2.97463   4
  -2   1  -2 24.2231 2.38531   5
  -2   1  -2 25.7465 2.61819   7
  -3   1  -2 267.651 19.3994   6
  -3   1  -2 291.642 17.4717   7
  -3   1  -2 265.677 16.4492   5
  -3   1  -2 275.845 17.1008   4
  -4   1  -2 13.7687 2.04884  16
  -4   1  -2 7.61561 1.94984  17
  -4   1  -2 7.18479 1.93591  12
  -4   1  -2 10.0250 2.07324  15
  -4   1  -2 8.81040 1.96421  18
  -4   1  -2 8.74633 2.15973  14
  -4   1  -2 8.01030 2.01445  11
  -4   1  -2 10.0400 2.10522  13
  -4   1  -2 7.78811 2.99424   7
  -5   1  -2 61.8719 5.58595  18
  -5   1  -2 62.7606 5.86392  13
  -5   1  -2 64.4604 5.41114  16
  -5   1  -2 64.7443 6.20124  14
  -5   1  -2 68.1886 5.70080  15
  -5   1  -2 59.7811 5.86390  11
  -5   1  -2 64.2133 6.01544  12
  -5   1  -2 68.6808 6.17231  17
  -6   1  -2 20.8919 3.28167  14
  -6   1  -2 30.1082 3.31240  16
  -6   1  -2 23.3642 2.98894  15
  -6   0   2 40.4087 4.84717  14
  -6   0   2 43.5598 4.51681  15
  -5   0   2 74.6927 6.61715  15
  -5   0   2 83.2865 7.48216  14
  -5   0   2 74.4722 6.64880  13
  -4   0   2 168.331 12.0347  13
  -4   0   2 171.162 12.9889  12
  -4   0   2 138.732 11.2471  16
  -4   0   2 168.656 13.0998  14
  -4   0   2 158.101 13.1489   6
  -4   0   2 168.737 11.7436  15
  -3   0   2 206.111 15.1578   6
  -3   0   2 205.173 12.9339   5
   2   0  -2 183.124 13.7261   1
   2   0  -2 188.691 13.8694   1
  -2   0   2 193.629 13.6891   6
  -2   0   2 172.327 11.7683   7
  -2   0   2 178.915 12.8441   2
  -2   0   2 179.862 13.6927   1
  -2   0   2 183.095 12.5355   3
  -2   0   2 195.123 12.6055   3
  -2   0   2 219.934 12.9715   2
  -2   0   2 193.838 13.7518   1
  -2   0   2 214.449 11.7791   5
   1   0  -2 87.0219 6.70501   1
   1   0  -2 87.0879 6.77290   1
  -1   0   2 74.3205 6.21704   6
  -1   0   2 81.7640 6.61158   1
  -1   0   2 69.6769 5.67482   3
  -1   0   2 70.7203 5.74725   2
  -1   0   2 82.5019 5.93740   3
  -1   0   2 83.6132 5.37997   5
  -1   0   2 90.2799 5.95437   2
  -1   0   2 86.3522 6.59465   1
   0   0  -2 176.601 13.1245   2
   0   0  -2 198.815 13.9446   1
   0   0  -2 201.252 13.9603   1
   0   0  -2 176.388 12.8827   3
   0   0   2 209.229 13.9373   1
   0   0   2 218.084 13.9430   1
   0   0   2 192.349 12.8354   3
   0   0   2 185.655 13.1204   2
  -1   0  -2 22.0475 2.77703   1
  -1   0  -2 19.5672 1.82923   5
  -1   0  -2 19.1039 2.11831   2
  -1   0  -2 25.8174 2.24807   2
  -1   0  -2 21.8856 2.41189   7
  -1   0  -2 19.9693 2.57696   3
  -1   0  -2 21.2853 2.17183   3
  -1   0  -2 23.1420 2.76381   1
  -1   0  -2 22.9739 2.39236   4
   1   0   2 26.6921 2.73123   1
   1   0   2 21.0832 2.63324   1
  -2   0  -2 2299.22 167.309   6
  -2   0  -2 2477.30 143.242   5
  -2   0  -2 2547.03 146.921   4
  -2   0  -2 2657.29 150.634   7
  -3   0  -2 1.23542 1.89401   6
  -3   0  -2 1.13674 1.56821   5
  -3   0  -2 0.55260 2.09163   7
  -3   0  -2 1.26561 1.99077   4
  -4   0  -2 49.7762 4.84781  17
  -4   0  -2 54.9584 4.69018  18
  -4   0  -2 53.1148 4.83615   5
  -4   0  -2 55.5859 5.10263  11
  -4   0  -2 52.9652 4.70067  13
  -4   0  -2 56.5040 5.09932  12
  -4   0  -2 49.3998 4.35399  16
  -4   0  -2 52.5809 4.98608  14
  -4   0  -2 48.3265 4.60758  15
  -4   0  -2 51.9653 5.70559   4
  -5   0  -2 5.11229 2.33415  13
  -5   0  -2 5.62177 1.98854  15
  -5   0  -2 4.68119 2.26094  12
  -5   0  -2 2.46567 2.26427  18
  -5   0  -2 5.20585 2.27411  11
  -5   0  -2 5.14393 1.89174  16
  -5   0  -2 4.98328 2.31912  14
  -5   0  -2 3.61278 2.72405  17
  -6   0  -2 151.186 12.2949  12
  -6   0  -2 157.276 12.5920  14
  -6   0  -2 158.018 11.4849  13
  -6   1   2 16.6349 2.67562  15
  -6   1   2 20.0961 3.21884  14
  -5   1   2 3.12426 2.63827  13
  -5   1   2 -0.6233 2.08094  16
  -5   1   2 3.44661 2.88130  14
  -5   1   2 1.40957 2.13594  15
  -4   1   2 1493.70 103.751   6
  -4   1   2 1494.15 101.117  16
  -4   1   2 1497.50 105.953  13
  -4   1   2 1575.83 116.485  14
  -4   1   2 1572.68 103.444  15
  -3   1   2 448.180 32.4751  14
  -3   1   2 388.964 29.3233   6
  -2   1   2 374.237 23.6529   6
  -2   1   2 367.171 22.6420   2
  -2   1   2 328.845 23.7777   1
  -2   1   2 367.078 20.9708   7
  -2   1   2 330.136 22.0131   3
  -2   1   2 274.644 22.0193   3
   1  -1  -2 57.7373 4.86716   1
  -1   1   2 54.0900 4.38799   3
  -1   1   2 47.5920 3.96844   2
  -1   1   2 51.5994 4.65332   6
  -1   1   2 54.2866 5.02526   1
  -1   1   2 43.4244 3.94653   3
  -1   1   2 54.6931 4.26007   2
  -1   1   2 54.0685 4.88321   1
   0  -1  -2 5.04117 1.36037   2
   0  -1  -2 6.02286 2.04353   1
   0  -1  -2 5.56606 0.86262   4
   0  -1  -2 7.28279 1.39425   3
   0  -1  -2 9.60735 2.18846   1
   0   1   2 6.04670 1.28134   6
   0   1   2 8.21367 2.11054   1
   0   1   2 5.42206 1.79432   1
   0   1   2 6.79913 1.38346   3
  -1  -1  -2 6742.85 447.025   1
  -1  -1  -2 6465.85 385.912   4
  -1  -1  -2 6751.01 431.075   2
  -1  -1  -2 5975.55 430.274   2
  -1  -1  -2 7031.29 446.685   1
  -1  -1  -2 6430.66 419.398   3
  -1  -1  -2 6140.55 419.174   3
   1   1   2 6821.71 446.983   1
   1   1   2 6829.82 446.599   1
   1   1   2 6356.17 418.941   3
  -2  -1  -2 41.9858 4.03274   1
  -2  -1  -2 44.2208 3.71345   1
  -2  -1  -2 46.1694 3.25347   2
  -2  -1  -2 37.1758 3.32757   6
  -2  -1  -2 41.6283 3.27563   3
  -2  -1  -2 45.0599 4.25719   4
  -2  -1  -2 40.3748 3.49071   2
  -2  -1  -2 45.9526 3.37103   3
  -2  -1  -2 39.3126 3.50174   5
   2   1   2 44.0877 3.75254   1
   2   1   2 44.8840 3.95982   1
  -3  -1  -2 44.4541 4.86266   4
  -3  -1  -2 38.5796 3.75968   5
  -4  -1  -2 121.937 8.43001   5
  -4  -1  -2 120.542 9.12359  13
  -4  -1  -2 121.923 9.96800  14
  -4  -1  -2 124.474 9.49041   4
  -4  -1  -2 125.384 9.64347  11
  -4  -1  -2 127.518 8.89120  18
  -4  -1  -2 132.949 10.0399  12
  -4  -1  -2 109.700 9.52457  17
  -5  -1  -2 281.682 21.7553  14
  -5  -1  -2 296.599 21.5938  12
  -5  -1  -2 283.800 19.8616  13
  -5  -1  -2 259.573 18.9963  18
  -5  -1  -2 270.706 20.6287  11
  -6  -1  -2 81.0797 7.45925  14
  -6  -1  -2 81.9473 7.25804  12
  -6  -1  -2 89.0069 6.86970  13
  -6   2   2 47.9803 4.63885  15
  -5   2   2 2.77518 2.47507  15
  -5   2   2 2.93416 3.03654  14
  -5   2   2 0.22103 2.08631  16
  -4   2   2 185.072 13.1255  16
  -4   2   2 178.689 15.1867   6
  -4   2   2 189.404 13.4517  15
  -4   2   2 191.724 15.1709  14
  -3   2   2 0.74844 1.81620  16
  -3   2   2 0.45452 1.64696  15
  -3   2   2 0.56180 1.67420  17
  -3   2   2 2.15786 2.21576  13
  -3   2   2 -1.0469 2.17737  14
  -3   2   2 1.92355 2.24058   7
  -3   2   2 2.30743 3.30824   6
  -2   2   2 86.3181 6.07604   2
  -2   2   2 82.7883 6.94924   6
  -2   2   2 88.5804 6.10348   7
  -2   2   2 70.8668 5.67130   3
  -2   2   2 72.3804 5.93438   3
   1  -2  -2 117.339 8.44712   1
   1  -2  -2 107.694 8.70452   1
  -1   2   2 86.4596 7.22057   3
  -1   2   2 106.081 8.58396   1
  -1   2   2 105.145 7.70979   2
  -1   2   2 109.887 8.04205   6
  -1   2   2 116.722 7.61248   3
  -1   2   2 106.791 8.30260   1
  -1   2   2 90.7105 7.36726   2
   0  -2  -2 6655.56 453.974   2
   0  -2  -2 6847.91 441.868   3
   0  -2  -2 7595.45 470.603   1
   0   2   2 6619.51 453.847   2
   0   2   2 6864.19 470.486   1
   0   2   2 7016.67 470.332   1
   0   2   2 6893.39 462.979   6
   0   2   2 6766.52 442.071   3
  -1  -2  -2 2105.59 132.566   3
  -1  -2  -2 2027.74 121.847   4
  -1  -2  -2 2066.40 136.186   2
  -1  -2  -2 2150.30 141.549   1
  -1  -2  -2 2107.57 141.726   1
   1   2   2 1912.84 136.129   2
   1   2   2 2127.04 141.660   1
  -2  -2  -2 5.02164 1.22923   2
  -2  -2  -2 8.09430 1.83815   2
  -2  -2  -2 6.63785 1.42115   3
  -2  -2  -2 7.04262 2.56375   1
  -2  -2  -2 7.44575 1.60557   3
  -2  -2  -2 6.78786 2.07870   4
  -2  -2  -2 6.56214 2.10270   1
  -2  -2  -2 6.63638 1.95592   5
   2   2   2 7.80399 2.44336   1
   2   2   2 6.11853 2.06847   1
  -3  -2  -2 64.2249 6.05754   4
  -3  -2  -2 61.8411 4.62114   2
  -3  -2  -2 65.6745 4.54924   3
  -3  -2  -2 60.1276 4.50952   2
  -3  -2  -2 58.0602 4.35606   3
  -3  -2  -2 58.4827 4.97063   5
  -4  -2  -2 309.118 21.3997  13
  -4  -2  -2 296.298 22.1937  11
  -4  -2  -2 324.785 23.2632  12
  -4  -2  -2 271.994 18.9143  10
  -4  -2  -2 295.427 20.4870  18
  -4  -2  -2 313.957 18.6028   5
  -4  -2  -2 310.108 23.4414  14
  -5  -2  -2 15.1326 2.58495  13
  -5  -2  -2 17.2498 3.06072  11
  -5  -2  -2 12.4258 3.39141   5
  -5  -2  -2 24.9021 3.21193  12
  -6  -2  -2 1.33639 2.38385  14
  -6  -2  -2 4.02460 2.54498  13
  -6  -2  -2 5.20946 2.48305  12
  -5   3   2 460.079 32.2128  15
  -5   3   2 478.316 31.5064  16
  -4   3   2 8.79104 5.79609   6
  -4   3   2 16.8888 3.66921  14
  -4   3   2 7.19115 2.71881  17
  -4   3   2 14.6791 2.75988  15
  -4   3   2 9.30216 2.47321  16
  -3   3   2 170.852 11.6808  16
  -3   3   2 172.560 12.5694  17
  -3   3   2 159.479 10.6547  10
  -3   3   2 161.494 11.6922   7
  -3   3   2 165.101 12.0114  15
  -3   3   2 168.777 13.7380   6
  -2   3   2 117.543 9.05409   2
  -2   3   2 129.097 10.4277   6
  -2   3   2 124.353 8.99095   3
  -2   3   2 136.195 9.15873   7
   1  -3  -2 158.875 11.9745   1
  -1   3   2 160.051 11.0765   6
  -1   3   2 159.213 10.2971   3
  -1   3   2 143.142 10.4074   2
  -1   3   2 123.151 11.4467   1
  -1   3   2 127.627 11.1492   1
   0  -3  -2 37.2734 4.35878   2
   0  -3  -2 37.7015 4.18941   3
   0  -3  -2 42.8177 5.80083   1
   0  -3  -2 38.9610 4.93993   1
   0   3   2 44.2913 4.44749   6
  -1  -3  -2 38.2489 4.83637   1
  -1  -3  -2 40.5489 5.46809   1
  -1  -3  -2 37.3658 4.15772   3
  -1  -3  -2 37.6210 4.41088   2
   1   3   2 31.2499 4.07693   1
  -2  -3  -2 253.062 16.4081   3
  -2  -3  -2 228.180 18.3158   1
  -2  -3  -2 248.663 15.4847   4
  -2  -3  -2 252.612 16.9469   2
  -2  -3  -2 236.884 14.9606   5
  -3  -3  -2 133.297 9.15259   5
  -3  -3  -2 140.221 9.51224   3
  -3  -3  -2 132.696 9.70220   2
  -4  -3  -2 1262.39 88.4194  13
  -4  -3  -2 1286.77 74.1736   5
  -4  -3  -2 1332.61 95.7202  12
  -4  -3  -2 1262.58 91.3308  11
  -4  -3  -2 1209.48 79.3313  10
  -4  -3  -2 1289.07 97.1853  14
  -5  -3  -2 245.761 18.6919  12
  -5  -3  -2 231.475 17.1974  13
  -5  -3  -2 232.350 18.0817  11
  -5  -3  -2 246.871 18.8793  14
  -6  -3  -2 -0.8244 2.44416  14
  -6  -3  -2 6.26995 2.46813  13
  -6  -3  -2 3.74147 2.28995  12
  -5   4   2 99.6071 8.41018  15
  -5   4   2 118.929 8.23841  16
  -4   4   2 97.4590 8.77950  17
  -4   4   2 105.673 8.48029  15
  -4   4   2 108.378 8.01391  16
  -3   4   2 1.43272 2.27183  15
  -3   4   2 5.38373 5.25350   6
  -3   4   2 -1.6266 3.26915   7
  -3   4   2 2.20775 2.40344  17
  -3   4   2 1.21955 2.12442  16
  -3   4   2 -0.7101 1.41801  10
  -2   4   2 513.307 34.4067  10
  -2   4   2 565.753 35.8786   3
  -2   4   2 548.157 36.8365   2
  -2   4   2 612.808 34.4713   7
  -2   4   2 599.501 38.4403   6
  -2   4   2 564.624 39.5534  17
  -2   4   2 554.742 37.4459  15
  -2   4   2 510.546 36.5476  16
  -2   4   2 493.475 32.4030   9
  -1   4   2 2891.19 188.819   6
  -1   4   2 2694.82 169.807   7
  -1   4   2 2796.96 184.843   2
  -1   4   2 2848.68 179.963   3
   0  -4  -2 1.31497 2.23560   1
   0   4   2 1.96117 3.98038   1
   0   4   2 0.97935 3.91565   2
  -1  -4  -2 82.3816 8.65860   1
  -1  -4  -2 109.922 7.92004   3
  -1  -4  -2 90.2214 9.46161   1
  -1  -4  -2 103.522 8.21436   2
  -2  -4  -2 3.07666 2.44698   2
  -2  -4  -2 0.95031 2.27209   3
  -2  -4  -2 2.97670 2.25874   5
  -3  -4  -2 434.486 33.0613  11
  -3  -4  -2 428.122 28.6815  10
  -3  -4  -2 485.831 30.9591   2
  -3  -4  -2 428.366 27.0137   9
  -3  -4  -2 452.272 32.0123  13
  -3  -4  -2 432.507 25.5967   8
  -3  -4  -2 491.376 27.5371   5
  -3  -4  -2 466.228 34.6445  12
  -3  -4  -2 506.438 30.1315   3
  -4  -4  -2 105.003 6.31638   9
  -4  -4  -2 107.898 7.63920   3
  -4  -4  -2 100.709 7.02814  10
  -4  -4  -2 108.942 7.68194   2
  -4  -4  -2 97.7463 8.20255   5
  -4  -4  -2 106.039 8.78260  12
  -4  -4  -2 104.067 8.36595  13
  -4  -4  -2 103.134 9.05811  14
  -4  -4  -2 105.558 8.87082  11
  -5  -4  -2 181.620 11.4693  10
  -5  -4  -2 181.616 14.3302  12
  -5  -4  -2 177.818 14.5710  14
  -6  -4  -2 1.77361 2.47038  14
  -6  -4  -2 2.04720 1.99475  12
  -6  -4  -2 1.98151 2.31345  13
  -5   5   2 79.4806 5.95880  16
  -4   5   2 8.49560 2.33255  16
  -4   5   2 8.36122 3.28639  15
  -4   5   2 6.46496 3.06274  17
  -3   5   2 56.6068 5.27821  16
  -3   5   2 59.8977 6.31379  17
  -3   5   2 52.1852 6.90984   7
  -3   5   2 59.6099 6.22964  15
  -3   5   2 55.5942 4.56779  10
  -2   5   2 329.928 23.2613   3
  -2   5   2 349.302 24.0187   2
  -2   5   2 373.907 25.5144  17
  -2   5   2 347.738 20.6845   9
  -2   5   2 358.737 23.4620  16
  -2   5   2 336.008 22.0672  10
  -2   5   2 330.584 24.0924  15
  -2   5   2 362.521 22.7988   7
  -1   5   2 0.71637 1.16957   9
  -1   5   2 0.20040 2.64652   7
  -1   5   2 0.02046 1.01108   8
  -1   5   2 0.07927 2.67649   2
  -1   5   2 0.58061 2.42523   3
   0   5   2 4.53159 3.69517   2
  -1  -5  -2 138.371 10.4481   3
  -1  -5  -2 128.803 10.7013   2
  -2  -5  -2 187.688 11.9512   5
  -2  -5  -2 170.235 10.2885   8
  -2  -5  -2 178.613 13.0025   3
  -2  -5  -2 182.405 13.5384   2
  -3  -5  -2 23.0068 3.97772   5
  -3  -5  -2 17.9783 2.15425  10
  -3  -5  -2 16.2379 1.76754   8
  -3  -5  -2 15.2735 3.38781   3
  -3  -5  -2 19.5188 2.89483  13
  -3  -5  -2 18.0509 2.13549   9
  -3  -5  -2 24.1482 3.84293   2
  -4  -5  -2 4.56687 2.24546  12
  -4  -5  -2 4.21960 0.99968   9
  -4  -5  -2 0.48015 2.74384   5
  -4  -5  -2 2.19130 2.46653   2
  -4  -5  -2 2.37989 1.59516  10
  -4  -5  -2 5.89123 2.51518  13
  -4  -5  -2 -0.1837 2.73940  14
  -5  -5  -2 4.38647 2.11998  12
  -5  -5  -2 4.82693 1.30032  10
  -5  -5  -2 5.40830 2.41330  13
  -5  -5  -2 1.03474 2.39102  14
  -6  -5  -2 8.64625 1.94500  12
  -6  -5  -2 11.3852 2.37838  13
  -4   6   2 20.4774 3.41854  17
  -4   6   2 25.3210 3.38801  16
  -3   6   2 346.268 23.6027  16
  -3   6   2 343.280 22.0704  10
  -3   6   2 360.274 25.7525  17
  -2   6   2 189.604 14.5617   7
  -2   6   2 200.431 12.2542   9
  -2   6   2 196.786 13.1542  10
  -2   6   2 220.849 14.1225  16
  -1   6   2 2.73953 3.07521   3
  -1   6   2 2.74396 3.05886   2
  -1   6   2 2.85472 3.86564   7
  -1   6   2 2.76531 1.37872   9
  -1   6   2 2.90914 1.15719   8
  -1   6   2 3.83790 1.80873  10
   0   6   2 275.169 19.0790   2
   0   6   2 237.108 17.9565   3
   0   6   2 247.084 14.6176   8
   0   6   2 268.583 17.0937   7
  -2  -6  -2 112.989 9.79140   2
  -2  -6  -2 87.0990 6.33251   9
  -2  -6  -2 91.0696 8.71847   3
  -2  -6  -2 103.082 8.26426   5
  -2  -6  -2 105.755 6.04522   8
  -3  -6  -2 8.63649 1.92659  10
  -3  -6  -2 8.37848 2.58604  13
  -3  -6  -2 8.88365 1.43166   9
  -3  -6  -2 7.57152 3.77079   5
  -3  -6  -2 7.97085 1.21971   8
  -3  -6  -2 3.86342 3.11980   3
  -3  -6  -2 6.92702 3.15759   2
  -4  -6  -2 29.9481 2.49654   9
  -4  -6  -2 32.7408 3.44533  10
  -4  -6  -2 35.6334 4.31037  13
  -4  -6  -2 33.0675 5.14882  14
  -5  -6  -2 129.271 8.52759  10
  -5  -6  -2 137.961 9.86801  13
  -5  -6  -2 123.061 10.9284  14
  -6  -6  -2 155.075 11.1580  13
  -4   7   2 176.696 13.1211  17
  -3   7   2 180.378 13.7209  17
  -2   7   2 6.75005 1.21750   9
  -2   7   2 9.87397 3.02496  17
  -2   7   2 10.3861 1.99804  10
  -1   7   2 14.4519 1.58118   8
  -1   7   2 17.1502 2.35448  10
  -1   7   2 9.86774 4.05718   7
  -1   7   2 17.2218 3.33866  17
  -1   7   2 12.3155 1.80249   9
   0   7   2 -0.5248 3.57043   7
   0   7   2 -2.4961 2.08066   9
   0   7   2 -0.7799 1.31709   8
  -1  -7  -2 880.892 51.9548   5
   1   7   2 895.162 49.6544   8
   1   7   2 867.049 54.3208   7
  -2  -7  -2 70.4608 7.21576   5
  -2  -7  -2 79.4440 5.02261   8
  -3  -7  -2 8.85376 2.67555  13
  -3  -7  -2 3.27676 1.74842  10
  -3  -7  -2 5.98296 1.32409   9
  -3  -7  -2 6.69957 1.22040   8
  -4  -7  -2 23.7249 3.06626  10
  -4  -7  -2 23.9090 3.33361  13
  -4  -7  -2 25.9370 2.17247   9
  -5  -7  -2 117.309 7.49102  10
  -5  -7  -2 100.304 9.25295  14
  -5  -7  -2 119.107 8.47519  13
  -3   8   2 4.46093 1.84794  17
  -2   8   2 29.7470 2.48704   9
  -2   8   2 43.0082 3.71792  10
  -1   8   2 3.31406 1.36011   9
  -1   8   2 8.14792 2.73233  17
   0   8   2 248.239 15.9426   9
   0   8   2 293.372 15.1355   8
   0   8   2 249.844 19.4281  17
  -1  -8  -2 12.9141 1.86662   8
  -2  -8  -2 22.2426 2.55036   8
  -3  -8  -2 15.2118 2.72116  13
  -3  -8  -2 13.8646 1.70743   9
  -3  -8  -2 14.5015 1.46784   8
  -4  -8  -2 25.1036 4.12556  14
  -4  -8  -2 25.9205 3.44339  13
  -4  -8  -2 28.4063 2.23804   9
  -4  -8  -2 26.1031 3.12296  10
  -2   9   2 2.75374 1.52590  17
  -1   9   2 9.42065 2.29423  17
  -1   9   2 10.5473 2.12818  10
  -1   9   2 9.82719 1.32564   9
   0   9   2 153.182 9.30165   9
   0   9   2 155.683 8.69130   8
   0   9   2 139.867 11.3200  17
  -1  -9  -2 4.67385 1.36319   8
  -2  -9  -2 139.495 7.49995   8
   2   9   2 110.137 7.58693   8
  -3  -9  -2 8.21119 2.66742  14
  -3  -9  -2 8.37332 1.31490   9
   0  10   2 1.16362 1.01592   9
  -1 -10  -2 36.0734 2.77578   8
   1  10   2 35.5398 2.57151   8
  -2 -10  -2 29.7531 2.23901   8
   2  10   2 29.8036 2.37458   8
   1  10  -3 5.39805 1.76236  18
   1  10  -3 6.75399 0.99826   8
  -1 -10   3 6.97098 1.16202   8
   0  10  -3 0.30470 0.87200   9
   0  10  -3 3.36487 1.82236  18
  -3  -9   3 0.82110 1.23885   9
   2   9  -3 1.39014 1.24710   8
  -2  -9   3 0.80750 1.09718   8
   0   9  -3 7.99713 1.24810   8
   0   9  -3 8.27066 1.49687   9
  -1   9  -3 78.9754 6.45945  18
  -1   9  -3 86.6896 5.31643   9
  -2   9  -3 3.72964 1.76089  18
  -4  -8   3 31.0475 4.01162  14
  -4  -8   3 39.2276 3.28939  10
  -3  -8   3 144.129 8.35924   9
  -3  -8   3 123.719 11.1449  14
  -2  -8   3 107.874 6.62459   8
   1   8  -3 13.8495 1.64578   8
  -1  -8   3 12.4409 1.84398   8
   0   8  -3 73.4384 5.32164   9
   0   8  -3 84.4445 5.05823   8
  -1   8  -3 42.6933 4.88620  18
  -1   8  -3 33.9720 3.05734   9
  -2   8  -3 4.61901 1.07952   9
  -2   8  -3 4.89277 2.59320  18
  -3   8  -3 2.52824 1.91770  18
  -3   8  -3 1.30314 1.46328  17
  -5  -7   3 86.6811 7.22264  14
  -4  -7   3 -0.7742 2.31154  14
  -4  -7   3 -0.6546 1.56265  10
  -4  -7   3 0.05074 0.92996   9
  -3  -7   3 99.5863 10.0297  14
  -3  -7   3 112.425 6.77648   8
  -3  -7   3 134.496 7.35767   9
  -3  -7   3 114.438 8.06864  10
  -2  -7   3 73.3533 4.62057   8
  -2  -7   3 63.3451 4.91732   9
   1   7  -3 548.345 30.3301   8
  -1  -7   3 523.349 30.3626   8
   0   7  -3 3.08920 1.28547   8
  -1   7  -3 -1.1394 3.49472   7
  -1   7  -3 0.88290 1.34228   9
  -1   7  -3 0.88970 1.86051  10
  -1   7  -3 1.41658 1.09566   8
  -2   7  -3 1.60842 3.01744  18
  -2   7  -3 -0.2879 2.48094  17
  -2   7  -3 3.18846 1.79946  10
  -2   7  -3 1.06770 1.06119   9
  -3   7  -3 67.9023 6.38294  18
  -3   7  -3 82.0536 6.46114  17
  -4   7  -3 3.20154 1.49158  18
  -4   7  -3 4.44790 1.96052  17
  -5  -6   3 80.3281 5.35071  10
  -5  -6   3 74.2566 6.85233  14
  -4  -6   3 63.9335 5.13622  10
  -4  -6   3 72.2667 4.35911   9
  -4  -6   3 61.4256 6.47411  14
  -3  -6   3 33.4088 2.74494   9
  -3  -6   3 33.3340 3.40361  10
  -3  -6   3 27.6424 2.34167   8
  -3  -6   3 23.2005 3.93573  14
  -2  -6   3 2.96101 1.85012   9
  -2  -6   3 0.68671 3.36650   3
  -2  -6   3 1.92221 1.16733   8
   0   6  -3 270.913 15.4824   8
  -1   6  -3 58.8622 4.69034  10
  -1   6  -3 49.8134 6.97633   3
  -1   6  -3 62.5105 4.20624   9
  -1   6  -3 65.8826 6.47450   7
  -1   6  -3 57.7401 3.88560   8
  -1   6  -3 58.6674 6.27959   2
  -2   6  -3 2.14504 2.19044   2
  -3   6  -3 263.179 19.6048  17
  -3   6  -3 263.394 18.1704  16
  -3   6  -3 272.142 18.5136  18
  -4   6  -3 16.8721 2.63487  18
  -4   6  -3 24.7340 3.03864  16
  -4   6  -3 26.6276 3.60378  17
  -5   6  -3 13.2714 2.23642  17
  -5  -5   3 68.9143 6.20711  14
  -5  -5   3 59.7615 5.61033  13
  -5  -5   3 69.6391 4.67803  10
  -4  -5   3 110.748 10.0425  14
  -4  -5   3 123.275 7.18272   9
  -4  -5   3 116.008 7.98262  10
  -3  -5   3 395.817 27.9624   3
  -3  -5   3 378.457 31.9957  14
  -3  -5   3 434.343 24.5328   9
  -3  -5   3 401.717 25.0206   5
  -3  -5   3 456.827 26.1078  10
  -3  -5   3 402.120 28.4108   2
  -3  -5   3 413.667 23.2416   8
  -2  -5   3 640.279 43.3620   9
  -2  -5   3 795.167 41.2792   8
  -2  -5   3 714.228 48.3376   3
  -2  -5   3 770.443 43.0927   5
  -2  -5   3 755.324 49.4723   2
   0   5  -3 42.4005 5.16947   3
   0   5  -3 35.1629 4.45680   7
   0   5  -3 38.7245 5.09109   2
  -1   5  -3 17.1384 3.31967   7
  -1   5  -3 19.4464 3.73197   3
  -1   5  -3 15.7681 1.83765   8
  -1   5  -3 12.6069 2.93012   2
  -1   5  -3 12.0597 1.80561  10
  -1   5  -3 14.9608 1.57600   9
  -2   5  -3 437.294 28.6540   2
  -2   5  -3 409.865 26.8747   7
  -2   5  -3 410.476 25.0216   9
  -2   5  -3 414.623 30.5745  17
  -2   5  -3 454.479 26.6290  10
  -2   5  -3 456.980 28.5997  18
  -2   5  -3 377.646 28.3037  16
  -3   5  -3 50.6204 6.09728  18
  -3   5  -3 56.9264 4.42179  10
  -3   5  -3 56.4094 6.25395   7
  -3   5  -3 63.5624 5.39121  16
  -3   5  -3 58.1870 5.80917  17
  -4   5  -3 71.1847 6.30385  16
  -4   5  -3 74.6944 6.55830  17
  -4   5  -3 72.9157 6.50784  18
  -5   5  -3 9.92925 2.48183  17
  -5   5  -3 9.74396 2.44177  16
  -6  -4   3 62.9642 5.54520  14
  -5  -4   3 -2.2604 2.33552  14
  -5  -4   3 -2.7925 2.39555  13
  -5  -4   3 -1.5182 1.11471  10
  -4  -4   3 902.497 48.1792   9
  -4  -4   3 709.887 55.6461  15
  -4  -4   3 821.796 51.1532  10
  -4  -4   3 837.365 62.6938  14
  -4  -4   3 816.766 56.9689  13
  -3  -4   3 164.293 9.75471   8
  -3  -4   3 170.790 13.9388  14
  -3  -4   3 174.687 12.7388   3
  -3  -4   3 158.797 12.3807  13
  -3  -4   3 178.022 10.3727   9
  -3  -4   3 179.119 11.5011   5
  -3  -4   3 175.507 12.6356   2
  -3  -4   3 178.090 11.1765  10
  -2  -4   3 19.9301 3.16898   2
  -2  -4   3 22.5174 2.95507   5
  -2  -4   3 18.2944 1.92306   8
  -2  -4   3 20.3738 3.69300   3
  -1  -4   3 125.161 9.13241   2
  -1  -4   3 94.9860 6.89726   5
  -1  -4   3 96.6469 8.69559   3
   0   4  -3 21.7322 2.66905   7
   0   4  -3 23.8025 3.53353   3
   0  -4   3 13.8761 4.05658   1
  -1   4  -3 1018.16 67.9661   2
  -1   4  -3 1044.27 62.4618   7
  -1   4  -3 1013.22 66.3236   3
  -2   4  -3 81.8625 5.30043   9
  -2   4  -3 86.8241 7.03714  17
  -2   4  -3 92.4946 7.18669   7
  -2   4  -3 92.8870 6.76126   2
  -2   4  -3 91.2565 7.20182   3
  -2   4  -3 77.4367 5.80567  10
  -2   4  -3 87.8991 7.00024  18
  -3   4  -3 143.810 11.0563  17
  -3   4  -3 140.571 10.6127   7
  -3   4  -3 142.416 9.27624  10
  -3   4  -3 156.282 10.3248  16
  -3   4  -3 132.024 10.6126  18
  -4   4  -3 147.934 10.2677  16
  -4   4  -3 148.408 10.4830  18
  -4   4  -3 124.536 10.9180  17
  -5   4  -3 14.1921 2.92155  17
  -5   4  -3 21.1350 2.98873  16
  -5   4  -3 15.4535 2.38954  18
  -6  -3   3 12.8718 2.74605  13
  -6  -3   3 13.0932 2.17998  14
  -5  -3   3 10.9563 2.80339  13
  -5  -3   3 7.76564 1.12345  10
  -5  -3   3 3.88724 2.20540  15
  -5  -3   3 3.46804 2.52239  14
  -4  -3   3 29.0639 2.03339   9
  -4  -3   3 30.6551 4.61534  14
  -4  -3   3 25.5135 3.39407  15
  -4  -3   3 31.6537 2.97552  10
  -4  -3   3 33.1773 4.51445   5
  -4  -3   3 29.8615 4.11103  13
  -4  -3   3 35.2778 4.45145  12
  -3  -3   3 13.9491 2.89631   5
  -3  -3   3 19.9225 2.89238  12
  -3  -3   3 16.7151 2.68940  14
  -3  -3   3 19.6308 2.98715   2
  -3  -3   3 16.3920 3.21555   3
  -3  -3   3 18.2744 2.29689  13
  -3  -3   3 10.0286 3.80530   6
  -3  -3   3 15.5599 1.64208   9
  -3  -3   3 16.0864 1.78237  10
  -2  -3   3 163.855 12.3314   3
  -2  -3   3 167.733 12.3571   2
  -2  -3   3 186.061 11.0439   5
   1   3  -3 120.566 10.2028   1
   1   3  -3 106.984 10.7495   1
  -1  -3   3 103.446 10.2048   1
  -1  -3   3 127.721 9.32473   3
  -1  -3   3 123.088 10.2847   1
  -1  -3   3 131.296 7.72457   5
   0   3  -3 532.544 39.8809   1
   0   3  -3 611.692 34.3597   7
   0   3  -3 594.003 36.7920   3
   0  -3   3 544.372 39.9193   1
   0  -3   3 568.117 32.5358   5
   0  -3   3 549.191 39.8274   1
   0  -3   3 573.573 36.8368   3
   0  -3   3 525.355 37.6245   2
  -1   3  -3 379.217 31.7378   1
  -1   3  -3 492.558 30.1956   2
  -1   3  -3 473.761 27.8095   7
  -1   3  -3 452.133 29.5205   3
  -2   3  -3 9.94736 1.91706   2
  -2   3  -3 8.05163 1.84943   4
  -2   3  -3 9.40778 2.45077   7
  -2   3  -3 7.69253 2.14529   3
  -3   3  -3 78.5224 6.95692   7
  -3   3  -3 84.7804 6.74984  17
  -3   3  -3 83.4769 6.40602  16
  -3   3  -3 83.2261 5.37010  10
  -3   3  -3 66.1309 6.53640  18
  -3   3  -3 87.7098 6.80870  15
  -4   3  -3 133.972 11.4479  17
  -4   3  -3 171.720 10.8598  16
  -4   3  -3 148.892 11.2060  15
  -4   3  -3 139.149 11.0551   7
  -4   3  -3 153.116 10.9927  18
  -5   3  -3 8.57918 2.81730  17
  -5   3  -3 5.05152 2.48881  18
  -5   3  -3 12.5607 2.70477  16
  -6   3  -3 15.0734 2.88497  17
  -6  -2   3 27.5519 3.36142  13
  -6  -2   3 30.2550 3.89843  14
  -5  -2   3 311.443 21.4994  13
  -5  -2   3 287.782 21.0546  15
  -5  -2   3 304.274 23.5383  14
  -4  -2   3 10.7739 2.42561  15
  -4  -2   3 14.1636 2.52775  13
  -4  -2   3 12.8937 2.85651  12
  -4  -2   3 10.2427 1.38358  10
  -4  -2   3 9.67918 3.16094   5
  -4  -2   3 9.87373 4.26413   6
  -4  -2   3 7.16033 2.48361  14
  -3  -2   3 6.16580 2.05402  14
  -3  -2   3 5.10152 0.84952   9
  -3  -2   3 8.21195 2.13616  12
  -3  -2   3 6.38531 2.48349   5
  -3  -2   3 5.99915 1.88366  13
  -3  -2   3 4.27328 1.78571   2
  -3  -2   3 4.37491 1.16342  10
  -3  -2   3 4.68756 1.99840  15
  -3  -2   3 4.58340 2.28382   3
  -3  -2   3 4.79073 3.19474   6
  -2  -2   3 226.287 15.2464   2
  -2  -2   3 233.339 13.6048   5
  -2  -2   3 204.511 14.9832   3
   1   2  -3 3.19383 2.30040   1
   1   2  -3 1.78431 2.64274   1
   1   2  -3 0.47723 1.89848   3
   1   2  -3 1.85161 1.65647   2
  -1  -2   3 2.92207 1.50543   5
  -1  -2   3 -0.4846 2.42991   1
  -1  -2   3 0.83331 2.06759   3
  -1  -2   3 2.13456 2.36467   1
   0   2  -3 1208.94 72.8405   7
   0   2  -3 1269.00 82.9509   1
   0   2  -3 1315.91 79.5174   2
   0   2  -3 1204.58 77.4875   3
   0   2  -3 1176.24 83.0818   1
   0  -2   3 1112.91 69.1978   5
   0  -2   3 1149.08 77.4910   3
   0  -2   3 1255.04 83.0741   1
   0  -2   3 1149.02 79.4995   2
   0  -2   3 1218.54 83.0563   1
  -1   2  -3 0.34157 0.98552   3
  -1   2  -3 -0.2378 1.45987   2
  -1   2  -3 0.17335 1.76788   7
  -1   2  -3 0.88954 1.19006   2
  -1   2  -3 -0.4440 1.63253   3
  -1   2  -3 -0.8655 1.99803   1
  -1   2  -3 1.04194 2.01354   1
   1  -2   3 -0.3709 2.17994   1
   1  -2   3 -2.3120 2.27221   1
  -2   2  -3 163.689 10.1879   3
  -2   2  -3 163.498 10.1124   7
  -2   2  -3 130.372 10.2410   2
  -2   2  -3 132.583 11.0387   1
  -2   2  -3 135.035 9.95738   3
  -2   2  -3 160.977 9.68336   4
  -2   2  -3 164.570 10.3033   2
  -3   2  -3 37.9446 4.35277   4
  -3   2  -3 40.3913 4.21704  17
  -3   2  -3 42.0896 4.72465   7
  -3   2  -3 43.1635 3.99718  16
  -4   2  -3 51.6939 4.61123  16
  -4   2  -3 41.6196 4.67373  11
  -4   2  -3 51.8079 4.96283  18
  -4   2  -3 50.7600 5.09405  15
  -4   2  -3 52.9623 5.66983   7
  -4   2  -3 50.1390 4.89536  17
  -4   2  -3 46.1585 5.05592  14
  -5   2  -3 109.829 8.88101  17
  -5   2  -3 109.259 8.10711  16
  -5   2  -3 103.049 8.37135  15
  -5   2  -3 110.281 8.33355  18
  -6   2  -3 98.6495 7.22211  16
  -6   2  -3 87.6291 7.76670  17
  -6  -1   3 48.0182 4.50382  15
  -6  -1   3 53.2147 5.05988  14
  -5  -1   3 10.8358 2.74705  14
  -5  -1   3 8.07761 2.79963  13
  -5  -1   3 9.62913 2.54549  15
  -4  -1   3 197.490 15.6631   6
  -4  -1   3 199.985 14.2938  13
  -4  -1   3 171.587 12.7995   5
  -4  -1   3 190.757 12.3468  10
  -4  -1   3 196.847 15.4584  12
  -4  -1   3 206.892 15.6208  14
  -4  -1   3 197.513 14.0387  15
  -3  -1   3 107.709 9.03799   6
  -3  -1   3 102.196 8.34077  12
  -3  -1   3 102.648 7.70202  15
  -3  -1   3 96.1862 7.36893   3
  -3  -1   3 105.931 7.79958  13
  -3  -1   3 100.748 7.39299   5
  -3  -1   3 101.698 8.39838  14
  -3  -1   3 93.6471 7.37305   2
  -2  -1   3 537.903 37.6911   6
  -2  -1   3 576.383 32.2352   5
  -2  -1   3 519.248 35.6862   3
  -2  -1   3 567.658 36.5734   2
   1   1  -3 1579.42 103.534   1
   1   1  -3 1571.34 103.788   1
   1   1  -3 1418.72 96.8926   3
   1   1  -3 1431.27 99.4008   2
  -1  -1   3 1546.41 96.8778   3
  -1  -1   3 1513.16 99.3965   2
  -1  -1   3 1508.70 103.594   1
  -1  -1   3 1546.17 86.8721   5
  -1  -1   3 1477.74 103.481   1
   0   1  -3 4.79128 2.19931   1
   0   1  -3 3.39891 1.72386   3
   0   1  -3 3.05493 1.48942   2
   0   1  -3 4.47647 1.30466   7
   0  -1   3 4.92529 1.71616   3
   0  -1   3 3.32023 2.08875   1
   0  -1   3 3.22051 1.42667   2
   0  -1   3 5.46646 2.59424   1
  -1   1  -3 137.664 8.98075   2
  -1   1  -3 111.309 8.66645   3
  -1   1  -3 125.763 9.79209   1
  -1   1  -3 124.890 8.43292   7
  -1   1  -3 131.844 8.88076   3
  -1   1  -3 126.566 9.67319   1
   1  -1   3 128.841 9.76020   1
   1  -1   3 135.059 9.81714   1
  -2   1  -3 -0.7723 1.41083   1
  -2   1  -3 0.95442 1.08339   3
  -2   1  -3 0.74092 1.47854   4
  -2   1  -3 0.32996 0.91382   2
  -2   1  -3 0.80895 1.15871   2
  -2   1  -3 0.02278 0.90588   5
  -2   1  -3 0.65895 1.41683   1
  -2   1  -3 0.45592 0.96145   3
  -2   1  -3 0.57684 1.69922   7
   2  -1   3 0.61531 1.24492   1
   2  -1   3 -0.5319 1.35376   1
  -3   1  -3 96.3588 7.36340   4
  -3   1  -3 102.079 7.39976   7
  -4   1  -3 312.481 26.1542  14
  -4   1  -3 323.661 21.3220   4
  -4   1  -3 367.277 22.9035  18
  -4   1  -3 333.394 25.8519  12
  -4   1  -3 337.078 24.7452  11
  -4   1  -3 343.285 23.8920  13
  -4   1  -3 340.596 22.8217  16
  -4   1  -3 348.161 24.5974  17
  -4   1  -3 332.408 23.3862  15
  -4   1  -3 354.406 21.8025   7
  -5   1  -3 122.158 8.99797  16
  -5   1  -3 116.299 10.2289  14
  -5   1  -3 126.258 9.85866  11
  -5   1  -3 113.151 9.46269  13
  -5   1  -3 133.016 9.28131  18
  -5   1  -3 131.937 10.0163  17
  -5   1  -3 122.678 10.1047  12
  -5   1  -3 127.293 9.23674  15
  -6   1  -3 9.54374 3.10261  17
  -6   1  -3 11.2570 2.59730  18
  -6   0   3 -2.3907 2.14823  14
  -5   0   3 140.559 12.6478  13
  -5   0   3 193.075 12.5759  15
  -5   0   3 180.180 13.8212  14
  -4   0   3 74.4372 6.33099  15
  -4   0   3 79.7802 6.45976  13
  -4   0   3 73.7459 8.47176   6
  -4   0   3 65.7905 4.74060  10
  -4   0   3 63.1710 5.66852  16
  -4   0   3 78.0866 6.82822  14
  -3   0   3 1.06907 0.98831   2
  -3   0   3 3.39683 1.98569  13
  -3   0   3 2.90655 1.38074   2
  -3   0   3 1.37284 1.90399  14
  -3   0   3 4.10913 2.18901  12
  -3   0   3 2.12493 0.89663  10
  -3   0   3 1.46212 2.95959   6
  -3   0   3 0.89757 1.72920  15
  -3   0   3 0.94887 2.28078   5
  -2   0   3 754.236 46.6212   6
  -2   0   3 777.488 44.1599   3
  -2   0   3 611.805 45.2142   2
  -2   0   3 568.234 47.2914   1
  -2   0   3 660.976 45.2339   2
  -2   0   3 662.406 47.4094   1
  -2   0   3 749.426 39.8649   5
   1   0  -3 119.583 9.94389   1
   1   0  -3 129.785 9.88316   1
  -1   0   3 111.063 9.23709   6
  -1   0   3 134.495 8.90792   2
  -1   0   3 131.040 9.75241   1
  -1   0   3 122.595 8.81065   3
  -1   0   3 122.079 7.90460   5
   0   0  -3 2560.40 153.091   2
   0   0  -3 2283.60 158.999   1
   0   0  -3 2142.86 148.988   3
   0   0  -3 2272.14 158.958   1
   0   0   3 2501.29 158.993   1
   0   0   3 2212.95 148.980   3
  -1   0  -3 145.978 9.51558   7
  -1   0  -3 128.078 10.1498   2
  -1   0  -3 128.858 11.0038   1
  -1   0  -3 172.872 11.2022   1
  -1   0  -3 162.682 10.1821   3
  -1   0  -3 134.244 10.2656   2
  -1   0  -3 162.738 9.36878   4
   1   0   3 157.413 11.0770   1
  -2   0  -3 538.192 35.1545   1
  -2   0  -3 557.524 32.8137   3
  -2   0  -3 554.510 31.3210   7
  -2   0  -3 471.687 33.6450   2
  -2   0  -3 522.788 30.6060   4
  -2   0  -3 458.024 29.5397   5
   2   0   3 458.068 35.0968   1
   2   0   3 525.142 35.1261   1
  -3   0  -3 0.28060 2.18094   7
  -3   0  -3 -0.0412 1.47065   5
  -3   0  -3 -1.1181 2.04995   4
  -4   0  -3 96.3003 8.34562  14
  -4   0  -3 101.500 8.03262  17
  -4   0  -3 106.900 8.46419  12
  -4   0  -3 96.0788 7.62626  15
  -4   0  -3 103.126 7.72375  13
  -4   0  -3 113.529 7.75494  18
  -4   0  -3 102.713 8.18439   4
  -4   0  -3 95.8007 7.36652  16
  -4   0  -3 102.153 8.17905  11
  -5   0  -3 13.4341 2.56330  13
  -5   0  -3 13.0873 2.53576  14
  -5   0  -3 13.6826 2.73331  12
  -5   0  -3 14.5731 2.66146  18
  -5   0  -3 10.5019 2.54723  11
  -5   0  -3 13.7588 2.34248  16
  -5   0  -3 14.9674 3.17578  17
  -6   0  -3 2.57990 2.17705  12
  -6   0  -3 -1.2712 2.26913  13
  -6   0  -3 5.16870 2.66750  11
  -6   1   3 3.89394 2.11533  15
  -6   1   3 14.6849 2.71292  14
  -5   1   3 6.15843 2.31129  16
  -5   1   3 11.2137 3.01052  14
  -5   1   3 9.53612 2.49388  15
  -4   1   3 1.84995 2.03541  16
  -4   1   3 0.93591 2.14919  15
  -4   1   3 5.12952 2.60086  13
  -4   1   3 -0.3666 2.50931  14
  -4   1   3 2.51135 4.51968   6
  -3   1   3 68.3894 5.94445  14
  -3   1   3 60.1989 3.85577   9
  -3   1   3 61.0586 4.35522  10
  -3   1   3 63.4172 5.36342  15
  -3   1   3 65.8409 5.25929  16
  -3   1   3 68.6143 7.20627   6
  -3   1   3 68.1440 5.52023  13
  -2   1   3 520.572 36.7303   6
  -2   1   3 559.663 35.6039   2
  -2   1   3 574.195 34.7015   3
  -2   1   3 485.668 32.6687   7
   1  -1  -3 15.1611 2.93293   1
   1  -1  -3 28.1013 3.76543   1
  -1   1   3 27.0083 3.82182   1
  -1   1   3 19.1715 2.51330   3
  -1   1   3 28.9179 3.33448   2
  -1   1   3 25.4588 3.28519   1
  -1   1   3 24.4637 2.64588   3
  -1   1   3 18.8816 2.42059   2
  -1   1   3 26.3584 3.58292   6
   0  -1  -3 107.477 7.56947   3
   0  -1  -3 114.795 8.53624   1
   0  -1  -3 101.410 6.61079   4
   0   1   3 104.947 7.80639   2
   0   1   3 110.897 8.87274   1
   0   1   3 92.2357 7.60325   6
   0   1   3 108.797 7.59694   3
   0   1   3 113.016 8.57555   1
  -1  -1  -3 200.957 12.4679   4
  -1  -1  -3 205.450 13.4802   3
   1   1   3 190.235 13.4660   3
   1   1   3 183.896 13.8296   2
   1   1   3 232.000 14.8020   1
   1   1   3 207.703 14.8387   1
  -2  -1  -3 814.864 47.6404   3
  -2  -1  -3 701.170 51.1093   1
  -2  -1  -3 690.147 47.6155   3
  -2  -1  -3 725.095 48.8563   2
  -2  -1  -3 764.203 48.9589   2
  -2  -1  -3 766.098 44.1556   4
  -2  -1  -3 780.990 50.9865   1
  -2  -1  -3 679.168 42.8725   5
   2   1   3 775.160 51.0211   1
   2   1   3 711.694 51.0560   1
  -3  -1  -3 35.4983 3.65168   4
  -3  -1  -3 30.9944 3.38589   5
  -4  -1  -3 21.3990 2.83554  18
  -4  -1  -3 18.7723 2.80830  17
  -4  -1  -3 15.3349 2.75445   5
  -4  -1  -3 15.0348 2.24612  14
  -4  -1  -3 20.6930 2.84020  11
  -4  -1  -3 17.6388 2.67607  12
  -4  -1  -3 21.0679 3.84815   4
  -4  -1  -3 16.3045 2.35440  13
  -5  -1  -3 5.35070 2.83845  17
  -5  -1  -3 3.52729 2.23146  13
  -5  -1  -3 4.92939 2.40374  12
  -5  -1  -3 9.14843 2.27378  14
  -5  -1  -3 7.32759 2.56308  11
  -5  -1  -3 12.3816 2.82766  18
  -6  -1  -3 60.9117 6.08528  11
  -6  -1  -3 61.6450 5.48638  13
  -6  -1  -3 56.4809 5.62571  12
  -6   2   3 -1.9934 2.16491  15
  -5   2   3 46.6365 5.08059  15
  -5   2   3 46.7774 5.33928  14
  -5   2   3 46.1265 4.74360  16
  -4   2   3 105.241 8.48015  15
  -4   2   3 112.877 9.64671  14
  -4   2   3 98.6943 10.9351   6
  -4   2   3 112.474 8.34263  16
  -3   2   3 141.787 11.8062   6
  -3   2   3 113.077 10.5791  17
  -3   2   3 151.253 10.2995  15
  -3   2   3 153.335 11.6281  14
  -3   2   3 149.517 10.1200  16
  -2   2   3 76.3192 7.10477   6
  -2   2   3 74.7612 6.15993   2
  -2   2   3 78.4992 6.11634   3
  -2   2   3 81.1980 6.19185   7
   1  -2  -3 229.721 17.8070   1
   1  -2  -3 233.223 17.4831   1
  -1   2   3 220.714 17.5877   1
  -1   2   3 275.819 16.1234   3
  -1   2   3 222.158 17.3493   1
  -1   2   3 246.090 16.4598   2
  -1   2   3 241.586 16.9070   6
   0  -2  -3 85.2837 7.03110   2
   0  -2  -3 90.8693 8.20628   1
   0  -2  -3 101.845 8.05052   1
   0  -2  -3 79.1048 5.63383   4
   0  -2  -3 92.6648 6.89184   3
   0   2   3 83.6310 7.08089   2
   0   2   3 90.0536 6.78197   6
   0   2   3 97.8058 7.94847   1
   0   2   3 90.5816 8.32206   1
   0   2   3 92.2544 6.90306   3
  -1  -2  -3 9436.83 553.142   4
  -1  -2  -3 9546.62 639.836   1
  -1  -2  -3 9999.99 639.653   1
  -1  -2  -3 9437.20 601.660   3
   1   2   3 9852.75 640.223   1
   1   2   3 9379.44 639.726   1
   1   2   3 8646.27 600.595   3
   1   2   3 8878.36 616.457   2
  -2  -2  -3 27.8668 3.83097   1
  -2  -2  -3 27.9242 2.95531   5
  -2  -2  -3 24.8093 3.38956   1
  -2  -2  -3 24.3509 3.25186   3
  -2  -2  -3 27.6265 2.97765   4
  -2  -2  -3 20.9300 2.48601   2
  -2  -2  -3 22.0385 2.79807   3
  -2  -2  -3 22.8947 3.35203   2
   2   2   3 27.4291 3.42401   1
   2   2   3 22.6357 3.57573   1
  -3  -2  -3 3.29583 1.42379   3
  -3  -2  -3 3.85282 2.39920   4
  -3  -2  -3 3.69760 2.11454   5
  -3  -2  -3 2.15050 0.90523   3
  -3  -2  -3 3.57254 1.35177   2
  -3  -2  -3 3.11808 1.01429   2
  -4  -2  -3 90.2267 7.77583  14
  -4  -2  -3 83.7455 6.07910  10
  -4  -2  -3 99.3182 8.07430  12
  -4  -2  -3 88.6221 8.38349   4
  -4  -2  -3 98.1593 7.14436   5
  -4  -2  -3 97.0423 7.38551  13
  -4  -2  -3 104.613 7.43129  18
  -4  -2  -3 94.9804 7.76360  11
  -5  -2  -3 122.064 9.93206  12
  -5  -2  -3 112.085 9.56789  11
  -5  -2  -3 112.379 9.72451  14
  -5  -2  -3 124.663 9.13735  13
  -6  -2  -3 163.703 11.0689  13
  -6  -2  -3 133.155 11.8565  12
  -5   3   3 182.075 12.1714  16
  -5   3   3 159.909 12.3479  15
  -4   3   3 352.046 26.8975  14
  -4   3   3 348.235 23.3631  16
  -4   3   3 348.581 23.9581  15
  -4   3   3 326.164 25.0740  17
  -3   3   3 7.59398 2.26651  15
  -3   3   3 8.99178 2.37757  16
  -3   3   3 14.9946 5.08605   6
  -3   3   3 10.3930 2.84247  14
  -3   3   3 5.77327 2.16705  17
  -3   3   3 7.63911 1.57890  10
  -2   3   3 507.856 33.6945   6
  -2   3   3 454.460 32.2728   2
  -2   3   3 509.386 30.1520   7
  -2   3   3 458.798 31.4488   3
  -1   3   3 1.41612 2.16393   2
  -1   3   3 0.48860 2.09457   3
  -1   3   3 1.58740 2.53077   6
   0  -3  -3 68.6881 6.22401   2
   0  -3  -3 74.4349 7.17324   1
   0  -3  -3 72.5105 7.70988   1
   0  -3  -3 70.7927 6.19240   3
   0   3   3 74.6941 7.03993   1
   0   3   3 60.8645 7.02675   1
   0   3   3 77.4358 6.07600   3
   0   3   3 75.5715 6.53071   2
   0   3   3 76.4309 6.09659   6
  -1  -3  -3 769.448 48.7694   2
  -1  -3  -3 728.201 51.3451   1
  -1  -3  -3 768.132 51.0469   1
  -1  -3  -3 773.401 47.3606   3
  -1  -3  -3 706.991 43.3978   4
   1   3   3 694.572 47.2970   3
   1   3   3 712.836 51.2011   1
   1   3   3 728.244 51.0435   1
   1   3   3 697.962 48.6577   2
  -2  -3  -3 292.841 18.5697   5
  -2  -3  -3 310.274 19.0681   4
  -2  -3  -3 315.400 20.3941   3
  -2  -3  -3 310.013 21.1093   2
  -3  -3  -3 4.97390 2.42651   5
  -3  -3  -3 7.20191 2.89512   4
  -3  -3  -3 9.00920 2.07919   3
  -3  -3  -3 8.04551 2.13500   2
  -4  -3  -3 3.29405 2.25349  13
  -4  -3  -3 2.92415 2.67771   5
  -4  -3  -3 2.46310 1.99326  12
  -4  -3  -3 3.07741 1.20796  10
  -4  -3  -3 4.42827 1.82806  14
  -4  -3  -3 2.19271 2.29349  11
  -5  -3  -3 773.748 56.0266  12
  -5  -3  -3 745.932 56.7282  14
  -5  -3  -3 702.214 53.4665  11
  -6  -3  -3 177.430 11.7390  13
  -6  -3  -3 139.225 12.5090  12
  -5   4   3 3.34510 1.88359  15
  -5   4   3 6.16786 2.16141  16
  -4   4   3 11.5735 2.56367  16
  -4   4   3 13.8547 3.01031  17
  -4   4   3 16.9749 3.12966  15
  -3   4   3 51.3458 5.64671  17
  -3   4   3 54.2570 5.10046  16
  -3   4   3 52.1558 4.28985  10
  -3   4   3 55.6045 5.57720  15
  -3   4   3 41.9291 6.89438   6
  -2   4   3 26.2101 4.32107   7
  -2   4   3 30.3110 3.47058  16
  -2   4   3 30.6567 2.54303   9
  -2   4   3 26.4362 4.24160  17
  -2   4   3 28.2477 3.83819  15
  -2   4   3 31.0221 3.46463  10
  -2   4   3 34.9246 4.48435   2
  -2   4   3 46.7738 6.07230   6
  -2   4   3 33.9992 3.82674   3
  -1   4   3 500.268 31.6126   3
  -1   4   3 446.712 32.4350   2
  -1   4   3 492.545 33.4028   6
   0  -4  -3 129.235 12.4611   1
   0   4   3 170.727 11.0593   3
  -1  -4  -3 18.7568 3.01569   3
  -1  -4  -3 9.77947 4.18992   1
  -1  -4  -3 19.9521 3.59022   2
   1   4   3 11.5677 3.90283   1
  -2  -4  -3 35.8551 4.28605   2
  -2  -4  -3 30.7496 3.81684   5
  -2  -4  -3 28.9386 3.51300   3
  -3  -4  -3 3.06508 0.76131   8
  -3  -4  -3 4.03099 2.30904   2
  -3  -4  -3 3.55818 2.14643  13
  -3  -4  -3 3.06151 2.75966   5
  -3  -4  -3 4.90557 1.81919  12
  -3  -4  -3 5.01921 2.39548   3
  -3  -4  -3 5.26112 1.51121  10
  -3  -4  -3 3.56538 2.16200  11
  -3  -4  -3 3.53022 0.98828   9
  -4  -4  -3 180.418 12.1701   3
  -4  -4  -3 177.632 12.3212   2
  -4  -4  -3 181.795 14.0049  12
  -4  -4  -3 182.667 13.6189  11
  -4  -4  -3 166.544 11.4157  10
  -4  -4  -3 178.844 10.5380   9
  -4  -4  -3 171.169 14.1250  14
  -4  -4  -3 176.689 13.1418  13
  -5  -4  -3 25.7823 3.39912  13
  -5  -4  -3 23.7175 2.34520  10
  -5  -4  -3 22.0358 3.71822  14
  -5  -4  -3 26.2253 3.37952  12
  -6  -4  -3 9.33301 2.66895  13
  -6  -4  -3 14.0115 2.49721  12
  -5   5   3 27.1688 2.74541  16
  -4   5   3 4.69641 2.26895  16
  -4   5   3 9.70060 3.04069  17
  -4   5   3 2.69742 2.84872  15
  -3   5   3 54.4638 5.29333  16
  -3   5   3 58.5458 4.59678  10
  -3   5   3 54.2852 6.19145  17
  -3   5   3 55.5602 6.10753  15
  -2   5   3 12.8214 2.09805  10
  -2   5   3 8.39283 2.84478   3
  -2   5   3 8.70525 2.78699  15
  -2   5   3 9.93592 2.15420  16
  -2   5   3 11.3460 1.45582   9
  -2   5   3 11.6211 4.21606   7
  -2   5   3 9.24616 3.28430   2
  -2   5   3 6.87970 3.08447  17
  -1   5   3 27.8955 2.73096   9
  -1   5   3 44.4645 5.14751   7
  -1   5   3 30.4164 2.50709   8
  -1   5   3 30.2606 4.29465   2
  -1   5   3 29.6219 3.86841   3
  -1   5   3 27.1346 2.85728  10
   0   5   3 -0.1377 2.37319   3
   0   5   3 0.58784 2.87343   2
  -2  -5  -3 61.3824 6.24393   3
  -2  -5  -3 63.1523 6.70873   2
  -2  -5  -3 60.1146 4.01206   8
  -2  -5  -3 61.6313 4.39030   9
  -2  -5  -3 65.1765 6.14143   5
  -3  -5  -3 385.564 21.8796   8
  -3  -5  -3 384.272 27.4067  13
  -3  -5  -3 388.486 26.0654   3
  -3  -5  -3 377.263 24.5822  10
  -3  -5  -3 402.616 24.0268   5
  -3  -5  -3 395.828 26.8967   2
  -3  -5  -3 389.039 23.0973   9
  -4  -5  -3 884.554 60.8891  13
  -4  -5  -3 851.415 66.8451  14
  -4  -5  -3 877.321 54.6031  10
  -4  -5  -3 832.922 51.6450   5
  -4  -5  -3 885.544 51.4392   9
  -4  -5  -3 901.548 65.7821  12
  -5  -5  -3 1.76157 1.24349  10
  -5  -5  -3 1.83306 2.01569  12
  -5  -5  -3 2.71541 2.43145  14
  -5  -5  -3 0.35828 2.34856  13
  -6  -5  -3 83.6263 6.39182  13
  -6  -5  -3 75.0416 6.57471  12
  -4   6   3 2.10869 1.80696  17
  -4   6   3 2.48545 1.72535  16
  -3   6   3 3.74313 1.80548  10
  -3   6   3 1.98168 2.86195  17
  -3   6   3 3.68758 2.45218  16
  -2   6   3 1299.77 85.3043   7
  -2   6   3 1370.63 92.1010  16
  -2   6   3 1495.87 99.5435  17
  -2   6   3 1391.54 86.8097  10
  -2   6   3 1389.18 81.8663   9
  -1   6   3 -0.1920 2.64708   3
  -1   6   3 -0.8007 1.37587   9
  -1   6   3 -0.3441 1.82846  10
  -1   6   3 -0.1303 3.70404   7
  -1   6   3 -2.3157 3.07446   2
  -1   6   3 -0.6850 1.17970   8
   0   6   3 0.04773 2.74156   3
   0   6   3 0.77063 1.24472   8
   0   6   3 -1.5202 3.35482   7
   0   6   3 1.55311 3.17731   2
  -2  -6  -3 151.919 10.1689   9
  -2  -6  -3 152.618 12.5249   3
  -2  -6  -3 171.118 11.7617   5
  -2  -6  -3 161.750 13.0609   2
  -2  -6  -3 184.951 9.70228   8
  -3  -6  -3 85.3129 7.22432  13
  -3  -6  -3 76.9270 6.22806  10
  -3  -6  -3 84.1327 5.09456   8
  -3  -6  -3 87.8501 7.77588   5
  -3  -6  -3 82.4597 5.49562   9
  -3  -6  -3 83.6208 8.03077   2
  -4  -6  -3 148.276 8.76814   9
  -4  -6  -3 144.922 9.61811  10
  -4  -6  -3 149.080 11.0029  13
  -4  -6  -3 132.585 11.9323  14
  -5  -6  -3 50.5719 5.07924  13
  -5  -6  -3 51.7818 3.94588  10
  -6  -6  -3 2.51806 1.82898  13
  -3   7   3 130.530 11.4978  17
  -3   7   3 169.178 9.90002  10
  -2   7   3 10.5840 3.19624  17
  -2   7   3 12.0320 2.18856  10
  -2   7   3 11.7516 1.46201   9
  -1   7   3 69.0394 4.84985   9
  -1   7   3 68.1236 4.36297   8
  -1   7   3 66.5787 6.80584  17
  -1   7   3 68.4934 5.43356  10
   0   7   3 -0.2785 1.51192   9
   0   7   3 -0.7989 3.26040   7
   0   7   3 0.66036 1.34706   8
  -1  -7  -3 12.9641 3.92185   5
   1   7   3 6.99787 1.61755   8
   1   7   3 8.04109 3.77967   7
  -2  -7  -3 61.1256 4.23162   8
  -3  -7  -3 23.0190 2.66285   9
  -3  -7  -3 21.7518 2.21569   8
  -3  -7  -3 26.9301 3.34308  10
  -4  -7  -3 5.45671 2.63770  13
  -4  -7  -3 5.12214 1.70047  10
  -4  -7  -3 3.75291 1.04463   9
  -4  -7  -3 5.28497 2.53665  14
  -5  -7  -3 73.5313 6.31752  13
  -5  -7  -3 81.8511 5.53612  10
  -3   8   3 192.632 14.1387  17
  -2   8   3 62.2648 4.48021  10
  -2   8   3 55.0630 5.14909  17
  -2   8   3 45.7764 3.33966   9
  -1   8   3 12.6389 2.30025  10
  -1   8   3 7.77777 1.47670   9
  -1   8   3 10.8482 2.80195  17
   0   8   3 6.37818 1.43512   8
   0   8   3 3.92690 1.40367   9
  -1  -8  -3 225.800 12.9650   8
   1   8   3 217.587 12.8823   8
  -2  -8  -3 17.3225 1.95771   8
  -3  -8  -3 3.09902 1.38955   9
  -3  -8  -3 2.58960 1.07058   8
  -3  -8  -3 2.07579 2.39983  13
  -4  -8  -3 15.0225 2.71943  14
  -4  -8  -3 11.9057 1.91148  10
  -2   9   3 2.72676 1.68689  17
  -1   9   3 2.41510 1.88473  17
  -1   9   3 0.19043 1.03895   9
   0   9   3 192.288 11.2003   9
   0   9   3 187.629 10.5402   8
   0   9   3 170.538 13.6218  17
  -1  -9  -3 66.1869 4.39347   8
   1   9   3 60.2245 4.26208   8
  -2  -9  -3 7.85648 1.37812   8
  -3  -9  -3 3.63783 2.22054  14
  -3  -9  -3 3.42544 1.29000   9
   0  10   3 1.81927 0.82412   9
  -1 -10  -3 8.89907 1.25698   8
   1  10   3 13.1947 1.47512   8
  -2 -10  -3 7.33272 1.06274   8
   2  10   3 7.78371 1.16361   8
  -3  -9   4 14.9201 1.55040   9
  -3  -9   4 16.5630 2.35157  14
   2   9  -4 -0.5452 1.07631   8
  -2  -9   4 0.49422 2.35552  14
  -2  -9   4 0.16137 0.95090   8
   1   9  -4 20.6544 2.19339   8
  -1  -9   4 20.0684 1.96941   8
   0   9  -4 3.43967 1.16397   9
   0   9  -4 4.47628 1.03558   8
   0   9  -4 5.20304 2.33918  18
  -1   9  -4 193.956 11.1832   9
  -1   9  -4 180.400 12.8071  18
  -1   9  -4 182.340 12.0198  10
  -2   9  -4 58.7172 4.63260  18
  -4  -8   4 25.2249 2.80376  10
  -4  -8   4 34.0268 3.34142  14
  -3  -8   4 4.64492 2.99381  14
  -3  -8   4 5.86885 1.38087   9
  -2  -8   4 4.25451 1.36921   8
   1   8  -4 5.19771 1.37103   8
  -1  -8   4 5.92923 1.60641   8
   0   8  -4 1.13662 1.26049   8
   0   8  -4 0.69249 1.30944   9
  -1   8  -4 42.1471 4.88359  18
  -1   8  -4 43.1709 3.86092  10
  -1   8  -4 37.7221 3.18989   9
  -2   8  -4 4.41973 2.50965  18
  -2   8  -4 3.10956 0.97809   9
  -3   8  -4 16.9699 2.36815  18
  -4  -7   4 21.0946 2.33663  10
  -4  -7   4 21.8646 3.59914  14
  -4  -7   4 24.1358 1.88884   9
  -3  -7   4 105.089 6.17238   9
  -3  -7   4 92.9636 5.60216   8
  -3  -7   4 87.5525 8.47823  14
  -2  -7   4 2.80573 1.39122   8
  -2  -7   4 3.94313 1.50207   9
   1   7  -4 61.0074 4.14032   8
  -1  -7   4 53.0389 4.18687   8
   0   7  -4 1092.08 61.2529   8
  -1   7  -4 -0.1135 1.77179  10
  -1   7  -4 0.78714 1.12352   8
  -1   7  -4 0.12072 1.32240   9
  -2   7  -4 43.0368 5.13324  18
  -2   7  -4 40.4572 3.12674   9
  -2   7  -4 44.6785 3.96284  10
  -3   7  -4 3.75320 2.76979  18
  -3   7  -4 7.44566 2.33826  17
  -4   7  -4 43.4821 3.83129  17
  -4   7  -4 37.6373 3.72604  18
  -5  -6   4 200.701 12.3424  10
  -5  -6   4 188.943 15.2681  14
  -4  -6   4 31.2442 4.63954  14
  -4  -6   4 39.0343 2.66807   9
  -4  -6   4 35.6803 3.66098  10
  -3  -6   4 1.24680 1.12640   9
  -3  -6   4 1.23057 1.69798  10
  -3  -6   4 2.30468 2.79393  14
  -3  -6   4 0.42707 0.83688   8
  -2  -6   4 -0.1315 1.25905   8
  -2  -6   4 0.50449 1.33489   9
  -1  -6   4 42.2264 3.27324   8
   0   6  -4 72.2680 4.78008   8
  -1   6  -4 7.23433 3.30416   7
  -1   6  -4 10.8589 1.43124   8
  -1   6  -4 11.3534 1.99536  10
  -1   6  -4 6.81752 2.93644   2
  -1   6  -4 12.5433 1.61903   9
  -1   6  -4 6.07804 3.50093   3
  -2   6  -4 19.4051 2.36393  10
  -2   6  -4 24.1896 3.19936  17
  -2   6  -4 14.5656 3.57379   7
  -2   6  -4 22.3131 3.73967  18
  -2   6  -4 20.5183 2.24895   9
  -3   6  -4 101.785 7.29806  10
  -3   6  -4 100.779 8.14348  16
  -3   6  -4 122.893 8.93817  17
  -3   6  -4 109.001 8.86387  18
  -4   6  -4 436.340 31.5063  17
  -5  -5   4 28.2396 2.58807  10
  -5  -5   4 25.2004 3.88466  14
  -4  -5   4 38.7147 3.63382  10
  -4  -5   4 31.6733 4.71448  14
  -4  -5   4 35.7645 2.61537   9
  -3  -5   4 9.23023 2.88289  14
  -3  -5   4 8.48755 1.12050   8
  -3  -5   4 7.43410 3.00518   5
  -3  -5   4 10.5407 3.57777   2
  -3  -5   4 10.3579 1.49659   9
  -3  -5   4 8.53462 1.87516  10
  -2  -5   4 995.608 54.8731   8
  -2  -5   4 1031.92 57.7791   9
  -2  -5   4 901.488 65.3580   2
  -1  -5   4 0.28515 0.92632   8
   0   5  -4 217.586 12.2474   8
   0   5  -4 206.920 15.4199   2
  -1   5  -4 12.7139 3.40570   3
  -1   5  -4 12.5192 1.53064   9
  -1   5  -4 11.2466 2.79254   2
  -1   5  -4 13.1401 1.39662   8
  -1   5  -4 10.6371 1.76042  10
  -1   5  -4 13.5968 3.27150   7
  -2   5  -4 33.1947 4.47687   7
  -2   5  -4 37.5074 4.77944  18
  -2   5  -4 35.3769 4.38181   2
  -2   5  -4 32.9834 4.08721  16
  -2   5  -4 37.4661 2.88888   9
  -2   5  -4 41.2241 4.72553   3
  -2   5  -4 43.7360 3.46458  10
  -3   5  -4 12.8585 2.75495  17
  -3   5  -4 18.6289 2.94655  16
  -3   5  -4 11.0369 1.74972  10
  -3   5  -4 9.19191 3.25506  18
  -3   5  -4 6.44493 3.15753   7
  -4   5  -4 37.3710 4.37411  16
  -4   5  -4 32.0200 4.18109  17
  -4   5  -4 21.8467 3.84102  18
  -5   5  -4 191.729 13.7597  18
  -5   5  -4 211.445 15.0239  17
  -5  -4   4 12.9391 1.47368  10
  -5  -4   4 8.39530 2.67666  13
  -5  -4   4 14.2516 2.83249  14
  -4  -4   4 85.9001 7.89934  14
  -4  -4   4 99.9100 5.41173   9
  -4  -4   4 84.9087 7.07886  13
  -4  -4   4 83.4174 6.19280  10
  -4  -4   4 74.3284 7.33154  15
  -3  -4   4 1.18045 2.55483   2
  -3  -4   4 2.52716 2.33995  14
  -3  -4   4 1.19090 1.04848   9
  -3  -4   4 -0.0933 1.50373  10
  -3  -4   4 0.11747 2.44916   5
  -3  -4   4 4.23734 3.17669   3
  -3  -4   4 1.61634 0.81063   8
  -3  -4   4 -2.8209 4.07504   6
  -2  -4   4 0.15289 2.96366   3
  -2  -4   4 0.64930 1.01577   9
  -2  -4   4 2.83796 2.12586   5
  -2  -4   4 1.92969 3.15490   2
  -2  -4   4 0.21244 0.99529   8
  -1  -4   4 0.28964 3.07103   3
  -1  -4   4 0.59260 1.83617   2
   0   4  -4 567.192 36.6038   7
   0   4  -4 587.657 39.3620   3
   0   4  -4 643.110 40.3332   2
  -1   4  -4 2.83541 2.08264   2
  -1   4  -4 4.35478 2.55565   3
  -1   4  -4 3.54453 2.47996   7
  -2   4  -4 149.826 10.8488   3
  -2   4  -4 150.859 9.57517  10
  -2   4  -4 152.970 10.6893   2
  -2   4  -4 150.192 8.90880   9
  -2   4  -4 146.235 11.1998  17
  -2   4  -4 124.721 10.3465  16
  -2   4  -4 160.088 10.6831  18
  -2   4  -4 147.300 10.2950   4
  -2   4  -4 151.082 10.6087   7
  -3   4  -4 538.369 35.1122  18
  -3   4  -4 477.141 32.7809   7
  -3   4  -4 530.559 32.7689  10
  -3   4  -4 538.141 35.0170  16
  -3   4  -4 528.179 37.7203  17
  -4   4  -4 124.023 8.23813  16
  -4   4  -4 86.3676 8.73943  18
  -4   4  -4 108.456 8.78004  17
  -5   4  -4 3.56931 2.52646  17
  -5   4  -4 5.18963 2.53798  16
  -5   4  -4 0.74680 2.42933  18
  -6  -3   4 4.30282 1.82889  14
  -5  -3   4 143.894 8.22956  10
  -5  -3   4 108.471 9.67875  15
  -5  -3   4 126.624 9.80484  13
  -5  -3   4 130.479 10.6860  14
  -4  -3   4 2.49502 2.39644  13
  -4  -3   4 0.62639 0.79754   9
  -4  -3   4 -0.4292 3.23776   5
  -4  -3   4 1.84736 2.48029  15
  -4  -3   4 1.85544 1.45480  10
  -4  -3   4 3.54657 2.34437  14
  -3  -3   4 1730.63 99.1564  10
  -3  -3   4 1505.34 105.081   2
  -3  -3   4 1411.52 93.5642   9
  -3  -3   4 1651.02 121.264  14
  -3  -3   4 1697.38 92.2667   5
  -3  -3   4 1660.64 102.681   3
  -3  -3   4 1551.97 107.996   6
  -3  -3   4 1523.21 110.242  13
  -2  -3   4 33.2744 4.06860   2
  -2  -3   4 29.5222 4.12260   3
  -2  -3   4 25.8524 3.11197   5
   1   3  -4 446.807 38.7562   1
  -1  -3   4 580.853 31.5279   5
  -1  -3   4 599.652 35.6588   3
  -1  -3   4 572.316 36.3293   2
  -1  -3   4 484.005 38.4303   1
   0   3  -4 -0.7018 1.75919   1
   0   3  -4 -0.0368 2.60377   1
   0   3  -4 -0.6469 1.73120   7
   0   3  -4 -3.0321 2.45456   3
   0  -3   4 -0.4650 3.03613   1
   0  -3   4 2.32243 2.55663   3
   0  -3   4 -0.2467 2.64868   1
  -1   3  -4 977.403 65.5435   3
  -1   3  -4 1039.68 67.2122   2
  -1   3  -4 1029.33 61.7658   7
  -2   3  -4 29.1385 4.13409   3
  -2   3  -4 32.6316 3.59187   2
  -2   3  -4 39.6901 4.06321   7
  -2   3  -4 36.5046 4.33538   4
  -3   3  -4 150.870 10.7239  16
  -3   3  -4 149.794 9.74543  10
  -3   3  -4 152.550 10.8406   7
  -3   3  -4 161.345 11.6158  17
  -3   3  -4 142.042 11.5710  11
  -3   3  -4 160.341 10.9786  18
  -4   3  -4 5.02371 3.57204   7
  -4   3  -4 6.64070 2.91747  18
  -4   3  -4 8.88210 2.40477  17
  -4   3  -4 6.40971 2.13545  11
  -5   3  -4 20.3717 3.39131  18
  -5   3  -4 29.6087 4.30768  17
  -5   3  -4 33.6266 3.46768  16
  -6   3  -4 159.337 12.0825  17
  -6  -2   4 3.52790 2.02745  14
  -5  -2   4 4.93848 2.52852  15
  -5  -2   4 13.2520 2.98186  13
  -5  -2   4 11.3599 2.69599  14
  -4  -2   4 728.881 55.5138   6
  -4  -2   4 842.531 61.2313  14
  -4  -2   4 808.677 55.7237  13
  -4  -2   4 813.456 49.9014  10
  -4  -2   4 793.850 54.5381  15
  -3  -2   4 217.891 13.7026   5
  -3  -2   4 189.417 16.2863   6
  -3  -2   4 214.509 13.5418  10
  -3  -2   4 211.771 12.6676   9
  -3  -2   4 218.958 14.8614   3
  -3  -2   4 197.404 15.1287  15
  -3  -2   4 239.257 14.8979   2
  -3  -2   4 208.555 15.1947  13
  -3  -2   4 212.021 16.6998  14
  -2  -2   4 737.171 41.3731   5
  -2  -2   4 693.057 46.0830   3
  -2  -2   4 668.345 47.1007   2
  -2  -2   4 734.221 48.5100   6
   1   2  -4 26.9065 4.81197   1
   1   2  -4 21.7937 3.91008   1
  -1  -2   4 25.3928 4.13901   1
  -1  -2   4 27.9566 4.33518   1
  -1  -2   4 29.5516 3.20255   5
  -1  -2   4 31.9639 3.89563   2
  -1  -2   4 34.0576 4.61181   3
   0   2  -4 618.068 47.3976   1
   0   2  -4 652.593 41.0665   7
   0   2  -4 665.443 47.1839   1
   0   2  -4 731.521 44.9920   2
   0   2  -4 705.768 43.9406   3
   0  -2   4 758.283 48.0253   1
   0  -2   4 631.546 44.9530   2
   0  -2   4 670.482 43.9411   3
   0  -2   4 659.652 47.3119   1
  -1   2  -4 814.701 49.8988   3
  -1   2  -4 681.321 53.4038   1
  -1   2  -4 865.077 51.1463   2
  -1   2  -4 826.144 47.0151   7
   1  -2   4 692.280 53.6122   1
   1  -2   4 742.588 53.6350   1
  -2   2  -4 165.688 11.7184   3
  -2   2  -4 178.879 11.3148   4
  -2   2  -4 176.375 11.4835   7
  -3   2  -4 42.4085 5.04386   4
  -3   2  -4 45.1257 5.21161   7
  -3   2  -4 49.5300 4.72781  18
  -3   2  -4 49.2080 4.68782  15
  -3   2  -4 48.9644 4.36467  16
  -3   2  -4 47.3611 3.39530  10
  -3   2  -4 46.6054 4.65983  17
  -4   2  -4 26.1588 4.04474  11
  -4   2  -4 39.3087 4.37677  15
  -4   2  -4 36.2901 3.86614  16
  -4   2  -4 28.4073 4.37731   7
  -4   2  -4 20.7195 3.35763  18
  -4   2  -4 33.5835 4.04700  17
  -5   2  -4 222.182 18.0314  11
  -5   2  -4 253.212 16.9442  18
  -5   2  -4 246.182 18.1401  17
  -5   2  -4 252.948 16.7947  16
  -6   2  -4 3.90118 1.72381  18
  -6   2  -4 5.95061 3.04494  17
  -6  -1   4 116.488 8.93725  14
  -6  -1   4 103.475 8.06343  15
  -5  -1   4 51.3811 5.48155  15
  -5  -1   4 49.8776 5.45534  14
  -5  -1   4 49.7688 5.27919  13
  -4  -1   4 198.050 13.9553  13
  -4  -1   4 182.374 15.6676   6
  -4  -1   4 182.350 11.9855  10
  -4  -1   4 185.286 13.7052  15
  -4  -1   4 192.868 15.1073  14
  -3  -1   4 506.101 35.7759  13
  -3  -1   4 511.707 30.1884   9
  -3  -1   4 512.424 33.4976   3
  -3  -1   4 507.576 32.0039  10
  -3  -1   4 512.958 35.9002   6
  -3  -1   4 512.763 39.2649  14
  -3  -1   4 496.397 34.9920  15
  -3  -1   4 507.059 30.4893   5
  -3  -1   4 539.332 34.2315   2
  -2  -1   4 431.529 27.6579   3
  -2  -1   4 438.096 24.9378   5
  -2  -1   4 350.217 29.0964   6
  -2  -1   4 457.526 28.2065   2
   1   1  -4 653.774 43.3707   1
  -1  -1   4 629.806 35.6444   5
  -1  -1   4 572.015 40.7491   2
  -1  -1   4 637.122 43.0635   1
  -1  -1   4 673.260 39.8933   3
  -1  -1   4 517.417 42.6886   1
   0   1  -4 245.943 17.6681   1
   0   1  -4 249.345 16.4807   2
   0   1  -4 249.770 18.0900   1
   0   1  -4 236.544 16.2641   3
   0  -1   4 248.869 17.9348   1
   0  -1   4 227.780 16.2071   3
   0  -1   4 229.833 16.4316   2
   0  -1   4 243.609 17.6938   1
  -1   1  -4 6.42174 1.92933   7
  -1   1  -4 6.44887 2.58346   1
  -1   1  -4 6.25371 1.88760   2
  -1   1  -4 9.14190 2.08481   3
   1  -1   4 6.48340 2.32804   1
   1  -1   4 6.36642 2.40521   1
   1  -1   4 10.2985 2.08994   3
  -2   1  -4 1.99458 1.06187   2
  -2   1  -4 1.30505 1.17675   3
  -2   1  -4 2.17614 1.45735   3
  -2   1  -4 2.90982 1.91917   7
  -2   1  -4 2.75502 1.82094   4
  -2   1  -4 1.27808 2.00568   1
  -2   1  -4 2.53521 1.76774   1
  -2   1  -4 2.19319 1.62470   2
   2  -1   4 0.82565 1.77864   1
  -3   1  -4 8.99025 2.63906   7
  -3   1  -4 9.43918 2.53286   4
  -4   1  -4 6.73318 2.13245  17
  -4   1  -4 5.29590 3.19877   7
  -4   1  -4 7.28437 2.08841  16
  -4   1  -4 4.99578 2.30243  11
  -4   1  -4 3.79345 1.87544  12
  -4   1  -4 4.42493 2.87548   4
  -4   1  -4 3.37231 2.27542  18
  -4   1  -4 4.80103 2.12020  15
  -5   1  -4 219.345 16.9305  11
  -5   1  -4 247.937 17.0349  17
  -5   1  -4 208.206 15.9353  15
  -5   1  -4 212.734 17.5755  12
  -5   1  -4 227.588 15.6141  16
  -5   1  -4 247.014 15.8757  18
  -6   1  -4 104.522 7.32290  18
  -6   1  -4 96.0601 7.87416  11
  -6   1  -4 87.0105 8.27526  17
  -6   0   4 322.894 21.3394  15
  -6   0   4 297.617 23.9146  14
  -5   0   4 156.044 12.0682  15
  -5   0   4 170.652 13.2344  14
  -4   0   4 20.0486 3.11177  13
  -4   0   4 17.6896 2.68335  15
  -4   0   4 11.2170 1.52319  10
  -4   0   4 14.5781 2.45726  16
  -4   0   4 16.0411 5.38716   6
  -4   0   4 20.1011 2.92437  14
  -3   0   4 292.752 19.8201  13
  -3   0   4 276.165 18.5283   3
  -3   0   4 246.686 18.8212  16
  -3   0   4 296.483 21.6452  14
  -3   0   4 276.961 17.5150  10
  -3   0   4 302.619 20.6402   6
  -3   0   4 282.682 19.3634  15
  -3   0   4 280.577 18.9147   2
  -3   0   4 258.407 16.4811   9
  -2   0   4 2.51245 2.46851   6
  -2   0   4 3.01598 2.01217   3
  -2   0   4 3.01629 1.79478   2
   1   0  -4 1316.13 99.1136   1
   1   0  -4 1434.96 99.0578   1
  -1   0   4 1381.22 98.9649   1
  -1   0   4 1488.32 92.5263   3
  -1   0   4 1447.41 98.9710   1
  -1   0   4 1570.01 94.9810   2
   0   0  -4 841.525 57.6817   2
   0   0  -4 795.872 56.1930   3
   0   0  -4 865.713 60.3479   1
   0   0  -4 875.924 60.4381   1
   0   0   4 949.812 60.3827   1
   0   0   4 887.399 57.6908   2
   0   0   4 911.202 60.3355   1
   0   0   4 853.530 56.2047   3
  -1   0  -4 194.792 12.8776   3
  -1   0  -4 193.090 13.1371   2
  -1   0  -4 181.598 14.0975   1
  -1   0  -4 188.949 11.8695   4
   1   0   4 165.262 13.0268   2
   1   0   4 195.692 14.1558   1
   1   0   4 218.673 14.1499   1
   1   0   4 178.650 12.7628   3
  -2   0  -4 2.60362 1.56254   2
  -2   0  -4 1.89752 1.05954   2
  -2   0  -4 2.11048 1.45711   3
  -2   0  -4 1.40396 1.82091   1
  -2   0  -4 1.82107 1.71656   1
  -2   0  -4 0.78645 1.86378   7
  -2   0  -4 2.47631 1.04113   3
  -2   0  -4 2.19367 1.00149   5
  -2   0  -4 2.40316 1.80690   4
   2   0   4 2.80114 1.73231   1
   2   0   4 2.18810 1.75868   1
  -3   0  -4 -1.4972 1.30266   5
  -3   0  -4 -1.2053 2.27522   4
  -4   0  -4 670.180 49.1572  12
  -4   0  -4 651.539 46.7098  17
  -4   0  -4 656.734 39.6238   4
  -4   0  -4 623.753 43.2596  16
  -4   0  -4 672.436 43.3080  18
  -4   0  -4 630.919 45.3018  13
  -4   0  -4 650.055 46.9120  11
  -5   0  -4 141.026 11.0016  12
  -5   0  -4 136.380 10.7584  17
  -5   0  -4 126.639 10.0218  13
  -5   0  -4 124.354 9.63609  16
  -5   0  -4 146.061 10.0531  18
  -5   0  -4 132.509 10.6576  11
  -6   0  -4 198.631 14.5856  11
  -6   0  -4 180.620 14.9678  12
  -6   0  -4 199.168 13.4635  18
  -6   1   4 3.23127 2.37345  15
  -5   1   4 0.47995 2.22118  16
  -5   1   4 0.66170 1.93581  15
  -5   1   4 2.91346 2.62289  14
  -4   1   4 189.874 14.6921  14
  -4   1   4 181.884 12.8885  16
  -4   1   4 183.859 13.2635  15
  -4   1   4 162.392 15.2758   6
  -3   1   4 4.20430 2.06937  16
  -3   1   4 3.59038 1.88883   3
  -3   1   4 8.10421 2.27623  14
  -3   1   4 3.33232 1.88932  15
  -3   1   4 1.63611 1.14811  10
  -3   1   4 7.15834 4.16963   6
  -3   1   4 9.33884 2.41533  13
  -3   1   4 5.96029 1.93712   2
  -3   1   4 4.68190 0.86560   9
  -2   1   4 2161.74 143.385   2
  -2   1   4 2310.95 139.673   3
  -2   1   4 2061.58 146.680   6
   1  -1  -4 99.3055 8.77380   1
   1  -1  -4 98.4655 9.03179   1
  -1   1   4 111.727 8.05647   2
  -1   1   4 97.5153 9.01747   1
  -1   1   4 109.876 7.80494   3
  -1   1   4 100.632 8.22416   6
  -1   1   4 100.653 8.42945   1
   0  -1  -4 46.4533 4.51971   3
   0  -1  -4 54.3147 5.49733   1
   0  -1  -4 49.1337 6.17071   1
   0  -1  -4 38.4421 3.56903   4
   0   1   4 45.7201 4.72541   2
   0   1   4 44.4499 6.09277   1
   0   1   4 44.1607 4.53520   3
   0   1   4 47.1425 5.40690   1
   0   1   4 37.3675 4.20130   6
  -1  -1  -4 1.59381 2.25798   1
  -1  -1  -4 2.39887 2.06546   2
  -1  -1  -4 0.23418 1.80041   3
  -1  -1  -4 3.67231 2.94829   1
  -1  -1  -4 2.68870 1.50414   4
   1   1   4 0.17283 2.28294   1
   1   1   4 1.12642 1.66712   3
   1   1   4 1.44305 2.74038   1
   1   1   4 0.82576 1.82512   2
  -2  -1  -4 6.47179 1.80055   3
  -2  -1  -4 5.34383 1.92133   1
  -2  -1  -4 12.2359 1.88654   5
  -2  -1  -4 11.0378 2.19412   4
  -2  -1  -4 11.6741 1.95145   2
  -2  -1  -4 4.65932 1.19571   2
   2   1   4 7.61933 2.15218   1
   2   1   4 6.43962 2.16557   1
  -3  -1  -4 509.786 30.0722   4
  -3  -1  -4 476.372 28.8915   5
  -4  -1  -4 145.912 10.7657   4
  -4  -1  -4 143.762 10.3619  18
  -4  -1  -4 141.022 10.9966  11
  -4  -1  -4 144.932 11.5021  12
  -4  -1  -4 137.082 10.9963  17
  -4  -1  -4 144.004 10.4887  13
  -5  -1  -4 503.111 38.5416  11
  -5  -1  -4 554.948 40.4005  12
  -5  -1  -4 528.993 37.2190  13
  -5  -1  -4 538.740 35.6041  18
  -6  -1  -4 45.0826 4.83090  12
  -6  -1  -4 52.5983 5.39853  11
  -6  -1  -4 43.8029 4.67904  13
  -5   2   4 53.3585 5.18953  16
  -5   2   4 52.3108 5.44756  14
  -5   2   4 48.7707 5.24153  15
  -4   2   4 44.3886 4.88723  16
  -4   2   4 41.6994 5.00889  15
  -4   2   4 46.0733 5.36717  14
  -4   2   4 39.2534 3.47279  10
  -3   2   4 137.093 12.3715   6
  -3   2   4 136.066 8.64171   9
  -3   2   4 148.736 10.6574  15
  -3   2   4 150.484 10.4685  16
  -3   2   4 142.599 11.8804  14
  -3   2   4 153.109 10.2122   2
  -2   2   4 4.72763 2.55109   7
  -2   2   4 5.61163 2.27206   2
  -2   2   4 8.76803 3.13454   6
  -2   2   4 7.74464 2.16806   3
   1  -2  -4 232.412 18.6414   1
  -1   2   4 266.541 17.2339   2
  -1   2   4 215.859 18.4492   1
  -1   2   4 259.480 17.6507   6
  -1   2   4 255.722 16.7282   3
   0  -2  -4 202.774 14.1591   3
   0  -2  -4 191.461 12.6075   4
   0   2   4 202.397 14.6372   6
   0   2   4 195.880 16.0812   1
   0   2   4 234.129 15.8503   1
   0   2   4 224.301 14.2912   3
  -1  -2  -4 69.7017 5.19017   4
  -1  -2  -4 66.4554 6.54042   1
  -1  -2  -4 69.8074 6.30193   2
  -1  -2  -4 69.6056 7.20560   1
  -1  -2  -4 76.0832 5.93182   3
   1   2   4 62.2527 6.08841   2
   1   2   4 71.0136 7.26390   1
   1   2   4 67.9357 5.80130   3
   1   2   4 77.3791 7.08419   1
  -2  -2  -4 9.01701 2.31679   4
  -2  -2  -4 9.31428 2.07542   3
  -2  -2  -4 9.77010 3.02439   1
  -2  -2  -4 7.08503 2.14062   2
  -2  -2  -4 8.79054 2.34623   1
  -3  -2  -4 252.305 17.3813   2
  -3  -2  -4 257.588 15.7238   5
  -3  -2  -4 266.497 16.4556   4
  -3  -2  -4 248.878 16.9063   3
  -4  -2  -4 93.2561 7.80919  11
  -4  -2  -4 98.5469 8.11459  12
  -4  -2  -4 102.179 7.55767  18
  -4  -2  -4 91.4717 7.14434   5
  -4  -2  -4 93.3820 8.52110   4
  -4  -2  -4 102.855 7.50861  13
  -4  -2  -4 82.9066 6.15901  10
  -5  -2  -4 93.8530 7.37256  13
  -5  -2  -4 83.7595 7.85059  11
  -5  -2  -4 84.7365 7.86759  12
  -5  -2  -4 97.1486 7.68278  18
  -6  -2  -4 84.3623 7.78250  12
  -6  -2  -4 100.973 7.40584  13
  -6  -2  -4 85.9409 7.90794  11
  -5   3   4 4.88560 2.41558  16
  -5   3   4 7.70745 2.40823  15
  -4   3   4 20.8060 3.31252  16
  -4   3   4 16.0920 3.11403  15
  -4   3   4 20.2434 3.76742  14
  -4   3   4 18.7807 1.95209  10
  -3   3   4 407.250 26.1810  10
  -3   3   4 422.572 28.6418  15
  -3   3   4 425.511 24.5190   9
  -3   3   4 348.333 30.0651  17
  -3   3   4 446.187 28.1074  16
  -3   3   4 425.584 32.2120  14
  -3   3   4 414.991 30.1015   6
  -3   3   4 437.383 27.7910   2
  -2   3   4 0.60573 2.92844   7
  -2   3   4 3.38304 2.12095  16
  -2   3   4 2.95683 0.70100   8
  -2   3   4 2.39229 2.41259   2
  -2   3   4 4.22282 1.11465   9
  -2   3   4 6.16433 2.66797  14
  -2   3   4 0.19556 2.24792   3
  -2   3   4 5.72522 3.83335   6
  -1   3   4 24.2750 3.58574   2
  -1   3   4 27.7081 4.11259   6
  -1   3   4 24.1453 3.47394   3
   0  -3  -4 0.72536 2.67370   1
   0  -3  -4 1.70717 3.01226   1
   0  -3  -4 -1.3408 2.26966   3
   0  -3  -4 -0.2002 1.89147   2
   0   3   4 0.39985 3.18838   1
   0   3   4 -0.0387 2.42321   2
   0   3   4 -2.3676 2.10985   6
   0   3   4 -0.5581 2.44551   1
   0   3   4 -0.9971 2.17387   3
  -1  -3  -4 455.949 27.5384   4
  -1  -3  -4 492.789 30.1512   3
  -1  -3  -4 405.851 32.9460   1
  -1  -3  -4 413.333 32.5590   1
  -1  -3  -4 472.069 31.0856   2
   1   3   4 461.627 32.8650   1
   1   3   4 497.633 30.2825   3
  -2  -3  -4 806.695 50.5168   3
  -2  -3  -4 776.018 46.6454   4
  -2  -3  -4 756.416 51.9878   2
  -3  -3  -4 126.333 9.24944   4
  -3  -3  -4 111.591 9.03379  13
  -3  -3  -4 128.539 9.09265   2
  -3  -3  -4 138.332 8.75576   3
  -3  -3  -4 123.930 8.66518   5
  -3  -3  -4 104.799 7.28784   9
  -4  -3  -4 80.8760 6.99592  12
  -4  -3  -4 68.3346 7.96585   4
  -4  -3  -4 79.9998 6.83472  11
  -4  -3  -4 74.5272 5.31041  10
  -4  -3  -4 70.9367 6.64085   5
  -4  -3  -4 78.4067 6.68364  13
  -5  -3  -4 0.95967 2.54596  11
  -5  -3  -4 1.91800 2.48997  13
  -5  -3  -4 3.51087 2.28627  12
  -6  -3  -4 206.598 14.1231  13
  -6  -3  -4 181.778 15.1824  12
  -5   4   4 35.3700 4.05256  16
  -5   4   4 34.4242 3.78446  15
  -4   4   4 18.5251 3.22173  15
  -4   4   4 25.4142 3.42227  17
  -4   4   4 11.0549 2.74868  16
  -3   4   4 9.47042 2.97355  17
  -3   4   4 11.5003 5.25922   6
  -3   4   4 16.5380 2.16946  10
  -3   4   4 13.4000 2.66279  16
  -3   4   4 15.4124 2.99014  15
  -2   4   4 2.73293 1.87145  15
  -2   4   4 1.48376 4.27328   6
  -2   4   4 3.50346 2.46999   3
  -2   4   4 2.08260 1.80691  10
  -2   4   4 1.93333 2.89246   2
  -2   4   4 2.31156 1.17503   9
  -2   4   4 1.84770 2.01149  16
  -2   4   4 -2.3352 3.36781   7
  -1   4   4 1.95761 2.65053   3
  -1   4   4 1.52832 2.67864   2
  -1   4   4 1.05344 3.38946   6
  -1   4   4 2.15960 1.10792   8
   0   4   4 347.772 22.8737   3
   0   4   4 371.679 23.7718   2
   0   4   4 305.654 23.7180   6
  -1  -4  -4 2341.24 155.925   2
  -1  -4  -4 2382.80 151.639   3
  -2  -4  -4 41.6228 4.38446   4
  -2  -4  -4 41.5392 5.01803   2
  -2  -4  -4 35.6680 4.84997   3
  -3  -4  -4 7.62361 1.20830   9
  -3  -4  -4 9.76685 2.13565  12
  -3  -4  -4 10.4669 3.28101   5
  -3  -4  -4 8.84329 0.98906   8
  -3  -4  -4 11.5604 2.73702   3
  -3  -4  -4 7.34217 2.28426  11
  -3  -4  -4 8.31275 2.90104   2
  -3  -4  -4 8.90865 1.73451  10
  -4  -4  -4 76.7710 6.76583  12
  -4  -4  -4 72.0284 4.54382   9
  -4  -4  -4 78.0546 6.96261  11
  -4  -4  -4 69.8224 5.27229  10
  -4  -4  -4 72.5982 7.03443   5
  -4  -4  -4 74.1230 5.91986   2
  -4  -4  -4 72.7930 6.18778   3
  -4  -4  -4 67.2131 6.59266  13
  -5  -4  -4 33.9980 4.17574  11
  -5  -4  -4 18.9005 2.30739  10
  -5  -4  -4 25.6099 3.42262  12
  -5  -4  -4 23.2089 3.44362  13
  -6  -4  -4 160.413 13.7570  12
  -6  -4  -4 192.194 12.9264  13
  -4   5   4 -0.0772 2.68922  15
  -4   5   4 3.44929 2.28203  16
  -4   5   4 4.90506 2.51748  17
  -3   5   4 6.59959 2.61150  16
  -3   5   4 6.24015 1.95533  10
  -3   5   4 4.29478 2.97860  17
  -3   5   4 8.10021 3.04177  15
  -2   5   4 57.0362 6.36403  17
  -2   5   4 66.0698 4.32952   9
  -2   5   4 68.2080 5.24987  10
  -2   5   4 64.8596 6.70014   2
  -2   5   4 42.7962 7.28697   6
  -2   5   4 63.0811 7.18299   7
  -2   5   4 62.7517 5.23683  16
  -2   5   4 55.4228 6.13989   3
  -1   5   4 16.4909 1.90587   9
  -1   5   4 22.8334 4.56170   7
  -1   5   4 21.0927 4.24590   2
  -1   5   4 17.1015 2.23260  16
  -1   5   4 20.2262 1.73112   8
  -1   5   4 13.5408 2.38457  10
  -1   5   4 12.7313 3.22426   3
   0   5   4 -0.1684 3.07232   2
   0   5   4 -1.4177 2.52031   3
   0   5   4 -0.5864 1.29759   8
  -2  -5  -4 14.2315 3.36074   5
  -2  -5  -4 14.0598 1.72108   9
  -2  -5  -4 12.5196 1.42301   8
  -2  -5  -4 11.6277 2.96387   3
  -2  -5  -4 22.3659 4.21248   2
  -3  -5  -4 33.0535 4.27264   2
  -3  -5  -4 37.2720 2.91579   9
  -3  -5  -4 36.6803 2.55138   8
  -3  -5  -4 34.0544 3.76672  10
  -3  -5  -4 29.1523 3.90041   3
  -3  -5  -4 26.7313 4.33653   5
  -4  -5  -4 607.716 45.8087  12
  -4  -5  -4 584.025 37.9712  10
  -4  -5  -4 604.486 35.7300   9
  -4  -5  -4 625.029 42.4870  13
  -5  -5  -4 12.2678 3.04507  13
  -5  -5  -4 14.0606 2.53936  12
  -5  -5  -4 16.8491 1.74975  10
  -6  -5  -4 12.8872 2.24529  12
  -6  -5  -4 16.2230 2.62853  13
  -4   6   4 17.3455 2.49327  17
  -4   6   4 16.3335 2.38096  16
  -3   6   4 25.7575 3.45340  10
  -3   6   4 27.9096 3.98710  16
  -3   6   4 32.8778 4.07912  17
  -2   6   4 46.3652 4.66205  16
  -2   6   4 43.9112 3.45316   9
  -2   6   4 40.8618 5.82931  17
  -2   6   4 47.1777 4.39415  10
  -1   6   4 56.3009 3.62338   8
  -1   6   4 45.9885 6.28571   3
  -1   6   4 54.5253 6.96622   7
  -1   6   4 52.7173 3.98161   9
  -1   6   4 39.5948 5.62306   2
  -1   6   4 48.3669 5.10167  10
   0   6   4 27.0251 2.75243   8
  -2  -6  -4 19.3643 2.02985   9
  -2  -6  -4 13.9923 3.84461   5
  -2  -6  -4 19.3269 4.35685   3
  -2  -6  -4 13.1293 1.63271   8
  -3  -6  -4 180.948 10.6016   8
  -3  -6  -4 170.900 14.0685   2
  -3  -6  -4 190.529 13.0112   5
  -3  -6  -4 182.684 12.1700  10
  -3  -6  -4 190.812 13.7363  13
  -3  -6  -4 186.134 11.2526   9
  -4  -6  -4 14.9003 1.89101   9
  -4  -6  -4 15.3185 3.09441  13
  -4  -6  -4 14.5276 2.12355  10
  -5  -6  -4 4.24902 1.33907  10
  -5  -6  -4 1.69335 2.42457  13
  -6  -6  -4 3.17650 1.94159  13
  -3   7   4 3.81744 2.25995  17
  -3   7   4 5.45632 1.60552  10
  -2   7   4 16.9183 2.09917   9
  -2   7   4 18.1017 3.45919  17
  -2   7   4 21.9232 2.61190  10
  -1   7   4 -0.3669 2.06251  10
  -1   7   4 -1.2170 1.12744   8
  -1   7   4 0.17862 1.56978   9
   0   7   4 48.0784 3.51032   8
   0   7   4 40.3151 3.86148   9
   0   7   4 37.2262 5.52375   7
   1   7   4 52.7599 4.02878   8
  -2  -7  -4 38.9573 5.45035   5
  -2  -7  -4 32.3324 3.01023   8
  -3  -7  -4 792.379 43.8977   8
  -3  -7  -4 799.473 54.6212  13
  -3  -7  -4 754.194 49.1033  10
  -4  -7  -4 -0.7077 1.61985  10
  -4  -7  -4 -3.2276 2.58781  13
  -4  -7  -4 -0.5989 1.00852   9
  -5  -7  -4 25.3016 3.67364  13
  -5  -7  -4 28.9639 2.84226  10
  -2   8   4 26.7250 3.78390  17
  -1   8   4 53.1329 5.60652  17
  -1   8   4 55.9936 4.07778   9
  -1   8   4 63.6131 5.26040  10
   0   8   4 16.8676 1.90563   8
   0   8   4 24.0265 2.72722   9
  -1  -8  -4 8.56253 1.83763   8
   1   8   4 8.50207 1.76081   8
  -2  -8  -4 165.447 9.77003   8
  -3  -8  -4 86.4939 5.48996   9
  -3  -8  -4 83.7504 7.00595  13
  -3  -8  -4 77.0229 5.00407   8
  -4  -8  -4 111.417 6.79782   9
  -4  -8  -4 107.912 7.59050  10
  -4  -8  -4 112.100 8.45849  13
  -1   9   4 5.89507 1.97571  17
  -1   9   4 8.87761 1.17159   9
   0   9   4 4.50166 1.19994   8
   0   9   4 7.86865 1.49855   9
   0   9   4 6.95915 2.30963  17
  -1  -9  -4 1.21259 1.50292   8
   1   9   4 -1.1307 1.34201   8
   1   9   4 -0.3038 2.27508  17
  -2  -9  -4 77.1223 6.63201  13
  -2  -9  -4 80.5295 5.19384   8
   2   9   4 91.8983 5.30907   8
  -3  -9  -4 10.1829 1.43169   9
  -3  -9  -4 9.81302 2.23852  13
  -1 -10  -4 77.6529 4.39484   8
   1  10   4 63.4879 4.16835   8
  -2 -10  -4 9.18523 1.14486   8
   2   9  -5 26.1286 2.43856   8
  -2  -9   5 33.3287 3.69954  14
  -2  -9   5 33.2084 2.19037   8
   1   9  -5 4.06604 1.16537   8
  -1  -9   5 7.23936 1.29478   8
   0   9  -5 2.77017 1.10454   9
   0   9  -5 5.67054 2.12389  18
  -1   9  -5 0.13596 2.19111  18
  -3  -8   5 321.301 24.8568  14
  -3  -8   5 321.914 19.1303   9
  -2  -8   5 -1.4527 1.09947   8
  -2  -8   5 0.15918 2.81108  14
  -2  -8   5 0.32088 1.32296   9
   1   8  -5 28.1542 2.72496   8
  -1  -8   5 25.7631 2.98947   8
   0   8  -5 -0.7127 1.32436   9
   0   8  -5 1.53020 1.24428   8
  -1   8  -5 46.7501 3.61512   9
  -1   8  -5 50.5860 4.97676  18
  -1   8  -5 52.3025 4.17869  10
  -2   8  -5 14.1738 1.62599   9
  -2   8  -5 18.5619 2.73916  18
  -2   8  -5 18.0849 2.06209  10
  -3   8  -5 26.9813 3.17921  18
  -4  -7   5 7.85438 2.28790  14
  -4  -7   5 12.7195 1.75743  10
  -3  -7   5 2.74917 1.25295   9
  -3  -7   5 3.24243 2.60368  14
  -2  -7   5 193.270 12.3007   9
  -2  -7   5 210.126 11.7445   8
   1   7  -5 0.53714 1.31911   8
  -1  -7   5 0.83263 1.47613   8
   0   7  -5 231.139 13.3646   8
  -1   7  -5 171.067 10.5409  10
  -1   7  -5 145.578 9.01901   8
  -1   7  -5 143.794 11.2667  18
  -1   7  -5 162.953 9.59458   9
  -2   7  -5 1.16194 1.77885  10
  -2   7  -5 1.09673 2.58315  18
  -2   7  -5 0.86881 1.12946   9
  -3   7  -5 20.1260 2.83162  17
  -3   7  -5 21.9283 3.24979  18
  -4   7  -5 3.49999 1.72534  17
  -4   7  -5 1.19255 1.65468  18
  -5  -6   5 67.9170 5.77341  14
  -4  -6   5 21.0064 1.75061   9
  -4  -6   5 22.7707 3.14809  14
  -4  -6   5 13.8159 2.17225  10
  -3  -6   5 224.848 12.8093   8
  -3  -6   5 223.613 14.6025  10
  -3  -6   5 239.379 17.9882  14
  -3  -6   5 216.993 13.6407   9
  -2  -6   5 36.6813 3.35888   9
  -2  -6   5 44.4253 3.27073   8
  -1  -6   5 -0.3351 1.24217   8
   0   6  -5 2.80420 1.29593   8
  -1   6  -5 1.38364 1.89332  10
  -1   6  -5 3.82905 1.38698   9
  -1   6  -5 1.78699 2.90082   2
  -1   6  -5 6.47824 1.30675   8
  -1   6  -5 3.57230 4.18763   3
  -2   6  -5 28.0068 3.33172  10
  -2   6  -5 31.0521 3.82093  18
  -2   6  -5 21.0074 4.06060   7
  -2   6  -5 25.5807 2.47818   9
  -3   6  -5 9.17914 3.13764  18
  -3   6  -5 7.26144 2.78355  17
  -4   6  -5 33.2408 4.34256  18
  -5  -5   5 5.93298 2.03178  14
  -5  -5   5 9.41795 1.22742  10
  -4  -5   5 11.4095 1.15269   9
  -4  -5   5 8.88234 2.73971  14
  -4  -5   5 8.06578 1.84680  10
  -4  -5   5 3.48284 2.21865  15
  -3  -5   5 17.8139 2.31182  10
  -3  -5   5 28.7495 3.47154  14
  -3  -5   5 19.0862 2.33673   9
  -3  -5   5 22.4363 1.92448   8
  -2  -5   5 2.16816 3.55533   3
  -2  -5   5 2.65923 1.03362   9
  -2  -5   5 4.68314 1.26821   8
  -1  -5   5 592.492 33.4117   8
   0   5  -5 426.971 24.1417   8
  -1   5  -5 50.0758 6.70443   3
  -1   5  -5 56.1594 3.55479   8
  -1   5  -5 52.8116 5.52892   7
  -1   5  -5 53.0736 3.80337   9
  -1   5  -5 51.4585 5.74763   2
  -1   5  -5 46.5714 4.26760  10
  -2   5  -5 4.08015 2.62999  18
  -2   5  -5 5.60984 1.18376   9
  -2   5  -5 5.04939 2.17847   2
  -2   5  -5 6.12039 2.33529  17
  -2   5  -5 6.51860 3.33814   7
  -2   5  -5 4.76782 1.64064  10
  -2   5  -5 2.71601 3.06101   3
  -3   5  -5 106.696 8.61858  18
  -3   5  -5 103.102 8.41319  17
  -3   5  -5 96.5777 7.96174  16
  -3   5  -5 107.838 7.14254  10
  -3   5  -5 106.537 8.81963   7
  -4   5  -5 11.7531 2.70280  17
  -4   5  -5 8.25508 3.30003  18
  -4   5  -5 11.9333 2.86760  16
  -5   5  -5 16.1938 2.58274  18
  -5  -4   5 31.9597 4.11414  14
  -5  -4   5 36.0843 2.75124  10
  -4  -4   5 7.59768 2.55189  15
  -4  -4   5 10.8149 2.63258  14
  -4  -4   5 10.1179 1.72917  10
  -3  -4   5 9.09222 1.35315   9
  -3  -4   5 18.3276 4.74804   3
  -3  -4   5 12.9937 2.72703  14
  -3  -4   5 12.7442 1.97078  10
  -3  -4   5 10.8475 3.42920   5
  -3  -4   5 14.7640 5.11841   6
  -3  -4   5 12.9348 1.16513   8
  -3  -4   5 10.6881 2.81969   2
  -2  -4   5 166.028 11.2026   8
  -2  -4   5 203.915 12.5692   5
  -2  -4   5 193.309 11.7803   9
  -2  -4   5 217.934 14.7490   3
  -2  -4   5 211.571 14.4069   2
  -1  -4   5 -0.8765 2.36413   3
   0   4  -5 2.12734 2.31414   3
  -1   4  -5 84.8923 7.55747   3
  -1   4  -5 85.9741 6.83140   7
  -1   4  -5 85.6071 5.18192   8
  -1   4  -5 85.2682 7.25664   2
  -2   4  -5 11.8145 2.50255  16
  -2   4  -5 16.7332 1.88021   9
  -2   4  -5 17.6856 2.75785  18
  -2   4  -5 17.7606 1.83889  10
  -2   4  -5 22.4375 3.78931   7
  -2   4  -5 16.5786 2.47727  17
  -2   4  -5 19.2785 3.08346   2
  -2   4  -5 17.1090 3.38184   4
  -2   4  -5 17.5138 3.19011   3
  -2   4  -5 13.6706 1.53136   8
  -3   4  -5 1260.82 84.2549  16
  -3   4  -5 1273.99 90.8850  17
  -3   4  -5 1320.23 84.2212  18
  -3   4  -5 1216.16 91.1688  11
  -3   4  -5 1223.92 77.7903   7
  -3   4  -5 1331.79 79.2639  10
  -4   4  -5 10.2656 2.88639  16
  -4   4  -5 4.91397 2.60277  17
  -4   4  -5 7.46911 3.02213  18
  -5   4  -5 18.5494 3.25363  18
  -5   4  -5 27.6823 3.30686  17
  -5  -3   5 11.3140 2.80935  13
  -5  -3   5 19.3762 2.81023  14
  -5  -3   5 9.85234 2.17767  15
  -4  -3   5 0.68028 1.38472  10
  -4  -3   5 -2.7934 2.55680  15
  -4  -3   5 2.19663 0.80626   9
  -4  -3   5 1.24209 2.48365  13
  -4  -3   5 1.51241 2.22539  14
  -3  -3   5 724.070 49.1490   3
  -3  -3   5 790.528 46.8461  10
  -3  -3   5 679.593 44.0210   5
  -3  -3   5 785.550 57.3027  14
  -3  -3   5 701.825 49.9907   2
  -3  -3   5 756.003 44.1432   9
  -3  -3   5 796.176 52.0902   6
  -2  -3   5 3.84549 2.32404   5
  -2  -3   5 2.91172 2.88745   3
  -2  -3   5 1.73572 0.91037   9
  -2  -3   5 4.45644 1.91034  14
  -2  -3   5 1.12687 2.19549   2
  -2  -3   5 1.65197 0.89256   8
  -1  -3   5 164.848 11.8352   2
  -1  -3   5 173.288 11.9935   3
  -1  -3   5 143.666 9.91637   5
   0   3  -5 120.692 8.48113   7
   0   3  -5 133.821 10.0351   3
   0   3  -5 106.512 10.7500   1
   0   3  -5 143.291 9.73638   2
  -1   3  -5 17.1755 2.79760   7
  -1   3  -5 12.8397 2.46816   2
  -1   3  -5 15.3323 2.95570   3
  -2   3  -5 453.505 32.2764   2
  -2   3  -5 546.164 29.7145   4
  -2   3  -5 516.396 30.0564   7
  -2   3  -5 492.734 31.5849   3
  -2   3  -5 416.216 28.4287   9
  -3   3  -5 71.0626 6.71528  17
  -3   3  -5 83.0522 6.32882  16
  -3   3  -5 79.3535 6.91140  11
  -3   3  -5 76.3749 6.50322  18
  -3   3  -5 82.2557 7.24999   7
  -3   3  -5 78.6519 5.31938  10
  -3   3  -5 71.9359 6.99990   4
  -4   3  -5 293.132 21.4840  17
  -4   3  -5 270.424 19.3877   7
  -4   3  -5 302.877 20.2397  18
  -4   3  -5 280.237 21.5910  11
  -4   3  -5 314.333 20.0720  16
  -5   3  -5 135.128 10.4807  17
  -5   3  -5 130.612 9.68480  16
  -6   3  -5 11.8706 2.74414  17
  -6   3  -5 5.20739 1.36970  18
  -5  -2   5 31.0332 4.39506  13
  -5  -2   5 35.9615 4.65928  15
  -5  -2   5 44.2839 4.55945  14
  -4  -2   5 57.6223 6.94364  15
  -4  -2   5 72.6847 6.57082  13
  -4  -2   5 82.9954 7.04905  14
  -4  -2   5 78.7762 5.23789  10
  -3  -2   5 263.394 14.9181   9
  -3  -2   5 223.631 17.8162  13
  -3  -2   5 257.343 17.4659   2
  -3  -2   5 234.876 15.8646   5
  -3  -2   5 268.184 19.3094   6
  -3  -2   5 248.866 17.7347  15
  -3  -2   5 255.324 15.9453  10
  -3  -2   5 252.584 19.5593  14
  -3  -2   5 250.437 17.5126   3
  -2  -2   5 6.80942 3.38643   6
  -2  -2   5 7.45192 2.94035   3
  -2  -2   5 7.05791 2.23104   2
  -2  -2   5 5.76523 2.37684   5
   1   2  -5 -0.3498 3.41101   1
  -1  -2   5 -0.5330 1.81152   2
  -1  -2   5 -1.2444 2.53757   1
  -1  -2   5 1.27947 2.27015   3
  -1  -2   5 -0.8352 1.63224   5
   0   2  -5 44.0734 6.19772   1
   0   2  -5 57.6791 5.11483   2
   0   2  -5 45.0012 5.82872   1
   0   2  -5 55.5307 5.74002   3
   0  -2   5 45.5579 6.35460   1
   0  -2   5 55.1993 5.82004   3
  -1   2  -5 65.8197 7.37315   1
  -1   2  -5 86.1694 6.33710   7
  -1   2  -5 85.5809 6.93331   3
  -1   2  -5 89.8750 6.64553   2
   1  -2   5 70.2082 8.18462   1
  -2   2  -5 2058.02 122.601   7
  -2   2  -5 1939.26 129.774   3
  -2   2  -5 1935.61 133.225   2
  -2   2  -5 2169.25 119.796   4
  -3   2  -5 80.1037 6.12716  18
  -3   2  -5 80.9804 6.91031   4
  -3   2  -5 76.9140 6.56146  11
  -3   2  -5 74.6371 6.43711  17
  -3   2  -5 78.8100 6.00635  16
  -3   2  -5 64.1889 5.09927  10
  -3   2  -5 80.5930 6.76495   7
  -4   2  -5 233.404 17.8222  11
  -4   2  -5 216.418 16.1191   7
  -4   2  -5 245.962 17.7831  17
  -4   2  -5 241.923 16.6175  18
  -4   2  -5 250.735 16.4966  16
  -5   2  -5 134.229 9.79047  16
  -5   2  -5 126.655 10.5250  11
  -5   2  -5 141.923 10.6664  17
  -6   2  -5 27.4157 4.27587  17
  -6   2  -5 34.3332 3.68573  18
  -5  -1   5 -2.8312 2.41489  14
  -5  -1   5 -3.2807 2.43391  15
  -4  -1   5 366.062 29.2507  15
  -4  -1   5 445.843 32.7007  14
  -4  -1   5 438.231 29.9005  13
  -4  -1   5 439.637 26.5306  10
  -3  -1   5 54.6869 5.31885  13
  -3  -1   5 47.2711 6.66745   6
  -3  -1   5 60.0122 3.78279   9
  -3  -1   5 59.3930 4.20199  10
  -3  -1   5 62.5344 5.43326   2
  -3  -1   5 56.5836 5.56007  14
  -3  -1   5 63.4440 6.02604   3
  -3  -1   5 43.2847 5.54713  15
  -2  -1   5 190.151 13.5398   2
  -2  -1   5 214.609 14.6507   6
  -2  -1   5 174.729 13.5531   3
   1   1  -5 131.493 11.2806   1
  -1  -1   5 96.2883 10.2091   1
  -1  -1   5 123.095 9.43610   3
  -1  -1   5 148.761 10.5847   1
   0   1  -5 387.418 26.1058   1
   0   1  -5 387.845 24.0571   3
   0   1  -5 422.219 24.5499   2
   0  -1   5 334.563 24.4353   2
   0  -1   5 338.892 23.9768   3
   0  -1   5 317.019 25.9039   1
   0  -1   5 339.997 26.1884   1
  -1   1  -5 2313.92 139.655   3
  -1   1  -5 2280.23 131.584   7
  -1   1  -5 2000.37 149.241   1
  -1   1  -5 2425.51 143.331   2
  -1   1  -5 1946.63 149.025   1
   1  -1   5 2158.49 149.282   1
   1  -1   5 2105.32 149.139   1
  -2   1  -5 121.327 9.02278   2
  -2   1  -5 128.052 8.82948   3
  -2   1  -5 123.234 8.74264   4
  -2   1  -5 121.729 8.76782   7
  -3   1  -5 924.976 69.9343  17
  -3   1  -5 1013.26 58.5978   4
  -3   1  -5 943.386 60.9588  10
  -3   1  -5 989.658 59.8211   7
  -3   1  -5 943.576 70.2197  11
  -3   1  -5 973.735 64.8490  16
  -3   1  -5 1062.28 64.8095  18
  -4   1  -5 165.804 12.1467   4
  -4   1  -5 181.870 12.1483  16
  -4   1  -5 173.257 12.2847  18
  -4   1  -5 176.362 13.0677  17
  -4   1  -5 177.586 13.2012  11
  -4   1  -5 159.397 13.5460  12
  -5   1  -5 192.527 15.7402  12
  -5   1  -5 207.306 15.2578  11
  -5   1  -5 211.212 15.2879  17
  -5   1  -5 180.912 14.3372  18
  -5   1  -5 215.417 14.1090  16
  -6   1  -5 193.874 15.1452  11
  -6   1  -5 211.699 14.0616  18
  -5   0   5 212.265 16.9873  14
  -5   0   5 218.600 15.3671  15
  -4   0   5 78.7842 5.16255  10
  -4   0   5 66.0785 9.91226   6
  -4   0   5 66.9019 6.72217  15
  -4   0   5 83.9668 7.03221  14
  -4   0   5 76.0682 6.24784  16
  -4   0   5 60.2280 6.79859  13
  -3   0   5 8.73653 2.74600   3
  -3   0   5 10.0283 1.38092  10
  -3   0   5 8.04460 1.21896   9
  -3   0   5 13.1591 2.38770  14
  -3   0   5 14.7261 2.74282  13
  -3   0   5 5.90481 2.50413   2
  -3   0   5 16.1703 5.01440   6
  -3   0   5 8.08880 2.23820  15
  -3   0   5 8.18609 2.33584  16
  -2   0   5 169.594 15.0408   6
  -2   0   5 225.496 14.4555   2
  -2   0   5 214.701 14.1963   3
   1   0  -5 58.5454 7.23035   1
  -1   0   5 77.6710 6.16287   3
  -1   0   5 67.9337 6.33152   6
  -1   0   5 59.0814 6.53614   1
  -1   0   5 59.9840 6.74038   1
  -1   0   5 75.5311 5.98163   2
   0   0  -5 130.540 10.0683   2
   0   0  -5 135.986 11.3638   1
   0   0  -5 132.078 11.3200   1
   0   0  -5 127.851 9.86843   3
   0   0   5 142.916 9.95841   3
   0   0   5 144.190 11.2555   1
   0   0   5 140.647 11.0755   1
  -1   0  -5 2.06730 3.00681   1
  -1   0  -5 2.92246 2.21521   3
  -1   0  -5 0.53282 1.77064   4
  -1   0  -5 1.13989 2.05724   2
  -1   0  -5 3.41454 2.50938   1
   1   0   5 1.52296 2.64278   1
   1   0   5 1.96752 1.94170   2
   1   0   5 0.95392 2.69225   1
  -2   0  -5 1538.81 82.3293   4
  -2   0  -5 1510.82 91.5509   2
  -2   0  -5 1373.14 89.1070   3
  -2   0  -5 1129.14 95.2665   1
  -3   0  -5 2.40379 2.30888   4
  -4   0  -5 393.228 27.3072  16
  -4   0  -5 408.255 25.6237   4
  -4   0  -5 425.225 29.6983  11
  -4   0  -5 413.800 29.5109  17
  -4   0  -5 386.237 27.3940  18
  -4   0  -5 417.877 31.0607  12
  -5   0  -5 6.16409 2.45055  11
  -5   0  -5 4.44803 2.84920  18
  -5   0  -5 3.50723 2.32472  12
  -5   0  -5 10.0765 3.17317  17
  -6   0  -5 227.998 15.7161  18
  -6   0  -5 229.154 17.0147  11
  -6   0  -5 225.350 17.6087  12
  -5   1   5 183.171 14.1781  14
  -5   1   5 194.604 12.8264  15
  -5   1   5 155.787 12.4171  16
  -4   1   5 89.0873 8.46342  15
  -4   1   5 110.639 9.07965  14
  -4   1   5 116.941 8.36957  16
  -3   1   5 233.938 14.2406   9
  -3   1   5 203.225 16.1817   3
  -3   1   5 267.271 16.6194  16
  -3   1   5 241.452 15.1885  10
  -3   1   5 234.163 16.8539  15
  -3   1   5 237.940 16.6347   2
  -3   1   5 247.647 18.7627  14
  -3   1   5 250.315 18.5330   6
  -2   1   5 24.2852 3.02912   3
  -2   1   5 20.0098 4.01931   6
  -2   1   5 20.3261 3.16964   2
  -1   1   5 278.550 23.3244   1
  -1   1   5 342.720 21.9019   2
  -1   1   5 328.005 22.3483   6
   0  -1  -5 263.021 14.2804   4
   0  -1  -5 248.173 16.3395   2
   0  -1  -5 243.709 17.8432   1
   0  -1  -5 239.823 15.7900   3
   0  -1  -5 250.141 17.5301   1
   0   1   5 214.642 17.2236   1
   0   1   5 213.181 16.2637   6
   0   1   5 218.141 15.7588   3
   0   1   5 207.270 17.6112   1
   0   1   5 219.472 16.2304   2
  -1  -1  -5 34.9286 4.76573   1
  -1  -1  -5 42.4465 5.82334   1
  -1  -1  -5 47.0894 4.07140   4
  -1  -1  -5 47.1843 5.00590   2
  -1  -1  -5 31.3095 4.61428   3
   1   1   5 43.8633 5.92665   1
   1   1   5 40.1218 4.71386   2
   1   1   5 34.8620 4.28103   3
   1   1   5 41.4519 5.22621   1
  -2  -1  -5 8.79252 2.00874   5
  -2  -1  -5 11.3779 2.17338   3
  -2  -1  -5 7.02788 2.13432   4
  -3  -1  -5 158.118 10.5865   4
  -3  -1  -5 138.352 10.0663   3
  -3  -1  -5 146.104 9.43679   5
  -3  -1  -5 154.600 10.3757   2
  -4  -1  -5 221.516 14.3047   4
  -4  -1  -5 184.952 12.8533  10
  -4  -1  -5 218.477 15.3393  11
  -4  -1  -5 223.405 16.0830  12
  -4  -1  -5 203.282 15.2904  17
  -4  -1  -5 172.609 14.2114  18
  -4  -1  -5 213.292 14.6682  13
  -5  -1  -5 4.20748 4.46882   4
  -5  -1  -5 6.30812 2.21758  13
  -5  -1  -5 7.64955 2.61049  12
  -5  -1  -5 7.03423 2.41422  11
  -5  -1  -5 4.15461 2.64321  18
  -6  -1  -5 17.1830 2.99725  11
  -6  -1  -5 22.5922 3.50439  12
  -5   2   5 24.5164 3.99206  14
  -5   2   5 28.9179 3.78006  15
  -5   2   5 23.0141 3.17884  16
  -4   2   5 94.6852 6.17648  10
  -4   2   5 95.5952 8.14987  14
  -4   2   5 73.3554 7.37027  15
  -4   2   5 88.8579 7.47896  16
  -3   2   5 32.5106 3.65702  16
  -3   2   5 25.1398 5.78286   6
  -3   2   5 22.8657 3.20090   2
  -3   2   5 23.9855 2.08462   9
  -3   2   5 21.2273 3.18450  14
  -3   2   5 23.9959 2.96181  15
  -3   2   5 18.3116 2.99628   3
  -2   2   5 36.2954 2.58908   8
  -2   2   5 31.6225 4.85595   6
  -2   2   5 36.5452 2.89062   9
  -2   2   5 40.3968 4.90067   2
  -2   2   5 42.1417 4.57375   3
  -2   2   5 30.5088 3.28760  10
  -1   2   5 653.894 41.5600   2
  -1   2   5 664.316 42.4774   6
  -1   2   5 539.129 40.2493   3
   0  -2  -5 59.6511 6.79790   1
   0  -2  -5 61.1342 5.82319   3
   0  -2  -5 60.7409 4.58538   4
   0   2   5 63.1036 5.89836   6
   0   2   5 68.8137 6.02936   3
   0   2   5 59.3951 6.60058   1
   0   2   5 85.5958 7.69877   2
   0   2   5 57.0745 7.66445   1
  -1  -2  -5 119.916 8.52532   3
  -1  -2  -5 114.340 7.67306   4
  -1  -2  -5 105.680 9.31785   1
   1   2   5 116.836 9.85530   1
   1   2   5 96.7779 10.0565   1
  -2  -2  -5 5.29989 2.29303   4
  -2  -2  -5 8.93189 2.45669   2
  -2  -2  -5 6.00049 2.06112   3
  -3  -2  -5 952.995 58.1355   5
  -3  -2  -5 1031.38 64.3637   3
  -3  -2  -5 1016.19 59.8319   4
  -3  -2  -5 995.555 66.1481   2
  -4  -2  -5 18.1511 4.15508   4
  -4  -2  -5 9.25311 2.93627  18
  -4  -2  -5 13.5294 2.46527  13
  -4  -2  -5 10.3375 1.41166  10
  -4  -2  -5 11.7019 2.54179  11
  -4  -2  -5 11.1717 2.68677  12
  -4  -2  -5 9.28852 2.72628   5
  -5  -2  -5 291.730 22.5410  12
  -5  -2  -5 273.465 20.1123  18
  -5  -2  -5 281.409 21.5839  11
  -5  -2  -5 315.980 20.8421  13
  -6  -2  -5 13.4320 3.16478  11
  -6  -2  -5 9.56271 2.40875  12
  -6  -2  -5 9.03070 2.52913  13
  -5   3   5 80.1676 6.15194  16
  -5   3   5 76.4588 6.21485  15
  -4   3   5 15.7935 3.04465  16
  -4   3   5 22.3518 3.24478  15
  -4   3   5 25.0858 2.81576  10
  -3   3   5 892.544 55.5369  10
  -3   3   5 891.256 58.8848   2
  -3   3   5 975.152 59.2375  16
  -3   3   5 858.214 60.3980  15
  -3   3   5 914.766 52.2859   9
  -3   3   5 872.287 67.9917  14
  -3   3   5 805.864 61.3482   6
  -2   3   5 250.529 16.1279  16
  -2   3   5 229.759 14.0295   9
  -2   3   5 248.778 18.0331   6
  -2   3   5 209.714 15.6472   7
  -2   3   5 225.151 16.3318  15
  -2   3   5 255.036 16.1557   3
  -2   3   5 219.361 18.4049  14
  -2   3   5 228.866 13.2201   8
  -2   3   5 243.085 16.8217   2
  -1   3   5 110.178 9.41281   6
  -1   3   5 101.073 8.34137   3
  -1   3   5 97.6749 8.78760   2
   0  -3  -5 14.1537 4.14795   1
   0   3   5 17.3036 3.10456   6
   0   3   5 17.9073 3.49791   2
   0   3   5 12.3870 4.29255   1
   0   3   5 18.6062 3.15070   3
  -1  -3  -5 18.7525 2.98212   3
  -1  -3  -5 17.0253 3.48807   2
  -1  -3  -5 14.8653 2.32968   4
  -1  -3  -5 21.6487 5.28240   1
   1   3   5 17.5835 4.27568   1
  -2  -3  -5 682.107 47.7292   2
  -2  -3  -5 730.884 46.3320   3
  -2  -3  -5 725.644 42.8511   4
  -3  -3  -5 9.60540 1.16936   9
  -3  -3  -5 6.85301 2.05963  11
  -3  -3  -5 11.6219 3.18839   5
  -3  -3  -5 11.0702 3.18557   4
  -3  -3  -5 8.21255 2.56027   2
  -3  -3  -5 11.5598 1.69161  10
  -3  -3  -5 10.8048 2.35053  12
  -3  -3  -5 10.4190 2.46263   3
  -4  -3  -5 549.432 34.9666   5
  -4  -3  -5 617.931 41.0111  13
  -4  -3  -5 601.970 44.3380  12
  -4  -3  -5 595.570 36.2513   4
  -4  -3  -5 538.565 36.5691  10
  -4  -3  -5 602.251 42.2861  11
  -5  -3  -5 115.014 8.65486  13
  -5  -3  -5 104.581 8.99253  11
  -5  -3  -5 99.1061 9.04388  12
  -6  -3  -5 25.1759 3.62323  11
  -6  -3  -5 24.1635 3.17374  13
  -6  -3  -5 24.5060 3.62881  12
  -5   4   5 69.7816 5.29864  16
  -4   4   5 -2.3471 2.59316  16
  -4   4   5 -0.9666 2.55806  15
  -3   4   5 2.16397 2.58807  17
  -3   4   5 0.55502 2.60105  15
  -3   4   5 0.76673 1.94582  10
  -3   4   5 3.86924 0.82797   9
  -3   4   5 1.78717 2.44901  16
  -2   4   5 8.49609 2.96231   3
  -2   4   5 5.60704 2.23248  16
  -2   4   5 7.40984 2.15472  10
  -2   4   5 7.50205 4.74131   6
  -2   4   5 7.45647 3.44749   2
  -2   4   5 7.95054 1.45529   9
  -2   4   5 1.99674 3.56259   7
  -1   4   5 202.960 14.1276  10
  -1   4   5 207.859 14.7763  16
  -1   4   5 220.360 12.4361   8
  -1   4   5 232.142 16.1325   2
  -1   4   5 235.116 15.4651   3
  -1   4   5 197.829 13.0850   9
  -1   4   5 236.646 16.6915   6
   0   4   5 52.7891 5.85394   3
   0   4   5 48.9270 6.35670   2
  -1  -4  -5 982.654 61.8497   3
  -1  -4  -5 921.304 63.7287   2
  -2  -4  -5 1334.92 78.4561   4
  -2  -4  -5 1332.56 85.1804   3
  -2  -4  -5 1290.23 87.6976   2
  -3  -4  -5 16.3866 3.21454   2
  -3  -4  -5 13.7160 3.85864   4
  -3  -4  -5 16.6491 2.08506  10
  -3  -4  -5 17.2994 3.14033   3
  -3  -4  -5 15.7474 2.46328  12
  -3  -4  -5 19.2737 4.00032   5
  -3  -4  -5 15.1040 1.59084   8
  -3  -4  -5 13.4096 1.50278   9
  -4  -4  -5 116.311 9.74903   3
  -4  -4  -5 140.517 10.3825  13
  -4  -4  -5 138.873 10.5452  11
  -4  -4  -5 129.061 7.95526   9
  -4  -4  -5 130.855 10.1803   5
  -4  -4  -5 139.484 10.8935  12
  -4  -4  -5 128.735 9.68488   2
  -4  -4  -5 127.758 8.77677  10
  -5  -4  -5 214.797 14.9876  13
  -5  -4  -5 192.578 15.8947  12
  -5  -4  -5 198.704 15.4544  11
  -5  -4  -5 202.247 12.8444  10
  -6  -4  -5 5.80633 2.38364  13
  -6  -4  -5 6.19588 2.02709  12
  -4   5   5 164.155 11.5595  16
  -4   5   5 165.887 11.7965  15
  -3   5   5 42.4677 4.25251  10
  -3   5   5 39.9557 5.13565  17
  -3   5   5 45.4534 4.62767  16
  -2   5   5 108.907 9.65957  17
  -2   5   5 121.571 7.44831   9
  -2   5   5 114.297 8.66087  16
  -2   5   5 125.050 8.43209  10
  -1   5   5 1.82227 3.79165   7
  -1   5   5 2.99324 2.22062  10
  -1   5   5 1.96456 1.70265  16
  -1   5   5 2.90853 1.51032   9
  -1   5   5 0.34415 3.46556   2
  -1   5   5 1.04489 3.06641   3
  -1   5   5 1.22811 4.36286   6
  -1   5   5 3.81627 1.33444   8
   0   5   5 0.44569 2.80129   3
   0   5   5 3.34527 5.03941   2
   0   5   5 -2.2280 1.39555   8
  -2  -5  -5 18.8160 3.68399   3
  -2  -5  -5 13.5785 3.37646   2
  -2  -5  -5 10.6390 1.36676   9
  -3  -5  -5 99.0275 5.93173   8
  -3  -5  -5 95.9384 8.35730   3
  -3  -5  -5 98.3078 8.32076  12
  -3  -5  -5 111.456 8.69792   5
  -3  -5  -5 99.6786 8.86515   2
  -3  -5  -5 97.5475 6.36502   9
  -3  -5  -5 100.296 7.15268  10
  -4  -5  -5 122.406 8.36885  10
  -4  -5  -5 120.383 10.2070  11
  -4  -5  -5 122.586 7.54787   9
  -4  -5  -5 124.872 9.98622  13
  -4  -5  -5 122.474 10.1092  12
  -4  -5  -5 125.229 10.0486   5
  -5  -5  -5 49.7295 5.17974  12
  -5  -5  -5 50.8436 3.91853  10
  -5  -5  -5 50.9386 5.49738  13
  -6  -5  -5 163.224 12.6694  12
  -4   6   5 7.86670 1.73546  16
  -3   6   5 57.2132 5.28115  16
  -3   6   5 62.3974 5.76136  17
  -3   6   5 59.0072 4.79236  10
  -2   6   5 1.37916 2.45983  16
  -2   6   5 2.63393 1.41703   9
  -2   6   5 0.62551 2.20617  10
  -2   6   5 1.52839 2.88524  17
  -1   6   5 18.0846 1.81656   8
  -1   6   5 13.3670 4.72697   7
  -1   6   5 20.5256 2.19488   9
  -1   6   5 15.5242 2.77637  10
   0   6   5 884.200 49.6941   8
  -2  -6  -5 23.0933 2.51123   8
  -2  -6  -5 21.9325 2.62952   9
  -2  -6  -5 31.9190 5.13557   5
  -3  -6  -5 6.94679 4.08172   5
  -3  -6  -5 3.64945 2.10206  10
  -3  -6  -5 4.52787 1.20513   8
  -3  -6  -5 7.16501 1.52678   9
  -4  -6  -5 -2.1414 2.69297  13
  -4  -6  -5 3.57745 1.10515   9
  -4  -6  -5 1.39167 1.76883  10
  -5  -6  -5 45.6025 3.78517  10
  -5  -6  -5 46.9023 4.90732  13
  -6  -6  -5 131.550 9.62819  13
  -3   7   5 17.0136 2.65338  17
  -3   7   5 9.84969 1.63731  10
  -2   7   5 1.94354 1.07901   9
  -2   7   5 2.61960 2.06262  10
  -2   7   5 4.19977 2.76301  17
  -1   7   5 -0.3880 1.14275   8
  -1   7   5 -0.5818 1.63891   9
  -1   7   5 -0.4164 2.19568  10
   0   7   5 1.77945 1.51451   8
   0   7   5 0.49573 1.48950   9
  -1  -7  -5 1.09648 1.57902   8
   1   7   5 2.54880 1.51835   8
  -2  -7  -5 7.43520 1.55720   8
  -3  -7  -5 63.2250 4.34099   8
  -3  -7  -5 70.7344 6.33900  13
  -3  -7  -5 69.5711 4.72715   9
  -4  -7  -5 46.1209 4.09257  10
  -4  -7  -5 46.4040 3.23290   9
  -4  -7  -5 38.0336 4.94068  13
  -5  -7  -5 12.3170 2.59596  13
  -5  -7  -5 14.9387 1.75527  10
  -2   8   5 5.14875 2.10164  17
  -2   8   5 1.55367 1.65864  10
  -1   8   5 194.421 11.4184   9
  -1   8   5 157.103 14.0706  17
  -1   8   5 212.682 12.4955  10
   0   8   5 5.42167 1.46704   8
   0   8   5 5.85611 1.59063   9
  -1  -8  -5 38.5638 3.39242   8
   1   8   5 33.7744 3.25377   8
  -2  -8  -5 39.3313 3.28537   8
  -3  -8  -5 11.5609 1.32423   8
  -3  -8  -5 9.75830 2.91438  13
  -3  -8  -5 12.3408 1.72474   9
  -4  -8  -5 0.45243 0.95095   9
  -4  -8  -5 0.01056 1.75354  10
  -4  -8  -5 0.07404 2.39361  13
  -1   9   5 3.99120 1.83390  17
  -1   9   5 5.44639 0.92734   9
   0   9   5 5.39611 1.45336   9
   0   9   5 5.83944 2.25276  17
   0   9   5 6.04887 1.04223   8
  -1  -9  -5 -0.4089 1.42853   8
   1   9   5 0.18000 1.64894  17
   1   9   5 -1.2200 1.20348   8
  -2  -9  -5 534.031 29.4545   8
  -2  -9  -5 520.592 36.5521  13
   2   9   5 513.146 29.5174   8
  -3  -9  -5 51.1606 3.51835   9
  -3  -9  -5 45.1970 4.42807  13
   1   9  -6 137.790 7.57099   8
   1   9  -6 121.866 9.05432  18
  -1  -9   6 132.200 7.63524   8
   0   9  -6 6.30315 1.89782  18
   0   9  -6 4.91988 1.13236   9
  -1   9  -6 134.430 7.97943   9
  -1   9  -6 130.922 9.16645  18
  -3  -8   6 39.9057 2.63316   9
  -3  -8   6 31.8386 3.68954  14
  -2  -8   6 96.1466 8.42106  14
  -2  -8   6 108.909 5.94373   8
  -2  -8   6 91.5615 6.36183   9
   1   8  -6 1.80529 1.33186   8
  -1  -8   6 1.72147 1.17739   8
   0   8  -6 41.3319 3.05571   8
   0   8  -6 45.5603 4.57027  18
  -1   8  -6 2.05755 2.21707  18
  -1   8  -6 0.14582 1.07834   9
  -2   8  -6 3.55791 2.16019  18
  -3   8  -6 11.9378 1.97124  18
  -4  -7   6 24.8206 3.21904  14
  -4  -7   6 31.7732 2.72806  10
  -3  -7   6 35.4169 2.89068   9
  -3  -7   6 35.0271 4.30609  14
  -2  -7   6 21.7178 3.48938  14
  -2  -7   6 24.3223 2.43277   8
  -2  -7   6 21.1187 2.64917   9
   1   7  -6 9.22976 1.62627   8
  -1  -7   6 7.98925 1.70902   8
   0   7  -6 5.45494 1.46199   8
   0   7  -6 4.38079 1.31264   9
  -1   7  -6 8.55641 1.56109   9
  -1   7  -6 6.04428 1.14797   8
  -1   7  -6 7.42929 2.75912  18
  -1   7  -6 6.40617 2.03078  10
  -2   7  -6 99.4760 7.13211  10
  -2   7  -6 100.120 6.32897   9
  -2   7  -6 103.814 7.84320  18
  -3   7  -6 1.81474 2.53899  18
  -3   7  -6 0.55544 1.42132  10
  -4   7  -6 4.87368 1.77458  18
  -4  -6   6 382.805 30.7085  14
  -4  -6   6 415.471 25.1504  10
  -3  -6   6 158.176 12.1785  14
  -3  -6   6 131.995 9.95228  10
  -3  -6   6 153.666 10.9556  15
  -3  -6   6 149.202 9.13838   9
  -2  -6   6 147.221 12.9960  14
  -2  -6   6 160.769 9.35667   8
  -2  -6   6 167.391 9.84977   9
  -1  -6   6 12.4933 1.80520   8
   0   6  -6 3.54910 1.36917   8
  -1   6  -6 223.386 15.9692  18
  -1   6  -6 223.524 14.9219  10
  -1   6  -6 245.159 13.9343   9
  -1   6  -6 227.203 13.1800   8
  -2   6  -6 37.1922 4.62026  18
  -2   6  -6 43.7853 3.83295  10
  -2   6  -6 29.4602 2.86803   9
  -3   6  -6 95.8577 7.55154  18
  -3   6  -6 86.2513 7.68147  17
  -3   6  -6 95.8647 6.52429  10
  -4   6  -6 3.67603 2.05768  17
  -4   6  -6 1.11519 2.43612  18
  -5  -5   6 2.05383 1.57461  14
  -4  -5   6 7.44319 2.39108  15
  -4  -5   6 16.1305 1.49867   9
  -4  -5   6 10.2680 1.78764  10
  -4  -5   6 16.3698 2.76744  14
  -3  -5   6 1.12819 1.27667   9
  -3  -5   6 -0.4729 1.68866  10
  -3  -5   6 0.41807 2.60328  14
  -2  -5   6 90.4118 8.46734  14
  -2  -5   6 103.140 6.02034   8
  -2  -5   6 97.4911 6.28406   9
  -1  -5   6 6.67220 1.39280   8
   0   5  -6 1438.41 80.5679   8
  -1   5  -6 49.1510 5.33230   2
  -1   5  -6 28.5407 4.35778   3
  -1   5  -6 39.1513 3.67514  10
  -1   5  -6 39.3488 3.03716   9
  -1   5  -6 33.1566 2.83426   8
  -2   5  -6 110.724 7.77657  18
  -2   5  -6 99.0527 9.02130   3
  -2   5  -6 81.8196 7.93032   2
  -2   5  -6 94.9817 8.09858   7
  -2   5  -6 86.6638 6.21469   9
  -2   5  -6 115.841 6.90296  10
  -2   5  -6 97.2544 8.41497  11
  -3   5  -6 8.68923 2.75353  17
  -3   5  -6 5.78423 1.66296  10
  -3   5  -6 7.79688 2.92788  18
  -4   5  -6 60.9317 5.72187  17
  -4   5  -6 61.8647 5.98052  18
  -5   5  -6 2.36556 2.06900  17
  -5   5  -6 0.90176 2.13490  18
  -5  -4   6 36.7430 4.02837  14
  -5  -4   6 42.1617 3.91576  15
  -4  -4   6 81.0604 5.83826  10
  -4  -4   6 83.9861 5.04324   9
  -4  -4   6 80.1082 7.10013  15
  -4  -4   6 80.0575 7.33148  14
  -3  -4   6 25.3783 5.67083   6
  -3  -4   6 23.3859 3.28504  14
  -3  -4   6 15.7843 2.25759  10
  -3  -4   6 20.9453 2.27620   9
  -2  -4   6 46.8478 5.71518   2
  -2  -4   6 52.8382 3.45818   8
  -2  -4   6 46.1207 3.62884   9
  -2  -4   6 50.4879 5.13173  14
  -2  -4   6 56.2678 6.99143   3
  -1  -4   6 4.90127 1.25514   8
   0   4  -6 -0.1187 2.51864   2
   0   4  -6 0.24737 1.12353   8
   0   4  -6 3.28127 3.23922   3
  -1   4  -6 20.7117 2.10559   8
  -1   4  -6 25.0812 3.37826   7
  -1   4  -6 21.4071 3.48483   3
  -1   4  -6 19.5602 2.16791  10
  -1   4  -6 21.8112 2.31863   9
  -1   4  -6 17.9734 3.13452   2
  -2   4  -6 17.1710 2.64502  18
  -2   4  -6 20.7363 2.58421  10
  -2   4  -6 13.1332 1.52499   9
  -2   4  -6 10.5298 3.71309   4
  -2   4  -6 18.6904 2.70538  17
  -2   4  -6 17.1620 1.68128   8
  -2   4  -6 18.7193 3.52133   3
  -2   4  -6 11.8722 2.68687   2
  -2   4  -6 12.1036 3.34110   7
  -3   4  -6 4.52784 2.19764   2
  -3   4  -6 8.18270 2.50984  17
  -3   4  -6 4.65626 1.54705  10
  -3   4  -6 3.30377 3.20950   7
  -3   4  -6 4.88289 2.77860  18
  -3   4  -6 4.21476 0.98000   9
  -3   4  -6 2.47819 2.74762  11
  -4   4  -6 37.7784 4.59827  17
  -4   4  -6 33.0702 4.57526  11
  -4   4  -6 39.1316 4.31769  18
  -4   4  -6 37.2999 3.14321  10
  -5   4  -6 56.4394 5.44744  18
  -5   4  -6 57.2890 5.47542  17
  -5  -3   6 13.8622 2.52131  15
  -5  -3   6 9.60300 2.23640  14
  -4  -3   6 5.37755 1.49259  10
  -4  -3   6 7.12509 2.61656  15
  -4  -3   6 4.75318 0.84072   9
  -4  -3   6 8.46882 2.54459  14
  -3  -3   6 2.83321 1.15458   9
  -3  -3   6 3.38999 2.64930   2
  -3  -3   6 1.20341 1.61529  10
  -3  -3   6 -1.2508 2.51425  15
  -3  -3   6 1.54551 2.29339  14
  -3  -3   6 -0.0803 4.62809   6
  -2  -3   6 77.4906 6.60532   5
  -2  -3   6 85.7942 7.11236  14
  -2  -3   6 81.1274 5.95196  10
  -2  -3   6 89.5875 5.08420   8
  -2  -3   6 69.3451 7.32177   2
  -2  -3   6 93.3992 8.37135   3
  -1  -3   6 1890.82 127.322   2
  -1  -3   6 1961.67 124.301   3
   0   3  -6 4.25041 2.62592   2
   0   3  -6 5.83525 3.24448   3
  -1   3  -6 229.917 16.2274   2
  -1   3  -6 232.549 16.1438   3
  -1   3  -6 226.391 14.8876   7
  -2   3  -6 34.4561 2.72362   9
  -2   3  -6 38.7550 4.04424  18
  -2   3  -6 28.7539 4.57497   4
  -2   3  -6 50.9896 4.91781   7
  -2   3  -6 33.7897 4.31832   2
  -2   3  -6 41.3413 4.86664   3
  -2   3  -6 36.4269 2.64169   8
  -2   3  -6 42.2550 3.33405  10
  -3   3  -6 49.4816 5.12785  11
  -3   3  -6 46.8324 4.66408  18
  -3   3  -6 43.8722 4.70679  17
  -3   3  -6 35.3002 3.41905  10
  -3   3  -6 48.7814 5.10502   7
  -3   3  -6 49.0284 5.29421   4
  -3   3  -6 34.4762 4.01691   2
  -3   3  -6 48.0589 4.58161  16
  -3   3  -6 32.5494 2.72677   9
  -4   3  -6 141.634 10.2483  10
  -4   3  -6 162.167 11.5733  16
  -4   3  -6 167.045 12.5550  11
  -4   3  -6 152.419 12.2993   7
  -4   3  -6 169.693 12.4413  17
  -4   3  -6 172.193 11.8407  18
  -5   3  -6 1.78701 2.67838  17
  -5   3  -6 0.39320 2.84921  18
  -5   3  -6 3.44008 2.20475  11
  -6   3  -6 1.21484 1.79866  18
  -5  -2   6 112.245 8.18384  15
  -5  -2   6 96.2282 8.59801  14
  -4  -2   6 17.4982 1.89203  10
  -4  -2   6 21.5721 3.05671  14
  -4  -2   6 12.5199 2.86265  15
  -4  -2   6 12.4441 3.09415  13
  -3  -2   6 163.080 12.7419   2
  -3  -2   6 152.911 13.0963   3
  -3  -2   6 172.344 10.5522   9
  -3  -2   6 184.914 11.3601  10
  -3  -2   6 183.226 12.8124  15
  -3  -2   6 177.119 13.9808  14
  -3  -2   6 186.931 14.7164   6
  -2  -2   6 133.715 9.94228   2
  -2  -2   6 131.941 7.51397   8
  -2  -2   6 120.298 7.91029   9
  -2  -2   6 142.597 11.0691   6
  -2  -2   6 124.693 10.4371   3
  -1  -2   6 0.85344 3.05439   3
  -1  -2   6 0.64838 2.30348   2
   0   2  -6 98.8697 8.11618   3
   0   2  -6 91.4765 7.66269   2
   0   2  -6 73.7128 8.76016   1
   0  -2   6 95.6470 10.0465   1
  -1   2  -6 23.3873 3.53917   3
  -1   2  -6 15.9137 2.93327   2
  -1   2  -6 21.8982 3.13331   7
  -2   2  -6 872.563 51.8671   7
  -2   2  -6 749.888 50.7753   4
  -2   2  -6 882.233 56.2008   2
  -2   2  -6 875.636 54.8014   3
  -3   2  -6 463.488 34.8049  16
  -3   2  -6 545.198 34.8070  18
  -3   2  -6 565.620 32.4072   4
  -3   2  -6 550.455 37.8503  11
  -3   2  -6 513.811 32.6477  10
  -3   2  -6 525.512 32.7145   7
  -3   2  -6 497.904 37.5787  17
  -4   2  -6 7.75202 2.89785  18
  -4   2  -6 9.93552 2.88706  16
  -4   2  -6 4.44030 1.23994  10
  -4   2  -6 5.78437 2.74828  17
  -4   2  -6 7.84933 2.79763  11
  -5   2  -6 2.36606 3.01075  18
  -5   2  -6 4.47785 2.82827  17
  -5   2  -6 2.28067 2.34882  11
  -6   2  -6 2.93495 2.24719  18
  -5  -1   6 2.53277 1.85036  14
  -5  -1   6 2.01489 1.98779  15
  -4  -1   6 36.5539 3.16978  10
  -4  -1   6 35.5655 4.92806  15
  -4  -1   6 35.6352 4.79980  14
  -3  -1   6 163.266 11.1406  15
  -3  -1   6 143.015 11.0891   2
  -3  -1   6 159.558 9.08377   9
  -3  -1   6 154.583 12.0662  14
  -3  -1   6 163.910 13.1142   6
  -3  -1   6 118.814 11.1742   3
  -3  -1   6 154.286 9.69586  10
  -3  -1   6 129.245 11.2180  13
  -2  -1   6 2.81511 0.99369   9
  -2  -1   6 4.13822 2.33375   2
  -2  -1   6 4.74223 3.52673   6
  -2  -1   6 2.17582 2.64846   3
  -1  -1   6 20.9699 3.34897   3
   0   1  -6 232.570 18.5568   1
   0   1  -6 211.543 18.7142   1
   0   1  -6 240.296 16.8810   3
   0  -1   6 221.759 18.4093   1
   0  -1   6 282.309 16.9904   3
   0  -1   6 239.566 18.6676   1
   0  -1   6 272.181 17.1458   2
  -1   1  -6 650.407 41.9310   3
  -1   1  -6 558.768 45.0616   1
  -1   1  -6 713.425 42.9468   2
  -2   1  -6 82.5401 6.87240   4
  -2   1  -6 83.4495 6.71568   3
  -2   1  -6 75.5889 6.73250   7
  -2   1  -6 83.7810 6.80269   2
  -3   1  -6 102.229 8.29734  11
  -3   1  -6 99.2284 6.65427  10
  -3   1  -6 104.706 7.56705  18
  -3   1  -6 92.6814 8.12332  17
  -3   1  -6 107.433 8.49515   4
  -3   1  -6 97.2956 7.10670   3
  -4   1  -6 65.5818 6.26150  17
  -4   1  -6 63.0417 4.49427  10
  -4   1  -6 70.9556 6.49673  11
  -4   1  -6 73.7203 7.10483   4
  -4   1  -6 66.8439 6.00870  18
  -4   1  -6 63.0197 6.03047  12
  -5   1  -6 158.047 12.4003  11
  -5   1  -6 137.920 12.5268  12
  -5   1  -6 169.187 11.7657  18
  -5   1  -6 172.814 12.5600  17
  -6   1  -6 -1.2041 2.61638  18
  -6   1  -6 -1.3061 2.34407  11
  -5   0   6 20.1108 2.81296  15
  -5   0   6 16.7041 2.83278  14
  -4   0   6 6.03609 2.57671  15
  -4   0   6 3.30630 2.43967  16
  -4   0   6 6.41441 1.45661  10
  -4   0   6 7.96455 2.70657  14
  -3   0   6 9.53706 2.47405  15
  -3   0   6 9.38835 1.51045  10
  -3   0   6 14.7578 5.21098   6
  -3   0   6 6.03184 2.99329   3
  -3   0   6 12.0146 2.47637  14
  -3   0   6 10.4833 2.89917   2
  -3   0   6 7.71249 2.54875  16
  -3   0   6 9.79433 1.37725   9
  -2   0   6 140.627 9.99822  15
  -2   0   6 137.672 8.04517   8
  -2   0   6 142.449 11.2984   6
  -2   0   6 128.883 8.35505   9
  -2   0   6 136.828 10.3523   2
  -2   0   6 147.850 10.3941   3
  -2   0   6 130.988 8.95718  10
  -1   0   6 1.92162 2.64519   6
  -1   0   6 2.53232 2.27070   2
  -1   0   6 0.50151 2.11653   3
   0   0  -6 5.35848 3.92536   1
   0   0  -6 2.69119 2.80164   2
   0   0  -6 1.96471 2.52761   3
   0   0  -6 1.90592 2.83293   1
   0   0   6 3.17650 3.39384   1
   0   0   6 2.34291 2.43936   3
   0   0   6 1.84885 3.99884   1
   0   0   6 -0.3686 2.15646   2
  -1   0  -6 1513.63 89.4032   3
  -1   0  -6 1240.41 95.7081   1
  -1   0  -6 1255.53 95.7833   1
  -1   0  -6 1557.47 91.8155   2
  -1   0  -6 1330.08 82.1739   4
   1   0   6 1426.18 95.8626   1
  -2   0  -6 117.715 8.48115   4
  -2   0  -6 116.113 8.70208   3
  -3   0  -6 44.4496 3.20077   9
  -3   0  -6 55.8164 4.41796   3
  -3   0  -6 55.9731 6.01508   4
  -3   0  -6 53.2999 5.05111  11
  -3   0  -6 51.2449 4.51487   2
  -3   0  -6 52.3534 4.48647  18
  -3   0  -6 44.3362 4.92739  12
  -3   0  -6 51.6388 5.05795  17
  -4   0  -6 52.3506 5.17646  18
  -4   0  -6 55.2267 6.51669   4
  -4   0  -6 43.8674 3.58871  10
  -4   0  -6 50.9778 5.31220  12
  -4   0  -6 49.3332 5.44035  17
  -4   0  -6 52.9405 5.40345  11
  -5   0  -6 18.4631 3.16100  11
  -5   0  -6 29.1648 3.90823  17
  -5   0  -6 24.4739 3.60041  18
  -5   0  -6 25.9533 3.42786  12
  -6   0  -6 2.49745 2.62487  11
  -6   0  -6 2.04799 2.06510  12
  -6   0  -6 -0.2270 2.89617  18
  -5   1   6 264.022 22.9845  14
  -5   1   6 330.682 20.5668  15
  -4   1   6 92.9529 8.31620  14
  -4   1   6 106.251 7.81423  15
  -4   1   6 81.6554 7.61616  16
  -3   1   6 52.1216 5.23868  14
  -3   1   6 42.5974 5.31705  16
  -3   1   6 65.0267 7.73531   6
  -3   1   6 52.8374 3.99234  10
  -3   1   6 45.8995 5.47687   2
  -3   1   6 47.5954 3.50758   9
  -3   1   6 46.0702 5.49898   3
  -3   1   6 47.1097 5.31913  15
  -2   1   6 3.85938 1.90904  15
  -2   1   6 1.94261 3.52937   6
  -2   1   6 4.42127 2.54560   3
  -2   1   6 3.18052 1.31760  10
  -2   1   6 3.37480 1.18056   9
  -2   1   6 2.77526 2.57653   2
  -2   1   6 4.17782 1.36263   8
  -1   1   6 0.39300 2.22143   2
  -1   1   6 -0.3453 2.19441   3
  -1   1   6 -1.9303 2.67815   6
   0  -1  -6 2050.96 125.268   1
   0  -1  -6 1768.44 106.528   4
   0  -1  -6 1675.50 124.472   1
   0  -1  -6 1710.11 116.083   3
   0  -1  -6 1773.40 119.312   2
   0   1   6 1965.76 121.561   6
   0   1   6 1969.53 116.156   3
   0   1   6 1682.16 124.200   1
   0   1   6 1668.45 124.458   1
  -1  -1  -6 -1.1382 1.75988   4
  -1  -1  -6 -1.8675 3.31475   1
  -1  -1  -6 -0.6707 2.15869   3
  -1  -1  -6 1.59080 2.44863   1
  -1  -1  -6 -1.0573 4.19261   2
   1   1   6 -1.8916 2.62837   1
  -2  -1  -6 674.597 42.8624   3
  -2  -1  -6 644.315 39.7346   4
  -3  -1  -6 52.8299 4.92010  18
  -3  -1  -6 34.9783 5.14900  17
  -3  -1  -6 50.4177 4.84959  11
  -3  -1  -6 63.1824 6.16948   4
  -3  -1  -6 44.2196 3.20735   9
  -3  -1  -6 49.3979 3.87380  10
  -3  -1  -6 50.3056 5.01406  12
  -3  -1  -6 55.3785 4.67188   3
  -3  -1  -6 50.2433 4.62778   2
  -4  -1  -6 40.9134 4.88092  18
  -4  -1  -6 35.2601 4.80796  17
  -4  -1  -6 38.1431 4.99097   4
  -4  -1  -6 32.9853 2.99726  10
  -4  -1  -6 37.3737 4.65179  12
  -4  -1  -6 34.8383 4.60054  11
  -5  -1  -6 608.467 45.5712  12
  -5  -1  -6 611.767 43.5063  11
  -5  -1  -6 579.720 40.1503  18
  -6  -1  -6 -1.5128 2.54647  11
  -6  -1  -6 -1.2103 2.00459  12
  -5   2   6 17.2453 2.67963  16
  -5   2   6 26.2204 2.76832  15
  -4   2   6 96.2713 8.27396  14
  -4   2   6 88.1049 6.41652  10
  -4   2   6 105.298 7.60171  15
  -4   2   6 78.2291 7.64566  16
  -3   2   6 47.6474 3.35074   9
  -3   2   6 45.8338 5.52117  16
  -3   2   6 50.0431 5.33290  14
  -3   2   6 36.8546 6.94892   6
  -3   2   6 43.8637 5.13989  15
  -3   2   6 45.2034 5.33582   2
  -2   2   6 -1.2254 1.53581  10
  -2   2   6 -1.6149 1.22311   8
  -2   2   6 -1.9157 2.69919   2
  -2   2   6 -0.8814 4.08472   6
  -2   2   6 -1.4632 1.23500   9
  -2   2   6 -0.1541 2.28145   3
  -2   2   6 -0.3903 1.84860  15
  -1   2   6 235.278 17.9920   2
  -1   2   6 277.055 17.4154   3
  -1   2   6 243.527 18.4906   6
   0  -2  -6 32.9530 5.71627   1
   0   2   6 56.5177 7.33054   2
   0   2   6 55.5403 5.47354   6
   0   2   6 52.4193 5.50299   3
   0   2   6 34.3116 5.83138   1
  -1  -2  -6 987.062 58.9034   3
  -1  -2  -6 946.932 54.1076   4
   1   2   6 786.944 63.3139   1
  -2  -2  -6 235.413 16.9130   3
  -2  -2  -6 263.106 16.0211   4
  -2  -2  -6 249.748 17.6169   2
  -3  -2  -6 168.792 10.7010   5
  -3  -2  -6 152.614 11.3445  18
  -3  -2  -6 178.387 11.5743   4
  -3  -2  -6 180.414 11.3332   3
  -3  -2  -6 147.339 10.3362  10
  -3  -2  -6 138.122 9.57712   9
  -3  -2  -6 163.320 12.7366  12
  -3  -2  -6 166.332 11.6458   2
  -3  -2  -6 157.657 12.0766  11
  -4  -2  -6 184.873 13.3967   4
  -4  -2  -6 192.675 14.5605  12
  -4  -2  -6 168.277 11.6400  10
  -4  -2  -6 175.932 13.2893  13
  -4  -2  -6 185.500 13.8324  11
  -4  -2  -6 185.021 12.9981  18
  -5  -2  -6 168.291 14.0250  13
  -5  -2  -6 218.339 14.8811  11
  -5  -2  -6 180.138 13.8364  18
  -5  -2  -6 204.222 15.3848  12
  -6  -2  -6 191.403 13.7297  13
  -6  -2  -6 199.779 14.4372  11
  -6  -2  -6 176.833 14.8656  12
  -5   3   6 1.80347 1.69484  15
  -5   3   6 0.97128 1.71934  16
  -4   3   6 70.4855 5.07363  10
  -4   3   6 78.7621 6.22841  15
  -4   3   6 56.9489 6.18881  16
  -3   3   6 34.3031 5.00919  14
  -3   3   6 31.8995 4.15970  16
  -3   3   6 29.5363 3.17139  10
  -3   3   6 27.0780 7.00493   6
  -3   3   6 34.4810 3.67813  15
  -3   3   6 36.6245 2.62857   9
  -2   3   6 0.52505 2.53047  14
  -2   3   6 0.27346 1.18354   8
  -2   3   6 0.69460 2.58690  16
  -2   3   6 3.18163 3.09174   2
  -2   3   6 -2.6554 4.35595   6
  -2   3   6 -0.2398 1.35266   9
  -2   3   6 0.42736 1.91130  15
  -2   3   6 0.92507 2.36981   3
  -1   3   6 828.003 51.4949   6
  -1   3   6 738.861 41.9318   8
  -1   3   6 744.898 50.3209   2
  -1   3   6 770.326 44.2217   9
  -1   3   6 654.026 48.7028   3
   0   3   6 18.7970 3.47050   3
   0   3   6 21.2132 3.64735   6
   0   3   6 18.5926 4.17612   2
  -1  -3  -6 139.906 10.2089   3
  -1  -3  -6 127.602 8.98867   4
  -2  -3  -6 450.001 29.2912   3
  -2  -3  -6 429.094 30.3075   2
  -2  -3  -6 447.766 27.1826   4
  -3  -3  -6 159.405 11.6695   4
  -3  -3  -6 172.871 12.8318  12
  -3  -3  -6 151.361 10.4797  10
  -3  -3  -6 157.923 12.1254  11
  -3  -3  -6 145.577 9.68889   9
  -3  -3  -6 174.193 12.1082   2
  -3  -3  -6 160.952 11.5218   3
  -3  -3  -6 174.896 11.3148   5
  -3  -3  -6 156.755 9.06184   8
  -4  -3  -6 171.562 12.5061  11
  -4  -3  -6 159.851 12.4519   4
  -4  -3  -6 155.064 9.57670   9
  -4  -3  -6 147.821 10.4878  10
  -4  -3  -6 152.106 11.3720   5
  -4  -3  -6 172.293 13.1175  12
  -4  -3  -6 169.648 12.2466  13
  -5  -3  -6 102.352 9.05793  12
  -5  -3  -6 102.815 8.51947  13
  -5  -3  -6 100.551 8.89999  11
  -5  -3  -6 108.353 6.78444  10
  -6  -3  -6 11.2397 2.50029  12
  -6  -3  -6 3.91825 2.30836  13
  -6  -3  -6 13.7113 3.07254  11
  -4   4   6 51.1344 4.68115  15
  -4   4   6 42.5003 4.73089  16
  -3   4   6 26.7744 2.91249  10
  -3   4   6 26.2557 3.60650  16
  -3   4   6 27.9659 3.53222  15
  -2   4   6 110.990 8.02559  10
  -2   4   6 100.828 10.9872   6
  -2   4   6 107.148 8.87120   3
  -2   4   6 108.395 9.65973   2
  -2   4   6 116.429 8.49305  16
  -2   4   6 109.340 7.02201   9
  -1   4   6 7.09932 1.63849   9
  -1   4   6 3.95842 3.80282   2
  -1   4   6 1.94557 4.03044   6
  -1   4   6 4.08517 2.93859   3
  -1   4   6 6.38585 1.46836   8
  -1   4   6 6.01647 2.41662  10
   0   4   6 331.585 21.5765   2
   0   4   6 243.560 19.3382   3
  -2  -4  -6 1303.53 83.9567   2
  -2  -4  -6 1365.98 81.4882   3
  -2  -4  -6 1103.83 74.1534   9
  -2  -4  -6 1325.89 75.0284   4
  -2  -4  -6 1208.70 94.5050  12
  -2  -4  -6 1256.10 70.4962   8
  -3  -4  -6 143.151 11.3735  12
  -3  -4  -6 144.841 10.6527   5
  -3  -4  -6 131.869 9.43083  10
  -3  -4  -6 144.337 11.1844   2
  -3  -4  -6 132.200 8.63933   9
  -3  -4  -6 145.122 11.0891   4
  -3  -4  -6 147.278 10.6642   3
  -3  -4  -6 139.552 8.08870   8
  -4  -4  -6 294.115 19.3703  10
  -4  -4  -6 296.189 19.6917   5
  -4  -4  -6 299.351 21.0264   2
  -4  -4  -6 298.496 22.4947  11
  -4  -4  -6 306.040 18.0882   9
  -4  -4  -6 308.246 23.5839  12
  -4  -4  -6 327.705 22.0501  13
  -5  -4  -6 2.28730 2.09193  12
  -5  -4  -6 -1.1477 2.82851  13
  -5  -4  -6 1.50688 1.28775  10
  -5  -4  -6 1.98208 3.01991  11
  -6  -4  -6 14.7817 2.71661  13
  -4   5   6 54.9979 4.67855  16
  -3   5   6 250.442 15.9930  10
  -3   5   6 242.854 17.1274  16
  -3   5   6 252.079 18.3060  17
  -2   5   6 12.4442 3.07130  17
  -2   5   6 12.8445 2.73019  16
  -2   5   6 13.5407 2.65331  10
  -2   5   6 11.8846 1.75418   9
  -1   5   6 133.967 11.4828   7
  -1   5   6 152.227 12.6899   2
  -1   5   6 137.113 11.7445   3
  -1   5   6 164.413 9.48169   9
  -1   5   6 145.816 10.4859  10
  -1   5   6 149.755 10.6860  16
  -1   5   6 156.220 8.89339   8
   0   5   6 7.28147 1.72462   8
  -1  -5  -6 100.490 6.44188   8
  -2  -5  -6 381.559 20.5460   8
  -2  -5  -6 343.307 21.6014   9
  -2  -5  -6 372.051 25.7191   2
  -2  -5  -6 348.277 24.5590   3
  -3  -5  -6 288.320 21.2320   2
  -3  -5  -6 299.846 22.7435  12
  -3  -5  -6 284.336 20.4383   3
  -3  -5  -6 317.966 19.4111   5
  -3  -5  -6 291.419 17.7416   9
  -3  -5  -6 290.028 18.9847  10
  -3  -5  -6 301.545 16.7914   8
  -4  -5  -6 100.522 6.37228   9
  -4  -5  -6 99.9347 8.71620  12
  -4  -5  -6 105.872 8.81555  13
  -4  -5  -6 101.757 7.22634  10
  -5  -5  -6 15.0136 2.71592  12
  -5  -5  -6 15.7212 1.81542  10
  -5  -5  -6 11.4315 3.02704  13
  -6  -5  -6 172.266 13.1879  13
  -6  -5  -6 192.565 14.1222  12
  -3   6   6 14.9938 2.79117  16
  -3   6   6 14.9147 2.11652  10
  -3   6   6 17.8712 2.64823  17
  -2   6   6 4.99875 2.80559  17
  -2   6   6 4.20753 1.39539   9
  -2   6   6 2.69393 2.44494  16
  -2   6   6 2.02505 2.31725  10
  -1   6   6 27.9250 2.74880   8
  -1   6   6 35.6571 3.30986   9
  -1   6   6 30.1975 3.43342  10
   0   6   6 29.3239 2.64383   8
  -1  -6  -6 20.2343 2.25667   8
  -2  -6  -6 17.6741 2.04806   9
  -2  -6  -6 24.1321 2.52763   8
  -2  -6  -6 17.9009 4.68684   5
  -3  -6  -6 177.581 10.2485   8
  -3  -6  -6 175.384 11.8509  10
  -3  -6  -6 187.582 13.4013   5
  -3  -6  -6 172.367 10.8664   9
  -4  -6  -6 7.16693 2.00621  10
  -4  -6  -6 6.85764 1.27236   9
  -4  -6  -6 6.73115 3.12351  13
  -5  -6  -6 75.7699 6.75932  13
  -5  -6  -6 80.4051 5.55536  10
  -3   7   6 11.0669 1.80530  17
  -2   7   6 48.1938 4.63647  17
  -2   7   6 39.1974 2.94926   9
  -2   7   6 42.5052 4.17001  10
  -1   7   6 -0.5569 2.29629  10
  -1   7   6 1.29979 1.64614   9
  -1   7   6 0.53721 0.99653   8
   0   7   6 0.97922 1.40454   9
   0   7   6 -0.9174 1.49236   8
  -1  -7  -6 -0.1632 1.61125   8
   1   7   6 -1.7543 1.57283   8
  -2  -7  -6 268.581 15.4934   8
  -3  -7  -6 39.8754 4.95251  13
  -3  -7  -6 37.4335 3.27297   9
  -3  -7  -6 37.7323 2.93790   8
  -4  -7  -6 15.2244 1.53572   9
  -4  -7  -6 9.49544 2.11272  10
  -4  -7  -6 8.74820 2.90303  13
  -5  -7  -6 393.401 24.0898  10
  -5  -7  -6 372.161 26.9353  13
  -2   8   6 0.20591 1.48522  10
  -2   8   6 2.30507 1.61228  17
  -1   8   6 303.541 18.5768   9
  -1   8   6 308.472 22.6847  17
  -1   8   6 323.357 19.8847  10
   0   8   6 5.05704 1.74127   9
   0   8   6 -0.0993 1.27038   8
  -1  -8  -6 37.0525 3.27255   8
   1   8   6 28.5922 3.09758   8
  -2  -8  -6 20.4035 2.07544   8
  -3  -8  -6 12.4770 1.68403   9
  -3  -8  -6 12.4128 1.31013   8
  -3  -8  -6 10.2301 2.76233  13
  -4  -8  -6 11.4626 1.26028   9
  -4  -8  -6 11.5428 2.02087  10
  -4  -8  -6 9.65345 2.48948  13
  -1   9   6 1.65264 0.69550   9
  -1   9   6 0.88990 0.97469  17
   0   9   6 10.0721 1.44750   9
   0   9   6 14.2531 2.30476  17
  -1  -9  -6 44.5978 3.26063   8
   1   9   6 38.3164 3.07397   8
  -2  -9  -6 12.9295 2.54578  13
  -2  -9  -6 8.96684 1.41637   8
   2   9   6 9.39671 1.61709   8
  -3  -9  -6 24.4163 3.17634  13
  -3  -9  -6 22.0674 2.31279   9
   1   9  -7 18.3189 1.55690   8
  -1  -9   7 16.3700 1.70591   8
   0   9  -7 24.1039 2.03225   9
   2   8  -7 0.48925 1.12070   8
  -2  -8   7 1.00648 0.95407   9
  -2  -8   7 0.91353 0.88496   8
   1   8  -7 198.304 11.1811   8
  -1  -8   7 188.540 11.2252   8
   0   8  -7 1.98887 1.02648   8
   0   8  -7 4.54808 2.19105  18
  -1   8  -7 25.4408 2.34632   9
  -1   8  -7 27.7835 3.62866  18
  -2   8  -7 4.10551 1.86050  18
  -2   8  -7 2.61929 1.51176  10
  -3  -7   7 0.86025 0.95825   9
  -3  -7   7 1.81908 2.01505  14
  -2  -7   7 103.757 7.46598   9
  -2  -7   7 131.484 7.01417   8
   1   7  -7 0.44374 1.30229   8
  -1  -7   7 0.10340 1.44313   8
   0   7  -7 361.122 19.6836   8
   0   7  -7 331.625 20.6951   9
   0   7  -7 345.406 23.3217  18
  -1   7  -7 33.3705 4.03938  18
  -1   7  -7 31.2587 2.28156   8
  -1   7  -7 21.7281 2.83765   9
  -2   7  -7 106.745 7.97038  18
  -2   7  -7 103.956 6.51653   9
  -2   7  -7 106.144 7.34880  10
  -3   7  -7 297.317 20.0473  18
  -4  -6   7 -1.9285 1.61468  14
  -4  -6   7 -1.5424 1.22612  10
  -3  -6   7 165.191 9.46206   9
  -3  -6   7 145.837 10.2570  10
  -3  -6   7 154.992 12.4192  14
  -3  -6   7 150.891 11.2614  15
  -2  -6   7 11.1661 2.09254   9
  -2  -6   7 15.3688 2.97510  14
  -2  -6   7 13.5929 1.55289   8
   1   6  -7 65.7354 4.59306   8
  -1  -6   7 61.5266 4.49546   8
   0   6  -7 29.8881 2.85864   8
  -1   6  -7 7.49218 1.28283   8
  -1   6  -7 7.39811 2.62353  18
  -1   6  -7 6.89563 1.51638   9
  -2   6  -7 57.1714 6.19078  11
  -2   6  -7 74.5246 5.24698  10
  -2   6  -7 68.0713 6.01699  18
  -2   6  -7 67.6703 4.51147   9
  -3   6  -7 13.4117 2.86840  18
  -3   6  -7 11.9628 1.92368  10
  -4   6  -7 78.8031 5.85142  18
  -4   6  -7 67.5247 5.80186  17
  -4  -5   7 11.1311 1.66142  10
  -4  -5   7 10.2243 2.25650  14
  -4  -5   7 7.90407 2.10060  15
  -3  -5   7 84.6059 7.04835  15
  -3  -5   7 87.4547 7.38648  14
  -3  -5   7 81.8038 5.46416   9
  -3  -5   7 83.2665 6.20084  10
  -2  -5   7 62.3028 4.14262   8
  -2  -5   7 61.9108 6.47523  14
  -1  -5   7 145.216 8.70156   8
   0   5  -7 3.00293 1.24660   8
  -1   5  -7 583.393 36.3600  18
  -1   5  -7 564.576 30.7123   8
  -1   5  -7 488.835 36.4655   3
  -1   5  -7 534.402 37.2194   2
  -2   5  -7 47.8046 3.99622  10
  -2   5  -7 43.7141 5.33793   7
  -2   5  -7 41.0701 4.60583  18
  -2   5  -7 29.1823 4.37054  11
  -2   5  -7 43.3876 3.21659   9
  -3   5  -7 11.7082 2.01049  10
  -3   5  -7 11.3981 2.80689  11
  -3   5  -7 17.1033 3.09498  18
  -3   5  -7 18.9678 3.23620  17
  -4   5  -7 1.73812 2.64385  17
  -4   5  -7 -1.8844 2.27801  18
  -5   5  -7 167.722 10.6605  18
  -5   5  -7 138.764 11.3029  17
  -4  -4   7 594.630 34.4205  10
  -4  -4   7 520.184 42.1101  14
  -4  -4   7 531.740 37.5571  15
  -3  -4   7 22.9400 3.16958  15
  -3  -4   7 18.5789 2.28377   9
  -3  -4   7 21.7559 3.20861  14
  -3  -4   7 19.3839 2.36517  10
  -2  -4   7 324.470 16.4045   8
  -2  -4   7 234.906 20.5473   3
  -2  -4   7 311.700 17.2814   9
  -2  -4   7 254.692 20.4708   2
  -1  -4   7 -0.9456 1.15123   8
   0   4  -7 4.74802 1.23628   8
  -1   4  -7 139.285 10.4198  10
  -1   4  -7 172.507 9.75152   9
  -1   4  -7 154.400 11.0101  18
  -1   4  -7 159.074 12.0558   2
  -1   4  -7 157.964 12.1986   3
  -1   4  -7 158.212 9.13643   8
  -2   4  -7 214.145 12.8672   9
  -2   4  -7 220.123 14.8377  18
  -2   4  -7 192.613 15.2581   2
  -2   4  -7 223.810 15.0994   4
  -2   4  -7 238.377 13.8305  10
  -2   4  -7 183.952 14.3611   7
  -2   4  -7 211.224 15.3724   3
  -2   4  -7 219.465 12.1456   8
  -3   4  -7 86.9917 8.87863   7
  -3   4  -7 99.5891 7.49441  10
  -3   4  -7 114.718 6.72705   9
  -3   4  -7 119.803 8.54007  18
  -3   4  -7 116.174 9.60485  11
  -3   4  -7 115.269 9.03629  17
  -4   4  -7 17.4501 3.17086  11
  -4   4  -7 21.9558 3.43247  18
  -4   4  -7 27.1220 3.47200  17
  -4   4  -7 23.2478 2.62436  10
  -5   4  -7 380.315 25.0541  18
  -5   4  -7 363.867 26.9548  17
  -5  -3   7 4.76684 1.81251  15
  -5  -3   7 2.90300 1.20625  14
  -4  -3   7 14.5834 1.88903  10
  -4  -3   7 18.5398 2.88558  14
  -4  -3   7 12.9529 2.86284  15
  -3  -3   7 -0.4420 2.28232  14
  -3  -3   7 1.01688 1.63433  10
  -3  -3   7 1.29335 1.16885   9
  -3  -3   7 1.63309 4.98776   6
  -3  -3   7 1.59276 2.54558  15
  -2  -3   7 12.3594 4.84610   6
  -2  -3   7 13.6296 3.39562   2
  -2  -3   7 4.53412 3.56968   3
  -2  -3   7 11.7732 1.51098   9
  -2  -3   7 10.5160 1.31724   8
  -2  -3   7 9.39214 1.92848  10
  -1  -3   7 845.926 47.4913   8
  -1   3  -7 152.069 10.3701   9
  -1   3  -7 160.379 12.6906   2
  -1   3  -7 192.437 9.87374   8
  -1   3  -7 176.449 11.5916   7
  -2   3  -7 11.4859 1.28636   8
  -2   3  -7 15.4496 2.41894  18
  -2   3  -7 9.20281 2.73378   2
  -2   3  -7 8.14277 3.09120   3
  -2   3  -7 8.64267 1.28287   9
  -2   3  -7 12.0030 1.78356  10
  -2   3  -7 9.44899 3.21675   7
  -2   3  -7 9.99039 3.75261   4
  -3   3  -7 10.2672 3.25153  11
  -3   3  -7 10.5373 2.66070   3
  -3   3  -7 5.75124 3.54045   7
  -3   3  -7 13.9163 2.76388   2
  -3   3  -7 11.3506 1.80297  10
  -3   3  -7 19.6065 4.41501   4
  -3   3  -7 15.6083 2.95421  17
  -3   3  -7 12.7448 2.72585  18
  -3   3  -7 12.9211 1.34380   9
  -4   3  -7 80.1255 7.07558  18
  -4   3  -7 85.4279 7.49684  17
  -4   3  -7 86.9164 7.78649  11
  -4   3  -7 83.0921 5.81267  10
  -5   3  -7 46.1431 4.92272  18
  -5   3  -7 42.1920 5.27590  17
  -5   3  -7 41.2914 5.01624  11
  -5  -2   7 -0.2601 1.91613  15
  -5  -2   7 -2.0250 1.75499  14
  -4  -2   7 15.1372 2.88054  14
  -4  -2   7 12.0025 1.72427  10
  -4  -2   7 9.68102 2.75395  15
  -3  -2   7 43.2049 5.24865  15
  -3  -2   7 44.3585 3.79537  10
  -3  -2   7 38.0947 4.86588  14
  -3  -2   7 44.7274 6.94346   6
  -3  -2   7 42.4640 3.23470   9
  -2  -2   7 0.44704 1.12846   9
  -2  -2   7 -0.4927 0.96101   8
  -2  -2   7 3.07483 3.91871   6
  -2  -2   7 1.48025 3.16587   3
  -2  -2   7 0.52652 1.53046  10
  -2  -2   7 0.53234 2.41348   2
  -1  -2   7 4.70443 3.24437   3
  -1  -2   7 4.07208 2.63062   2
   0   2  -7 -0.4602 2.48434   2
   0   2  -7 0.99661 2.26893   3
  -1   2  -7 46.9134 5.98652   3
  -1   2  -7 55.6935 5.64147   2
  -2   2  -7 35.5218 4.09228   3
  -2   2  -7 29.1223 3.26504  10
  -2   2  -7 37.6890 4.42772   2
  -2   2  -7 38.8302 4.60487   7
  -2   2  -7 33.4146 4.56881   4
  -2   2  -7 30.9687 2.48265   8
  -2   2  -7 31.2650 2.62328   9
  -3   2  -7 5.50743 2.35120   2
  -3   2  -7 8.31300 3.05037  11
  -3   2  -7 11.3025 2.84485  17
  -3   2  -7 9.82975 2.46032  18
  -3   2  -7 7.20521 3.52031   7
  -3   2  -7 7.19437 1.10715   9
  -3   2  -7 9.37830 1.59520  10
  -3   2  -7 10.0727 2.35323   3
  -3   2  -7 4.07049 3.89367   4
  -4   2  -7 515.624 34.1625  11
  -4   2  -7 481.803 33.8510  17
  -4   2  -7 424.243 29.3996   4
  -4   2  -7 406.450 29.2026  10
  -4   2  -7 500.600 31.3651  18
  -5   2  -7 8.65242 2.93712  18
  -5   2  -7 10.8789 3.17235  17
  -5   2  -7 8.59337 2.79258  11
  -6   2  -7 18.3778 2.69195  11
  -6   2  -7 28.2808 3.08267  18
  -5  -1   7 4.14785 1.81150  14
  -5  -1   7 6.15849 2.03336  15
  -4  -1   7 11.8409 1.65325  10
  -4  -1   7 15.1075 2.84830  14
  -4  -1   7 6.53070 2.26739  15
  -3  -1   7 71.2378 5.32112  10
  -3  -1   7 65.7852 6.67762   2
  -3  -1   7 69.7350 6.74045  14
  -3  -1   7 77.5630 6.63149  15
  -3  -1   7 73.7688 9.12171   6
  -3  -1   7 75.6147 4.79645   9
  -2  -1   7 2092.95 133.522  10
  -2  -1   7 2274.01 144.872   6
  -2  -1   7 1994.52 141.468   2
  -2  -1   7 2296.51 138.212   3
  -2  -1   7 2070.78 126.100   9
  -1  -1   7 27.5979 3.85141   3
  -1  -1   7 22.0258 3.54273   2
   0   1  -7 24.5323 3.77611   3
   0   1  -7 17.1643 3.10461   2
  -1   1  -7 33.7286 3.62073   4
  -1   1  -7 25.5289 3.53264   3
  -1   1  -7 19.2061 2.74787   2
  -2   1  -7 26.4339 3.80110   3
  -2   1  -7 34.0222 4.33861   2
  -2   1  -7 25.8382 3.80035   4
  -3   1  -7 1.02830 2.04726  12
  -3   1  -7 0.78635 2.68643  11
  -3   1  -7 1.79722 2.08789   3
  -3   1  -7 1.74573 2.77760  17
  -3   1  -7 0.91371 2.28701  18
  -3   1  -7 0.76516 1.37381  10
  -3   1  -7 -1.3193 3.31740   4
  -4   1  -7 35.0466 5.15368   4
  -4   1  -7 36.2722 4.53146  12
  -4   1  -7 34.1410 3.26531  10
  -4   1  -7 34.3402 5.35010  11
  -4   1  -7 42.5100 4.57356  17
  -4   1  -7 37.9214 4.88559  18
  -5   1  -7 4.36679 2.63559  11
  -5   1  -7 7.28613 2.92850  18
  -5   1  -7 14.9263 3.50864  17
  -6   1  -7 9.58736 2.81730  11
  -6   1  -7 10.0805 2.87206  18
  -5   0   7 5.49330 2.05318  15
  -5   0   7 1.37793 1.33458  14
  -4   0   7 6.60689 1.54775  10
  -4   0   7 4.29352 2.24857  16
  -4   0   7 7.70551 2.46722  15
  -4   0   7 6.75573 2.76945  14
  -3   0   7 650.809 49.3062  14
  -3   0   7 625.145 45.1468   6
  -3   0   7 672.327 38.0101   9
  -3   0   7 564.597 43.1573   2
  -3   0   7 627.391 40.2587  10
  -3   0   7 712.550 43.9872  15
  -2   0   7 5.54125 2.65590   2
  -2   0   7 8.43828 1.60213   8
  -2   0   7 4.47712 3.06895   3
  -2   0   7 9.34723 2.12979  15
  -2   0   7 10.5195 4.11787   6
  -2   0   7 6.20010 1.37697   9
  -2   0   7 6.01710 1.54737  10
  -1   0   7 85.8322 7.43936   2
  -1   0   7 84.8469 7.86116   6
  -1   0   7 81.4545 7.45523   3
   0   0  -7 19.3934 3.43316   2
   0   0  -7 11.7784 2.86434   3
   0   0   7 15.1867 2.89702   3
   0   0   7 15.7414 2.99566   2
  -1   0  -7 196.287 14.5492   2
  -1   0  -7 199.350 13.1498   4
  -1   0  -7 211.281 14.2891   3
  -2   0  -7 1486.41 94.9022   3
  -2   0  -7 1461.50 97.4680   2
  -3   0  -7 -0.3132 2.45236  11
  -3   0  -7 -1.6578 2.73676  17
  -3   0  -7 0.64102 2.24021   3
  -3   0  -7 0.89131 3.15595   4
  -3   0  -7 1.28150 2.31609  12
  -3   0  -7 -1.0569 1.45506  10
  -3   0  -7 -1.9884 1.91529  18
  -4   0  -7 42.2163 5.12572  12
  -4   0  -7 43.8644 5.76949  17
  -4   0  -7 45.3943 5.04314  18
  -4   0  -7 42.6523 5.72364   4
  -4   0  -7 42.8811 3.58228  10
  -4   0  -7 42.6663 5.35607  11
  -5   0  -7 52.1047 5.83520  12
  -5   0  -7 55.0474 5.88364  11
  -5   0  -7 62.0350 6.05395  18
  -6   0  -7 103.529 9.37457  12
  -6   0  -7 139.576 9.66618  11
  -6   0  -7 114.026 8.83436  18
  -5   1   7 39.7548 3.95127  15
  -4   1   7 16.4589 3.05431  14
  -4   1   7 13.2437 2.45675  15
  -4   1   7 8.75930 2.63573  16
  -3   1   7 147.672 13.1583  14
  -3   1   7 165.266 9.94874   9
  -3   1   7 181.258 12.0139  15
  -3   1   7 162.698 14.0467   6
  -3   1   7 161.040 10.6591  10
  -2   1   7 176.376 14.3289   2
  -2   1   7 202.239 13.7972  15
  -2   1   7 216.802 15.5381   6
  -2   1   7 195.068 11.8016   9
  -2   1   7 204.156 13.9944   3
  -2   1   7 191.358 12.5223  10
  -2   1   7 183.003 11.2276   8
  -1   1   7 -1.5129 3.01281   6
  -1   1   7 1.12320 2.55779   3
   0  -1  -7 153.640 10.4378   4
   0   1   7 172.814 12.1553   6
   0   1   7 157.003 11.6969   3
  -1  -1  -7 63.6919 5.74953   4
  -1  -1  -7 71.5159 6.47351   3
  -1  -1  -7 66.2716 6.73208   2
  -1  -1  -7 55.4133 8.09237   1
  -2  -1  -7 35.6371 4.18072   4
  -2  -1  -7 37.3773 4.83465   3
  -3  -1  -7 456.835 28.1428   3
  -3  -1  -7 460.665 29.0572   2
  -3  -1  -7 464.297 26.9301   4
  -3  -1  -7 394.259 25.2608   9
  -3  -1  -7 426.961 31.0155  11
  -3  -1  -7 372.606 26.8510  10
  -3  -1  -7 448.011 32.6326  12
  -3  -1  -7 409.193 28.5917  18
  -4  -1  -7 3.15191 1.43909  10
  -4  -1  -7 1.72122 2.38490  11
  -4  -1  -7 0.01046 3.83740   4
  -4  -1  -7 4.82571 2.82573  18
  -4  -1  -7 2.41040 2.60361  12
  -5  -1  -7 40.0929 4.41615  18
  -5  -1  -7 33.7529 4.96628  12
  -5  -1  -7 35.3098 4.88251  11
  -6  -1  -7 7.71022 2.32503  12
  -6  -1  -7 15.4277 2.94802  11
  -5   2   7 43.2553 3.79509  15
  -4   2   7 116.524 9.18994  16
  -4   2   7 105.479 10.1375  14
  -4   2   7 138.361 8.14354  10
  -4   2   7 124.290 9.19221  15
  -3   2   7 12.3827 3.08923  14
  -3   2   7 6.99264 5.46055   6
  -3   2   7 16.7262 2.77494  15
  -3   2   7 12.2545 1.54995   9
  -3   2   7 10.2193 3.38187  16
  -2   2   7 12.8253 5.10912   6
  -2   2   7 10.4011 3.21059   2
  -2   2   7 12.8343 1.98256  10
  -2   2   7 10.4728 1.56288   8
  -2   2   7 11.1062 3.21438   3
  -2   2   7 12.0175 2.21784  15
  -2   2   7 11.6078 1.69444   9
  -1   2   7 3.30196 4.94468   2
  -1   2   7 -2.6292 3.46801   6
  -1   2   7 -2.9296 1.63019   9
  -1   2   7 -1.9735 1.49717   8
  -1   2   7 -0.7759 2.79616   3
   0   2   7 792.752 58.0550   6
   0   2   7 991.115 57.9779   2
   0   2   7 790.651 55.5861   3
  -1  -2  -7 520.696 36.9455   4
  -1  -2  -7 713.606 40.5023   3
  -2  -2  -7 100.706 8.09828   4
  -2  -2  -7 102.435 8.24400   3
  -2  -2  -7 95.5461 8.57892   2
  -3  -2  -7 7.61164 2.40297  13
  -3  -2  -7 10.7724 1.90706  10
  -3  -2  -7 10.5391 1.34654   9
  -3  -2  -7 13.2739 3.64686   4
  -3  -2  -7 11.4236 2.78473   3
  -3  -2  -7 8.25921 2.31873  11
  -3  -2  -7 8.81262 2.58208  18
  -3  -2  -7 10.9842 2.61244  12
  -3  -2  -7 12.2886 3.22002   2
  -4  -2  -7 23.3513 3.16956  10
  -4  -2  -7 33.0666 3.81386  11
  -4  -2  -7 25.0453 4.96522   4
  -4  -2  -7 20.5333 3.16771  13
  -4  -2  -7 25.4649 3.61771  12
  -4  -2  -7 29.5072 3.63505  18
  -5  -2  -7 85.9566 7.49067  13
  -5  -2  -7 98.1852 8.49668  12
  -5  -2  -7 102.016 8.24056  11
  -5  -2  -7 89.1345 8.08541  18
  -6  -2  -7 26.3262 3.45500  11
  -6  -2  -7 18.3302 2.98037  12
  -4   3   7 2.01294 1.56568  10
  -4   3   7 0.59947 2.40923  16
  -4   3   7 1.90258 2.13607  15
  -3   3   7 11.9388 3.25084  16
  -3   3   7 17.7976 2.46871  10
  -3   3   7 16.6842 1.88836   9
  -2   3   7 12.0674 5.03641   6
  -2   3   7 11.7883 3.86525   2
  -2   3   7 14.2716 3.11620   3
  -2   3   7 15.2595 1.90831   9
  -2   3   7 14.0451 3.08651  16
  -2   3   7 17.5304 1.62160   8
  -1   3   7 824.615 56.5759   2
  -1   3   7 902.412 47.1762   8
  -1   3   7 815.657 57.6862   6
  -1   3   7 812.833 49.6293   9
   0   3   7 97.3692 8.59329   3
  -1  -3  -7 139.002 11.2964   3
  -1  -3  -7 158.968 13.1340   2
  -2  -3  -7 211.359 15.0661   9
  -2  -3  -7 265.477 17.5488   3
  -2  -3  -7 252.618 14.3551   8
  -2  -3  -7 265.744 18.3613   2
  -2  -3  -7 275.228 16.4466   4
  -3  -3  -7 0.30006 1.76980  10
  -3  -3  -7 -0.2488 0.78379   8
  -3  -3  -7 0.19117 2.03101  11
  -3  -3  -7 2.07335 2.34664  12
  -3  -3  -7 -1.0346 2.51890   3
  -3  -3  -7 -1.3650 3.05685   4
  -3  -3  -7 0.24818 1.11406   9
  -3  -3  -7 -2.3917 3.23489   5
  -3  -3  -7 1.39418 2.70148   2
  -4  -3  -7 276.952 17.9532  10
  -4  -3  -7 292.869 20.9143  11
  -4  -3  -7 272.742 19.1506   2
  -4  -3  -7 278.833 16.6587   9
  -4  -3  -7 291.526 21.9485  12
  -4  -3  -7 271.201 19.1739   4
  -5  -3  -7 104.612 6.42288  10
  -5  -3  -7 96.1691 8.44100  11
  -5  -3  -7 95.5648 8.59173  12
  -5  -3  -7 85.7436 7.90441  13
  -6  -3  -7 16.9224 2.57620  13
  -6  -3  -7 21.1790 2.98551  12
  -6  -3  -7 28.2736 3.65576  11
  -4   4   7 -0.2734 2.24998  16
  -4   4   7 -0.0985 1.28845  15
  -3   4   7 -1.1485 2.46510  16
  -3   4   7 0.99942 2.03576  10
  -2   4   7 52.0692 5.44460  16
  -2   4   7 41.1683 5.08025  10
  -2   4   7 37.8323 6.67544   6
  -2   4   7 57.8384 5.21875  17
  -2   4   7 54.7088 4.01664   9
  -1   4   7 1.19177 3.39419   3
  -1   4   7 2.18035 1.62647   9
  -1   4   7 2.56642 1.51608   8
  -1   4   7 3.21301 3.92957   2
  -1   4   7 -1.2845 2.56581  10
   0   4   7 68.5923 4.84094   8
  -1  -4  -7 444.071 25.2062   8
  -2  -4  -7 45.2157 6.09647   3
  -2  -4  -7 46.2879 3.40363   8
  -2  -4  -7 42.4196 4.70979  12
  -2  -4  -7 41.0178 3.54784   9
  -2  -4  -7 46.7751 6.05259   2
  -3  -4  -7 173.432 13.2033   3
  -3  -4  -7 175.814 10.3269   8
  -3  -4  -7 172.362 11.9408  10
  -3  -4  -7 192.414 13.9896   2
  -3  -4  -7 177.149 13.1446   4
  -3  -4  -7 187.783 14.3866  12
  -3  -4  -7 175.141 11.0102   9
  -3  -4  -7 192.352 13.0901   5
  -4  -4  -7 37.5368 4.01335  10
  -4  -4  -7 38.9021 2.90231   9
  -4  -4  -7 36.7867 4.27071  11
  -4  -4  -7 43.0981 4.95694  12
  -4  -4  -7 38.8683 6.09878   4
  -4  -4  -7 32.3186 4.51581  13
  -5  -4  -7 132.178 7.84259  10
  -5  -4  -7 123.183 10.0267  12
  -5  -4  -7 98.2192 9.40652  13
  -5  -4  -7 114.442 9.85972  11
  -6  -4  -7 50.5735 4.94132  12
  -6  -4  -7 52.0222 4.62312  13
  -4   5   7 18.4616 2.25636  16
  -3   5   7 39.3627 4.03469  10
  -3   5   7 45.9717 4.37653  16
  -2   5   7 403.241 25.6651   9
  -2   5   7 414.136 29.0817  16
  -2   5   7 480.842 31.3283  17
  -2   5   7 430.090 27.4219  10
  -1   5   7 9.09461 2.00332   9
  -1   5   7 6.91046 4.18964   2
  -1   5   7 7.70341 3.85451   7
  -1   5   7 5.50027 2.34607  16
  -1   5   7 8.14528 2.72946  10
  -1   5   7 7.91560 1.57937   8
   0   5   7 60.4300 4.51801   8
  -1  -5  -7 3.21880 1.57527   8
  -2  -5  -7 2.19891 3.41537   2
  -2  -5  -7 1.39346 3.33404   3
  -2  -5  -7 1.66666 1.30963   8
  -2  -5  -7 0.52995 1.19624   9
  -3  -5  -7 668.574 49.1114  12
  -3  -5  -7 647.968 38.4279   9
  -3  -5  -7 673.020 36.4453   8
  -3  -5  -7 634.765 44.3685   2
  -3  -5  -7 605.526 39.1849   5
  -3  -5  -7 650.698 40.8055  10
  -4  -5  -7 16.1291 2.32596  10
  -4  -5  -7 10.9527 2.65158  12
  -4  -5  -7 14.9889 1.65150   9
  -4  -5  -7 13.3288 3.60616  13
  -5  -5  -7 42.5298 3.49723  10
  -5  -5  -7 38.6298 4.63823  12
  -6  -5  -7 4.91096 2.33298  13
  -6  -5  -7 2.56022 1.59059  12
  -3   6   7 0.57114 2.01314  16
  -3   6   7 -1.1814 1.46623  10
  -2   6   7 0.75018 2.46024  17
  -2   6   7 0.27195 1.26785   9
  -2   6   7 -2.2502 2.12258  10
  -2   6   7 -3.4951 2.39040  16
  -1   6   7 24.3059 2.47628   9
  -1   6   7 22.5495 3.08357  10
  -1   6   7 21.8399 2.36454   8
   0   6   7 12.5794 1.89754   8
  -1  -6  -7 52.2767 4.16212   8
  -2  -6  -7 1431.79 78.2838   8
  -2  -6  -7 1360.27 82.3789   9
  -3  -6  -7 49.2129 3.71997   9
  -3  -6  -7 43.6741 3.33051   8
  -3  -6  -7 45.6778 4.76782  10
  -4  -6  -7 163.304 9.64475   9
  -4  -6  -7 174.062 10.6614  10
  -4  -6  -7 134.066 12.0513  13
  -5  -6  -7 71.4423 5.16495  10
  -2   7   7 4.83133 2.04287  17
  -2   7   7 2.92619 1.84826  10
  -2   7   7 4.35595 0.85599   9
  -1   7   7 83.4929 7.02272  10
  -1   7   7 105.368 7.79208  17
  -1   7   7 85.1628 6.04421   9
   0   7   7 30.3062 3.21255   9
   0   7   7 21.9590 2.76359   8
  -1  -7  -7 -0.5889 1.77000   8
   1   7   7 0.26717 1.63633   8
  -2  -7  -7 41.7029 3.49071   8
  -3  -7  -7 121.530 7.35492   8
  -3  -7  -7 130.075 9.83681  13
  -4  -7  -7 -1.2216 2.74739  13
  -4  -7  -7 2.98812 1.14627   9
  -4  -7  -7 2.07801 1.91105  10
  -5  -7  -7 56.0505 5.54245  13
  -5  -7  -7 70.8600 4.72399  10
  -1   8   7 0.08968 1.07259   9
  -1   8   7 -0.0055 1.75430  10
  -1   8   7 1.07238 1.99075  17
   0   8   7 3.84653 1.56145   9
   0   8   7 4.64354 1.19298   8
  -1  -8  -7 82.0464 5.45445   8
   1   8   7 77.3190 5.23122   8
  -2  -8  -7 69.9225 4.65748   8
  -3  -8  -7 24.5555 2.59559   9
  -4  -8  -7 55.4313 3.67851   9
  -4  -8  -7 62.3734 4.72776  10
   0   9   7 3.85482 1.53760  17
   0   9   7 3.27234 0.90091   9
  -1  -9  -7 59.8128 4.38189   8
   1   9   7 70.2914 5.57662  17
   1   9   7 73.4752 4.26940   8
  -2  -9  -7 5.98715 2.14868  13
  -2  -9  -7 3.60034 1.06273   8
   2   9   7 1.77482 1.30650   8
  -3  -9  -7 -0.0013 1.05636   9
  -3  -9  -7 0.54377 1.89802  13
   1   8  -8 51.0330 3.45889   8
  -1  -8   8 53.7474 3.48296   8
   0   8  -8 23.8230 2.28412   9
   0   8  -8 21.6211 1.89835   8
  -1   8  -8 -0.3600 1.70513  18
  -1   8  -8 -0.9834 0.88663   9
  -2   8  -8 48.4582 3.63280  10
  -2   8  -8 47.3953 3.93715  18
  -3  -7   8 10.8420 1.14087   9
  -2  -7   8 6.66381 1.44141   9
  -2  -7   8 6.04084 1.07337   8
   1   7  -8 1.48407 1.53929   8
  -1  -7   8 0.71181 1.26637   8
   0   7  -8 12.4942 1.45337   8
   0   7  -8 7.87338 1.53962   9
  -1   7  -8 109.712 9.27267  11
  -1   7  -8 122.154 8.63355  18
  -1   7  -8 123.663 7.46351   9
  -2   7  -8 3.97360 0.97597   9
  -2   7  -8 2.24687 2.34009  18
  -2   7  -8 1.97851 1.87179  10
  -3   7  -8 168.385 9.95920  10
  -3   7  -8 138.520 10.5727  18
  -3  -6   8 -0.4309 0.97613   9
  -3  -6   8 0.37398 1.89516  15
  -3  -6   8 -1.1293 1.63295  10
  -2  -6   8 188.672 10.3853   8
  -2  -6   8 170.002 10.9845   9
   1   6  -8 32.9478 3.03173   8
  -1  -6   8 35.7104 3.07167   8
   0   6  -8 31.6387 2.85458   8
  -1   6  -8 7.84313 2.46696  18
  -1   6  -8 6.21389 1.44317   9
  -1   6  -8 6.02356 1.20195   8
  -2   6  -8 66.6785 4.31851   9
  -2   6  -8 64.1437 6.19584  11
  -2   6  -8 69.2200 5.62198  18
  -2   6  -8 56.5206 5.13260  10
  -3   6  -8 132.556 8.87643  10
  -3   6  -8 134.274 9.59099  18
  -4   6  -8 49.4531 4.35209  18
  -4  -5   8 -0.5013 1.68200  15
  -4  -5   8 0.31635 1.23936  10
  -3  -5   8 76.2146 5.80490  10
  -3  -5   8 79.0059 5.12466   9
  -3  -5   8 80.8330 6.53672  15
  -2  -5   8 14.1170 1.61698   8
  -2  -5   8 18.5701 1.97444   9
  -1  -5   8 388.830 22.1315   8
   0   5  -8 89.0663 5.65611   8
  -1   5  -8 31.6028 3.01691   9
  -1   5  -8 33.1319 2.68825   8
  -1   5  -8 33.5960 4.14334  18
  -1   5  -8 26.3566 4.47100   4
  -2   5  -8 451.019 31.2394  11
  -2   5  -8 443.649 28.6248  18
  -2   5  -8 381.049 26.9102  10
  -2   5  -8 430.415 25.2957   9
  -3   5  -8 7.71827 2.68464  18
  -3   5  -8 6.05765 2.77230  11
  -3   5  -8 6.55350 1.78412  10
  -4   5  -8 -2.3747 2.43076  17
  -4   5  -8 -0.3199 2.45006  18
  -4  -4   8 134.515 8.45053  10
  -4  -4   8 121.826 9.48029  15
  -3  -4   8 17.3380 2.85813  15
  -3  -4   8 10.7055 1.50861   9
  -3  -4   8 11.7216 2.00284  10
  -2  -4   8 170.035 9.88283   9
  -2  -4   8 158.251 9.35266   8
  -2  -4   8 143.823 13.7625   6
  -1  -4   8 3.03869 1.31400   8
   0   4  -8 14.1960 1.62433   8
  -1   4  -8 -0.0270 3.77105   3
  -1   4  -8 4.21960 2.17980  18
  -1   4  -8 -1.2650 1.13389   8
  -1   4  -8 -4.3988 2.76175   2
  -1   4  -8 -1.4060 1.38682   9
  -2   4  -8 43.9186 5.59373   2
  -2   4  -8 48.7230 4.51552  10
  -2   4  -8 58.4546 6.52483   4
  -2   4  -8 56.3909 3.40019   8
  -2   4  -8 53.8399 5.06571  18
  -2   4  -8 55.1998 3.82677   9
  -2   4  -8 51.5207 5.89232   7
  -3   4  -8 93.0498 5.68270   9
  -3   4  -8 91.2534 6.48765  10
  -3   4  -8 87.2159 7.81427  17
  -3   4  -8 92.2796 7.36493  18
  -4   4  -8 17.8872 3.08261  18
  -4   4  -8 22.0717 2.70068  10
  -4   4  -8 19.6074 3.40204  17
  -4   4  -8 18.1273 3.38914  11
  -5   4  -8 52.5135 5.10974  17
  -5   4  -8 57.2869 4.99494  18
  -4  -3   8 43.5454 4.71515  15
  -4  -3   8 42.2785 3.59509  10
  -3  -3   8 7.39070 1.82089  10
  -3  -3   8 10.4446 2.72705  15
  -3  -3   8 7.37639 1.37905   9
  -2  -3   8 23.5874 2.49107   9
  -2  -3   8 20.4247 2.21027   8
  -2  -3   8 13.1442 3.46277   2
  -2  -3   8 26.9491 5.81535   6
  -1  -3   8 -0.1093 1.10843   8
   0   3  -8 102.321 6.23703   8
  -1   3  -8 1089.20 65.4842   9
  -1   3  -8 1106.57 74.0581   2
  -1   3  -8 1136.98 62.2506   8
  -2   3  -8 34.1377 4.69545   3
  -2   3  -8 35.7651 5.05190   4
  -2   3  -8 30.5731 3.96612  18
  -2   3  -8 34.5650 2.77122   9
  -2   3  -8 29.4246 4.13548   2
  -2   3  -8 32.9424 2.54677   8
  -2   3  -8 30.0901 3.52937  10
  -3   3  -8 0.92740 2.43351  18
  -3   3  -8 0.32318 1.64245  10
  -3   3  -8 0.24490 3.78991   4
  -3   3  -8 1.10715 2.55932   2
  -3   3  -8 -0.9350 2.83647  17
  -3   3  -8 2.71131 1.11660   9
  -3   3  -8 -3.4923 3.19249  11
  -4   3  -8 194.934 12.1067  10
  -4   3  -8 175.406 14.3832  17
  -4   3  -8 196.895 14.8428  11
  -4   3  -8 185.282 13.3418  18
  -5   3  -8 47.8212 4.71085  18
  -5   3  -8 46.4070 5.24940  17
  -5   3  -8 51.9158 5.31908  11
  -5  -2   8 501.681 34.1223  15
  -4  -2   8 32.8365 4.24970  15
  -4  -2   8 31.1059 2.99810  10
  -3  -2   8 228.874 16.0667  15
  -3  -2   8 216.170 13.5648   9
  -3  -2   8 233.261 14.5361  10
  -2  -2   8 9.62219 1.43792   9
  -2  -2   8 11.7558 2.98475   2
  -2  -2   8 11.1619 4.90988   6
  -2  -2   8 8.26535 3.92170   3
  -2  -2   8 12.2769 1.90844  10
  -1  -2   8 58.0774 3.99985   8
  -1  -2   8 67.9563 7.20061   3
  -1  -2   8 64.8536 6.89301   2
  -1   2  -8 163.942 12.5524   2
  -1   2  -8 169.084 12.9111   3
  -1   2  -8 160.174 10.3118   9
  -1   2  -8 189.107 11.9261   4
  -1   2  -8 171.164 9.79873   8
  -2   2  -8 376.334 25.8752  18
  -2   2  -8 401.958 26.5808   2
  -2   2  -8 393.825 22.9715   9
  -2   2  -8 331.448 25.9916   3
  -2   2  -8 399.816 24.4398  10
  -2   2  -8 382.588 21.8282   8
  -2   2  -8 427.635 24.8007   4
  -3   2  -8 -0.2915 4.10009   4
  -3   2  -8 1.47347 1.58707  10
  -3   2  -8 -0.1944 1.05856   9
  -3   2  -8 -1.4786 3.04579  11
  -3   2  -8 -0.4705 2.82824  17
  -3   2  -8 -2.0729 2.26482  18
  -3   2  -8 1.38593 2.52161   3
  -3   2  -8 -3.0800 2.40033   2
  -4   2  -8 844.484 50.9275  10
  -4   2  -8 753.657 58.5589  17
  -4   2  -8 870.589 59.0059  11
  -4   2  -8 793.498 54.1772  18
  -5   2  -8 7.46706 2.82593  18
  -5   2  -8 8.53929 3.26358  17
  -5   2  -8 3.80967 2.82606  11
  -6   2  -8 -2.9182 2.25078  18
  -5  -1   8 66.3064 5.29675  15
  -4  -1   8 4.27124 2.19779  15
  -4  -1   8 6.98279 1.46871  10
  -3  -1   8 15.9325 2.92526  15
  -3  -1   8 17.2558 2.06807  10
  -3  -1   8 16.9129 2.12594   9
  -2  -1   8 175.299 10.7014  10
  -2  -1   8 165.610 9.97215   9
  -2  -1   8 174.531 13.5690   6
  -2  -1   8 132.013 12.1205   2
  -2  -1   8 165.664 12.6319   3
  -1  -1   8 192.459 13.8374   6
  -1  -1   8 167.058 13.2473   2
  -1  -1   8 188.581 13.4738   3
  -1  -1   8 169.132 10.2676   8
  -1   1  -8 573.355 39.8236   2
  -1   1  -8 609.246 35.9295   4
  -2   1  -8 4.66204 1.24711   9
  -2   1  -8 1.41480 2.89391  17
  -2   1  -8 3.07224 1.14026   8
  -2   1  -8 6.77415 3.14813   3
  -2   1  -8 3.99564 2.59949  11
  -2   1  -8 4.87367 3.13815   4
  -2   1  -8 5.60611 2.90197   2
  -2   1  -8 5.28490 1.71226  10
  -3   1  -8 561.397 32.6331  10
  -3   1  -8 517.459 39.5139  12
  -3   1  -8 502.196 34.6270  18
  -3   1  -8 481.434 37.5469  17
  -3   1  -8 535.820 34.1234   3
  -4   1  -8 127.637 9.79181  11
  -4   1  -8 121.754 8.64372  18
  -4   1  -8 108.311 9.46758  17
  -4   1  -8 118.706 10.3298   4
  -4   1  -8 109.517 9.46392  12
  -4   1  -8 94.6889 7.56565  10
  -5   1  -8 42.4734 5.00492  18
  -5   1  -8 41.5771 5.50163  11
  -6   1  -8 18.8876 2.98601  18
  -6   1  -8 17.4735 3.06879  11
  -5   0   8 24.9645 2.91416  15
  -4   0   8 7.36466 1.50175  10
  -4   0   8 4.43884 2.28014  15
  -3   0   8 -0.1237 1.56725  10
  -3   0   8 -0.6849 2.32129  15
  -3   0   8 0.20838 1.27194   9
  -3   0   8 -2.5429 2.71797  16
  -2   0   8 89.2731 6.30648  10
  -2   0   8 95.4294 9.23468   6
  -2   0   8 80.8346 8.08586   3
  -2   0   8 90.0832 5.66743   8
  -2   0   8 88.1218 5.80228   9
  -2   0   8 97.6842 7.16683  15
  -2   0   8 81.2233 7.80831   2
  -1   0   8 3.23803 2.91258   2
  -1   0   8 5.73399 3.35151   6
  -1   0   8 2.24616 1.29453   9
  -1   0   8 3.31955 3.03408   3
   0   0   8 180.970 13.4728   6
  -1   0  -8 88.0240 7.01578   4
  -1   0  -8 82.6322 7.60446   2
  -1   0  -8 85.0946 7.62474   3
  -2   0  -8 41.2621 4.55081   4
  -2   0  -8 29.9262 2.79609   9
  -2   0  -8 27.5803 2.64838   8
  -2   0  -8 31.5019 4.25214  11
  -2   0  -8 37.7554 4.61978   2
  -2   0  -8 37.7253 4.22813   3
  -2   0  -8 27.0277 3.68037  10
  -3   0  -8 720.920 42.7256  10
  -3   0  -8 583.943 49.2151  11
  -3   0  -8 681.014 45.3042  18
  -3   0  -8 659.037 41.9259   4
  -3   0  -8 673.133 44.4612   3
  -3   0  -8 771.547 51.7764  12
  -4   0  -8 12.0606 1.92571  10
  -4   0  -8 6.72332 2.90901  11
  -4   0  -8 16.5270 3.02660  18
  -4   0  -8 13.2027 3.08493  12
  -4   0  -8 12.0414 4.38157   4
  -5   0  -8 2.75050 2.59874  12
  -5   0  -8 5.98337 2.87000  18
  -5   0  -8 1.42986 2.43729  11
  -6   0  -8 107.641 8.75869  11
  -6   0  -8 102.123 7.97444  18
  -4   1   8 7.63391 2.27834  15
  -4   1   8 5.74391 2.43315  16
  -3   1   8 204.249 12.8400   9
  -3   1   8 217.034 15.1378  16
  -3   1   8 206.276 13.7328  10
  -3   1   8 228.624 15.2362  15
  -2   1   8 294.203 17.2854   9
  -2   1   8 290.274 18.3413  10
  -2   1   8 301.954 21.5858   6
  -2   1   8 260.706 19.8277   3
  -2   1   8 253.703 20.3334   2
  -2   1   8 311.416 20.0656  15
  -2   1   8 295.678 16.3990   8
  -1   1   8 328.980 21.8696   9
  -1   1   8 383.171 20.8561   8
  -1   1   8 374.189 24.8502   3
  -1   1   8 353.524 25.4998   2
  -1   1   8 401.129 26.2179   6
   0  -1  -8 7.49214 2.13659   4
   0   1   8 10.5637 3.13496   6
  -1  -1  -8 5.17586 3.11450   2
  -1  -1  -8 5.94301 2.37237   4
  -1  -1  -8 3.82078 2.90811   3
  -2  -1  -8 528.439 33.1196   8
  -2  -1  -8 662.347 38.7713   3
  -2  -1  -8 583.355 36.0200   4
  -3  -1  -8 134.612 10.9147   4
  -3  -1  -8 152.300 11.4557  12
  -3  -1  -8 130.696 9.16859  10
  -3  -1  -8 122.455 9.80543  18
  -3  -1  -8 136.577 8.33027   9
  -3  -1  -8 143.855 10.1949   3
  -3  -1  -8 116.220 10.6268  11
  -3  -1  -8 155.832 10.8556   2
  -4  -1  -8 115.169 9.00764  18
  -4  -1  -8 113.801 10.5985   4
  -4  -1  -8 118.576 9.89791  11
  -4  -1  -8 123.496 10.4716  12
  -4  -1  -8 119.516 8.08394  10
  -5  -1  -8 105.987 8.63775  18
  -5  -1  -8 110.507 9.55451  12
  -6  -1  -8 29.0415 3.71826  11
  -6  -1  -8 21.7359 3.49080  12
  -4   2   8 31.6660 3.97758  15
  -4   2   8 41.0406 3.36055  10
  -4   2   8 34.9982 4.15614  16
  -3   2   8 58.4390 3.95118   9
  -3   2   8 53.2078 5.55635  15
  -3   2   8 59.7158 5.99531  16
  -2   2   8 20.0541 2.43874  10
  -2   2   8 18.9340 2.79209  15
  -2   2   8 14.6763 4.95739   6
  -2   2   8 22.5269 4.53326   2
  -2   2   8 23.4788 2.00998   8
  -2   2   8 23.2710 2.76691   9
  -1   2   8 14.1582 4.38708   6
  -1   2   8 12.1191 3.53259   3
  -1   2   8 8.98178 1.63058   9
  -1   2   8 13.3013 1.85466   8
  -1   2   8 8.17103 3.02748   2
  -1  -2  -8 317.117 20.4804   4
  -1  -2  -8 338.661 22.4570   3
  -2  -2  -8 16.7782 3.41752   3
  -2  -2  -8 10.6897 3.30687   4
  -2  -2  -8 11.6749 1.76735   9
  -2  -2  -8 16.3686 2.39575  10
  -2  -2  -8 15.9292 4.22955   2
  -2  -2  -8 17.5093 1.70870   8
  -3  -2  -8 29.7944 3.99867  10
  -3  -2  -8 32.4947 4.37863   2
  -3  -2  -8 36.6960 2.92999   9
  -3  -2  -8 36.6605 4.91029  12
  -3  -2  -8 41.3507 4.97386   3
  -3  -2  -8 36.6966 3.79431  18
  -3  -2  -8 33.8783 4.84959   4
  -3  -2  -8 30.0639 4.43301  11
  -4  -2  -8 27.1481 3.38118  10
  -4  -2  -8 18.1049 3.52916  12
  -4  -2  -8 23.1192 5.08167   4
  -4  -2  -8 16.6470 3.16811  11
  -4  -2  -8 24.6867 3.45039  18
  -5  -2  -8 114.605 9.60055  12
  -5  -2  -8 102.559 9.19880  11
  -6  -2  -8 -0.4291 2.17722  12
  -6  -2  -8 -2.4717 2.62877  11
  -4   3   8 127.664 9.39111  15
  -4   3   8 135.187 9.39654  16
  -3   3   8 26.3639 3.26028  15
  -3   3   8 25.6611 2.13261   9
  -3   3   8 27.7149 2.83422  10
  -3   3   8 24.3996 3.54124  16
  -2   3   8 -1.0242 4.67495   6
  -2   3   8 0.58243 1.54290   9
  -2   3   8 1.50181 2.82762  16
  -2   3   8 3.73000 1.17027   8
  -1   3   8 3.27683 4.18332   6
  -1   3   8 1.04494 3.21083   3
  -1   3   8 4.93468 2.49698   2
  -1   3   8 0.48722 1.59541   8
  -1   3   8 0.72536 1.55641   9
   0   3   8 12.1811 1.97096   8
  -1  -3  -8 27.7169 2.83427   8
  -2  -3  -8 63.8317 7.34672   2
  -2  -3  -8 54.3010 6.42640   4
  -2  -3  -8 57.5981 4.32835   9
  -2  -3  -8 54.2783 6.69715   3
  -2  -3  -8 63.6901 4.15021   8
  -3  -3  -8 20.0676 4.14617   2
  -3  -3  -8 27.3055 4.70580   4
  -3  -3  -8 20.7894 4.74946   5
  -3  -3  -8 23.9347 3.79288   3
  -3  -3  -8 25.6281 2.77995  10
  -3  -3  -8 19.4256 3.42621  12
  -3  -3  -8 20.3156 2.57169   9
  -3  -3  -8 23.7887 2.03484   8
  -4  -3  -8 85.6909 6.23425  10
  -4  -3  -8 77.8350 8.83808   4
  -4  -3  -8 86.7658 7.84436  12
  -4  -3  -8 66.2463 7.29073  11
  -4  -3  -8 74.0334 7.06621  13
  -4  -3  -8 86.7516 5.10247   9
  -5  -3  -8 7.36707 2.75441  12
  -5  -3  -8 10.4292 1.52774  10
  -5  -3  -8 5.58207 2.82857  11
  -5  -3  -8 5.94226 2.48582  13
  -6  -3  -8 34.5998 4.30074  12
  -6  -3  -8 34.3114 4.10253  11
  -4   4   8 11.2821 1.68614  16
  -3   4   8 18.7493 2.40681  10
  -3   4   8 21.4625 3.19975  16
  -2   4   8 -2.7569 2.68854  16
  -2   4   8 -0.0888 1.47952   9
  -2   4   8 -3.5677 2.31191  10
  -1   4   8 17.3165 2.25594   9
  -1   4   8 11.7941 3.56991   3
  -1   4   8 17.6091 1.94406   8
  -1   4   8 8.88777 3.83517   2
   0   4   8 583.611 33.0189   8
  -1  -4  -8 -1.6090 1.47628   8
  -2  -4  -8 2.61256 3.45873   3
  -2  -4  -8 0.46572 5.23974   2
  -2  -4  -8 1.23215 1.64886   9
  -2  -4  -8 -0.1949 1.42705   8
  -3  -4  -8 44.3376 3.05573   8
  -3  -4  -8 36.3513 5.39087   2
  -3  -4  -8 28.6749 5.28442   5
  -3  -4  -8 33.0800 4.92356   3
  -3  -4  -8 44.7316 3.57047   9
  -3  -4  -8 40.5418 4.69492  10
  -3  -4  -8 48.1208 5.31921  12
  -4  -4  -8 137.665 11.2272  12
  -4  -4  -8 122.902 10.5141  13
  -4  -4  -8 137.886 8.17947   9
  -4  -4  -8 131.163 9.11193  10
  -5  -4  -8 3.16851 1.51009  10
  -5  -4  -8 3.17425 2.76433  11
  -5  -4  -8 4.59194 2.60736  12
  -5  -4  -8 1.86318 2.68017  13
  -6  -4  -8 74.1053 6.35685  12
  -3   5   8 0.05855 1.66156  10
  -3   5   8 1.66518 2.26680  16
  -2   5   8 194.191 11.9878  10
  -2   5   8 178.764 10.9401   9
  -2   5   8 171.388 13.4088  17
  -2   5   8 174.371 12.6636  16
  -1   5   8 318.672 16.8448   8
  -1   5   8 281.595 20.1159  16
  -1   5   8 283.854 17.8659   9
   0   5   8 -0.5043 1.74275   8
  -1  -5  -8 127.961 7.98320   8
  -2  -5  -8 15.3242 1.97124   9
  -2  -5  -8 24.1532 2.64122   8
  -2  -5  -8 19.7277 3.14313  12
  -3  -5  -8 51.4825 4.03630   9
  -3  -5  -8 55.0193 5.50780  12
  -3  -5  -8 47.2964 4.99619  10
  -3  -5  -8 43.7009 3.46909   8
  -4  -5  -8 80.1440 6.12392  10
  -4  -5  -8 74.5758 7.28676  12
  -4  -5  -8 82.8901 5.17927   9
  -4  -5  -8 74.4572 7.27173  13
  -5  -5  -8 41.3503 3.39486  10
  -5  -5  -8 39.0935 4.62536  13
  -5  -5  -8 33.0209 4.25891  12
  -3   6   8 -0.3049 1.11055  10
  -3   6   8 1.06332 0.91694  16
  -2   6   8 6.92251 2.19863  17
  -2   6   8 3.80901 2.34602  16
  -2   6   8 3.59191 1.14329   9
  -2   6   8 3.07289 2.08508  10
  -1   6   8 1.77260 1.58193   9
  -1   6   8 5.55418 1.20431   8
   0   6   8 216.618 12.6343   8
  -1  -6  -8 35.3049 3.47741   8
   1   6   8 33.8154 3.54245   8
  -2  -6  -8 257.958 14.7460   8
  -2  -6  -8 251.312 15.5916   9
  -3  -6  -8 194.930 11.7888   9
  -3  -6  -8 187.302 12.8269  10
  -4  -6  -8 61.8468 4.09262   9
  -4  -6  -8 56.0925 5.98136  13
  -4  -6  -8 58.9762 5.15203  10
  -5  -6  -8 7.17866 2.57214  13
  -5  -6  -8 3.71214 1.59198  10
  -2   7   8 75.0278 4.96692  10
  -2   7   8 61.8700 5.46712  17
  -1   7   8 88.1911 7.11347  17
  -1   7   8 82.8922 5.62471   9
   0   7   8 4.89220 1.55888   9
   0   7   8 6.85166 1.48470   8
  -1  -7  -8 26.7461 3.20244   8
   1   7   8 25.6184 2.99938   8
  -2  -7  -8 -1.1716 1.52026   8
  -3  -7  -8 19.2504 2.14517   9
  -3  -7  -8 21.0106 2.06863   8
  -3  -7  -8 29.1973 3.64142  13
  -4  -7  -8 0.33321 2.61046  13
  -4  -7  -8 -1.4581 1.02454   9
  -4  -7  -8 -0.7714 1.85821  10
  -5  -7  -8 33.5390 2.98804  10
  -5  -7  -8 37.0523 3.49445  13
  -1   8   8 4.77915 0.89170   9
  -1   8   8 3.07315 1.54725  17
   0   8   8 1.75398 1.39443   9
   0   8   8 2.12393 1.01627   8
  -1  -8  -8 305.751 18.6278   8
   1   8   8 345.767 18.5814   8
  -2  -8  -8 16.4564 1.72189   8
   2   8   8 16.8107 2.24773   8
  -3  -8  -8 73.6129 5.24774   9
  -3  -8  -8 86.6009 6.56227  13
  -4  -8  -8 -1.0128 1.98001  13
  -4  -8  -8 -0.7841 1.64101  10
  -1  -9  -8 2.29674 1.03149   8
   1   9   8 3.18319 1.89754  17
   1   9   8 1.19741 0.85335   8
  -2  -9  -8 119.273 8.50958  13
  -2  -9  -8 114.699 6.61696   8
   2   9   8 112.205 6.86352   8
   1   8  -9 -0.9319 0.76871   8
  -1  -8   9 -1.2613 0.79134   8
   0   8  -9 -0.0439 1.09849   9
  -1   8  -9 56.8182 3.60891   9
  -2  -7   9 28.3432 2.39047   9
   1   7  -9 3.52429 1.26404   8
  -1  -7   9 3.64731 1.18022   8
   0   7  -9 292.814 17.1412   9
   0   7  -9 278.070 16.2029   8
  -1   7  -9 8.35387 2.18219  11
  -1   7  -9 8.92912 1.42792   9
  -2   7  -9 62.8470 3.83622   9
  -2   7  -9 59.6077 4.63302  10
  -2   7  -9 58.9428 4.89887  18
  -3   7  -9 6.70965 1.93218  18
  -3  -6   9 52.9096 4.65132  15
  -3  -6   9 60.2647 3.71809   9
  -2  -6   9 17.2484 1.76380   9
  -2  -6   9 15.5692 1.87711   8
   1   6  -9 129.234 7.85399   8
  -1  -6   9 131.455 7.79282   8
   0   6  -9 0.29328 1.29648   8
  -1   6  -9 21.0551 2.12905   8
  -1   6  -9 20.6429 2.62600   9
  -2   6  -9 25.6241 3.33276  11
  -2   6  -9 24.7631 3.49704  18
  -2   6  -9 24.9617 2.62320  10
  -2   6  -9 24.0294 2.32153   9
  -3   6  -9 6.42323 2.23247  18
  -3   6  -9 7.25094 1.63753  10
  -4   6  -9 67.4083 5.02011  18
  -3  -5   9 4.88856 1.12491   9
  -3  -5   9 3.79788 2.08402  15
  -3  -5   9 4.82836 1.63039  10
  -2  -5   9 0.86171 1.11898   8
  -2  -5   9 0.30760 1.23166   9
  -1  -5   9 164.697 9.71042   8
   0   5  -9 117.307 7.14774   8
  -1   5  -9 42.6994 3.55392   9
  -1   5  -9 42.6835 3.14637   8
  -2   5  -9 68.5177 4.52237   9
  -2   5  -9 68.1960 6.77153  11
  -2   5  -9 66.8534 5.32889  10
  -2   5  -9 62.0176 5.78594  18
  -3   5  -9 16.6021 2.77217  18
  -3   5  -9 10.4909 3.05617  11
  -3   5  -9 12.9491 1.95148  10
  -4   5  -9 13.8196 2.66955  11
  -4   5  -9 19.9739 2.37064  18
  -4  -4   9 0.68863 1.71766  15
  -4  -4   9 3.26894 1.18383  10
  -3  -4   9 162.524 10.9346  10
  -3  -4   9 166.793 12.0719  15
  -3  -4   9 171.962 10.1624   9
  -2  -4   9 331.888 18.5177   8
  -2  -4   9 320.082 19.5124   9
  -1  -4   9 3.78165 1.36079   8
   0   4  -9 165.281 9.76115   8
  -1   4  -9 19.0762 2.47128   9
  -1   4  -9 21.1220 4.35684   4
  -1   4  -9 16.7692 1.76364   8
  -2   4  -9 502.746 34.1666  18
  -2   4  -9 492.044 28.6671   8
  -2   4  -9 524.961 30.3489   9
  -2   4  -9 521.883 32.2584  10
  -2   4  -9 460.880 32.0374   4
  -2   4  -9 560.862 37.3533  11
  -3   4  -9 68.5265 7.44099  11
  -3   4  -9 65.9710 6.14879  18
  -3   4  -9 70.0369 5.32072  10
  -3   4  -9 72.2381 4.46231   9
  -4   4  -9 79.2893 6.07004  18
  -4   4  -9 64.6979 6.90886  11
  -5   4  -9 3.87724 2.07458  18
  -4  -3   9 3.55616 1.30932  10
  -4  -3   9 5.56364 2.07546  15
  -3  -3   9 41.2470 3.33858   9
  -3  -3   9 49.0743 4.81535  15
  -3  -3   9 47.0993 3.99674  10
  -2  -3   9 7.09615 1.42980   9
  -2  -3   9 5.47351 1.23536   8
  -1  -3   9 966.065 54.2394   8
   0   3  -9 16.1040 1.79543   8
  -1   3  -9 1292.52 72.6826   8
  -1   3  -9 1286.16 76.4727   9
  -1   3  -9 1315.65 77.6745   4
  -2   3  -9 7.14237 1.23497   8
  -2   3  -9 7.49177 3.97814   4
  -2   3  -9 8.55614 1.50749   9
  -2   3  -9 5.54726 3.49226   3
  -2   3  -9 7.60071 2.42524  18
  -2   3  -9 7.23828 1.99817  10
  -2   3  -9 7.29688 2.98496   2
  -3   3  -9 -3.7488 3.09360  11
  -3   3  -9 -0.7185 1.73337  10
  -3   3  -9 -3.7448 2.46562  18
  -3   3  -9 -3.8086 2.95638  17
  -3   3  -9 -5.1230 5.24195   4
  -3   3  -9 -0.4711 1.12030   9
  -4   3  -9 43.8225 4.76602  18
  -4   3  -9 33.6917 4.60516  17
  -4   3  -9 42.9655 3.68555  10
  -5   3  -9 -0.8262 2.64864  11
  -5   3  -9 5.13569 2.39159  18
  -4  -2   9 1.17159 2.06231  15
  -4  -2   9 -0.1341 1.27605  10
  -3  -2   9 1.63378 1.62225  10
  -3  -2   9 -0.0395 2.32877  15
  -3  -2   9 0.29996 1.20866   9
  -2  -2   9 340.715 26.3334   6
  -2  -2   9 380.924 21.7355   9
  -1  -2   9 11.4753 1.54740   8
  -1  -2   9 15.4614 4.31307   6
   0   2  -9 57.5284 3.93667   8
  -1   2  -9 26.6926 4.11907   4
  -1   2  -9 14.9997 3.57912   3
  -1   2  -9 22.7196 2.42525   9
  -1   2  -9 27.5133 2.35215   8
  -2   2  -9 42.8661 3.01880   8
  -2   2  -9 36.2046 5.08958   3
  -2   2  -9 42.3654 3.22096   9
  -2   2  -9 34.6801 5.28690   4
  -2   2  -9 38.3931 5.21200   2
  -2   2  -9 41.0154 4.00385  10
  -3   2  -9 25.8635 3.95865   2
  -3   2  -9 29.0891 4.08923  18
  -3   2  -9 32.6758 4.18472  17
  -3   2  -9 28.3571 5.63818   4
  -3   2  -9 27.4845 2.62168   9
  -3   2  -9 26.5711 4.06269  11
  -3   2  -9 32.7413 3.44434  10
  -4   2  -9 0.29319 3.31668  11
  -4   2  -9 4.63776 2.60818  18
  -4   2  -9 3.16144 3.36667  17
  -4   2  -9 1.87377 1.70733  10
  -5   2  -9 33.5695 5.38750  11
  -5   2  -9 45.7117 4.39396  18
  -4  -1   9 0.47431 1.30811  10
  -4  -1   9 0.05521 2.03217  15
  -3  -1   9 46.3733 3.59952   9
  -3  -1   9 54.5726 4.27706  10
  -3  -1   9 50.8540 5.17004  15
  -2  -1   9 11.6660 1.74259   9
  -2  -1   9 12.7897 1.97849   8
  -2  -1   9 5.93964 1.89230  10
  -2  -1   9 13.1774 4.82090   6
  -2  -1   9 11.8104 2.53818  15
  -2  -1   9 9.59221 3.51998   2
  -1  -1   9 19.9519 4.44145   6
  -1  -1   9 14.6275 1.63357   8
  -1   1  -9 1.03773 1.12647   8
  -1   1  -9 1.30333 2.73231   4
  -1   1  -9 0.75189 2.78962   2
  -1   1  -9 -1.2843 1.27848   9
  -1   1  -9 0.28302 2.91125   3
  -2   1  -9 39.0215 4.86770   2
  -2   1  -9 32.3713 2.99995   9
  -2   1  -9 35.6199 2.82133   8
  -2   1  -9 40.5777 5.20046   4
  -2   1  -9 33.3359 4.74939  11
  -2   1  -9 27.9875 4.43536   3
  -2   1  -9 34.4525 3.72607  10
  -3   1  -9 12.9013 3.49655   3
  -3   1  -9 19.3138 3.49799  11
  -3   1  -9 18.6135 3.44218  12
  -3   1  -9 19.4335 2.34111  10
  -3   1  -9 20.6641 2.88617  18
  -3   1  -9 20.5372 5.02607   4
  -4   1  -9 69.4450 6.82634  12
  -4   1  -9 57.5808 7.24624  11
  -4   1  -9 73.6770 5.37034  10
  -4   1  -9 73.4076 6.33334  18
  -5   1  -9 61.3489 7.15728  11
  -5   1  -9 85.5537 6.34087  18
  -6   1  -9 77.3584 5.92899  18
  -6   1  -9 75.4147 6.58912  11
  -4   0   9 140.550 10.2158  15
  -3   0   9 55.7248 5.13350  15
  -3   0   9 51.6895 4.29639  10
  -3   0   9 47.0999 5.18533  16
  -3   0   9 47.8827 3.63182   9
  -2   0   9 56.2238 4.00454   9
  -2   0   9 41.4813 6.39257   6
  -2   0   9 55.4982 5.18069  15
  -2   0   9 42.8120 6.18536   2
  -2   0   9 53.4965 3.89271   8
  -2   0   9 57.3373 4.53590  10
  -1   0   9 42.3282 5.55533   6
  -1   0   9 39.0656 3.24390   9
  -1   0   9 41.5127 5.36514   3
  -1   0   9 28.8178 4.54612   2
   0   0  -9 3.22338 2.32578   4
   0   0   9 12.8901 3.51559   6
  -1   0  -9 129.472 10.7644   3
  -1   0  -9 144.807 9.99436   4
  -1   0  -9 135.764 8.08273   8
  -2   0  -9 76.3961 7.72401   2
  -2   0  -9 95.3497 8.08427   4
  -2   0  -9 87.5059 5.34325   8
  -2   0  -9 82.1693 5.59530   9
  -2   0  -9 79.9240 6.21747  10
  -2   0  -9 86.8069 7.88713   3
  -2   0  -9 87.6699 7.18282  11
  -3   0  -9 292.266 21.7355  11
  -3   0  -9 311.525 22.9561  12
  -3   0  -9 291.533 20.0416   3
  -3   0  -9 278.337 19.7678   4
  -3   0  -9 270.244 19.8306  18
  -3   0  -9 307.331 18.7174  10
  -4   0  -9 408.427 34.1538  11
  -4   0  -9 491.587 31.3706  18
  -4   0  -9 424.704 30.6873   4
  -4   0  -9 538.451 35.9247  12
  -4   0  -9 459.972 29.4118  10
  -5   0  -9 -0.3944 2.41324  18
  -5   0  -9 -2.5921 2.54862  12
  -5   0  -9 -1.9090 2.55041  11
  -6   0  -9 3.04940 2.65980  11
  -4   1   9 11.4608 2.09378  15
  -4   1   9 19.6831 2.40957  10
  -4   1   9 9.86840 2.32977  16
  -3   1   9 1.71970 2.37836  15
  -3   1   9 -5.7053 2.61733  16
  -3   1   9 -1.0530 1.75751  10
  -3   1   9 -1.0847 1.20048   9
  -2   1   9 402.134 30.3927   6
  -2   1   9 431.193 26.8465  10
  -2   1   9 436.157 29.2044  15
  -2   1   9 424.056 25.3163   9
  -2   1   9 427.551 23.9970   8
  -1   1   9 86.3282 9.06586   2
  -1   1   9 94.8750 8.84324   3
  -1   1   9 103.152 6.60782   9
  -1   1   9 107.655 6.41152   8
  -1   1   9 106.110 9.54741   6
   0   1   9 151.721 11.9947   6
  -1  -1  -9 228.668 12.4512   8
  -1  -1  -9 220.647 14.2221   4
  -1  -1  -9 211.454 15.4882   3
  -1  -1  -9 192.919 15.8806   2
  -2  -1  -9 260.785 14.5426   8
  -2  -1  -9 237.258 18.6489  11
  -2  -1  -9 276.442 17.0041   4
  -2  -1  -9 236.699 16.3078  10
  -2  -1  -9 266.432 17.7921   3
  -3  -1  -9 -0.1320 2.06637  10
  -3  -1  -9 0.56120 2.53379  18
  -3  -1  -9 -0.4904 1.20325   9
  -3  -1  -9 -1.8138 2.85589  12
  -3  -1  -9 0.12933 2.78129   3
  -3  -1  -9 0.50479 2.51035  11
  -3  -1  -9 3.53998 3.94367   4
  -3  -1  -9 1.05940 3.28057   2
  -4  -1  -9 24.7372 2.79418  10
  -4  -1  -9 26.3351 3.99045  11
  -4  -1  -9 19.5694 5.40500   4
  -4  -1  -9 33.3015 4.38569  12
  -4  -1  -9 30.6538 3.63949  18
  -5  -1  -9 2.28910 2.83664  18
  -5  -1  -9 -0.5976 2.48550  11
  -5  -1  -9 -1.9763 2.77912  12
  -6  -1  -9 34.5866 3.83718  12
  -4   2   9 7.17602 1.40072  10
  -4   2   9 6.58650 1.65745  15
  -4   2   9 6.41632 2.04092  16
  -3   2   9 3.81962 2.80683  16
  -3   2   9 3.76299 1.09488   9
  -3   2   9 1.72644 2.31052  15
  -2   2   9 28.9438 3.00025   9
  -2   2   9 29.9771 3.75833  10
  -2   2   9 31.5504 2.60607   8
  -2   2   9 18.9713 5.39291   6
  -1   2   9 0.68976 1.53302   9
  -1   2   9 0.58683 4.00216   6
  -1   2   9 -1.3416 1.62911   8
  -1   2   9 1.45173 2.78919   3
   0   2   9 91.7328 6.02243   8
  -1  -2  -9 4.42312 1.50212   8
  -2  -2  -9 313.005 19.5555   9
  -2  -2  -9 346.062 21.1219   4
  -2  -2  -9 334.198 23.5209   2
  -2  -2  -9 324.472 20.8795  10
  -2  -2  -9 316.315 18.5924   8
  -2  -2  -9 332.252 22.4111   3
  -3  -2  -9 225.654 16.5197   2
  -3  -2  -9 210.457 15.5672   4
  -3  -2  -9 208.443 16.5092  11
  -3  -2  -9 211.364 14.4080  10
  -3  -2  -9 223.733 13.3681   9
  -3  -2  -9 239.895 17.7177  12
  -3  -2  -9 219.095 15.5573   3
  -4  -2  -9 34.2264 4.94150  18
  -4  -2  -9 42.2460 5.61520  12
  -4  -2  -9 40.4437 4.22987  10
  -4  -2  -9 34.4243 5.36281  11
  -5  -2  -9 18.0202 3.29560  12
  -6  -2  -9 53.0798 5.40677  11
  -4   3   9 66.4455 5.14998  16
  -3   3   9 264.112 18.8452  16
  -3   3   9 287.030 17.6200  10
  -2   3   9 38.7244 4.69684  16
  -2   3   9 30.5518 3.14020   9
  -1   3   9 157.416 9.86483   9
  -1   3   9 154.805 9.27701   8
   0   3   9 17.4204 2.24358   8
  -1  -3  -9 426.974 24.3084   8
  -2  -3  -9 1.43952 1.89585   9
  -2  -3  -9 2.09386 4.04834   2
  -2  -3  -9 2.26033 3.50816   3
  -2  -3  -9 0.84176 1.43789   8
  -3  -3  -9 26.8040 2.32320   8
  -3  -3  -9 34.2278 5.63401   2
  -3  -3  -9 28.6013 5.13351   4
  -3  -3  -9 21.0650 3.06919  10
  -3  -3  -9 30.9608 3.09989   9
  -3  -3  -9 33.6555 4.44518  12
  -4  -3  -9 30.1498 3.81141  11
  -4  -3  -9 18.8981 3.67278  12
  -4  -3  -9 32.5430 2.41271   9
  -4  -3  -9 22.6636 3.47719  13
  -4  -3  -9 30.4584 4.00234  10
  -5  -3  -9 19.2279 3.49465  12
  -5  -3  -9 16.3007 3.20702  11
  -5  -3  -9 18.3767 1.97981  10
  -6  -3  -9 64.8109 6.60491  12
  -6  -3  -9 91.7561 6.51014  11
  -3   4   9 15.2696 2.55312  16
  -3   4   9 19.4346 2.12923  10
  -2   4   9 -0.6964 1.44065   9
  -2   4   9 -0.9247 2.58812  16
  -2   4   9 -0.5887 2.20148  10
  -1   4   9 3.26928 1.79324   9
  -1   4   9 2.02248 1.46827   8
   0   4   9 99.5519 6.50149   8
  -1  -4  -9 0.15349 1.64909   8
  -2  -4  -9 12.9509 3.88276   3
  -2  -4  -9 6.11279 3.49152   2
  -2  -4  -9 11.0277 1.80492   8
  -2  -4  -9 7.65987 1.54924   9
  -3  -4  -9 0.55195 1.53898   9
  -3  -4  -9 0.89308 1.13735   8
  -3  -4  -9 1.70438 2.35574  10
  -3  -4  -9 0.16669 2.74162  12
  -4  -4  -9 27.9247 3.83063  12
  -4  -4  -9 20.6474 3.51298  13
  -4  -4  -9 25.1087 2.46055   9
  -4  -4  -9 25.9848 2.88420  10
  -5  -4  -9 101.356 9.17884  12
  -5  -4  -9 99.7112 8.25761  13
  -5  -4  -9 116.606 7.19426  10
  -6  -4  -9 63.1748 5.68882  12
  -3   5   9 4.01825 1.37110  10
  -3   5   9 3.55859 1.91530  16
  -2   5   9 14.4343 2.44516  10
  -2   5   9 19.0992 2.87879  16
  -2   5   9 15.8983 1.71123   9
  -1   5   9 26.3940 2.64033   9
  -1   5   9 21.5133 3.22480  16
  -1   5   9 23.1859 2.38716   8
   0   5   9 211.921 12.4273   8
  -1  -5  -9 3.68005 1.86861   8
  -2  -5  -9 11.8961 1.88932   8
  -2  -5  -9 17.3663 2.98514  12
  -2  -5  -9 21.2125 2.32395   9
  -3  -5  -9 104.159 8.00483  10
  -3  -5  -9 97.6530 6.42657   8
  -3  -5  -9 116.917 7.14431   9
  -3  -5  -9 113.559 9.38403  12
  -4  -5  -9 22.0951 3.37563  12
  -4  -5  -9 20.3799 2.75919  10
  -4  -5  -9 21.9682 3.39981  13
  -4  -5  -9 17.8316 1.89722   9
  -5  -5  -9 43.6123 4.42432  13
  -5  -5  -9 41.7614 3.66530  10
  -5  -5  -9 42.1155 4.57924  12
  -2   6   9 6.86300 0.95565   9
  -2   6   9 7.88637 1.86324  10
  -2   6   9 9.24358 2.23414  16
  -1   6   9 193.075 11.4874   9
  -1   6   9 181.849 10.5833   8
   0   6   9 37.4828 3.83509   9
   0   6   9 38.9152 3.25557   8
  -1  -6  -9 -0.7558 1.77260   8
   1   6   9 0.34125 1.63853   8
  -2  -6  -9 2.88578 1.60356   8
  -2  -6  -9 2.07321 1.77962   9
  -3  -6  -9 55.2648 5.43804  10
  -3  -6  -9 64.3909 4.54620   9
  -3  -6  -9 60.8646 3.88854   8
  -4  -6  -9 22.8584 2.36954   9
  -4  -6  -9 32.6533 4.25744  13
  -4  -6  -9 31.0343 3.83241  10
  -5  -6  -9 45.7729 4.06869  13
  -5  -6  -9 40.9134 3.61734  10
  -1   7   9 8.04885 2.00053  17
  -1   7   9 6.10427 1.32620   9
   0   7   9 4.32143 1.29006   8
  -1  -7  -9 0.47975 1.70068   8
   1   7   9 1.84282 1.58212   8
  -2  -7  -9 17.4307 1.99703   8
  -3  -7  -9 168.690 10.4070   9
  -4  -7  -9 6.90682 2.05293  10
  -4  -7  -9 13.8747 1.48986   9
  -4  -7  -9 14.5419 2.53482  13
   0   8   9 89.0537 5.21209   9
   0   8   9 70.7157 6.25098  17
  -1  -8  -9 7.81239 1.55617   8
   1   8   9 12.3367 1.49647   8
  -2  -8  -9 18.3654 2.05029   8
  -2  -8  -9 26.5111 2.48941   9
   2   8   9 16.1460 1.92946   8
  -3  -8  -9 87.9815 5.61671   9
   1   7 -10 -0.0464 0.94811   8
  -1  -7  10 -0.1926 0.91847   8
   0   7 -10 0.24193 0.91968   8
   0  -7  10 -0.1394 1.13756   8
  -1   7 -10 4.65145 1.82278  11
  -1   7 -10 1.69131 1.04948   9
  -2   7 -10 -0.3495 1.27964  10
  -2  -6  10 -0.4494 1.33386   9
   1   6 -10 0.69826 1.22761   8
  -1  -6  10 -0.2375 1.19416   8
   0   6 -10 181.867 10.5469   8
  -1   6 -10 1.42706 0.93875   8
  -1   6 -10 2.06922 1.30198   9
  -2   6 -10 0.89611 0.97762   9
  -2   6 -10 2.70876 2.26911  11
  -2   6 -10 1.59024 1.67632  10
  -3   6 -10 11.7575 1.98675  18
  -3   6 -10 13.8096 1.67344  10
  -3   6 -10 13.1611 2.33846  11
  -3  -5  10 37.2151 3.73993  15
  -3  -5  10 37.7501 2.64352   9
  -3  -5  10 35.2394 3.19157  10
  -2  -5  10 1.18847 1.17211   9
   1   5 -10 71.8005 4.98288   8
  -1  -5  10 77.0146 4.86254   8
   0   5 -10 64.4224 4.36261   8
  -1   5 -10 123.609 7.62086   9
  -1   5 -10 114.132 7.03788   8
  -2   5 -10 19.8180 2.44761  10
  -2   5 -10 16.9540 3.10871  11
  -2   5 -10 21.2066 2.22924   9
  -3   5 -10 -0.5729 2.10037  18
  -3   5 -10 -0.7033 1.55495  10
  -3   5 -10 1.14159 2.58588  11
  -4   5 -10 126.009 8.94902  18
  -4   5 -10 130.691 9.78329  11
  -3  -4  10 1.18652 1.67682  15
  -3  -4  10 2.52780 1.05250   9
  -3  -4  10 1.28979 1.48365  10
  -2  -4  10 120.557 7.87263   9
  -1  -4  10 8.09383 1.49225   8
   0   4 -10 0.21645 1.27240   8
  -1   4 -10 1.14252 1.32997   9
  -1   4 -10 3.02634 1.22945   8
  -2   4 -10 11.1380 2.17534  10
  -2   4 -10 12.5668 3.09623  11
  -2   4 -10 13.4403 1.61551   9
  -3   4 -10 4.50300 2.40573  18
  -3   4 -10 2.74252 1.75662  10
  -3   4 -10 7.94138 3.23148  11
  -4   4 -10 10.6499 3.29907  11
  -4   4 -10 10.9023 1.64335  10
  -4   4 -10 9.32928 2.32202  18
  -4  -3  10 21.9423 2.12033  10
  -4  -3  10 18.8808 2.54390  15
  -3  -3  10 13.1998 2.40098  15
  -3  -3  10 14.3427 1.95413  10
  -3  -3  10 15.0513 1.55007   9
  -2  -3  10 115.788 7.39402   9
  -1  -3  10 41.9769 3.31463   8
   0   3 -10 11.0051 1.58015   8
  -1   3 -10 -1.1272 1.20421   8
  -1   3 -10 -0.2819 1.55638   9
  -1   3 -10 -1.1844 3.14866   4
  -2   3 -10 6.69226 3.07572  11
  -2   3 -10 3.82130 3.63065   4
  -2   3 -10 3.85124 1.17546   8
  -2   3 -10 4.47682 1.45350   9
  -2   3 -10 3.47415 1.98870  10
  -3   3 -10 56.1145 5.14667  18
  -3   3 -10 53.6125 4.59992  10
  -3   3 -10 57.0039 6.61685  11
  -3   3 -10 54.1994 3.78116   9
  -4   3 -10 77.4689 5.28023  10
  -4   3 -10 68.9902 7.20691  11
  -4   3 -10 67.3597 6.01820  18
  -5   3 -10 6.29783 2.49579  11
  -5   3 -10 5.61301 2.07385  18
  -4  -2  10 39.4591 3.12092  10
  -4  -2  10 41.2971 3.98014  15
  -3  -2  10 520.378 31.4352  10
  -3  -2  10 499.711 34.2384  15
  -3  -2  10 481.021 29.5882   9
  -2  -2  10 14.1406 2.83756  15
  -2  -2  10 16.6918 1.96468   9
  -1  -2  10 31.6707 2.86967   8
  -1  -2  10 34.0481 5.99467   6
   0   2 -10 -0.9348 1.20994   8
  -1   2 -10 30.3895 3.04900   9
  -1   2 -10 35.5255 4.75410   4
  -1   2 -10 31.3222 2.72670   8
  -2   2 -10 479.468 30.0378  10
  -2   2 -10 502.202 34.7005  11
  -2   2 -10 487.003 28.2598   9
  -2   2 -10 476.194 29.9963   4
  -2   2 -10 473.258 26.8216   8
  -2   2 -10 432.810 32.5379   2
  -3   2 -10 128.893 10.1470  18
  -3   2 -10 145.103 9.50739  10
  -3   2 -10 151.922 11.6553  11
  -4   2 -10 119.588 10.2422  11
  -4   2 -10 111.860 8.74363  18
  -4   2 -10 121.234 8.00198  10
  -5   2 -10 -1.9778 2.69933  11
  -5   2 -10 0.34687 2.15145  18
  -4  -1  10 40.4970 3.96273  15
  -3  -1  10 8.35909 1.81807  10
  -3  -1  10 8.64455 1.35757   9
  -3  -1  10 5.35000 2.30425  15
  -2  -1  10 288.882 18.6418  10
  -2  -1  10 281.372 17.5315   9
  -2  -1  10 286.413 16.6387   8
  -2  -1  10 312.032 20.3619  15
  -1  -1  10 121.726 10.8035   6
   0   1 -10 359.726 22.3095   4
   0  -1  10 347.028 25.2689   6
  -1   1 -10 253.979 15.6826   4
  -1   1 -10 220.088 14.0865   9
  -1   1 -10 213.716 16.9067   3
  -1   1 -10 245.506 13.4236   8
  -2   1 -10 7.08312 3.58886   3
  -2   1 -10 10.3114 3.84105   4
  -2   1 -10 10.2909 1.71274   9
  -2   1 -10 9.79408 1.45122   8
  -2   1 -10 10.7912 3.59752   2
  -2   1 -10 9.91998 2.17900  10
  -2   1 -10 6.39291 2.61219  11
  -3   1 -10 1.80895 4.19126   4
  -3   1 -10 4.95837 1.99473  10
  -3   1 -10 2.95627 3.05685  11
  -3   1 -10 -1.1062 2.93615  12
  -4   1 -10 14.7131 3.68152  11
  -4   1 -10 7.09241 2.79112  12
  -4   1 -10 11.8140 2.04832  10
  -4   1 -10 10.4715 2.94060  18
  -5   1 -10 28.4990 3.89209  18
  -5   1 -10 31.3167 4.81070  11
  -4   0  10 23.3027 3.07676  15
  -3   0  10 133.965 8.84652  10
  -3   0  10 133.981 9.65848  16
  -3   0  10 126.954 8.08732   9
  -3   0  10 135.345 9.80065  15
  -2   0  10 144.151 9.96578  10
  -2   0  10 151.831 10.9018  15
  -2   0  10 144.743 8.73078   8
  -2   0  10 154.125 9.26348   9
  -1   0  10 25.8247 3.68584  15
  -1   0  10 29.7493 2.99410   9
  -1   0  10 23.5994 2.46944   8
  -1   0  10 20.2656 4.77369   6
   0   0 -10 8.84037 2.94148   4
   0   0  10 7.44230 3.58532   6
  -1   0 -10 5.80376 3.07092   4
  -1   0 -10 3.91903 1.37050   8
  -2   0 -10 35.7001 4.74766   3
  -2   0 -10 40.1509 5.62376   2
  -2   0 -10 41.3990 3.46352   9
  -2   0 -10 42.5343 3.27321   8
  -2   0 -10 44.9567 4.67769  11
  -2   0 -10 39.1643 5.09000   4
  -2   0 -10 38.0531 4.24560  10
  -3   0 -10 38.3225 4.04254  10
  -3   0 -10 35.4669 5.25721  11
  -3   0 -10 27.7700 4.58215  12
  -3   0 -10 31.3371 5.55424   4
  -4   0 -10 66.4456 6.70710  11
  -4   0 -10 64.3563 5.70896  18
  -4   0 -10 47.5207 6.80525  12
  -4   0 -10 68.5662 5.18845  10
  -5   0 -10 251.192 17.4280  18
  -5   0 -10 258.574 19.0729  11
  -6   0 -10 4.28577 2.10790  11
  -4   1  10 1.55894 1.29090  15
  -4   1  10 3.73670 1.12881  10
  -3   1  10 166.702 11.3500  10
  -3   1  10 167.358 12.3079  16
  -3   1  10 181.516 10.5080   9
  -3   1  10 182.346 12.4439  15
  -2   1  10 5.11160 1.37970   8
  -2   1  10 3.94258 1.99638  10
  -2   1  10 6.89624 2.34877  15
  -2   1  10 5.51055 1.60588   9
  -1   1  10 1067.34 60.9221   9
  -1   1  10 1034.41 57.8909   8
  -1   1  10 989.636 70.5114   6
   0   1  10 111.650 7.08210   8
  -1  -1 -10 5.09790 1.50445   8
  -1  -1 -10 4.67834 2.78028   4
  -2  -1 -10 15.8953 2.60409  10
  -2  -1 -10 20.2476 4.20853   4
  -2  -1 -10 22.5105 2.54168   8
  -2  -1 -10 17.5152 3.59966   3
  -2  -1 -10 22.2381 3.00939  11
  -3  -1 -10 87.8988 8.72714   2
  -3  -1 -10 90.6249 7.87107  11
  -3  -1 -10 82.0309 9.00685   4
  -3  -1 -10 92.7159 6.75037  10
  -3  -1 -10 83.7849 8.68185  12
  -3  -1 -10 84.4473 5.81678   9
  -4  -1 -10 -5.8972 2.87986  12
  -4  -1 -10 3.47952 2.84972  11
  -4  -1 -10 -1.4923 2.73730  18
  -4  -1 -10 1.18806 2.02524  10
  -5  -1 -10 88.7796 8.96684  12
  -5  -1 -10 114.831 7.87253  18
  -6  -1 -10 63.7739 6.14793  12
  -6  -1 -10 86.0483 6.32263  11
  -3   2  10 4.07056 0.86211   9
  -3   2  10 0.98710 2.56082  16
  -2   2  10 358.826 23.3725  16
  -2   2  10 331.765 21.8307  10
  -2   2  10 339.760 20.5172   9
  -1   2  10 2.37243 1.74765   8
  -1   2  10 2.10050 1.69873   9
   0   2  10 241.451 14.0806   8
  -1  -2 -10 0.50831 1.50824   8
  -2  -2 -10 5.40720 3.24634   2
  -2  -2 -10 12.7994 1.71564   8
  -2  -2 -10 20.7990 4.06094   4
  -2  -2 -10 7.95081 1.43592   9
  -2  -2 -10 12.8067 3.69061   3
  -3  -2 -10 722.145 48.0637   4
  -3  -2 -10 799.457 46.5457   9
  -3  -2 -10 780.747 56.7249  11
  -3  -2 -10 833.948 49.3928  10
  -3  -2 -10 788.262 59.7346  12
  -4  -2 -10 0.66295 2.12588  10
  -4  -2 -10 -0.0038 2.70159  11
  -4  -2 -10 -1.4293 2.96055  12
  -5  -2 -10 3.15291 2.73376  12
  -5  -2 -10 4.60691 2.59364  11
  -6  -2 -10 10.1587 1.98549  12
  -3   3  10 4.03716 2.09592  16
  -3   3  10 7.63246 1.79437  10
  -2   3  10 49.4520 3.86225   9
  -2   3  10 52.4571 5.07170  16
  -1   3  10 144.036 8.62505   8
  -1   3  10 145.657 9.19712   9
   0   3  10 10.9809 2.10428   8
  -1  -3 -10 14.9483 2.01856   8
  -2  -3 -10 226.384 12.3996   8
  -2  -3 -10 209.289 16.6763   2
  -2  -3 -10 177.183 15.8164   3
  -2  -3 -10 222.226 13.0567   9
  -3  -3 -10 60.5782 7.67847   4
  -3  -3 -10 72.8557 5.88048  10
  -3  -3 -10 62.3809 7.11695  12
  -3  -3 -10 67.0984 3.94756   8
  -3  -3 -10 56.4901 4.74395   9
  -4  -3 -10 6.02062 2.34088  10
  -4  -3 -10 6.83245 1.26070   9
  -4  -3 -10 6.13648 3.17048  12
  -5  -3 -10 20.0327 2.98842  11
  -5  -3 -10 12.9346 3.03876  12
  -5  -3 -10 14.8586 1.92060  10
  -6  -3 -10 69.7263 5.86886  12
  -3   4  10 29.7732 2.80427  10
  -3   4  10 28.3124 3.22214  16
  -2   4  10 -2.8605 2.18953  16
  -2   4  10 1.55889 1.96588  10
  -2   4  10 -1.6228 1.31920   9
  -1   4  10 23.5076 2.52318   9
  -1   4  10 19.7782 2.46764   8
  -1   4  10 27.0600 3.29131  16
   0   4  10 0.56664 1.77858   8
  -1  -4 -10 173.492 10.4121   8
  -2  -4 -10 351.185 21.3208   9
  -2  -4 -10 356.351 20.2182   8
  -3  -4 -10 5.51529 1.18082   8
  -3  -4 -10 3.34176 1.76263   9
  -3  -4 -10 4.71050 3.07324  12
  -3  -4 -10 4.09466 2.48533  10
  -4  -4 -10 7.42065 3.04515  12
  -4  -4 -10 4.61204 2.17642  10
  -4  -4 -10 10.2479 2.49087  13
  -4  -4 -10 10.5851 1.40706   9
  -5  -4 -10 0.60695 2.30906  12
  -5  -4 -10 4.21234 1.55198  10
  -2   5  10 163.189 10.4707  10
  -2   5  10 155.354 9.58010   9
  -2   5  10 159.810 11.1679  16
  -1   5  10 38.6762 3.45710   9
  -1   5  10 39.4393 4.29529  16
  -1   5  10 34.8850 2.71220   8
   0   5  10 198.736 13.1757  16
   0   5  10 177.920 11.0404   8
  -1  -5 -10 55.0531 4.44521   8
   1   5  10 54.6987 4.46021   8
  -2  -5 -10 37.5429 3.25093   8
  -2  -5 -10 34.3165 4.83220  12
  -2  -5 -10 35.7378 3.78027   9
  -3  -5 -10 27.8956 2.82429   9
  -3  -5 -10 29.3025 2.30439   8
  -3  -5 -10 33.3652 4.30792  10
  -4  -5 -10 5.17665 2.55660  13
  -4  -5 -10 0.83740 2.34007  12
  -4  -5 -10 0.37684 1.11841   9
  -4  -5 -10 -0.8145 2.02465  10
  -5  -5 -10 18.1410 1.79435  10
  -5  -5 -10 10.3910 2.32867  12
  -2   6  10 8.50377 1.51642  10
  -1   6  10 3.80887 1.41840   9
  -1   6  10 6.37287 2.03681  17
   0   6  10 9.45435 1.72089   9
   0   6  10 8.32336 1.49327   8
  -1  -6 -10 -1.3484 1.53177   8
   1   6  10 -1.4553 1.58447   8
  -2  -6 -10 12.1504 2.14505   9
  -2  -6 -10 10.5825 1.70751   8
  -3  -6 -10 24.9418 2.97740   9
  -3  -6 -10 27.4312 3.89974  13
  -4  -6 -10 113.299 6.60962   9
  -4  -6 -10 106.070 7.64137  10
  -4  -6 -10 103.508 8.29591  13
  -1   7  10 100.779 5.73448   9
  -1   7  10 85.0164 7.09669  17
   0   7  10 29.0228 2.30243   8
  -1  -7 -10 8.94837 1.68246   8
   1   7  10 11.3240 1.74073   8
  -2  -7 -10 1.12382 1.61373   9
  -2  -7 -10 1.14874 1.29149   8
  -3  -7 -10 10.2064 1.65970   9
  -3  -7 -10 10.5043 2.39746  13
  -4  -7 -10 124.767 8.30472  10
  -4  -7 -10 124.184 9.19141  13
  -1  -8 -10 0.15645 1.01234   8
   1   8  10 0.95429 0.98820   8
  -2  -8 -10 0.90078 0.87224   8
   2   8  10 -0.2189 1.06857   8
  -3  -8 -10 373.758 19.9913   9
  -3  -8 -10 299.751 23.6089  13
   0   7 -11 18.0766 2.27045  11
  -1   7 -11 13.6629 1.59420   9
  -2  -6  11 194.671 10.5617   9
  -2  -6  11 155.250 12.2092  15
   1   6 -11 34.2536 2.58265   8
  -1  -6  11 31.9941 2.53290   8
   0   6 -11 15.7823 1.91370   8
   0  -6  11 15.0818 1.65305   8
  -1   6 -11 61.2573 5.43570  11
  -1   6 -11 60.5697 4.15457   9
  -2   6 -11 21.7882 1.77552   9
  -2   6 -11 22.2083 3.38570  11
  -2   6 -11 19.9543 2.19209  10
  -3   6 -11 61.7798 4.31781  10
  -2  -5  11 0.05431 1.52871  15
  -2  -5  11 -0.3156 0.92281   9
   1   5 -11 1.46011 1.25753   8
  -1  -5  11 1.46367 1.21788   8
   0   5 -11 0.76796 1.25302   8
  -1   5 -11 60.0418 3.91037   8
  -1   5 -11 62.7772 4.37972   9
  -2   5 -11 86.6924 7.38609  11
  -2   5 -11 89.6738 6.27672  10
  -2   5 -11 85.9412 5.54777   9
  -3   5 -11 5.92335 2.47153  11
  -3   5 -11 4.45218 1.51913  10
  -3  -4  11 17.9299 2.33220  10
  -3  -4  11 20.4977 1.67398   9
  -3  -4  11 16.6305 2.32270  15
  -2  -4  11 8.16530 2.34978  15
  -2  -4  11 6.05762 1.45527   9
  -1  -4  11 105.118 6.45988   8
   0   4 -11 53.0660 3.85442   8
  -1   4 -11 5.15488 1.49694   9
  -1   4 -11 5.13430 1.28979   8
  -2   4 -11 2.58109 1.31707   9
  -2   4 -11 8.33686 2.73389  11
  -2   4 -11 3.73248 1.89853  10
  -3   4 -11 2.78945 2.57578  11
  -3   4 -11 0.30893 1.65667  10
  -4   4 -11 9.90509 2.10431  18
  -4   4 -11 14.2479 2.78529  11
  -3  -3  11 -0.8691 1.90705  15
  -3  -3  11 -0.1520 1.33044  10
  -3  -3  11 -0.6171 0.90910   9
  -2  -3  11 20.7097 2.54973   9
  -2  -3  11 17.3767 2.78256  15
  -2  -3  11 19.8625 2.35013   8
  -1  -3  11 121.146 7.33881   8
   0   3 -11 75.4700 4.98185   8
  -1   3 -11 53.2804 3.90140   8
  -1   3 -11 62.0094 4.74170   9
  -2   3 -11 10.3253 2.16179  10
  -2   3 -11 10.2367 1.09860   8
  -2   3 -11 8.71109 1.59847   9
  -2   3 -11 5.22460 2.56314  11
  -3   3 -11 57.1175 4.77170  10
  -3   3 -11 62.4128 6.42681  11
  -4   3 -11 0.90373 1.48184  10
  -4   3 -11 -2.2366 2.75548  11
  -4   3 -11 -1.2547 2.09905  18
  -5   3 -11 49.0056 4.61834  11
  -3  -2  11 63.5519 4.06471   9
  -3  -2  11 61.6524 4.67889  10
  -3  -2  11 59.4418 5.27923  15
  -2  -2  11 7.93390 1.65415   8
  -2  -2  11 8.02766 2.45715  15
  -2  -2  11 7.06089 1.66147   9
   0   2 -11 68.1644 7.10787   4
   0   2 -11 71.4146 4.63730   8
   0  -2  11 59.6457 7.93593   6
  -1   2 -11 7.79151 3.56112   4
  -1   2 -11 13.7015 2.23713   9
  -1   2 -11 9.21953 1.50194   8
  -2   2 -11 72.7891 4.70979   8
  -2   2 -11 80.1137 5.81792  10
  -2   2 -11 72.2392 6.96121  11
  -2   2 -11 75.4592 5.13922   9
  -3   2 -11 59.6211 4.95364  10
  -3   2 -11 59.2602 6.43080  11
  -4   2 -11 107.527 6.84549  10
  -4   2 -11 85.8042 7.37647  18
  -4   2 -11 102.472 8.63572  11
  -5   2 -11 -0.9671 1.71000  18
  -5   2 -11 2.97900 2.62645  11
  -3  -1  11 5.16361 1.08784   9
  -3  -1  11 7.63401 2.12988  15
  -3  -1  11 8.24677 1.66949  10
  -2  -1  11 8.99225 2.43218  15
  -2  -1  11 7.76982 1.51517   8
  -2  -1  11 7.42846 1.64238   9
   0   1 -11 -2.5331 1.30382   8
   0   1 -11 -1.3723 2.86933   4
   0  -1  11 -2.1034 4.13104   6
  -1   1 -11 64.7759 4.28907   8
  -1   1 -11 61.6603 4.69973   9
  -1   1 -11 59.9164 6.92689   4
  -2   1 -11 574.477 40.3652  11
  -2   1 -11 555.465 33.0587   9
  -2   1 -11 568.414 31.3923   8
  -2   1 -11 520.708 34.5628   4
  -2   1 -11 560.904 35.1075  10
  -3   1 -11 51.6686 4.49977  10
  -3   1 -11 40.7200 5.79331  12
  -3   1 -11 48.5806 5.72518  11
  -4   1 -11 4.96836 2.51261  18
  -4   1 -11 3.98418 2.67635  12
  -4   1 -11 4.17702 2.78031  11
  -4   1 -11 3.17202 1.79680  10
  -5   1 -11 61.4600 5.55483  18
  -5   1 -11 81.1600 6.58670  11
  -3   0  11 71.0095 5.51928  15
  -3   0  11 68.0603 4.26979   9
  -3   0  11 68.4140 5.01240  10
  -3   0  11 61.1774 5.41000  16
  -2   0  11 6.66124 2.33336  15
  -2   0  11 7.40158 1.56035   9
  -2   0  11 6.53966 1.33850   8
  -2   0  11 7.99700 2.01055  10
  -1   0  11 4.95031 1.63320   9
  -1   0  11 4.59669 1.92374   8
  -1   0 -11 194.627 14.5502   4
  -1   0 -11 229.115 12.5345   8
  -2   0 -11 122.759 7.98393   9
  -2   0 -11 132.000 7.52008   8
  -2   0 -11 126.279 10.0059  11
  -2   0 -11 122.625 8.68608  10
  -2   0 -11 115.645 10.2544   4
  -3   0 -11 384.126 24.0526  10
  -3   0 -11 393.997 27.8258  11
  -3   0 -11 366.548 29.3504  12
  -3   0 -11 369.292 22.5551   9
  -4   0 -11 1.04930 2.60228  11
  -4   0 -11 0.12941 1.91036  10
  -4   0 -11 -3.1228 2.86919  12
  -4   0 -11 -3.2095 2.71555  18
  -5   0 -11 86.9453 6.88154  11
  -5   0 -11 71.1351 6.06708  18
  -5   0 -11 73.4177 6.75799  12
  -3   1  11 63.3454 5.20566  16
  -3   1  11 64.0682 5.28335  15
  -2   1  11 60.7468 5.17649  16
  -2   1  11 50.4954 4.56208  10
  -2   1  11 48.6934 3.90917   9
  -1   1  11 16.2334 2.12278   9
  -1   1  11 21.1118 2.21851   8
   0   1  11 539.842 30.5896   8
  -1  -1 -11 13.1499 1.82046   8
  -2  -1 -11 172.851 9.72621   8
  -2  -1 -11 157.450 12.2010   4
  -2  -1 -11 160.257 11.2211  10
  -3  -1 -11 13.1200 3.78223  12
  -3  -1 -11 15.8404 2.50698  10
  -3  -1 -11 11.2720 2.78260  11
  -3  -1 -11 11.7314 1.78319   9
  -4  -1 -11 124.813 8.58551  10
  -4  -1 -11 110.926 10.8237  12
  -4  -1 -11 132.632 10.1111  11
  -5  -1 -11 20.7352 3.42886  12
  -5  -1 -11 21.9088 3.24866  11
  -3   2  11 41.7558 3.64533  10
  -3   2  11 41.5073 4.03878  16
  -2   2  11 0.81303 1.36555   9
  -2   2  11 1.10386 2.36382  16
  -1   2  11 0.88152 1.62743   9
  -1   2  11 0.81729 1.59166   8
   0   2  11 20.6029 2.43859   8
  -1  -2 -11 4.51461 1.68031   8
  -2  -2 -11 50.1196 4.12459   9
  -2  -2 -11 53.4973 3.85970   8
  -3  -2 -11 -2.0872 3.17597  12
  -3  -2 -11 -1.4390 1.41780   9
  -3  -2 -11 -3.6415 2.23050  10
  -4  -2 -11 94.9509 7.98588  11
  -4  -2 -11 95.0182 6.97071  10
  -4  -2 -11 86.8559 8.79221  12
  -5  -2 -11 8.45187 2.65290  12
  -5  -2 -11 17.2592 2.64179  11
  -3   3  11 8.83006 1.48122  10
  -3   3  11 10.7914 2.00553  16
  -2   3  11 47.8289 4.18084  10
  -2   3  11 42.2875 3.37482   9
  -2   3  11 44.0714 4.34914  16
  -1   3  11 515.858 30.9855   9
  -1   3  11 526.162 29.3700   8
   0   3  11 15.2829 2.24201   8
  -1  -3 -11 6.15095 1.80233   8
  -2  -3 -11 14.4283 1.93371   8
  -2  -3 -11 16.7223 2.19485   9
  -3  -3 -11 48.8500 5.93162  12
  -3  -3 -11 44.6252 4.90056  10
  -3  -3 -11 45.8780 3.89282   9
  -4  -3 -11 89.6166 5.33794   9
  -4  -3 -11 84.6411 6.65432  10
  -4  -3 -11 78.6145 8.00274  12
  -5  -3 -11 249.245 14.5672  10
  -5  -3 -11 208.654 17.9005  12
  -2   4  11 55.7427 4.63972  10
  -2   4  11 57.2428 3.85238   9
  -2   4  11 60.1732 5.11886  16
  -1   4  11 8.62815 1.62713   9
  -1   4  11 10.4114 2.48470  16
  -1   4  11 8.41194 1.33601   8
   0   4  11 79.1020 5.30479   8
  -1  -4 -11 16.8934 2.22028   8
  -2  -4 -11 277.343 16.2550   9
  -2  -4 -11 255.695 15.3254   8
  -3  -4 -11 24.3355 2.44352   9
  -3  -4 -11 19.8440 2.85978  10
  -3  -4 -11 15.9378 3.37832  12
  -4  -4 -11 58.9354 5.09190  10
  -4  -4 -11 59.9511 3.88904   9
  -4  -4 -11 57.6384 6.09490  12
  -5  -4 -11 3.59702 2.05266  12
  -5  -4 -11 8.84469 1.42408  10
  -2   5  11 0.52416 1.57876  16
  -2   5  11 -0.1978 1.44206  10
  -2   5  11 0.68348 0.71508   9
  -1   5  11 34.6938 3.88517  16
  -1   5  11 33.7984 3.02716   9
   0   5  11 2.87395 1.44427   8
   0   5  11 4.77228 2.35443  16
  -1  -5 -11 122.477 7.58064   8
   1   5  11 119.659 7.53374   8
  -2  -5 -11 13.5851 1.73781   8
  -2  -5 -11 10.4874 2.70363  12
  -2  -5 -11 11.6603 2.15086   9
  -3  -5 -11 1.61948 2.27850  10
  -3  -5 -11 -0.1852 1.61129   9
  -3  -5 -11 -0.6099 2.18513  12
  -3  -5 -11 3.01306 2.15929  13
  -4  -5 -11 5.82782 2.17554  12
  -4  -5 -11 6.01469 2.02218  10
  -4  -5 -11 6.00056 1.02653   9
  -4  -5 -11 8.30473 2.24746  13
  -5  -5 -11 32.5400 3.29479  12
  -1   6  11 0.96101 0.98157   9
   0   6  11 5.24914 1.54035   9
   0   6  11 4.41907 1.26513   8
  -1  -6 -11 423.092 23.7831   8
   1   6  11 413.821 23.7372   8
  -2  -6 -11 17.0046 1.73634   8
  -3  -6 -11 44.7877 4.35703  13
  -3  -6 -11 47.1830 3.63408   9
  -4  -6 -11 7.60653 1.85865  10
  -4  -6 -11 7.03422 1.74468  13
   0   7  11 170.611 12.4745  17
  -1  -7 -11 9.96045 1.47178   8
   1   7  11 12.8746 1.48439   8
  -2  -7 -11 2.48867 1.01482   8
  -2  -7 -11 2.12205 1.21563   9
   2   7  11 1.64269 1.39500   8
  -3  -7 -11 4.13532 1.14166   9
  -3  -7 -11 4.34420 1.72496  13
   1   6 -12 6.53454 0.99144   8
   0   6 -12 -1.7538 1.04165   9
   0   6 -12 0.33463 0.78140   8
   0  -6  12 0.49250 0.94155   8
  -1   6 -12 24.1133 2.99235  11
  -1   6 -12 19.2342 1.98163   9
  -2  -5  12 6.11765 1.27253   9
   1   5 -12 23.0149 2.13689   8
   0   5 -12 1.26425 1.09813   8
   0  -5  12 2.28285 1.22314   8
  -1   5 -12 261.835 19.1285  11
  -1   5 -12 258.643 15.5983   9
  -2   5 -12 49.4740 3.98979  10
  -2   5 -12 48.6957 3.28729   9
  -2   5 -12 47.9302 4.72921  11
  -3   5 -12 41.0169 4.04324  11
  -3   5 -12 39.9439 3.28532  10
  -2  -4  12 82.9310 5.24759   9
  -2  -4  12 81.4839 6.41846  15
   1   4 -12 -2.2464 1.21192   8
   0   4 -12 201.705 11.1389   8
   0  -4  12 180.981 11.1645   8
  -1   4 -12 14.7457 1.80429   9
  -1   4 -12 10.4554 1.36076   8
  -2   4 -12 34.9732 4.43095  11
  -2   4 -12 36.0951 2.90252   9
  -2   4 -12 33.5116 3.66296  10
  -3   4 -12 3.35964 2.30935  11
  -3   4 -12 4.76640 1.60269  10
  -4   4 -12 38.8237 3.88988  11
  -3  -3  12 1.13681 1.72179  15
  -2  -3  12 0.02716 1.17204   9
  -2  -3  12 -0.5645 1.93291  15
   0   3 -12 150.738 9.01844   8
   0  -3  12 152.824 9.04522   8
  -1   3 -12 51.5966 4.11878   9
  -1   3 -12 55.9956 3.76672   8
  -2   3 -12 4.53094 2.46910  11
  -2   3 -12 4.43449 1.99197  10
  -2   3 -12 4.35189 1.39338   9
  -3   3 -12 7.41525 2.60018  11
  -3   3 -12 13.8236 1.99375  10
  -4   3 -12 2.25054 1.33691  10
  -4   3 -12 1.91602 2.36489  11
  -3  -2  12 6.41285 1.73110  15
  -3  -2  12 9.77048 1.41783  10
  -2  -2  12 37.1033 3.15930   9
  -2  -2  12 39.5645 4.12149  15
   0   2 -12 1.27685 1.37269   8
   0  -2  12 0.66203 1.41356   8
  -1   2 -12 63.6684 4.66296   9
  -1   2 -12 62.6278 4.29892   8
  -2   2 -12 17.5738 2.98194  11
  -2   2 -12 21.2002 2.11388   9
  -2   2 -12 20.6140 1.96621   8
  -2   2 -12 22.3904 2.62353  10
  -3   2 -12 19.3236 2.31291  10
  -3   2 -12 11.0220 2.82853  11
  -4   2 -12 73.5022 6.75923  11
  -4   2 -12 75.4568 5.39210  10
  -5   2 -12 12.3538 2.36232  11
  -3  -1  12 -0.2306 1.23836  10
  -3  -1  12 1.36079 1.44357  15
  -2  -1  12 76.7372 4.98737   9
  -2  -1  12 76.6434 6.03725  15
  -2  -1  12 67.1878 5.85868  16
  -1  -1  12 6.05679 2.05241   8
  -1  -1  12 7.53769 2.20236  15
  -1   1 -12 3.34827 1.47269   8
  -1   1 -12 4.31376 2.15799   9
  -1   1 -12 3.88657 2.25962  11
  -2   1 -12 128.565 9.14354  10
  -2   1 -12 138.345 10.5325  11
  -2   1 -12 133.086 8.39504   9
  -2   1 -12 133.481 7.83621   8
  -3   1 -12 0.12705 2.51749  11
  -3   1 -12 0.64900 2.49432  12
  -3   1 -12 0.08140 1.96202  10
  -3   1 -12 0.79878 1.16719   9
  -4   1 -12 53.8474 4.33560  10
  -4   1 -12 47.2928 5.34546  11
  -5   1 -12 19.8781 2.86455  11
  -2   0  12 16.6641 2.66820  16
  -2   0  12 14.9187 1.84176   9
  -1   0  12 49.0853 4.00716   9
  -1   0  12 49.4855 3.91516   8
   0   0 -12 13.3066 1.94063   8
   0   0  12 15.2540 2.35854   8
  -1   0 -12 5.57951 1.57740   8
  -2   0 -12 10.3601 2.32726  10
  -2   0 -12 8.49873 1.41644   8
  -2   0 -12 8.27732 2.51881  11
  -3   0 -12 2.38351 2.05331  10
  -3   0 -12 -0.3257 2.44905  11
  -3   0 -12 0.90663 1.25612   9
  -3   0 -12 0.95138 2.91173  12
  -4   0 -12 35.2389 4.73843  11
  -4   0 -12 35.9953 3.73517  10
  -4   0 -12 28.6809 4.70120  12
  -5   0 -12 3.11619 2.32525  11
  -3   1  12 9.92968 1.52696  10
  -3   1  12 10.1102 1.85002  16
  -2   1  12 5.62063 1.41655   9
  -2   1  12 6.85688 1.89178  10
  -2   1  12 8.40843 2.49542  16
  -1   1  12 1.97052 2.17414   9
  -1   1  12 0.29631 1.62145   8
   0   1  12 15.1402 2.33739   8
  -1  -1 -12 340.119 19.4506   8
  -2  -1 -12 48.9614 3.96099   9
  -2  -1 -12 51.1062 3.64159   8
  -3  -1 -12 18.5983 2.66134  10
  -3  -1 -12 19.9169 2.48715   9
  -3  -1 -12 13.3419 3.50494  12
  -3  -1 -12 20.5673 2.97543  11
  -4  -1 -12 15.4901 2.94851  11
  -4  -1 -12 16.1115 2.29729  10
  -4  -1 -12 13.2015 3.22590  12
  -5  -1 -12 42.9544 4.26263  11
  -5  -1 -12 43.2716 4.31135  12
  -3   2  12 10.4221 1.40206  10
  -2   2  12 3.96542 2.13886  16
  -2   2  12 1.74376 1.21145   9
  -1   2  12 -0.7724 1.38504   8
   0   2  12 21.4930 2.45181   8
  -1  -2 -12 21.9368 2.28624   8
  -2  -2 -12 265.681 14.6326   9
  -2  -2 -12 208.559 13.5363   8
  -3  -2 -12 52.6607 6.24047  12
  -3  -2 -12 53.9288 4.06679   9
  -3  -2 -12 53.4872 5.01331  10
  -4  -2 -12 4.88103 2.06129  10
  -4  -2 -12 7.47403 2.91217  12
  -5  -2 -12 286.893 22.0772  11
  -5  -2 -12 322.288 23.3765  12
  -2   3  12 1.96816 1.71226  10
  -2   3  12 3.33093 2.17053  16
  -2   3  12 3.42749 1.06622   9
  -1   3  12 440.788 25.6343   8
  -1   3  12 466.583 30.5273  16
  -1   3  12 459.655 27.0989   9
   0   3  12 31.9443 3.20294   8
  -1  -3 -12 35.0968 3.34001   8
  -2  -3 -12 85.5811 5.52837   8
  -2  -3 -12 89.8280 6.06803   9
  -3  -3 -12 54.1878 5.17208  10
  -3  -3 -12 56.2705 6.27794  12
  -3  -3 -12 59.1443 4.31168   9
  -4  -3 -12 25.3104 2.69936  10
  -4  -3 -12 21.1700 3.38857  12
  -5  -3 -12 23.2129 3.21322  12
  -2   4  12 51.6711 3.92076  10
  -2   4  12 49.4174 3.16376   9
  -2   4  12 52.9819 4.29454  16
  -1   4  12 3.61996 1.09510   8
  -1   4  12 3.18075 2.31505  16
  -1   4  12 3.39655 1.48033   9
   0   4  12 7.13012 1.60254   8
  -1  -4 -12 90.6606 5.74433   8
   1   4  12 82.0180 5.73169   8
  -2  -4 -12 12.1590 1.63872   8
  -2  -4 -12 11.4332 2.74285  12
  -3  -4 -12 5.50331 2.28945  10
  -3  -4 -12 4.45513 2.58943  12
  -3  -4 -12 6.29958 1.69649   9
  -4  -4 -12 187.782 11.1657  10
  -4  -4 -12 150.430 13.3608  12
  -5  -4 -12 6.36805 1.69349  12
  -1   5  12 0.38396 1.17153   9
  -1   5  12 2.40631 1.81858  16
   0   5  12 61.6239 4.85344   9
   0   5  12 69.3721 5.42731  16
   0   5  12 68.3112 4.31146   8
  -1  -5 -12 3.75273 1.56186   8
   1   5  12 1.31393 1.55310   8
  -2  -5 -12 12.9541 1.97614   9
  -2  -5 -12 11.0223 1.48700   8
  -2  -5 -12 11.0631 2.41863  12
  -3  -5 -12 3.04279 2.13335  10
  -3  -5 -12 3.07384 1.45211   9
  -3  -5 -12 3.56463 1.97661  12
  -4  -5 -12 87.0963 8.21114  12
  -4  -5 -12 121.069 7.12684  10
   0  -6 -12 7.33465 1.42597   8
   0   6  12 9.36501 1.35439   9
   0   6  12 9.45502 1.04518   8
  -1  -6 -12 32.0146 2.68308   8
   1   6  12 29.2253 2.66204   8
  -2  -6 -12 17.6544 1.86723   8
  -2  -6 -12 14.0780 1.74170   9
  -3  -6 -12 7.32819 1.40560   9
  -3  -6 -12 6.74306 1.73773  13
  -1  -7 -12 9.58412 1.18608   8
   1   7  12 9.85436 1.14445   8
  -1  -5  13 25.8606 2.98683  15
   0   5 -13 11.1394 2.06216  11
   0   5 -13 15.9392 1.59901   8
   0  -5  13 12.5328 1.34725   8
  -1   5 -13 1.03984 0.99437   9
  -1   5 -13 1.25611 1.90730  11
  -2   5 -13 3.88684 1.48615  10
  -2   5 -13 7.21312 1.94171  11
   1   4 -13 3.22717 1.14207   8
  -1  -4  13 2.91604 1.75086  15
   0   4 -13 4.61088 1.19717   8
   0  -4  13 4.85843 1.17241   8
  -1   4 -13 58.2900 4.95149  11
  -1   4 -13 46.9907 3.34152   8
  -1   4 -13 57.0465 3.87732   9
  -2   4 -13 3.52091 2.14220  11
  -2   4 -13 2.80870 1.60085  10
  -2   4 -13 3.73669 1.06507   9
  -3   4 -13 3.94044 1.37867  10
  -3   4 -13 3.98788 1.94141  11
  -2  -3  13 19.8045 1.94316   9
  -2  -3  13 23.0507 2.81968  15
   1   3 -13 5.01522 1.57148   8
  -1  -3  13 4.14576 1.96292  15
  -1  -3  13 2.74077 1.62295   8
   0   3 -13 45.4713 3.43147   8
  -1   3 -13 188.815 11.1712   9
  -1   3 -13 172.521 10.4951   8
  -1   3 -13 185.888 13.7068  11
  -2   3 -13 40.3665 3.89532  10
  -2   3 -13 40.7746 3.13068   9
  -2   3 -13 38.1220 4.47997  11
  -3   3 -13 66.8700 4.95939  10
  -3   3 -13 66.3123 5.90791  11
  -4   3 -13 10.9669 2.06283  11
  -2  -2  13 14.2756 2.03230  15
  -2  -2  13 14.7101 1.84908   9
  -1  -2  13 91.3505 6.89268  15
  -1  -2  13 86.7849 5.67357   8
   0   2 -13 1.00982 1.51961   8
  -1   2 -13 0.37544 2.16064  11
  -1   2 -13 -0.8779 1.42371   9
  -1   2 -13 0.08858 1.31998   8
  -2   2 -13 -0.1640 1.97134  10
  -2   2 -13 3.18403 1.39025   9
  -2   2 -13 4.41609 2.40660  11
  -3   2 -13 62.1513 5.96133  11
  -3   2 -13 64.1432 4.11331   9
  -3   2 -13 66.6608 5.04276  10
  -4   2 -13 35.7036 3.10266  10
  -4   2 -13 35.0890 4.17699  11
  -2  -1  13 -0.4597 1.16538   9
  -1  -1  13 79.0177 5.20519   8
  -1  -1  13 81.6423 5.41845   9
   0   1 -13 5.57350 1.64692   8
   0  -1  13 5.92985 2.11050   8
  -1   1 -13 12.5594 1.67982   8
  -1   1 -13 10.5591 1.87626   9
  -1   1 -13 12.0926 2.41042  11
  -2   1 -13 -0.9788 2.28559  11
  -2   1 -13 -1.4904 0.96860   8
  -2   1 -13 -4.5424 2.06121  10
  -3   1 -13 12.7151 2.74346  11
  -3   1 -13 16.2166 2.75363  12
  -3   1 -13 18.6571 2.02077   9
  -3   1 -13 21.6622 2.46703  10
  -4   1 -13 16.5943 1.91968  10
  -4   1 -13 10.9715 2.40204  11
  -2   0  13 314.491 18.3168   9
  -2   0  13 301.031 20.6877  16
  -1   0  13 14.0994 1.86758   9
  -1   0  13 14.5406 1.85294   8
   0   0 -13 14.7294 1.98826   8
   0   0  13 18.5363 2.39477   8
  -1   0 -13 0.35704 1.43996   8
  -2   0 -13 31.3738 2.56268   8
  -3   0 -13 220.760 19.0460  12
  -3   0 -13 254.275 15.7573  10
  -3   0 -13 259.301 14.6391   9
  -3   0 -13 239.375 18.0515  11
  -4   0 -13 21.9565 3.31275  12
  -4   0 -13 31.6478 3.23612  10
  -4   0 -13 29.0904 3.73876  11
  -2   1  13 4.51434 2.02759  16
  -1   1  13 104.467 6.22085   8
  -1   1  13 100.772 6.65799   9
   0  -1 -13 102.177 6.72091   8
   0   1  13 109.112 6.74611   8
  -1  -1 -13 -0.3939 1.49931   8
  -2  -1 -13 109.047 6.72496   9
  -2  -1 -13 95.9527 6.13896   8
  -3  -1 -13 67.7913 5.44405  10
  -3  -1 -13 61.4334 6.49659  12
  -3  -1 -13 67.4703 4.53126   9
  -4  -1 -13 5.30925 2.10252  11
  -4  -1 -13 3.76523 2.18418  12
  -4  -1 -13 4.35411 1.77295  10
  -2   2  13 11.6340 1.85314  10
  -2   2  13 14.8202 1.59969   9
  -2   2  13 17.7803 2.56371  16
  -1   2  13 28.2926 2.36713   8
  -1   2  13 25.1413 2.77642   9
   0  -2 -13 10.8453 2.11929   8
   0   2  13 13.3524 2.04417   8
  -1  -2 -13 41.5601 3.49519   8
  -2  -2 -13 2.91917 1.22080   8
  -2  -2 -13 3.22276 1.49536   9
  -3  -2 -13 46.0763 3.52528   9
  -3  -2 -13 43.2678 4.43594  10
  -3  -2 -13 47.2997 5.32340  12
  -4  -2 -13 1.05506 1.73411  10
  -4  -2 -13 -0.3510 2.09478  12
  -5  -2 -13 9.45779 1.85379  12
  -2   3  13 27.8197 3.08240  16
  -1   3  13 0.20429 1.65296  16
  -1   3  13 0.25982 1.29163   9
   0  -3 -13 41.4227 3.50203   8
   0   3  13 35.8231 3.26433   8
  -1  -3 -13 151.841 9.14542   8
   1   3  13 154.131 9.22783   8
  -2  -3 -13 26.5760 2.39875   8
  -2  -3 -13 24.4466 2.93424   9
  -3  -3 -13 14.9797 2.85391  12
  -3  -3 -13 11.3820 1.65044   9
  -3  -3 -13 11.0451 2.18718  10
  -4  -3 -13 36.1979 4.15477  12
  -4  -3 -13 40.4608 3.76271  10
  -1   4  13 22.3966 2.24206   9
  -1   4  13 22.4277 2.89727  16
   0  -4 -13 33.4274 3.14575   8
   0   4  13 37.6372 3.92094  16
   0   4  13 32.3517 2.77095   8
  -1  -4 -13 81.0661 5.35635   8
   1   4  13 85.1916 5.46022   8
  -2  -4 -13 8.68676 1.76808   9
  -2  -4 -13 8.60641 1.31864   8
  -2  -4 -13 12.4988 2.54248  12
  -3  -4 -13 1.97792 1.92680  10
  -3  -4 -13 1.22208 1.99223  12
  -3  -4 -13 2.59796 1.27688   9
  -4  -4 -13 170.048 14.8720  12
  -4  -4 -13 216.894 12.4562  10
   0  -5 -13 1.65953 1.29368   8
   0   5  13 0.13763 0.95975   8
   0   5  13 1.81924 1.24090   9
   0   5  13 0.35881 1.88008  16
  -1  -5 -13 6.98935 1.42054   8
   1   5  13 9.79955 1.52418   8
  -2  -5 -13 2.40158 1.65507  12
  -2  -5 -13 0.71949 0.95402   8
  -3  -5 -13 68.3368 6.49509  12
  -3  -5 -13 88.9632 5.10836   9
  -1  -6 -13 0.35619 0.93914   8
   1   6  13 1.06069 0.99157   8
  -2  -6 -13 0.23649 1.23858   9
   0   4 -14 41.8818 2.77553   8
   0   4 -14 41.5020 3.84157  11
  -1   4 -14 -0.2884 1.68552  11
  -1   4 -14 0.81089 0.98442   9
  -2   4 -14 118.157 8.94028  11
   1   3 -14 4.57337 1.10838   8
  -1  -3  14 9.23182 1.14264   8
   0   3 -14 -0.6427 1.06183   8
   0   3 -14 -0.3540 1.69870  11
   0  -3  14 -2.8059 1.39851   8
  -1   3 -14 -0.1982 0.85979   8
  -1   3 -14 1.90285 2.08296  11
  -1   3 -14 -1.8849 1.23182   9
  -2   3 -14 45.9689 3.97675  10
  -2   3 -14 54.7224 4.63417  11
  -3   3 -14 34.1967 3.73316  11
  -3   3 -14 36.5125 3.03937  10
   1   2 -14 7.52312 1.33433   8
  -1  -2  14 11.1668 1.36200   8
  -1  -2  14 10.5544 1.46164   9
   0   2 -14 7.55711 1.45518   8
   0  -2  14 8.28244 1.81230   8
  -1   2 -14 51.9417 4.51392  11
  -1   2 -14 46.1855 3.20727   8
  -1   2 -14 41.1102 3.59451   9
  -2   2 -14 11.9042 2.37120  11
  -2   2 -14 16.8472 2.24509  10
  -3   2 -14 27.0368 2.90624  10
  -3   2 -14 27.1730 3.47813  11
  -1  -1  14 2.43507 1.28485   8
  -1  -1  14 1.66199 1.19682   9
   0   1 -14 140.054 8.20652   8
   0  -1  14 134.394 8.27620   8
  -1   1 -14 14.2779 1.56010   8
  -2   1 -14 85.8115 6.66123  11
  -2   1 -14 73.5294 6.86702  12
  -3   1 -14 13.6635 2.32753  11
  -3   1 -14 12.4272 1.99291  10
  -3   1 -14 13.2066 1.57272   9
  -4   1 -14 163.776 9.69701  10
  -4   1 -14 137.651 11.3029  11
  -1   0  14 4.45744 1.27415   8
  -1   0  14 3.07081 1.35061   9
   0   0 -14 3.43305 1.52022   8
   0   0  14 4.43457 1.77070   8
  -1   0 -14 34.1194 2.88843   8
  -2   0 -14 -0.5609 2.08681  12
  -2   0 -14 -0.6168 1.30067   9
  -3   0 -14 50.2564 3.26574   9
  -3   0 -14 47.3336 4.16660  10
  -3   0 -14 41.3161 4.67915  12
  -4   0 -14 30.5365 3.28816  11
  -4   0 -14 31.2978 3.31246  12
  -4   0 -14 33.7832 3.05594  10
  -1   1  14 59.0977 3.62065   8
  -1   1  14 60.0217 4.14515   9
   0  -1 -14 37.7011 3.23962   8
   0   1  14 34.2808 3.22672   8
  -1  -1 -14 30.5377 2.78651   8
  -2  -1 -14 0.39201 1.00559   8
  -2  -1 -14 1.23599 1.39510   9
  -3  -1 -14 276.953 17.9693  10
  -3  -1 -14 285.766 16.7646   9
  -4  -1 -14 20.4591 2.88150  12
  -4  -1 -14 18.6420 1.99991  10
  -1   2  14 1.06265 1.14134   9
  -1   2  14 2.32644 2.02543  16
   0  -2 -14 17.6568 2.01604   8
   0   2  14 20.3583 2.42795   8
  -1  -2 -14 2.89394 1.42272   8
   1   2  14 3.86737 1.87716   8
  -2  -2 -14 3.25373 1.05446   8
  -2  -2 -14 2.30584 1.41031   9
  -2  -2 -14 4.35708 2.21967  12
  -3  -2 -14 90.3906 8.90310  12
  -3  -2 -14 112.831 7.54047  10
  -3  -2 -14 121.470 6.77204   9
  -4  -2 -14 86.4094 7.04372  12
  -1   3  14 31.9682 3.10170  16
  -1   3  14 30.9728 2.47221   9
   0  -3 -14 9.25150 1.60693   8
   0   3  14 10.5518 1.50593   8
  -1  -3 -14 77.5434 4.75791   8
   1   3  14 69.9716 4.93807   8
  -2  -3 -14 6.40732 1.00232   8
  -2  -3 -14 4.61803 1.95773  12
  -2  -3 -14 5.23836 1.40182   9
  -3  -3 -14 -0.0278 1.65397  10
  -3  -3 -14 0.89650 1.05518   9
  -3  -3 -14 3.23087 1.90435  12
  -4  -3 -14 6.53430 1.40197  10
  -4  -3 -14 2.98718 1.41502  12
   0  -4 -14 23.6658 2.34292   8
   0   4  14 27.0784 2.83434  16
   0   4  14 23.5569 1.97362   8
  -1  -4 -14 5.45556 1.68493  12
  -1  -4 -14 5.84417 1.24229   8
   1   4  14 6.51688 1.44221   8
  -2  -4 -14 1.26670 1.70866  12
  -2  -4 -14 1.81367 1.21457   9
  -3  -4 -14 6.98297 1.01962   9
  -3  -4 -14 3.13155 1.56207  12
  -3  -4 -14 9.59235 1.83967  10
  -1  -5 -14 0.66632 0.83473   8
   1   5  14 0.25147 1.05079   8
  -2  -5 -14 15.7141 1.95012   9
   0   2 -15 3.58580 0.95403   8
   0  -2  15 3.26130 1.24906   8
  -2   2 -15 8.53441 1.04754   9
   0   1 -15 2.90818 1.11474   8
   0  -1  15 3.75606 1.35585   8
  -1   1 -15 59.3875 4.10513   9
  -1   1 -15 59.2831 3.68322   8
  -2   1 -15 12.8619 1.48348   9
  -3   1 -15 11.3023 1.71968  10
   0   0 -15 137.244 8.21702   8
   0   0  15 143.614 8.21275   8
  -1   0 -15 19.9252 2.01633   8
  -1   0 -15 25.6996 2.52999   9
   1   0  15 17.5141 1.87468   8
  -2   0 -15 60.2598 3.83925   9
  -2   0 -15 49.6976 4.98089  12
  -3   0 -15 8.96573 1.61154  12
  -3   0 -15 9.21008 1.62290  10
   0  -1 -15 21.8041 2.36030   8
   0   1  15 29.4703 2.43400   8
  -1  -1 -15 213.343 12.1685   8
  -1  -1 -15 215.328 13.0326   9
   1   1  15 210.914 12.3423   8
  -2  -1 -15 6.84888 1.89506  12
  -2  -1 -15 4.69089 1.17730   9
  -3  -1 -15 124.906 7.95436  10
  -3  -1 -15 106.582 9.31389  12
  -3  -1 -15 124.063 7.08693   9
   0  -2 -15 8.58698 1.34110   8
   0   2  15 12.6207 1.38500   8
  -1  -2 -15 7.39367 1.23714   8
   1   2  15 14.7400 1.79804   8
  -2  -2 -15 89.6039 7.82154  12
  -2  -2 -15 101.543 6.05352   9
  -3  -2 -15 1.16436 0.70443   9
  -3  -2 -15 2.38002 1.61007  10
  -3  -2 -15 1.36700 1.55520  12
  -1  -3 -15 1.12727 1.55398  12
  -1  -3 -15 0.06276 0.87316   8
   1   3  15 -0.3776 1.24594   8
  -2  -3 -15 118.984 10.4310  12
  -2  -3 -15 148.912 8.22065   9
  -3  -3 -15 40.8829 2.66908   9
   0   0   0    0.00    0.00   0
;
_shelx_hkl_checksum              57556
loop_
_space_group_symop_operation_xyz
'x, y, z'
'-x, -y, -z'
loop_
_atom_site_label
_atom_site_type_symbol
_atom_site_fract_x
_atom_site_fract_y
_atom_site_fract_z
_atom_site_U_iso_or_equiv
_atom_site_adp_type
_atom_site_occupancy
_atom_site_site_symmetry_order
_atom_site_calc_flag
_atom_site_refinement_flags_posn
_atom_site_refinement_flags_adp
_atom_site_refinement_flags_occupancy
_atom_site_disorder_assembly
_atom_site_disorder_group
S1A S 0.3229(2) -0.20500(16) 0.85473(8) 0.0274(4) Uani 0.851(4) 1 d D U P A 1
C1A C 0.1062(9) -0.3166(8) 0.9183(4) 0.0285(10) Uani 0.851(4) 1 d D U P A 1
H1A H 0.0859 -0.3461 0.9893 0.034 Uiso 0.851(4) 1 calc R U P A 1
C2A C -0.0313(17) -0.3567(13) 0.8537(5) 0.0279(9) Uani 0.851(4) 1 d D U P A 1
H2A H -0.1615 -0.4164 0.8743 0.034 Uiso 0.851(4) 1 calc R U P A 1
C3A C 0.0428(14) -0.2990(13) 0.7525(7) 0.0267(13) Uani 0.851(4) 1 d D U P A 1
H3A H -0.0311 -0.3196 0.6973 0.032 Uiso 0.851(4) 1 calc R U P A 1
C4A C 0.2280(5) -0.2116(4) 0.7395(2) 0.0246(7) Uani 0.851(4) 1 d D U P A 1
S1A' S -0.015(2) -0.299(2) 0.7444(11) 0.0267(13) Uani 0.149(4) 1 d D U P A 2
C1A' C -0.019(10) -0.357(8) 0.872(3) 0.0279(9) Uani 0.149(4) 1 d D U P A 2
H1A' H -0.1312 -0.4195 0.9114 0.034 Uiso 0.149(4) 1 calc R U P A 2
C2A' C 0.161(7) -0.301(6) 0.907(2) 0.0285(10) Uani 0.149(4) 1 d D U P A 2
H2A' H 0.1847 -0.3154 0.9758 0.034 Uiso 0.149(4) 1 calc R U P A 2
C3A' C 0.308(6) -0.220(5) 0.8286(18) 0.0274(4) Uani 0.149(4) 1 d D U P A 2
H3A' H 0.4456 -0.1766 0.8379 0.033 Uiso 0.149(4) 1 calc R U P A 2
C4A' C 0.2280(5) -0.2116(4) 0.7395(2) 0.0246(7) Uani 0.149(4) 1 d D U P A 2
C5A C 0.3373(5) -0.1304(4) 0.6473(2) 0.0233(6) Uani 0.655(4) 1 d D U P A 1
C6A C 0.5257(18) -0.0421(13) 0.6318(8) 0.0238(9) Uani 0.655(4) 1 d D U P A 1
H6A H 0.6112 -0.0251 0.6838 0.029 Uiso 0.655(4) 1 calc R U P A 1
S2A S 0.2187(3) -0.1341(2) 0.53762(13) 0.0233(4) Uani 0.655(4) 1 d D U P A 1
C5A' C 0.3373(5) -0.1304(4) 0.6473(2) 0.0233(6) Uani 0.345(4) 1 d D U P A 2
C6A' C 0.266(3) -0.122(2) 0.5530(11) 0.0233(4) Uani 0.345(4) 1 d D U P A 2
H6A' H 0.1385 -0.1726 0.5393 0.028 Uiso 0.345(4) 1 calc R U P A 2
S2A' S 0.5727(7) -0.0286(5) 0.6471(3) 0.0238(9) Uani 0.345(4) 1 d D U P A 2
C7A C 0.5799(5) 0.0224(4) 0.5270(3) 0.0238(7) Uani 1 1 d . U . . .
S1B S 0.5231(3) 0.6671(4) 0.1860(2) 0.0300(5) Uani 0.624(4) 1 d D U P B 1
C1B C 0.480(2) 0.8141(14) 0.0970(9) 0.0306(15) Uani 0.624(4) 1 d D U P B 1
H1B H 0.6005 0.8369 0.0393 0.037 Uiso 0.624(4) 1 calc R U P B 1
C2B C 0.2533(16) 0.8937(16) 0.1188(9) 0.0292(14) Uani 0.624(4) 1 d D U P B 1
H2B H 0.1956 0.9781 0.0781 0.035 Uiso 0.624(4) 1 calc R U P B 1
C3B C 0.111(3) 0.834(2) 0.2115(14) 0.0261(8) Uani 0.624(4) 1 d D U P B 1
H3B H -0.0506 0.8758 0.2399 0.031 Uiso 0.624(4) 1 calc R U P B 1
C4B C 0.2377(5) 0.7085(4) 0.2547(2) 0.0230(6) Uani 0.624(4) 1 d D U P B 1
S1B' S 0.0743(10) 0.8532(7) 0.2027(5) 0.0261(8) Uani 0.376(4) 1 d D U P B 2
C1B' C 0.311(3) 0.884(3) 0.1042(16) 0.0292(14) Uani 0.376(4) 1 d D U P B 2
H1B' H 0.3019 0.9624 0.0520 0.035 Uiso 0.376(4) 1 calc R U P B 2
C2B' C 0.513(4) 0.782(3) 0.1096(17) 0.0306(15) Uani 0.376(4) 1 d D U P B 2
H2B' H 0.6628 0.7819 0.0622 0.037 Uiso 0.376(4) 1 calc R U P B 2
C3B' C 0.472(3) 0.674(3) 0.1963(18) 0.0300(5) Uani 0.376(4) 1 d D U P B 2
H3B' H 0.5883 0.5911 0.2115 0.036 Uiso 0.376(4) 1 calc R U P B 2
C4B' C 0.2377(5) 0.7085(4) 0.2547(2) 0.0230(6) Uani 0.376(4) 1 d D U P B 2
C5B C 0.1468(5) 0.6258(3) 0.3487(2) 0.0204(6) Uani 0.508(4) 1 d D U P B 1
C6B C 0.2708(18) 0.5154(13) 0.4010(9) 0.0209(6) Uani 0.508(4) 1 d D U P B 1
H6B H 0.4373 0.4777 0.3789 0.025 Uiso 0.508(4) 1 calc R U P B 1
S2B S -0.1547(3) 0.6687(2) 0.40838(16) 0.0204(5) Uani 0.508(4) 1 d D U P B 1
C5B' C 0.1468(5) 0.6258(3) 0.3487(2) 0.0204(6) Uani 0.492(4) 1 d D U P B 2
C6B' C -0.0841(16) 0.6432(13) 0.4068(9) 0.0204(5) Uani 0.492(4) 1 d D U P B 2
H6B' H -0.2129 0.7134 0.3887 0.024 Uiso 0.492(4) 1 calc R U P B 2
S2B' S 0.3368(3) 0.4886(3) 0.40320(18) 0.0209(6) Uani 0.492(4) 1 d D U P B 2
C7B C 0.1125(5) 0.4592(4) 0.4987(3) 0.0227(7) Uani 1 1 d . U . . .
loop_
_atom_site_aniso_label
_atom_site_aniso_U_11
_atom_site_aniso_U_22
_atom_site_aniso_U_33
_atom_site_aniso_U_23
_atom_site_aniso_U_13
_atom_site_aniso_U_12
S1A 0.0207(5) 0.0339(6) 0.0304(6) 0.0026(5) -0.0093(4) -0.0076(4)
C1A 0.020(3) 0.029(2) 0.0346(19) 0.0032(15) -0.0034(18) -0.0039(19)
C2A 0.0181(18) 0.0270(17) 0.038(3) 0.002(2) -0.0050(19) -0.0038(14)
C3A 0.014(4) 0.0260(14) 0.0414(19) -0.0007(12) -0.009(2) -0.001(3)
C4A 0.0158(14) 0.0238(15) 0.0336(16) -0.0017(12) -0.0059(11) 0.0003(11)
S1A' 0.014(4) 0.0260(14) 0.0414(19) -0.0007(12) -0.009(2) -0.001(3)
C1A' 0.0181(18) 0.0270(17) 0.038(3) 0.002(2) -0.0050(19) -0.0038(14)
C2A' 0.020(3) 0.029(2) 0.0346(19) 0.0032(15) -0.0034(18) -0.0039(19)
C3A' 0.0207(5) 0.0339(6) 0.0304(6) 0.0026(5) -0.0093(4) -0.0076(4)
C4A' 0.0158(14) 0.0238(15) 0.0336(16) -0.0017(12) -0.0059(11) 0.0003(11)
C5A 0.0146(14) 0.0239(15) 0.0315(15) -0.0043(12) -0.0066(11) 0.0015(11)
C6A 0.0146(18) 0.0297(13) 0.0296(16) -0.0011(10) -0.0092(10) -0.0041(10)
S2A 0.0153(9) 0.0280(7) 0.0296(8) -0.0016(5) -0.0091(5) -0.0058(5)
C5A' 0.0146(14) 0.0239(15) 0.0315(15) -0.0043(12) -0.0066(11) 0.0015(11)
C6A' 0.0153(9) 0.0280(7) 0.0296(8) -0.0016(5) -0.0091(5) -0.0058(5)
S2A' 0.0146(18) 0.0297(13) 0.0296(16) -0.0011(10) -0.0092(10) -0.0041(10)
C7A 0.0139(14) 0.0243(16) 0.0335(16) -0.0079(12) -0.0064(12) 0.0016(12)
S1B 0.0146(11) 0.0384(8) 0.0339(10) 0.0043(6) 0.0012(8) -0.0033(9)
C1B 0.024(3) 0.034(5) 0.033(3) 0.003(2) -0.003(2) -0.008(3)
C2B 0.027(4) 0.030(2) 0.031(3) 0.003(2) -0.007(3) -0.006(3)
C3B 0.021(2) 0.0275(18) 0.0303(15) 0.0046(10) -0.0072(11) -0.0029(13)
C4B 0.0181(14) 0.0229(15) 0.0292(15) -0.0029(11) -0.0054(11) -0.0055(11)
S1B' 0.021(2) 0.0275(18) 0.0303(15) 0.0046(10) -0.0072(11) -0.0029(13)
C1B' 0.027(4) 0.030(2) 0.031(3) 0.003(2) -0.007(3) -0.006(3)
C2B' 0.024(3) 0.034(5) 0.033(3) 0.003(2) -0.003(2) -0.008(3)
C3B' 0.0146(11) 0.0384(8) 0.0339(10) 0.0043(6) 0.0012(8) -0.0033(9)
C4B' 0.0181(14) 0.0229(15) 0.0292(15) -0.0029(11) -0.0054(11) -0.0055(11)
C5B 0.0144(13) 0.0210(14) 0.0275(14) -0.0023(11) -0.0063(11) -0.0039(11)
C6B 0.0110(12) 0.0225(11) 0.0292(8) 0.0019(7) -0.0055(8) -0.0010(8)
S2B 0.0100(11) 0.0215(10) 0.0291(7) 0.0008(6) -0.0047(8) 0.0003(8)
C5B' 0.0144(13) 0.0210(14) 0.0275(14) -0.0023(11) -0.0063(11) -0.0039(11)
C6B' 0.0100(11) 0.0215(10) 0.0291(7) 0.0008(6) -0.0047(8) 0.0003(8)
S2B' 0.0110(12) 0.0225(11) 0.0292(8) 0.0019(7) -0.0055(8) -0.0010(8)
C7B 0.0146(14) 0.0209(15) 0.0347(17) -0.0054(12) -0.0086(12) -0.0023(11)
loop_
_atom_type_symbol
_atom_type_description
_atom_type_scat_dispersion_real
_atom_type_scat_dispersion_imag
_atom_type_scat_source
C C 0.0181 0.0091 'International Tables Vol C Tables 4.2.6.8 and 6.1.1.4'
H H 0.0000 0.0000 'International Tables Vol C Tables 4.2.6.8 and 6.1.1.4'
S S 0.3331 0.5567 'International Tables Vol C Tables 4.2.6.8 and 6.1.1.4'
loop_
_geom_angle_atom_site_label_1
_geom_angle_atom_site_label_2
_geom_angle_atom_site_label_3
_geom_angle
_geom_angle_site_symmetry_1
_geom_angle_site_symmetry_3
C4A S1A C1A 92.2(2) . .
C2A C1A S1A 111.3(4) . .
C2A C1A H1A 124.3 . .
S1A C1A H1A 124.3 . .
C1A C2A C3A 111.8(5) . .
C1A C2A H2A 124.1 . .
C3A C2A H2A 124.1 . .
C4A C3A C2A 115.1(6) . .
C4A C3A H3A 122.5 . .
C2A C3A H3A 122.5 . .
C3A C4A C5A 128.6(5) . .
C3A C4A S1A 109.5(4) . .
C5A C4A S1A 121.9(2) . .
C4A' S1A' C1A' 91.5(11) . .
C2A' C1A' S1A' 110.5(19) . .
C2A' C1A' H1A' 124.8 . .
S1A' C1A' H1A' 124.8 . .
C1A' C2A' C3A' 112(2) . .
C1A' C2A' H2A' 124.0 . .
C3A' C2A' H2A' 124.0 . .
C4A' C3A' C2A' 111.8(17) . .
C4A' C3A' H3A' 124.1 . .
C2A' C3A' H3A' 124.1 . .
C3A' C4A' C5A' 124.0(12) . .
C3A' C4A' S1A' 114.0(11) . .
C5A' C4A' S1A' 121.9(5) . .
C6A C5A C4A 129.8(5) . .
C6A C5A S2A 111.6(5) . .
C4A C5A S2A 118.6(2) . .
C5A C6A C7A 112.9(6) . .
C5A C6A H6A 123.6 . .
C7A C6A H6A 123.6 . .
C7A S2A C5A 90.97(16) 2_656 .
C6A' C5A' C4A' 126.1(7) . .
C6A' C5A' S2A' 112.8(7) . .
C4A' C5A' S2A' 121.1(3) . .
C5A' C6A' C7A 111.9(9) . 2_656
C5A' C6A' H6A' 124.1 . .
C7A C6A' H6A' 124.1 2_656 .
C7A S2A' C5A' 90.6(2) . .
C7A C7A C6A 108.3(5) 2_656 .
C7A C7A C6A' 102.9(6) 2_656 2_656
C7A C7A S2A' 121.9(4) 2_656 .
C6A' C7A S2A' 135.2(5) 2_656 .
C7A C7A S2A 116.3(4) 2_656 2_656
C6A C7A S2A 135.4(4) . 2_656
C4B S1B C1B 92.6(4) . .
C2B C1B S1B 112.1(10) . .
C2B C1B H1B 123.9 . .
S1B C1B H1B 123.9 . .
C1B C2B C3B 111.4(12) . .
C1B C2B H2B 124.3 . .
C3B C2B H2B 124.3 . .
C4B C3B C2B 112.4(13) . .
C4B C3B H3B 123.8 . .
C2B C3B H3B 123.8 . .
C3B C4B C5B 125.6(8) . .
C3B C4B S1B 111.4(7) . .
C5B C4B S1B 123.0(2) . .
C4B' S1B' C1B' 93.0(8) . .
C2B' C1B' S1B' 111.9(17) . .
C2B' C1B' H1B' 124.1 . .
S1B' C1B' H1B' 124.1 . .
C1B' C2B' C3B' 111.8(19) . .
C1B' C2B' H2B' 124.1 . .
C3B' C2B' H2B' 124.1 . .
C4B' C3B' C2B' 110.6(16) . .
C4B' C3B' H3B' 124.7 . .
C2B' C3B' H3B' 124.7 . .
C3B' C4B' C5B' 123.6(9) . .
C3B' C4B' S1B' 112.6(8) . .
C5B' C4B' S1B' 123.8(3) . .
C6B C5B C4B 127.9(5) . .
C6B C5B S2B 112.9(5) . .
C4B C5B S2B 119.2(2) . .
C5B C6B C7B 112.2(7) . .
C5B C6B H6B 123.9 . .
C7B C6B H6B 123.9 . .
C7B S2B C5B 90.08(16) 2_566 .
C6B' C5B' C4B' 127.7(5) . .
C6B' C5B' S2B' 111.6(5) . .
C4B' C5B' S2B' 120.6(2) . .
C5B' C6B' C7B 113.2(7) . 2_566
C5B' C6B' H6B' 123.4 . .
C7B C6B' H6B' 123.4 2_566 .
C7B S2B' C5B' 90.24(16) . .
C7B C7B C6B' 104.9(5) 2_566 2_566
C7B C7B C6B 105.3(5) 2_566 .
C7B C7B S2B' 119.9(4) 2_566 .
C6B' C7B S2B' 135.1(4) 2_566 .
C7B C7B S2B 119.6(3) 2_566 2_566
C6B C7B S2B 135.1(4) . 2_566
loop_
_geom_bond_atom_site_label_1
_geom_bond_atom_site_label_2
_geom_bond_distance
_geom_bond_site_symmetry_2
S1A C4A 1.727(3) .
S1A C1A 1.730(4) .
C1A C2A 1.359(6) .
C1A H1A 0.9500 .
C2A C3A 1.409(10) .
C2A H2A 0.9500 .
C3A C4A 1.360(8) .
C3A H3A 0.9500 .
C4A C5A 1.449(5) .
S1A' C4A' 1.659(10) .
S1A' C1A' 1.733(19) .
C1A' C2A' 1.365(18) .
C1A' H1A' 0.9500 .
C2A' C3A' 1.42(2) .
C2A' H2A' 0.9500 .
C3A' C4A' 1.345(18) .
C3A' H3A' 0.9500 .
C4A' C5A' 1.449(5) .
C5A C6A 1.378(9) .
C5A S2A 1.729(3) .
C6A C7A 1.460(11) .
C6A H6A 0.9500 .
S2A C7A 1.676(4) 2_656
C5A' C6A' 1.386(13) .
C5A' S2A' 1.703(4) .
C6A' C7A 1.543(17) 2_656
C6A' H6A' 0.9500 .
S2A' C7A 1.625(5) .
C7A C7A 1.374(6) 2_656
C7A C6A' 1.543(17) 2_656
C7A S2A 1.676(4) 2_656
S1B C4B 1.691(3) .
S1B C1B 1.719(8) .
C1B C2B 1.358(8) .
C1B H1B 0.9500 .
C2B C3B 1.441(18) .
C2B H2B 0.9500 .
C3B C4B 1.384(13) .
C3B H3B 0.9500 .
C4B C5B 1.444(5) .
S1B' C4B' 1.664(5) .
S1B' C1B' 1.712(14) .
C1B' C2B' 1.364(13) .
C1B' H1B' 0.9500 .
C2B' C3B' 1.45(2) .
C2B' H2B' 0.9500 .
C3B' C4B' 1.398(15) .
C3B' H3B' 0.9500 .
C4B' C5B' 1.444(5) .
C5B C6B 1.358(10) .
C5B S2B 1.734(3) .
C6B C7B 1.519(12) .
C6B H6B 0.9500 .
S2B C7B 1.648(4) 2_566
C5B' C6B' 1.373(10) .
C5B' S2B' 1.730(3) .
C6B' C7B 1.493(12) 2_566
C6B' H6B' 0.9500 .
S2B' C7B 1.641(4) .
C7B C7B 1.371(6) 2_566
C7B C6B' 1.493(12) 2_566
C7B S2B 1.648(4) 2_566
loop_
_geom_torsion_atom_site_label_1
_geom_torsion_atom_site_label_2
_geom_torsion_atom_site_label_3
_geom_torsion_atom_site_label_4
_geom_torsion
_geom_torsion_site_symmetry_1
_geom_torsion_site_symmetry_2
_geom_torsion_site_symmetry_3
_geom_torsion_site_symmetry_4
C4A S1A C1A C2A 0.1(7) . . . .
S1A C1A C2A C3A 1.1(12) . . . .
C1A C2A C3A C4A -2.1(15) . . . .
C2A C3A C4A C5A -176.9(7) . . . .
C2A C3A C4A S1A 2.1(11) . . . .
C1A S1A C4A C3A -1.3(6) . . . .
C1A S1A C4A C5A 177.8(4) . . . .
C4A' S1A' C1A' C2A' 3(5) . . . .
S1A' C1A' C2A' C3A' -3(7) . . . .
C1A' C2A' C3A' C4A' 3(6) . . . .
C2A' C3A' C4A' C5A' 178(3) . . . .
C2A' C3A' C4A' S1A' -1(4) . . . .
C1A' S1A' C4A' C3A' -1(4) . . . .
C1A' S1A' C4A' C5A' -179(3) . . . .
C3A C4A C5A C6A -179.5(9) . . . .
S1A C4A C5A C6A 1.6(8) . . . .
C3A C4A C5A S2A 2.6(8) . . . .
S1A C4A C5A S2A -176.26(18) . . . .
C4A C5A C6A C7A -179.2(4) . . . .
S2A C5A C6A C7A -1.2(10) . . . .
C6A C5A S2A C7A 0.7(6) . . . 2_656
C4A C5A S2A C7A 179.0(3) . . . 2_656
C3A' C4A' C5A' C6A' 178(2) . . . .
S1A' C4A' C5A' C6A' -3.9(12) . . . .
C3A' C4A' C5A' S2A' -3(2) . . . .
S1A' C4A' C5A' S2A' 174.8(8) . . . .
C4A' C5A' C6A' C7A 178.6(5) . . . 2_656
S2A' C5A' C6A' C7A -0.2(13) . . . 2_656
C6A' C5A' S2A' C7A -0.3(8) . . . .
C4A' C5A' S2A' C7A -179.2(3) . . . .
C5A C6A C7A C7A 1.1(10) . . . 2_656
C5A C6A C7A S2A -179.6(4) . . . 2_656
C5A' S2A' C7A C7A 0.9(5) . . . 2_656
C5A' S2A' C7A C6A' 179.4(10) . . . 2_656
C4B S1B C1B C2B 0.1(10) . . . .
S1B C1B C2B C3B 0.6(17) . . . .
C1B C2B C3B C4B -1(2) . . . .
C2B C3B C4B C5B 178.6(10) . . . .
C2B C3B C4B S1B 1.3(17) . . . .
C1B S1B C4B C3B -0.8(11) . . . .
C1B S1B C4B C5B -178.2(6) . . . .
C4B' S1B' C1B' C2B' 1.2(19) . . . .
S1B' C1B' C2B' C3B' 1(3) . . . .
C1B' C2B' C3B' C4B' -3(3) . . . .
C2B' C3B' C4B' C5B' -177.1(15) . . . .
C2B' C3B' C4B' S1B' 4(2) . . . .
C1B' S1B' C4B' C3B' -3.0(16) . . . .
C1B' S1B' C4B' C5B' 178.(1) . . . .
C3B C4B C5B C6B -171.3(12) . . . .
S1B C4B C5B C6B 5.6(8) . . . .
C3B C4B C5B S2B 7.3(11) . . . .
S1B C4B C5B S2B -175.7(2) . . . .
C4B C5B C6B C7B 178.3(4) . . . .
S2B C5B C6B C7B -0.4(10) . . . .
C6B C5B S2B C7B 0.1(6) . . . 2_566
C4B C5B S2B C7B -178.7(3) . . . 2_566
C3B' C4B' C5B' C6B' -174.8(15) . . . .
S1B' C4B' C5B' C6B' 4.2(8) . . . .
C3B' C4B' C5B' S2B' 6.7(14) . . . .
S1B' C4B' C5B' S2B' -174.3(4) . . . .
C4B' C5B' C6B' C7B -178.5(4) . . . 2_566
S2B' C5B' C6B' C7B 0.1(9) . . . 2_566
C6B' C5B' S2B' C7B -0.2(6) . . . .
C4B' C5B' S2B' C7B 178.6(3) . . . .
C5B C6B C7B C7B 0.6(10) . . . 2_566
C5B C6B C7B S2B 179.9(4) . . . 2_566
C5B' S2B' C7B C7B 0.2(4) . . . 2_566
C5B' S2B' C7B C6B' 180.0(7) . . . 2_566
