#------------------------------------------------------------------------------
#$Date: 2019-11-23 15:05:52 +0200 (Sat, 23 Nov 2019) $
#$Revision: 233761 $
#$URL: file:///home/coder/svn-repositories/cod/cif/7/23/59/7235925.cif $
#------------------------------------------------------------------------------
#
# This file is available in the Crystallography Open Database (COD),
# http://www.crystallography.net/
#
# All data on this site have been placed in the public domain by the
# contributors.
#
data_7235925
loop_
_publ_author_name
'Kumar, Amit'
'Sattar, Moh.'
'Verma, Ajay'
'Dara, Ankit'
'Kumar, Sangit'
_publ_section_title
;
 Double functionalization of
 2-amino-2&#x2032;-hydroxy-1,1&#x2032;-biaryls: synthesis of
 4-nitro-dibenzofurans and benzofuro-indoles
;
_journal_issue                   56
_journal_name_full               'RSC Advances'
_journal_page_first              44728
_journal_paper_doi               10.1039/C5RA07328F
_journal_volume                  5
_journal_year                    2015
_chemical_absolute_configuration unk
_chemical_formula_moiety         'C17  H17  N1  O3'
_chemical_formula_sum            'C17 H17 N O3'
_chemical_formula_weight         283.31
_space_group_IT_number           4
_space_group_name_Hall           'P 2yb'
_space_group_name_H-M_alt        'P 1 21 1'
_symmetry_cell_setting           monoclinic
_symmetry_Int_Tables_number      4
_symmetry_space_group_name_Hall  'P 2yb'
_symmetry_space_group_name_H-M   'P 1 21 1'
_atom_sites_solution_hydrogens   geom
_audit_conform_dict_location     ftp://ftp.iucr.org/pub/cif_core.dic
_audit_conform_dict_name         cif_core.dic
_audit_conform_dict_version      2.4.3
_audit_creation_date             2014-09-10T10:51:25-00:00
_audit_creation_method           'WinGX routine CIF_UPDATE'
_audit_update_record
;
2015-01-12 deposited with the CCDC.
2015-04-27 downloaded from the CCDC.
;
_cell_angle_alpha                90
_cell_angle_beta                 110.095(3)
_cell_angle_gamma                90
_cell_formula_units_Z            2
_cell_length_a                   8.8713(5)
_cell_length_b                   7.0968(4)
_cell_length_c                   12.0516(6)
_cell_measurement_reflns_used    0
_cell_measurement_temperature    296(2)
_cell_measurement_theta_max      0
_cell_measurement_theta_min      0
_cell_measurement_wavelength     0.71073
_cell_volume                     712.55(7)
_computing_molecular_graphics    'Ortep for Windows (Farrugia, 2012)'
_computing_publication_material  'WinGX publication routines (Farrugia, 2012)'
_computing_structure_refinement  'SHELXL-2014 (Sheldrick, 2014)'
_diffrn_ambient_temperature      296(2)
_diffrn_measured_fraction_theta_full 1
_diffrn_measured_fraction_theta_max 0.999
_diffrn_radiation_probe          x-ray
_diffrn_radiation_type           MoK\a
_diffrn_radiation_wavelength     0.71073
_diffrn_reflns_av_R_equivalents  0.0325
_diffrn_reflns_Laue_measured_fraction_full 1
_diffrn_reflns_Laue_measured_fraction_max 0.999
_diffrn_reflns_limit_h_max       11
_diffrn_reflns_limit_h_min       -11
_diffrn_reflns_limit_k_max       9
_diffrn_reflns_limit_k_min       -9
_diffrn_reflns_limit_l_max       13
_diffrn_reflns_limit_l_min       -15
_diffrn_reflns_number            7512
_diffrn_reflns_point_group_measured_fraction_full 0.95
_diffrn_reflns_point_group_measured_fraction_max 0.929
_diffrn_reflns_theta_full        25.242
_diffrn_reflns_theta_max         26.954
_diffrn_reflns_theta_min         1.799
_exptl_absorpt_coefficient_mu    0.091
_exptl_absorpt_correction_type   none
_exptl_crystal_density_diffrn    1.32
_exptl_crystal_density_method    'not measured'
_exptl_crystal_description       char
_exptl_crystal_F_000             300
_exptl_crystal_size_max          0
_exptl_crystal_size_mid          0
_exptl_crystal_size_min          0
_refine_diff_density_max         0.196
_refine_diff_density_min         -0.167
_refine_diff_density_rms         0.032
_refine_ls_abs_structure_details
;
 Flack x determined using 795 quotients [(I+)-(I-)]/[(I+)+(I-)]
 (Parsons, Flack and Wagner, Acta Cryst. B69 (2013) 249-259).
;
_refine_ls_abs_structure_Flack   1.9(10)
_refine_ls_extinction_coef       0.049(6)
_refine_ls_extinction_expression Fc^*^=kFc[1+0.001xFc^2^\l^3^/sin(2\q)]^-1/4^
_refine_ls_extinction_method     SHELXL
_refine_ls_goodness_of_fit_ref   1.048
_refine_ls_hydrogen_treatment    constr
_refine_ls_matrix_type           full
_refine_ls_number_constraints    0
_refine_ls_number_parameters     195
_refine_ls_number_reflns         2880
_refine_ls_number_restraints     1
_refine_ls_restrained_S_all      1.048
_refine_ls_R_factor_all          0.0573
_refine_ls_R_factor_gt           0.0434
_refine_ls_shift/su_max          0.041
_refine_ls_shift/su_mean         0.008
_refine_ls_structure_factor_coef Fsqd
_refine_ls_weighting_details
'w=1/[\s^2^(Fo^2^)+(0.0548P)^2^+0.0976P] where P=(Fo^2^+2Fc^2^)/3'
_refine_ls_weighting_scheme      calc
_refine_ls_wR_factor_gt          0.1095
_refine_ls_wR_factor_ref         0.12
_reflns_number_gt                2240
_reflns_number_total             2880
_reflns_threshold_expression     'I > 2\s(I)'
_iucr_refine_instructions_details
;
TITL AK_SK_0m in P2(1)
CELL  0.71073   8.8713   7.0968  12.0516   90.000  110.095   90.000
ZERR     2.00   0.0005   0.0004   0.0006    0.000    0.003    0.000
LATT  -1
SYMM  - X, 1/2 + Y, - Z
SFAC  C    H    N    O
UNIT  34   34   2    6
MERG   2
FMAP   2
PLAN    1
ACTA
BOND   $H
CONF
L.S.  12
TEMP    23.00
WGHT    0.054800    0.097600
EXTI    0.048975
FVAR       0.25727
O3    4    0.110980    0.056706   -0.140958    11.00000    0.03576    0.15916 =
         0.06909    0.02326    0.01709    0.01073
O2    4    0.203588    0.055554    0.046465    11.00000    0.04736    0.15678 =
         0.06874   -0.01899    0.03674   -0.00183
O1    4    0.521917    0.045624    0.166254    11.00000    0.03778    0.05090 =
         0.04762   -0.00180    0.02303    0.00576
N1    3    0.221632    0.048246   -0.048440    11.00000    0.03676    0.05841 =
         0.06162   -0.00143    0.02411   -0.00586
C1    1    0.680875    0.223412   -0.296744    11.00000    0.06110    0.05983 =
         0.05339   -0.00981    0.02625   -0.00712
AFIX 137
H12   2    0.689277    0.230036   -0.373969    11.00000   -1.50000
H11   2    0.786378    0.217016   -0.238252    11.00000   -1.50000
H1    2    0.626672    0.333555   -0.283351    11.00000   -1.50000
AFIX   0
C2    1    0.586407    0.048764   -0.288293    11.00000    0.04098    0.04804 =
         0.04748   -0.00500    0.02306    0.00188
C3    1    0.559595    0.051095   -0.169014    11.00000    0.04160    0.03760 =
         0.04670    0.00179    0.02288    0.00161
C4    1    0.692513    0.048620   -0.064557    11.00000    0.03536    0.04844 =
         0.04973    0.00247    0.02328   -0.00141
AFIX  43
H4    2    0.795526    0.048160   -0.068231    11.00000   -1.20000
AFIX   0
C5    1    0.672110    0.046850    0.044209    11.00000    0.03572    0.03825 =
         0.04964   -0.00670    0.02100    0.00483
C6    1    0.780453    0.046009    0.165343    11.00000    0.03963    0.03893 =
         0.04703    0.00189    0.02301   -0.00020
C7    1    0.683800    0.047654    0.235103    11.00000    0.03514    0.03767 =
         0.05094    0.00204    0.02055   -0.00284
C8    1    0.742075    0.043977    0.356260    11.00000    0.04468    0.04387 =
         0.05167    0.01127    0.02823    0.00767
AFIX  43
H5    2    0.673317    0.038140    0.399564    11.00000   -1.20000
AFIX   0
C9    1    0.907688    0.049294    0.411970    11.00000    0.04459    0.03811 =
         0.05116   -0.00641    0.02023   -0.00319
C10   1    0.979819    0.046126    0.544323    11.00000    0.05358    0.06484 =
         0.05281    0.01937    0.02083    0.00852
AFIX 137
H2    2    0.905480   -0.010563    0.576413    11.00000   -1.50000
H7    2    1.002694    0.172671    0.573397    11.00000   -1.50000
H6    2    1.077418   -0.025754    0.567812    11.00000   -1.50000
AFIX   0
C11   1    0.682589   -0.129933   -0.295272    11.00000    0.06227    0.05223 =
         0.06617   -0.01212    0.04236    0.00365
AFIX 137
H17   2    0.623534   -0.239882   -0.288146    11.00000   -1.50000
H3    2    0.784403   -0.128245   -0.232234    11.00000   -1.50000
H16   2    0.699521   -0.132574   -0.369767    11.00000   -1.50000
AFIX   0
C12   1    0.407389    0.045921   -0.159452    11.00000    0.03787    0.04121 =
         0.04890    0.00037    0.01893    0.00108
AFIX  43
H10   2    0.317860    0.040077   -0.228057    11.00000   -1.20000
AFIX   0
C13   1    0.385003    0.049197   -0.051003    11.00000    0.03269    0.04009 =
         0.05483    0.00988    0.02282    0.00624
C14   1    0.516921    0.046107    0.051377    11.00000    0.03946    0.03578 =
         0.04698   -0.00417    0.02462   -0.00150
C15   1    0.945912    0.045443    0.221256    11.00000    0.03901    0.05074 =
         0.05400    0.00401    0.02513    0.00846
AFIX  43
H9    2    1.014369    0.045795    0.177616    11.00000   -1.20000
AFIX   0
C16   1    1.006033    0.044350    0.342727    11.00000    0.03869    0.05352 =
         0.05421    0.00096    0.01876    0.00918
AFIX  43
H8    2    1.116710    0.040148    0.380460    11.00000   -1.20000
AFIX   0
C17   1    0.429097    0.044535   -0.392170    11.00000    0.05524    0.07162 =
         0.04936    0.00123    0.02140    0.00347
AFIX 137
H15   2    0.451164    0.034590   -0.464552    11.00000   -1.50000
H14   2    0.370235    0.158323   -0.392922    11.00000   -1.50000
H13   2    0.366639   -0.061975   -0.384574    11.00000   -1.50000
AFIX   0
HKLF    4  1.0  1.00  0.00  0.00  0.00  1.00  0.00  0.00  0.00  1.00
REM  AK_SK_0m in P2(1)
REM R1 =  0.0434 for    2240 Fo > 4sig(Fo)  and  0.0573 for all    2880 data
REM    195 parameters refined using      1 restraints
END
;
_cod_data_source_file            c5ra07328f3.cif
_cod_data_source_block
2-(tert-butyl)-7-methyl-4-nitrodibenzo[b,d]furan
_cod_original_sg_symbol_H-M      'P 21'
_cod_database_code               7235925
_iucr_refine_reflections_details
;
  -1   0   0   77.54    3.13
  -1   0   0   64.11    3.10
  -1   0   0   70.65    2.83
   1   0   0   71.18    2.62
   1   0   0   65.00    3.07
   1   0   0   60.63    3.06
  -1   0   0   71.40    2.58
  -2   0   0    0.50    0.05
   2   0   0    0.56    0.05
   2   0   0    0.42    0.06
   2   0   0    0.41    0.06
  -2   0   0    0.58    0.07
  -2   0   0    0.42    0.06
  -2   0   0    0.50    0.05
  -3   0   0   18.94    0.77
  -3   0   0   19.44    0.92
  -3   0   0   19.08    0.93
  -3   0   0   20.44    0.83
   3   0   0   18.47    0.91
   3   0   0   18.99    0.77
   4   0   0    7.31    0.41
  -4   0   0    7.65    0.41
   4   0   0    7.66    0.43
  -4   0   0    7.10    0.35
   4   0   0    8.04    0.34
  -4   0   0    7.08    0.43
  -4   0   0    7.45    0.37
  -5   0   0    0.04    0.03
   5   0   0    0.03    0.03
  -5   0   0    0.01    0.03
  -5   0   0    0.00    0.03
   5   0   0    0.00    0.04
  -5   0   0    0.02    0.03
   5   0   0    0.01    0.02
  -6   0   0    0.00    0.03
   6   0   0    0.01    0.03
   6   0   0    0.04    0.04
  -6   0   0    0.02    0.04
   6   0   0    0.01    0.03
  -6   0   0    0.01    0.04
  -7   0   0    0.25    0.08
   7   0   0    0.23    0.07
  -8   0   0    1.28    0.18
   8   0   0    1.00    0.15
   9   0   0    4.09    0.27
  -9   0   0    3.15    0.31
 -10   0   0    3.39    0.34
  10   0   0    3.24    0.30
   0  -1   0   -0.55    0.06
   0  -1   0   -0.58    0.05
   0   1   0   -0.42    0.05
   0   1   0   -0.51    0.06
   0   1   0   -0.34    0.05
   0   1   0   -0.56    0.06
   1  -1   0   46.84    2.11
  -1  -1   0   46.73    2.10
   1  -1   0   44.96    2.10
  -1  -1   0   46.88    1.92
  -1  -1   0   42.23    2.11
  -1   1   0   53.75    1.91
   1   1   0   45.73    1.76
   1   1   0   44.75    2.10
  -1   1   0   48.43    2.10
   1   1   0   48.89    2.11
  -1   1   0   46.37    1.77
  -1   1   0   43.02    2.10
  -2  -1   0   33.50    1.46
  -2  -1   0   35.29    1.62
   2  -1   0   35.13    1.61
  -2  -1   0   32.17    1.35
   2  -1   0   35.89    1.35
  -2   1   0   34.18    1.61
   2   1   0   36.00    1.35
   2   1   0   31.49    1.60
   2   1   0   37.33    1.62
  -2   1   0   34.28    1.35
  -2   1   0   40.26    1.61
   3  -1   0    1.88    0.11
  -3  -1   0    2.04    0.16
  -3  -1   0    2.07    0.12
   3  -1   0    1.83    0.14
  -3  -1   0    1.79    0.13
   3   1   0    1.64    0.11
  -3   1   0    1.81    0.15
   3   1   0    1.76    0.14
  -3   1   0    1.92    0.12
  -3   1   0    2.23    0.15
  -3   1   0    1.88    0.11
   3   1   0    1.94    0.16
   4  -1   0   45.42    2.23
   4  -1   0   47.63    1.85
  -4  -1   0   43.52    2.22
  -4  -1   0   51.66    2.25
  -4  -1   0   47.87    1.87
  -4  -1   0   49.24    2.02
   4  -1   0   50.05    2.22
   4  -1   0   46.76    1.85
   4   1   0   47.38    2.21
  -4   1   0   47.49    1.86
  -4   1   0   49.03    2.22
   4   1   0   48.82    1.85
  -4   1   0   47.31    1.99
  -4   1   0   45.78    2.23
   4   1   0   48.21    2.24
   5  -1   0    8.95    0.51
   5  -1   0    9.31    0.42
  -5  -1   0    8.53    0.52
   5  -1   0    8.84    0.45
  -5  -1   0    9.24    0.44
  -5  -1   0    8.95    0.43
  -5  -1   0    8.64    0.44
  -5   1   0    9.42    0.43
   5   1   0    8.67    0.41
   5   1   0    9.60    0.54
  -5   1   0    9.59    0.44
  -5   1   0    8.40    0.50
   5   1   0    8.96    0.50
  -5   1   0    9.60    0.54
  -6  -1   0   10.71    0.56
   6  -1   0   12.05    0.53
  -6  -1   0   11.91    0.55
   6  -1   0   11.62    0.58
   6  -1   0   12.87    0.66
  -6   1   0   10.78    0.67
   6   1   0   11.34    0.52
   6   1   0   12.09    0.65
  -6   1   0   11.92    0.55
   7  -1   0   16.09    0.77
  -7  -1   0   18.77    0.81
  -7   1   0   17.88    0.80
   7   1   0   18.54    0.96
   7   1   0   17.71    0.77
  -8  -1   0    0.53    0.11
   8  -1   0    0.46    0.10
   8   1   0    0.52    0.11
  -8   1   0    0.55    0.12
   9  -1   0    0.05    0.06
   9   1   0    0.07    0.06
  -9   1   0    0.03    0.07
  10  -1   0   -0.02    0.06
 -10   1   0    0.03    0.08
  10   1   0    0.01    0.06
   0  -2   0  995.61   42.37
   0  -2   0  985.42   42.42
   0  -2   0  989.40   41.65
   0   2   0  908.30   38.26
   0   2   0  934.91   42.41
   0   2   0 1000.00   41.42
   0   2   0  824.71   42.33
   1  -2   0   11.03    0.45
   1  -2   0   11.59    0.54
  -1  -2   0   11.26    0.49
  -1  -2   0   10.59    0.53
   1  -2   0   10.75    0.54
  -1  -2   0   11.35    0.55
   1  -2   0   11.55    0.46
  -1   2   0   11.00    0.44
  -1   2   0   11.01    0.46
  -1   2   0   10.52    0.54
   1   2   0   10.56    0.44
  -1   2   0   10.49    0.54
   1   2   0   10.76    0.53
   1   2   0   11.26    0.55
   1   2   0   10.54    0.49
   2  -2   0   28.82    1.09
   2  -2   0   26.43    1.31
  -2  -2   0   28.18    1.20
  -2  -2   0   24.49    1.31
  -2  -2   0   28.54    1.30
   2   2   0   27.59    1.09
   2   2   0   27.16    1.30
   2   2   0   27.02    1.19
  -2   2   0   29.33    1.14
  -2   2   0   31.65    1.32
   2   2   0   26.71    1.32
  -2   2   0   28.17    1.09
  -2   2   0   29.28    1.32
  -3  -2   0    2.40    0.17
  -3  -2   0    1.71    0.14
   3  -2   0    2.47    0.16
  -3  -2   0    1.82    0.13
  -3  -2   0    1.79    0.13
   3  -2   0    1.81    0.12
   3  -2   0    1.96    0.14
  -3   2   0    1.70    0.15
   3   2   0    2.17    0.15
   3   2   0    2.09    0.17
  -3   2   0    2.01    0.10
   3   2   0    1.74    0.14
  -3   2   0    1.85    0.15
   3   2   0    1.98    0.12
  -3   2   0    1.92    0.12
   4  -2   0   10.92    0.56
   4  -2   0   10.33    0.46
  -4  -2   0    9.86    0.47
  -4  -2   0   10.47    0.58
  -4  -2   0   10.34    0.48
   4   2   0   10.55    0.55
  -4   2   0   10.04    0.55
  -4   2   0    9.94    0.57
  -4   2   0   10.53    0.46
   4   2   0   10.06    0.45
   4   2   0   10.34    0.58
  -4   2   0   10.18    0.46
   5  -2   0    2.11    0.18
  -5  -2   0    2.01    0.23
   5  -2   0    2.14    0.17
   5  -2   0    1.67    0.16
  -5  -2   0    2.15    0.19
  -5   2   0    2.00    0.13
  -5   2   0    1.60    0.16
  -5   2   0    2.31    0.24
   5   2   0    2.03    0.18
   5   2   0    2.04    0.14
   6  -2   0    2.41    0.23
  -6  -2   0    2.06    0.20
   6  -2   0    2.06    0.16
  -6  -2   0    2.29    0.17
   6  -2   0    2.14    0.16
   6   2   0    1.73    0.22
   6   2   0    2.05    0.15
  -6   2   0    1.71    0.23
  -6   2   0    2.01    0.20
   7  -2   0    0.11    0.06
  -7  -2   0    0.12    0.07
  -7  -2   0    0.19    0.07
   7   2   0    0.06    0.07
   7   2   0    0.09    0.05
  -7   2   0    0.10    0.06
  -8   2   0    0.04    0.06
   8   2   0    0.03    0.05
  -9   2   0    1.34    0.20
   9   2   0    1.78    0.20
  10   2   0    1.96    0.22
 -10   2   0    1.98    0.25
   0  -3   0   -0.12    0.03
   0  -3   0   -0.15    0.02
   0  -3   0   -0.14    0.02
   0  -3   0   -0.16    0.02
   0   3   0   -0.14    0.02
   0   3   0   -0.09    0.03
   0   3   0   -0.12    0.03
   0   3   0   -0.05    0.03
   1  -3   0    0.49    0.07
   1  -3   0    0.66    0.09
   1  -3   0    0.48    0.05
  -1  -3   0    0.57    0.07
  -1  -3   0    0.47    0.08
   1  -3   0    0.53    0.06
  -1  -3   0    0.59    0.07
  -1  -3   0    0.61    0.07
   1   3   0    0.69    0.08
  -1   3   0    0.60    0.05
  -1   3   0    0.46    0.07
   1   3   0    0.56    0.08
  -1   3   0    0.62    0.07
  -1   3   0    0.59    0.09
   1   3   0    0.57    0.06
   1   3   0    0.70    0.10
  -2  -3   0    1.30    0.13
  -2  -3   0    1.26    0.10
   2  -3   0    1.41    0.11
  -2  -3   0    1.36    0.15
   2  -3   0    1.24    0.09
  -2  -3   0    1.37    0.10
   2  -3   0    1.50    0.13
  -2   3   0    1.37    0.10
  -2   3   0    1.46    0.15
   2   3   0    1.34    0.14
   2   3   0    1.33    0.09
   2   3   0    1.30    0.13
  -2   3   0    1.22    0.14
  -2   3   0    1.32    0.07
   2   3   0    1.57    0.14
  -3  -3   0    1.66    0.18
   3  -3   0    1.39    0.14
   3  -3   0    1.43    0.11
  -3  -3   0    1.52    0.14
   3  -3   0    1.59    0.14
  -3  -3   0    1.50    0.14
   3   3   0    1.26    0.16
   3   3   0    1.23    0.14
  -3   3   0    1.35    0.12
   3   3   0    1.39    0.10
  -3   3   0    1.24    0.07
  -3   3   0    1.16    0.15
   3   3   0    1.30    0.15
  -3   3   0    1.68    0.17
  -4  -3   0    5.40    0.31
   4  -3   0    6.51    0.37
   4  -3   0    5.60    0.29
   4  -3   0    6.31    0.33
  -4  -3   0    6.36    0.39
  -4  -3   0    5.53    0.31
  -4   3   0    5.93    0.38
   4   3   0    5.90    0.36
  -4   3   0    5.64    0.30
  -4   3   0    6.17    0.26
  -4   3   0    5.91    0.26
   4   3   0    5.44    0.28
  -5  -3   0    8.80    0.43
   5  -3   0    8.33    0.40
   5  -3   0    7.89    0.43
  -5   3   0    7.49    0.50
   5   3   0    8.54    0.39
   5   3   0    8.20    0.49
  -5   3   0    8.09    0.40
  -6  -3   0    3.58    0.25
   6  -3   0    3.32    0.26
  -6   3   0    3.99    0.32
  -6   3   0    4.25    0.25
   6   3   0    3.96    0.30
   6   3   0    4.04    0.23
  -7  -3   0    3.63    0.29
  -7   3   0    5.12    0.41
   7   3   0    5.10    0.37
  -7   3   0    5.39    0.31
   7   3   0    5.37    0.29
  -8   3   0    0.21    0.09
   8   3   0    0.37    0.08
  -9   3   0    0.33    0.11
   9   3   0    0.30    0.09
 -10   3   0    0.19    0.10
  10   3   0   -0.01    0.06
   0  -4   0  363.42   14.71
   0  -4   0  358.52   13.57
   0  -4   0  369.05   14.36
   0  -4   0  361.07   16.12
   0   4   0  377.10   16.36
   0   4   0  352.52   14.72
   0   4   0  349.19   16.13
   0   4   0  352.76   13.62
   1  -4   0   10.93    0.55
  -1  -4   0   10.00    0.46
   1  -4   0    9.90    0.45
  -1  -4   0   11.38    0.55
   1  -4   0   10.24    0.45
   1  -4   0    8.87    0.46
  -1  -4   0    9.77    0.48
   1   4   0   10.29    0.54
  -1   4   0    9.76    0.54
  -1   4   0   10.40    0.55
  -1   4   0    9.93    0.45
   1   4   0    9.36    0.42
   1   4   0    9.28    0.54
  -1   4   0   10.33    0.43
  -2  -4   0    4.76    0.27
   2  -4   0    4.95    0.31
   2  -4   0    5.30    0.26
   2  -4   0    5.03    0.23
  -2  -4   0    4.90    0.32
   2  -4   0    5.34    0.28
  -2  -4   0    4.95    0.26
  -2   4   0    4.91    0.23
  -2   4   0    4.88    0.25
   2   4   0    5.52    0.34
  -2   4   0    5.18    0.32
  -2   4   0    5.07    0.32
   2   4   0    4.64    0.31
   2   4   0    5.13    0.29
   2   4   0    4.60    0.24
   3  -4   0    0.13    0.05
  -3  -4   0    0.16    0.05
  -3   4   0    0.16    0.05
   3   4   0    0.11    0.05
   3   4   0    0.08    0.05
  -3   4   0    0.07    0.05
   3   4   0    0.09    0.03
  -4  -4   0    3.85    0.24
   4  -4   0    3.97    0.26
   4   4   0    4.21    0.29
   4   4   0    3.78    0.22
  -4   4   0    4.23    0.23
  -4   4   0    3.97    0.30
   5  -4   0    0.50    0.10
  -5  -4   0    0.58    0.11
  -5   4   0    0.51    0.13
   5   4   0    0.29    0.09
  -5   4   0    0.60    0.10
   5   4   0    0.44    0.08
   6  -4   0    0.31    0.09
  -6  -4   0    0.54    0.12
  -6   4   0    0.62    0.11
   6   4   0    0.51    0.13
  -6   4   0    0.58    0.14
   6   4   0    0.59    0.10
  -7  -4   0    0.15    0.07
   7   4   0    0.14    0.06
   7   4   0    0.17    0.09
  -7   4   0    0.15    0.07
  -8   4   0    0.06    0.07
   8   4   0    0.06    0.05
   9   4   0    0.65    0.12
  -9   4   0    0.77    0.15
   0  -5   0    0.00    0.03
   0  -5   0    0.03    0.03
   0   5   0   -0.01    0.02
   0   5   0    0.05    0.03
   0   5   0    0.00    0.03
  -1  -5   0   13.17    0.59
   1  -5   0   12.44    0.59
  -1   5   0   12.80    0.68
  -1   5   0   12.39    0.54
  -1   5   0   12.07    0.57
   1   5   0   12.54    0.67
   1   5   0   12.81    0.60
   1   5   0   12.39    0.53
   2  -5   0    1.64    0.17
  -2  -5   0    2.21    0.17
   2   5   0    2.08    0.13
   2   5   0    1.64    0.17
  -2   5   0    2.20    0.14
   2   5   0    2.18    0.22
  -2   5   0    1.76    0.21
  -3  -5   0    0.01    0.04
   3  -5   0   -0.02    0.03
   3   5   0    0.13    0.06
  -3   5   0    0.07    0.04
  -3   5   0    0.00    0.04
   3   5   0    0.03    0.03
  -4  -5   0    7.69    0.41
   4  -5   0    6.72    0.41
  -4   5   0    7.34    0.48
   4   5   0    7.65    0.36
  -4   5   0    7.04    0.37
   4   5   0    7.96    0.47
  -5  -5   0    1.45    0.18
   5  -5   0    1.27    0.17
   5   5   0    1.23    0.18
   5   5   0    1.38    0.15
  -5   5   0    1.77    0.24
  -5   5   0    1.30    0.15
   6  -5   0    4.32    0.30
  -6  -5   0    3.81    0.28
   6   5   0    3.58    0.23
  -6   5   0    3.16    0.36
  -6   5   0    3.97    0.25
  -7   5   0    5.88    0.35
   7   5   0    5.80    0.32
  -8   5   0    0.94    0.15
   8   5   0    0.54    0.11
   0  -6   0  103.76    4.16
   0   6   0  103.58    3.93
   0   6   0  101.05    4.73
  -1  -6   0    5.19    0.30
   1  -6   0    4.76    0.31
   1   6   0    4.81    0.35
   1   6   0    5.40    0.26
  -1   6   0    4.73    0.26
  -1   6   0    5.43    0.37
  -2  -6   0    0.20    0.07
   2  -6   0    0.18    0.06
   2   6   0    0.21    0.05
  -2   6   0    0.21    0.08
   2   6   0    0.12    0.07
  -2   6   0    0.33    0.07
  -3  -6   0    1.53    0.19
   3  -6   0    1.80    0.19
   3   6   0    1.93    0.13
   3   6   0    1.47    0.21
  -3   6   0    1.78    0.23
  -3   6   0    1.94    0.14
  -4  -6   0    1.45    0.17
   4  -6   0    1.04    0.15
  -4   6   0    1.28    0.14
   4   6   0    1.03    0.17
  -4   6   0    0.96    0.17
   4   6   0    1.22    0.12
   5  -6   0    0.03    0.06
  -5  -6   0    0.14    0.07
  -5   6   0   -0.01    0.04
   5   6   0    0.06    0.04
   6  -6   0   -0.04    0.06
  -6  -6   0   -0.06    0.04
   6   6   0    0.05    0.05
  -6   6   0    0.07    0.06
  -7   6   0   -0.07    0.05
   7   6   0    0.11    0.06
   0  -7   0   -0.02    0.04
   0   7   0    0.00    0.03
  -1  -7   0    3.07    0.24
   1  -7   0    3.15    0.24
   1   7   0    3.18    0.19
  -1   7   0    3.00    0.19
  -2  -7   0    0.04    0.05
   2  -7   0   -0.06    0.04
   2   7   0    0.07    0.04
  -2   7   0    0.12    0.05
  -3  -7   0    0.04    0.05
   3  -7   0   -0.01    0.05
  -3   7   0    0.03    0.04
   3   7   0    0.04    0.04
   4  -7   0    1.37    0.20
  -4  -7   0    1.05    0.17
   4   7   0    1.13    0.12
  -4   7   0    0.98    0.13
   5  -7   0    0.68    0.14
  -5  -7   0    0.98    0.16
   5   7   0    0.76    0.10
  -5   7   0    0.82    0.12
  -6  -7   0    1.78    0.24
   6   7   0    1.16    0.13
  -6   7   0    1.31    0.16
   0  -8   0   16.44    0.83
   0   8   0   17.26    0.71
   1  -8   0    1.09    0.17
  -1  -8   0    0.99    0.16
   1   8   0    1.07    0.10
  -1   8   0    0.77    0.10
  -2  -8   0    0.45    0.12
   2  -8   0    0.41    0.11
   2   8   0    0.43    0.07
  -2   8   0    0.68    0.09
   3  -8   0    0.15    0.10
  -3  -8   0    0.05    0.07
   3   8   0    0.07    0.04
  -3   8   0    0.07    0.05
   4  -8   0    0.29    0.11
  -4  -8   0    0.39    0.12
   4   8   0    0.36    0.07
  -4   8   0    0.36    0.08
   0  -9   0   -0.01    0.06
   1  -9   0    0.55    0.14
  -1  -9   0    0.19    0.10
 -10   0   1    2.49    0.27
  10   0  -1    2.06    0.23
  -9   0   1    0.08    0.07
   9   0  -1    0.11    0.07
  -8   0   1    1.00    0.16
   8   0  -1    1.10    0.15
  -7   0   1    2.59    0.19
  -7   0   1    2.10    0.26
   7   0  -1    2.21    0.17
   6   0  -1    1.81    0.14
  -6   0   1    1.38    0.20
   6   0  -1    1.64    0.19
   6   0  -1    2.08    0.20
   6   0  -1    1.61    0.18
  -6   0   1    1.47    0.16
  -5   0   1    4.75    0.27
  -5   0   1    4.75    0.26
   5   0  -1    4.66    0.27
   5   0  -1    4.96    0.30
   5   0  -1    5.16    0.31
  -5   0   1    4.29    0.31
   5   0  -1    4.42    0.24
  -5   0   1    4.72    0.30
   4   0  -1    0.12    0.04
  -4   0   1    0.14    0.05
  -4   0   1    0.15    0.05
   4   0  -1    0.13    0.04
   4   0  -1    0.11    0.03
   4   0  -1    0.14    0.06
  -4   0   1    0.16    0.04
  -4   0   1    0.13    0.04
   4   0  -1    0.08    0.04
  -3   0   1  101.00    4.13
  -3   0   1  103.88    4.57
   3   0  -1  101.39    3.83
   3   0  -1   98.84    4.55
  -3   0   1  104.07    3.84
   3   0  -1  100.96    4.55
  -3   0   1   94.52    4.55
   3   0  -1  103.45    4.13
  -2   0   1  124.67    5.88
   2   0  -1  136.73    5.88
  -2   0   1  133.36    4.98
  -2   0   1  134.25    5.35
   2   0  -1  127.92    5.92
  -2   0   1  132.85    5.89
   2   0  -1  127.99    4.97
   2   0  -1  133.68    5.40
  -1   0   1  165.63    6.46
  -1   0   1  168.36    7.70
   1   0  -1  171.17    7.69
   1   0  -1  159.89    7.01
  -1   0   1  188.63    7.72
   0   0  -1  109.80    4.89
   0   0  -1  100.42    4.88
   0   0   1  110.98    4.89
   0   0   1  113.16    4.90
   1   0   1   18.49    0.70
  -1   0  -1   19.59    0.84
   1   0   1   18.29    0.85
  -1   0  -1   16.62    0.84
   1   0   1   18.47    0.84
  -2   0  -1    4.09    0.22
   2   0   1    3.36    0.16
   2   0   1    3.47    0.20
   2   0   1    3.56    0.21
  -2   0  -1    3.47    0.17
  -3   0  -1   13.39    0.56
   3   0   1   14.26    0.66
  -3   0  -1   12.42    0.67
   3   0   1   12.83    0.67
   3   0   1   13.50    0.55
   4   0   1    0.49    0.07
  -4   0  -1    0.50    0.10
  -4   0  -1    0.59    0.08
   4   0   1    0.56    0.11
   4   0   1    0.62    0.09
  -4   0  -1    0.60    0.09
  -4   0  -1    0.50    0.08
   5   0   1    5.19    0.26
   5   0   1    4.89    0.32
  -5   0  -1    4.98    0.35
   5   0   1    5.03    0.34
  -5   0  -1    4.70    0.28
  -5   0  -1    5.15    0.28
   6   0   1    0.34    0.09
  -6   0  -1    0.39    0.08
   6   0   1    0.26    0.07
  -6   0  -1    0.28    0.07
  -7   0  -1   11.07    0.56
   7   0   1   11.44    0.53
  -8   0  -1    1.69    0.20
   8   0   1    1.79    0.18
   9   0   1    1.06    0.17
  10   0   1    0.24    0.09
 -10  -1   1    0.03    0.08
 -10   1   1   -0.01    0.07
  10   1  -1    0.16    0.08
  -9  -1   1   -0.04    0.05
   9   1  -1    0.01    0.05
  -9   1   1    0.06    0.06
  -8  -1   1    0.10    0.07
   8  -1  -1    0.11    0.06
   8   1  -1    0.20    0.07
  -8   1   1   -0.02    0.05
   7  -1  -1    1.05    0.13
  -7  -1   1    1.06    0.15
   7  -1  -1    0.81    0.13
  -7   1   1    0.84    0.17
  -7   1   1    0.94    0.13
   7   1  -1    1.08    0.14
   6  -1  -1    0.31    0.08
   6  -1  -1    0.56    0.09
  -6  -1   1    0.26    0.09
  -6  -1   1    0.51    0.09
  -6  -1   1    0.43    0.08
  -6  -1   1    0.58    0.10
   6   1  -1    0.63    0.12
  -6   1   1    0.59    0.09
  -6   1   1    0.44    0.07
  -6   1   1    0.33    0.10
   6   1  -1    0.54    0.09
  -5  -1   1    4.56    0.33
   5  -1  -1    5.27    0.31
  -5  -1   1    4.47    0.26
   5  -1  -1    4.66    0.25
  -5   1   1    5.09    0.26
  -5   1   1    5.12    0.33
  -5   1   1    4.95    0.26
   5   1  -1    4.38    0.32
   5   1  -1    4.81    0.28
   5   1  -1    4.91    0.31
  -5   1   1    4.95    0.31
   5   1  -1    4.82    0.25
  -4  -1   1   71.93    2.99
   4  -1  -1   77.63    2.76
  -4  -1   1   72.03    3.31
  -4  -1   1   73.56    2.77
   4  -1  -1   69.64    2.90
   4  -1  -1   66.88    3.28
  -4  -1   1   77.17    3.29
   4  -1  -1   71.44    2.76
  -4   1   1   70.97    3.30
   4   1  -1   69.27    2.75
  -4   1   1   72.23    2.96
   4   1  -1   73.20    2.99
   4   1  -1   75.44    3.29
  -4   1   1   69.36    2.76
  -4   1   1   67.93    3.28
  -3  -1   1    0.07    0.03
  -3  -1   1    0.04    0.03
   3  -1  -1    0.06    0.03
   3  -1  -1   -0.01    0.01
  -3  -1   1    0.06    0.04
   3  -1  -1    0.05    0.03
  -3  -1   1    0.02    0.02
  -3  -1   1    0.02    0.02
   3   1  -1    0.02    0.02
  -3   1   1    0.04    0.02
   3   1  -1    0.01    0.03
   3   1  -1    0.06    0.03
   3   1  -1    0.07    0.03
  -3   1   1    0.05    0.03
  -3   1   1    0.05    0.02
  -3   1   1    0.05    0.03
   2  -1  -1   63.00    2.94
  -2  -1   1   66.97    2.68
   2  -1  -1   65.98    2.67
  -2  -1   1   68.80    2.95
  -2  -1   1   64.42    2.94
   2   1  -1   63.13    2.94
   2   1  -1   64.23    2.47
  -2   1   1   65.89    2.47
  -2   1   1   58.83    2.93
  -2   1   1   65.87    2.66
   2   1  -1   63.94    2.68
   2   1  -1   67.79    2.96
  -2   1   1   66.79    2.94
   1  -1  -1    5.00    0.25
  -1  -1   1    4.47    0.27
   1  -1  -1    5.52    0.22
   1  -1  -1    5.21    0.26
  -1  -1   1    5.45    0.27
  -1  -1   1    5.03    0.24
   1   1  -1    4.67    0.26
   1   1  -1    5.23    0.24
  -1   1   1    5.17    0.25
   1   1  -1    5.22    0.22
  -1   1   1    5.27    0.21
  -1   1   1    5.36    0.26
  -1   1   1    5.24    0.21
   1   1  -1    5.20    0.27
   0  -1   1    0.32    0.04
   0  -1   1    0.38    0.05
   0  -1  -1    0.40    0.03
   0  -1  -1    0.45    0.03
   0  -1   1    0.35    0.04
   0  -1   1    0.39    0.05
   0   1   1    0.36    0.03
   0   1  -1    0.34    0.05
   0   1  -1    0.43    0.05
   0   1   1    0.38    0.03
   0   1  -1    0.47    0.04
   1  -1   1  125.84    5.78
  -1  -1  -1  127.56    5.85
   1  -1   1  123.32    6.41
   1  -1   1  123.77    4.86
  -1  -1  -1  126.87    5.81
  -1   1  -1  137.81    4.87
   1   1   1  129.83    5.88
  -1   1  -1  132.76    5.78
   1   1   1  125.42    5.78
   1   1   1  131.22    4.89
  -1   1  -1  132.96    5.79
   2  -1   1   43.04    1.65
  -2  -1  -1   43.27    1.79
   2  -1   1   42.70    1.97
   2  -1   1   40.75    1.97
  -2  -1  -1   44.70    1.98
  -2  -1  -1   42.39    1.96
  -2  -1  -1   44.13    1.65
   2   1   1   42.57    1.96
  -2   1  -1   44.86    1.66
  -2   1  -1   44.13    1.98
   2   1   1   42.15    1.64
  -2   1  -1   38.69    1.96
   2   1   1   45.28    1.98
  -3  -1  -1    0.39    0.06
   3  -1   1    0.33    0.05
   3  -1   1    0.27    0.06
  -3  -1  -1    0.30    0.06
   3  -1   1    0.26    0.05
   3  -1   1    0.29    0.06
  -3  -1  -1    0.40    0.07
  -3  -1  -1    0.34    0.07
  -3  -1  -1    0.35    0.05
   3   1   1    0.37    0.05
   3   1   1    0.23    0.05
   3   1   1    0.33    0.07
  -3   1  -1    0.33    0.07
  -3   1  -1    0.38    0.07
  -3   1  -1    0.42    0.06
   4  -1   1   35.44    1.63
   4  -1   1   30.58    1.60
  -4  -1  -1   33.70    1.36
   4  -1   1   36.72    1.35
  -4  -1  -1   31.94    1.62
  -4  -1  -1   34.91    1.41
   4   1   1   34.56    1.34
  -4   1  -1   32.04    1.63
  -4   1  -1   33.08    1.61
   4   1   1   34.51    1.61
   4   1   1   34.38    1.61
  -4   1  -1   34.22    1.36
   4   1   1   36.42    1.64
   5  -1   1    4.05    0.26
   5  -1   1    3.85    0.22
  -5  -1  -1    4.24    0.24
  -5  -1  -1    4.01    0.29
   5  -1   1    3.77    0.27
   5   1   1    3.92    0.21
  -5   1  -1    3.70    0.23
  -5   1  -1    3.85    0.23
  -5   1  -1    2.86    0.22
   5   1   1    4.17    0.28
  -5   1  -1    3.88    0.29
   6  -1   1   32.87    1.27
  -6  -1  -1   30.77    1.29
  -6  -1  -1   29.90    1.34
   6  -1   1   31.31    1.54
  -6   1  -1   30.10    1.57
   6   1   1   31.65    1.53
   6   1   1   31.86    1.26
  -6   1  -1   30.46    1.29
   7  -1   1   23.60    1.07
  -7  -1  -1   26.05    1.14
   7   1   1   26.45    1.30
  -7   1  -1   27.16    1.11
   7   1   1   24.39    1.06
   8  -1   1    0.53    0.11
   8   1   1    0.57    0.10
  -8   1  -1    0.48    0.12
   9  -1   1    0.35    0.10
   9   1   1    0.38    0.10
  -9   1  -1    0.31    0.10
  10  -1   1    0.00    0.07
 -10   1  -1    0.19    0.11
  10   1   1    0.08    0.07
 -10   2   1    0.79    0.16
  -9   2   1    0.29    0.08
   9   2  -1    0.02    0.05
  -8  -2   1    0.84    0.15
  -8   2   1    0.77    0.14
   8   2  -1    0.66    0.12
  -7  -2   1    6.55    0.38
   7  -2  -1    7.00    0.41
  -7   2   1    6.43    0.37
  -7   2   1    7.05    0.48
   7   2  -1    7.35    0.37
   6  -2  -1    4.26    0.25
  -6  -2   1    4.41    0.27
   6  -2  -1    4.17    0.25
  -6  -2   1    3.98    0.26
  -6   2   1    5.05    0.35
   6   2  -1    4.49    0.25
   6   2  -1    4.02    0.30
  -6   2   1    4.36    0.25
   5  -2  -1    1.51    0.16
  -5  -2   1    1.51    0.16
  -5  -2   1    1.90    0.17
  -5  -2   1    1.46    0.19
   5  -2  -1    1.77    0.15
   5  -2  -1    1.08    0.14
  -5   2   1    1.39    0.10
   5   2  -1    1.81    0.13
  -5   2   1    1.61    0.19
  -5   2   1    1.28    0.13
   5   2  -1    1.32    0.15
   5   2  -1    1.59    0.18
   5   2  -1    1.59    0.20
  -4  -2   1    9.88    0.53
   4  -2  -1    9.22    0.42
   4  -2  -1    9.61    0.45
  -4  -2   1    9.20    0.43
   4  -2  -1    9.11    0.50
  -4  -2   1    9.12    0.44
   4   2  -1    9.42    0.51
   4   2  -1    9.88    0.54
  -4   2   1    9.15    0.52
   4   2  -1    9.87    0.42
   4   2  -1    9.75    0.47
  -4   2   1    9.59    0.42
  -4   2   1    9.25    0.41
  -4   2   1    9.06    0.50
   3  -2  -1   14.74    0.60
  -3  -2   1   14.59    0.67
  -3  -2   1   15.45    0.75
   3  -2  -1   13.95    0.63
   3  -2  -1   16.59    0.73
  -3   2   1   13.79    0.59
  -3   2   1   15.26    0.73
   3   2  -1   13.25    0.74
   3   2  -1   13.58    0.72
   3   2  -1   14.32    0.60
   3   2  -1   13.36    0.66
  -3   2   1   15.17    0.72
  -3   2   1   15.26    0.60
  -2  -2   1   21.90    1.17
  -2  -2   1   25.02    0.98
   2  -2  -1   28.10    1.16
   2  -2  -1   24.66    1.15
  -2  -2   1   24.70    1.06
   2   2  -1   24.67    0.97
  -2   2   1   24.05    1.15
  -2   2   1   24.91    0.96
   2   2  -1   24.41    1.06
  -2   2   1   23.09    1.15
   2   2  -1   24.85    1.16
   2   2  -1   25.35    1.18
  -1  -2   1  320.39   12.16
   1  -2  -1  299.44   14.45
  -1  -2   1  334.82   13.15
   1  -2  -1  309.06   14.47
  -1  -2   1  345.26   14.50
   1  -2  -1  323.93   13.10
  -1   2   1  322.75   12.15
   1   2  -1  325.96   14.54
  -1   2   1  326.27   14.53
   1   2  -1  317.88   12.16
  -1   2   1  323.61   12.15
   1   2  -1  320.28   14.48
  -1   2   1  302.58   14.48
   1   2  -1  327.32   13.19
   0  -2   1  130.78    5.38
   0  -2   1  121.75    5.90
   0  -2  -1  134.08    5.38
   0  -2   1  132.75    4.96
   0  -2  -1  125.75    5.88
   0  -2  -1  126.79    5.88
   0   2   1  138.61    6.01
   0   2   1  143.48    5.93
   0   2  -1  128.59    5.90
   0   2  -1  133.81    5.90
   0   2  -1  132.70    5.35
   0   2   1  123.53    4.97
   0   2   1  134.25    4.98
   0   2  -1  133.84    4.96
   1  -2   1    6.23    0.31
  -1  -2  -1    6.94    0.34
  -1  -2  -1    7.11    0.37
  -1  -2  -1    7.09    0.36
   1  -2   1    6.72    0.31
   1  -2   1    8.72    0.39
   1   2   1    7.12    0.36
   1   2   1    7.56    0.29
   1   2   1    7.31    0.29
  -1   2  -1    7.00    0.31
  -1   2  -1    7.34    0.38
  -1   2  -1    7.40    0.32
   1   2   1    7.07    0.37
  -1   2  -1    6.48    0.37
   2  -2   1   44.58    1.87
  -2  -2  -1   38.60    1.86
  -2  -2  -1   40.68    1.69
  -2  -2  -1   40.38    1.62
   2  -2   1   41.24    1.86
  -2   2  -1   39.55    1.56
   2   2   1   37.97    1.84
  -2   2  -1   35.65    1.86
  -2   2  -1   40.46    1.65
  -2   2  -1   42.25    1.87
   2   2   1   39.36    1.54
   2   2   1   41.73    1.87
  -3  -2  -1    4.83    0.31
   3  -2   1    5.13    0.24
   3  -2   1    4.94    0.30
  -3  -2  -1    4.81    0.27
   3  -2   1    5.46    0.31
  -3  -2  -1    5.01    0.25
   3   2   1    5.39    0.29
  -3   2  -1    4.99    0.31
   3   2   1    4.80    0.31
  -3   2  -1    3.77    0.28
   3   2   1    4.56    0.23
  -3   2  -1    4.97    0.25
  -4  -2  -1    7.60    0.37
  -4  -2  -1    7.40    0.38
   4  -2   1    9.37    0.46
  -4  -2  -1    7.41    0.45
   4  -2   1    7.41    0.39
   4  -2   1    7.39    0.36
  -4   2  -1    7.92    0.37
   4   2   1    7.93    0.46
  -4   2  -1    7.98    0.46
  -4   2  -1    7.58    0.44
   4   2   1    7.22    0.43
   4   2   1    7.58    0.35
   5  -2   1    0.06    0.03
  -5  -2  -1    0.06    0.04
   5  -2   1    0.04    0.04
   5  -2   1    0.03    0.03
  -5  -2  -1    0.08    0.04
   5  -2   1    0.04    0.04
  -5   2  -1    0.05    0.04
   5   2   1    0.02    0.03
  -5   2  -1    0.02    0.03
  -5   2  -1    0.08    0.06
   5   2   1    0.02    0.03
  -6  -2  -1    0.36    0.08
   6  -2   1    0.34    0.07
  -6   2  -1    0.25    0.10
   6   2   1    0.32    0.09
  -6   2  -1    0.31    0.08
   6   2   1    0.28    0.07
   7  -2   1    3.91    0.26
   7   2   1    4.10    0.33
   7   2   1    4.10    0.25
  -7   2  -1    5.04    0.30
   8  -2   1    3.08    0.23
   8   2   1    2.79    0.21
  -8   2  -1    3.51    0.26
   9  -2   1    0.10    0.07
  -9   2  -1    0.23    0.10
   9   2   1    0.07    0.06
  10   2   1    0.45    0.11
 -10   2  -1    0.69    0.16
 -10   3   1    0.03    0.07
  10   3  -1    0.01    0.06
   9   3  -1   -0.03    0.04
  -9   3   1    0.00    0.06
  -8   3   1    0.43    0.10
   8   3  -1    0.34    0.08
   7  -3  -1    1.67    0.20
  -7   3   1    1.33    0.22
   7   3  -1    1.54    0.23
  -7   3   1    1.67    0.17
   7   3  -1    1.57    0.16
   6  -3  -1    0.03    0.05
  -6  -3   1    0.07    0.06
  -6  -3   1    0.02    0.04
   6   3  -1    0.00    0.04
   6   3  -1    0.00    0.03
  -6   3   1    0.04    0.05
  -6   3   1   -0.01    0.03
   5  -3  -1   12.51    0.61
  -5  -3   1   12.42    0.59
   5   3  -1   12.32    0.64
   5   3  -1   13.15    0.57
   5   3  -1   13.55    0.70
  -5   3   1   13.99    0.72
  -5   3   1   12.21    0.56
  -4  -3   1   34.50    1.39
  -4  -3   1   32.07    1.45
   4  -3  -1   34.10    1.37
  -4  -3   1   36.87    1.68
   4  -3  -1   34.04    1.45
   4  -3  -1   31.27    1.63
  -4   3   1   34.43    1.37
   4   3  -1   34.51    1.65
   4   3  -1   36.28    1.37
  -4   3   1   35.92    1.65
   4   3  -1   33.79    1.51
  -4   3   1   34.25    1.66
   4   3  -1   38.18    1.69
  -3  -3   1    3.97    0.28
   3  -3  -1    3.62    0.25
  -3  -3   1    4.43    0.23
  -3  -3   1    4.22    0.23
   3  -3  -1    4.26    0.21
   3  -3  -1    4.63    0.23
   3   3  -1    4.20    0.25
  -3   3   1    3.75    0.26
  -3   3   1    3.50    0.25
   3   3  -1    4.02    0.21
   3   3  -1    4.10    0.27
  -3   3   1    3.87    0.20
   3   3  -1    4.25    0.29
  -2  -3   1   59.82    2.28
   2  -3  -1   52.82    2.27
  -2  -3   1   57.58    2.36
  -2  -3   1   54.92    2.18
  -2  -3   1   52.12    2.60
   2  -3  -1   57.90    2.58
   2   3  -1   57.29    2.61
  -2   3   1   49.14    2.57
   2   3  -1   56.07    2.17
   2   3  -1   58.28    2.36
  -2   3   1   57.49    2.15
  -2   3   1   61.94    2.59
  -2   3   1   56.61    2.15
   2   3  -1   57.05    2.59
   1  -3  -1    2.06    0.13
   1  -3  -1    1.91    0.14
  -1  -3   1    2.11    0.16
  -1  -3   1    2.14    0.14
   1  -3  -1    2.07    0.11
  -1  -3   1    2.38    0.14
  -1   3   1    2.08    0.11
   1   3  -1    2.06    0.16
   1   3  -1    2.19    0.17
  -1   3   1    2.08    0.11
   1   3  -1    1.87    0.13
  -1   3   1    2.19    0.15
   1   3  -1    2.15    0.12
  -1   3   1    2.06    0.15
   0  -3  -1   34.16    1.45
   0  -3  -1   34.57    1.40
   0  -3  -1   34.77    1.60
   0  -3   1   35.58    1.35
   0  -3   1   36.21    1.45
   0  -3   1   34.80    1.62
   0  -3   1   32.35    1.42
   0  -3   1   35.06    1.62
   0   3  -1   35.60    1.45
   0   3  -1   32.80    1.62
   0   3   1   35.70    1.60
   0   3   1   33.63    1.60
   0   3   1   34.36    1.32
   0   3   1   35.53    1.33
   0   3  -1   34.89    1.62
   0   3  -1   33.09    1.34
   1  -3   1   17.19    0.73
  -1  -3  -1   17.04    0.75
  -1  -3  -1   18.47    0.79
   1  -3   1   19.50    0.76
   1  -3   1   17.66    0.88
  -1  -3  -1   18.88    0.87
   1  -3   1   18.70    0.77
  -1   3  -1   18.00    0.76
   1   3   1   17.98    0.88
  -1   3  -1   17.83    0.73
  -1   3  -1   17.45    0.88
   1   3   1   17.49    0.70
  -1   3  -1   16.39    0.88
   1   3   1   18.48    0.71
   1   3   1   17.70    0.86
   2  -3   1    2.68    0.19
  -2  -3  -1    2.53    0.15
  -2  -3  -1    2.40    0.17
   2  -3   1    2.48    0.15
  -2  -3  -1    2.66    0.19
   2  -3   1    2.41    0.16
  -2   3  -1    2.55    0.13
   2   3   1    2.66    0.13
   2   3   1    2.27    0.17
   2   3   1    2.34    0.19
  -2   3  -1    2.80    0.20
  -2   3  -1    2.58    0.15
  -2   3  -1    2.74    0.20
   2   3   1    2.44    0.14
  -3  -3  -1    7.18    0.33
   3  -3   1    6.21    0.38
   3  -3   1    6.75    0.32
  -3  -3  -1    5.85    0.38
  -3  -3  -1    6.64    0.32
  -3   3  -1    6.95    0.30
   3   3   1    6.33    0.29
   3   3   1    6.09    0.37
   3   3   1    6.25    0.32
  -3   3  -1    5.89    0.39
   3   3   1    6.77    0.40
  -3   3  -1    6.74    0.32
  -3   3  -1    6.82    0.39
   4  -3   1   10.59    0.51
   4  -3   1    9.97    0.46
  -4  -3  -1   10.05    0.49
   4   3   1   10.63    0.56
   4   3   1   10.14    0.44
  -4   3  -1   10.07    0.45
  -4   3  -1   10.79    0.48
  -4   3  -1    9.93    0.59
   5  -3   1    6.62    0.38
   5  -3   1    7.08    0.36
  -5  -3  -1    7.51    0.39
  -5   3  -1    6.63    0.36
  -5   3  -1    7.28    0.47
   5   3   1    6.97    0.33
   5   3   1    6.94    0.43
   6  -3   1   30.13    1.23
   6  -3   1   29.97    1.23
  -6  -3  -1   29.34    1.29
  -6   3  -1   28.90    1.24
   6   3   1   28.98    1.20
  -6   3  -1   29.43    1.52
   6   3   1   30.27    1.48
  -7  -3  -1   19.44    0.90
   7   3   1   20.47    0.83
   7   3   1   17.49    1.02
  -7   3  -1   18.88    0.86
   8   3   1    0.09    0.06
  -8   3  -1    0.23    0.09
   9   3   1   -0.04    0.04
  -9   3  -1   -0.03    0.06
   9   4  -1    0.05    0.05
  -9   4   1   -0.02    0.06
  -8   4   1    0.32    0.09
   8   4  -1    0.31    0.09
   7  -4  -1    2.58    0.27
   7   4  -1    2.86    0.20
  -7   4   1    3.28    0.35
  -7   4   1    2.82    0.21
   6  -4  -1    1.36    0.18
  -6   4   1    1.35    0.15
   6   4  -1    1.49    0.15
   6   4  -1    1.09    0.18
  -6   4   1    1.23    0.20
   5  -4  -1    1.48    0.17
  -5  -4   1    1.61    0.18
   5   4  -1    2.00    0.18
  -5   4   1    1.93    0.14
  -5   4   1    1.47    0.20
   5   4  -1    2.04    0.22
   4  -4  -1    1.19    0.14
  -4  -4   1    1.13    0.14
   4   4  -1    1.30    0.17
   4   4  -1    1.31    0.13
  -4   4   1    1.68    0.12
  -4   4   1    1.58    0.20
   4   4  -1    1.22    0.15
  -3  -4   1    1.72    0.16
   3  -4  -1    1.48    0.15
  -3  -4   1    1.71    0.16
  -3   4   1    1.21    0.16
   3   4  -1    1.64    0.17
  -3   4   1    1.29    0.12
   3   4  -1    1.61    0.18
   3   4  -1    1.70    0.12
  -2  -4   1    7.18    0.33
  -2  -4   1    6.45    0.34
  -2  -4   1    6.71    0.40
   2  -4  -1    6.44    0.29
   2  -4  -1    6.21    0.37
   2  -4  -1    6.33    0.33
  -2   4   1    6.14    0.38
   2   4  -1    6.84    0.36
  -2   4   1    5.99    0.38
  -2   4   1    6.46    0.29
  -2   4   1    6.73    0.29
   2   4  -1    6.95    0.39
   2   4  -1    6.72    0.41
   2   4  -1    6.77    0.31
  -1  -4   1   70.55    3.09
   1  -4  -1   77.99    2.99
   1  -4  -1   76.43    3.40
  -1  -4   1   74.01    3.43
  -1  -4   1   72.77    2.87
  -1  -4   1   73.72    3.00
   1  -4  -1   73.72    3.06
   1   4  -1   74.03    3.41
  -1   4   1   72.11    2.83
   1   4  -1   74.56    3.43
  -1   4   1   75.56    2.83
  -1   4   1   81.23    3.41
   1   4  -1   74.44    2.85
  -1   4   1   71.46    3.40
   0  -4  -1   32.76    1.29
   0  -4   1   29.21    1.24
   0  -4   1   30.54    1.30
   0  -4  -1   30.19    1.32
   0  -4   1   30.82    1.49
   0  -4   1   29.39    1.32
   0  -4  -1   33.04    1.48
   0   4  -1   30.31    1.48
   0   4   1   32.61    1.47
   0   4  -1   31.82    1.32
   0   4   1   31.82    1.20
   0   4   1   31.36    1.21
   0   4   1   27.81    1.47
   0   4  -1   31.70    1.23
   0   4  -1   32.44    1.50
   1  -4   1    0.00    0.02
  -1  -4  -1   -0.01    0.03
   1  -4   1    0.00    0.03
  -1  -4  -1    0.01    0.03
   1  -4   1    0.00    0.02
   1  -4   1   -0.01    0.02
  -1  -4  -1   -0.02    0.02
  -1   4  -1    0.02    0.03
   1   4   1   -0.01    0.01
   1   4   1    0.00    0.02
  -1   4  -1    0.00    0.02
  -1   4  -1    0.00    0.03
  -1   4  -1   -0.01    0.02
   1   4   1    0.04    0.04
   1   4   1   -0.01    0.02
   2  -4   1    3.97    0.22
  -2  -4  -1    3.60    0.21
   2  -4   1    3.92    0.27
  -2   4  -1    4.59    0.29
  -2   4  -1    3.43    0.27
  -2   4  -1    4.12    0.22
   2   4   1    3.77    0.27
  -2   4  -1    3.83    0.19
   2   4   1    3.66    0.19
   2   4   1    4.17    0.26
  -3  -4  -1    1.66    0.16
   3  -4   1    1.38    0.15
   3  -4   1    2.01    0.17
   3   4   1    1.32    0.16
   3   4   1    1.74    0.11
  -3   4  -1    1.83    0.13
  -3   4  -1    1.84    0.21
  -4  -4  -1    1.89    0.18
   4  -4   1    1.26    0.16
   4   4   1    1.97    0.13
   4   4   1    2.01    0.21
  -4   4  -1    2.13    0.24
  -4   4  -1    2.03    0.18
   5  -4   1    0.37    0.09
  -5  -4  -1    0.22    0.07
   5   4   1    0.15    0.07
  -5   4  -1    0.20    0.08
  -5   4  -1    0.04    0.05
   5   4   1    0.28    0.06
  -6  -4  -1    0.59    0.12
   6   4   1    0.45    0.12
   6   4   1    0.35    0.07
  -6   4  -1    0.15    0.09
  -6   4  -1    0.42    0.09
  -7  -4  -1    2.16    0.24
  -7   4  -1    2.20    0.23
   7   4   1    2.18    0.19
   8   4   1    1.32    0.16
  -8   4  -1    1.55    0.21
   9   4   1   -0.01    0.05
  -9   4  -1    0.03    0.08
  -9   5   1   -0.01    0.06
   9   5  -1    0.02    0.06
  -8   5   1    0.06    0.06
   8   5  -1    0.01    0.05
   7  -5  -1    0.15    0.08
   7   5  -1    0.32    0.08
  -7   5   1    0.36    0.09
  -6  -5   1    0.51    0.12
   6  -5  -1    0.30    0.09
   6   5  -1    0.36    0.08
   6   5  -1    0.19    0.09
  -6   5   1    0.40    0.13
  -6   5   1    0.20    0.06
   5  -5  -1    1.17    0.16
  -5  -5   1    1.61    0.19
   5   5  -1    1.59    0.21
  -5   5   1    1.30    0.14
   5   5  -1    1.55    0.16
  -5   5   1    1.34    0.21
  -4  -5   1    6.09    0.35
   4  -5  -1    6.13    0.35
  -4   5   1    6.18    0.30
  -4   5   1    5.00    0.39
   4   5  -1    6.25    0.31
   4   5  -1    6.56    0.41
   3  -5  -1    0.36    0.08
  -3  -5   1    0.28    0.07
   3   5  -1    0.31    0.06
  -3   5   1    0.16    0.04
   3   5  -1    0.15    0.06
  -3   5   1    0.32    0.09
   3   5  -1    0.23    0.07
   2  -5  -1    1.36    0.14
  -2  -5   1    1.58    0.16
   2   5  -1    1.35    0.13
  -2   5   1    1.95    0.21
   2   5  -1    1.61    0.20
  -2   5   1    1.37    0.10
   2   5  -1    1.88    0.18
  -1  -5   1    1.95    0.15
   1  -5  -1    1.99    0.15
   1   5  -1    2.06    0.15
  -1   5   1    1.79    0.11
   1   5  -1    1.90    0.13
  -1   5   1    1.98    0.17
   1   5  -1    1.55    0.19
   0  -5   1    0.62    0.10
   0  -5  -1    0.57    0.08
   0  -5  -1    0.62    0.09
   0  -5   1    0.73    0.09
   0   5   1    0.55    0.10
   0   5  -1    0.63    0.09
   0   5  -1    0.63    0.12
   0   5  -1    0.68    0.09
   0   5   1    0.69    0.07
   1  -5   1   10.19    0.48
  -1  -5  -1    9.84    0.46
  -1   5  -1    9.80    0.56
  -1   5  -1    9.73    0.44
   1   5   1    9.49    0.41
   1   5   1    9.47    0.53
  -1   5  -1    9.28    0.46
  -2  -5  -1    1.93    0.15
   2  -5   1    1.93    0.19
  -2   5  -1    1.98    0.14
   2   5   1    1.97    0.12
   2   5   1    2.13    0.18
  -2   5  -1    1.49    0.20
  -3  -5  -1    0.08    0.04
   3  -5   1    0.01    0.04
  -3   5  -1    0.05    0.06
   3   5   1    0.00    0.03
  -3   5  -1    0.04    0.04
   3   5   1    0.00    0.02
   4  -5   1    5.26    0.32
  -4  -5  -1    4.53    0.30
   4   5   1    5.16    0.26
  -4   5  -1    5.28    0.29
  -4   5  -1    5.77    0.40
   4   5   1    4.80    0.35
  -5  -5  -1    1.34    0.17
   5  -5   1    1.24    0.18
  -5   5  -1    0.95    0.18
  -5   5  -1    1.31    0.16
   5   5   1    1.16    0.18
   5   5   1    1.37    0.13
  -6  -5  -1    7.12    0.42
   6   5   1    6.85    0.35
  -6   5  -1    6.77    0.39
  -7  -5  -1    8.74    0.49
  -7   5  -1    7.64    0.45
   7   5   1    8.09    0.41
   8   5   1    0.70    0.12
  -8   5  -1    0.96    0.16
  -8   6   1    0.25    0.09
   8   6  -1    0.13    0.07
   7  -6  -1    0.68    0.15
  -7   6   1    0.37    0.09
   7   6  -1    0.37    0.09
  -6  -6   1    0.02    0.06
   6  -6  -1   -0.06    0.05
   6   6  -1    0.01    0.04
  -6   6   1    0.00    0.04
   5  -6  -1    0.80    0.15
  -5  -6   1    0.76    0.14
   5   6  -1    0.65    0.10
  -5   6   1    0.59    0.09
  -4  -6   1   -0.01    0.04
   4  -6  -1    0.03    0.05
   4   6  -1    0.03    0.04
   4   6  -1    0.01    0.06
  -4   6   1    0.01    0.03
   3  -6  -1    1.02    0.14
  -3  -6   1    0.76    0.13
  -3   6   1    0.72    0.09
  -3   6   1    0.71    0.14
   3   6  -1    0.64    0.09
   3   6  -1    0.51    0.12
  -2  -6   1    1.37    0.16
   2  -6  -1    1.49    0.17
  -2   6   1    1.86    0.22
  -2   6   1    1.53    0.11
   2   6  -1    1.33    0.16
   2   6  -1    1.82    0.13
   2   6  -1    1.20    0.18
  -1  -6   1   12.44    0.58
   1  -6  -1   10.43    0.56
  -1   6   1   12.17    0.49
  -1   6   1   11.12    0.65
   1   6  -1   11.55    0.66
   1   6  -1   11.85    0.59
   1   6  -1   11.56    0.52
   0  -6   1    4.32    0.27
   0  -6  -1    3.56    0.24
   0   6  -1    4.30    0.32
   0   6  -1    4.09    0.23
   0   6   1    3.95    0.29
   0   6   1    3.93    0.19
  -1  -6  -1    1.82    0.18
   1  -6   1    1.20    0.15
  -1   6  -1    1.57    0.21
   1   6   1    1.41    0.18
  -1   6  -1    1.60    0.15
   1   6   1    1.61    0.10
   2  -6   1    0.06    0.05
  -2  -6  -1    0.05    0.05
   2   6   1    0.06    0.05
  -2   6  -1    0.04    0.06
  -2   6  -1    0.00    0.03
   2   6   1    0.01    0.02
   3  -6   1    0.25    0.08
  -3  -6  -1    0.29    0.08
   3   6   1    0.18    0.07
  -3   6  -1    0.23    0.09
  -3   6  -1    0.21    0.06
   3   6   1    0.27    0.05
   4  -6   1    0.00    0.05
  -4  -6  -1    0.03    0.05
  -4   6  -1   -0.04    0.04
  -4   6  -1   -0.01    0.06
   4   6   1    0.00    0.03
   5  -6   1    0.40    0.11
  -5  -6  -1    0.21    0.08
  -5   6  -1    0.33    0.09
   5   6   1    0.29    0.06
  -6  -6  -1    0.86    0.15
   6   6   1    0.63    0.09
  -6   6  -1    0.73    0.13
  -7  -6  -1    1.59    0.24
   7   6   1    1.62    0.16
  -7   6  -1    1.49    0.19
   6  -7  -1    0.01    0.07
   6   7  -1   -0.01    0.05
  -6   7   1   -0.07    0.04
   5  -7  -1    1.21    0.18
  -5  -7   1    1.72    0.23
   5   7  -1    1.02    0.13
  -5   7   1    0.99    0.12
   4  -7  -1    1.84    0.22
  -4  -7   1    1.52    0.20
   4   7  -1    1.62    0.17
  -4   7   1    1.70    0.13
  -3  -7   1    0.07    0.06
   3  -7  -1   -0.06    0.04
   3   7  -1    0.04    0.04
  -3   7   1    0.02    0.03
   2  -7  -1    0.88    0.14
  -2  -7   1    0.92    0.15
  -2   7   1    0.95    0.09
   2   7  -1    0.84    0.11
  -1  -7   1    0.91    0.14
   1  -7  -1    1.04    0.15
   1   7  -1    1.00    0.12
  -1   7   1    0.92    0.08
   0  -7  -1    0.76    0.13
   0  -7   1    0.51    0.11
   0   7  -1    0.66    0.10
   0   7   1    0.76    0.07
   1  -7   1    1.16    0.17
  -1  -7  -1    1.57    0.18
  -1   7  -1    1.58    0.16
   1   7   1    1.18    0.08
  -2  -7  -1    0.10    0.06
   2  -7   1    0.27    0.10
   2   7   1    0.08    0.03
  -2   7  -1    0.08    0.05
  -3  -7  -1    0.05    0.06
   3  -7   1    0.06    0.06
  -3   7  -1    0.15    0.06
   3   7   1    0.07    0.03
  -4  -7  -1    1.40    0.19
   4  -7   1    1.23    0.19
   4   7   1    1.20    0.10
  -4   7  -1    0.92    0.14
  -5  -7  -1    0.66    0.14
   5   7   1    0.76    0.09
  -5   7  -1    0.82    0.13
   6   7   1    2.46    0.16
  -6   7  -1    2.37    0.24
   5  -8  -1   -0.03    0.08
   5   8  -1    0.15    0.06
  -4  -8   1    0.22    0.10
   4  -8  -1    0.39    0.13
   4   8  -1    0.31    0.08
  -3  -8   1    0.09    0.07
   3  -8  -1    0.11    0.08
   3   8  -1    0.10    0.05
  -2  -8   1    0.04    0.06
   2  -8  -1   -0.01    0.06
   2   8  -1   -0.01    0.04
  -1  -8   1    7.60    0.45
   1  -8  -1    7.30    0.43
   1   8  -1    6.90    0.36
   0  -8  -1    1.26    0.17
   0  -8   1    1.57    0.21
   0   8  -1    1.51    0.15
   1  -8   1    0.02    0.06
  -1  -8  -1   -0.02    0.05
  -1   8  -1   -0.04    0.04
   2  -8   1    0.32    0.11
  -2  -8  -1    0.22    0.08
  -2   8  -1    0.50    0.09
  -3  -8  -1    0.07    0.06
   3  -8   1    0.12    0.08
  -3   8  -1    0.02    0.06
  -4  -8  -1    0.34    0.10
  -4   8  -1    0.32    0.08
  -1  -9   1    0.22    0.10
   1  -9  -1    0.24    0.09
   0  -9  -1    0.35    0.11
   0  -9   1    0.25    0.10
   0   9  -1    0.55    0.09
 -11   0   2    1.02    0.19
 -10   0   2    0.03    0.07
  -9   0   2    0.40    0.11
  -8   0   2    3.26    0.24
   8   0  -2    3.29    0.23
   7   0  -2    4.66    0.27
  -7   0   2    4.66    0.28
   7   0  -2    4.87    0.31
  -7   0   2    4.51    0.36
   6   0  -2    0.06    0.03
   6   0  -2    0.31    0.08
  -6   0   2    0.01    0.05
   6   0  -2    0.03    0.04
   6   0  -2   -0.01    0.03
  -6   0   2    0.06    0.04
  -5   0   2   11.55    0.53
   5   0  -2   11.74    0.56
  -5   0   2   13.52    0.64
  -5   0   2   11.82    0.56
  -5   0   2   12.22    0.66
   5   0  -2   11.97    0.52
   5   0  -2   11.68    0.63
   4   0  -2    0.08    0.03
  -4   0   2    0.02    0.02
  -4   0   2    0.14    0.04
  -4   0   2    0.05    0.04
  -4   0   2    0.02    0.02
   4   0  -2    0.05    0.04
   4   0  -2   -0.01    0.02
   4   0  -2    0.05    0.03
   4   0  -2   -0.02    0.02
  -3   0   2   56.18    2.33
  -3   0   2   56.27    2.16
  -3   0   2   54.90    2.58
   3   0  -2   58.54    2.59
   3   0  -2   57.89    2.34
  -3   0   2   57.84    2.57
   3   0  -2   53.31    2.16
   3   0  -2   57.18    2.57
   2   0  -2    0.61    0.05
   2   0  -2    0.62    0.07
  -2   0   2    0.57    0.04
  -2   0   2    0.52    0.06
   2   0  -2    0.67    0.06
  -2   0   2    0.50    0.06
  -2   0   2    0.52    0.07
  -2   0   2    0.49    0.05
  -1   0   2    1.60    0.10
   1   0  -2    1.64    0.09
   1   0  -2    1.77    0.10
  -1   0   2    1.75    0.09
   1   0  -2    1.64    0.09
  -1   0   2    1.66    0.07
  -1   0   2    1.73    0.10
  -1   0   2    1.64    0.07
   0   0   2    5.70    0.27
   0   0  -2    5.67    0.27
   0   0   2    5.60    0.27
   0   0  -2    5.52    0.27
   1   0   2   61.76    2.22
  -1   0  -2   57.39    2.65
   1   0   2   58.13    2.64
   1   0   2   58.15    2.64
  -1   0  -2   57.27    2.64
  -2   0  -2    6.53    0.28
   2   0   2    6.96    0.35
  -2   0  -2    6.44    0.34
  -2   0  -2    6.09    0.34
   2   0   2    6.29    0.27
   2   0   2    6.11    0.33
  -3   0  -2    0.02    0.03
   3   0   2   -0.01    0.02
   3   0   2    0.01    0.02
   3   0   2    0.00    0.03
  -3   0  -2   -0.01    0.02
  -3   0  -2    0.00    0.02
  -4   0  -2    1.84    0.14
  -4   0  -2    1.68    0.19
   4   0   2    1.77    0.12
  -4   0  -2    1.84    0.13
   4   0   2    1.92    0.17
   4   0   2    1.69    0.15
  -5   0  -2    0.52    0.12
   5   0   2    0.51    0.10
  -5   0  -2    0.51    0.09
   5   0   2    0.51    0.08
   6   0   2    1.05    0.16
  -6   0  -2    1.13    0.15
  -6   0  -2    0.98    0.13
   6   0   2    0.99    0.12
   7   0   2    1.53    0.17
   8   0   2    0.01    0.05
   9   0   2    0.74    0.13
  10   0   2    0.61    0.13
 -10  -1   2    0.80    0.16
  10   1  -2    0.59    0.13
 -10   1   2    0.86    0.16
  -9  -1   2    0.16    0.08
  -9   1   2    0.07    0.06
   9   1  -2    0.11    0.07
  -8  -1   2    0.80    0.14
  -8   1   2    0.83    0.18
   8   1  -2    1.33    0.16
  -8   1   2    1.41    0.18
  -7  -1   2    3.88    0.33
  -7  -1   2    4.23    0.26
   7  -1  -2    2.67    0.27
  -7   1   2    4.23    0.25
   7   1  -2    4.40    0.25
  -7   1   2    3.82    0.32
   6  -1  -2    0.84    0.10
  -6  -1   2    1.06    0.13
  -6  -1   2    0.68    0.14
   6  -1  -2    0.68    0.11
  -6   1   2    0.92    0.15
  -6   1   2    0.74    0.10
   6   1  -2    0.66    0.11
   6   1  -2    0.96    0.13
   6   1  -2    0.74    0.13
   6   1  -2    1.00    0.11
  -6   1   2    0.85    0.10
  -5  -1   2    5.75    0.38
   5  -1  -2    6.50    0.31
   5  -1  -2    6.24    0.36
  -5  -1   2    5.79    0.31
   5  -1  -2    6.26    0.33
   5  -1  -2    6.25    0.30
  -5   1   2    5.99    0.31
   5   1  -2    7.06    0.38
  -5   1   2    6.03    0.30
   5   1  -2    5.84    0.33
   5   1  -2    6.30    0.34
   5   1  -2    6.51    0.30
  -5   1   2    5.56    0.37
  -5   1   2    5.57    0.36
  -4  -1   2   90.44    4.09
   4  -1  -2  100.36    4.08
   4  -1  -2   91.66    3.61
   4  -1  -2   89.84    3.69
  -4  -1   2   90.59    3.44
   4  -1  -2   87.05    3.43
  -4  -1   2   89.24    3.72
   4  -1  -2   86.92    3.42
  -4  -1   2   92.04    4.12
   4   1  -2   95.18    4.09
  -4   1   2   86.83    4.08
   4   1  -2   88.79    3.43
  -4   1   2   88.73    3.69
   4   1  -2   85.74    3.72
  -4   1   2   87.89    3.43
  -4   1   2   88.62    4.10
   4   1  -2   90.10    4.11
   3  -1  -2    2.17    0.11
  -3  -1   2    1.90    0.14
  -3  -1   2    2.36    0.16
  -3  -1   2    2.08    0.12
   3  -1  -2    2.17    0.14
  -3  -1   2    2.03    0.14
   3  -1  -2    2.03    0.15
  -3   1   2    2.12    0.11
  -3   1   2    2.15    0.11
   3   1  -2    2.09    0.14
   3   1  -2    1.96    0.16
   3   1  -2    1.81    0.11
   3   1  -2    1.93    0.14
  -3   1   2    1.76    0.14
  -2  -1   2   21.66    0.99
   2  -1  -2   21.11    0.87
   2  -1  -2   20.92    0.97
  -2  -1   2   22.12    0.98
  -2  -1   2   20.17    0.82
  -2  -1   2   21.56    0.90
   2  -1  -2   22.36    0.96
   2   1  -2   19.19    0.82
  -2   1   2   21.06    0.80
  -2   1   2   20.82    0.80
  -2   1   2   19.98    0.87
  -2   1   2   20.34    0.96
   2   1  -2   20.97    0.98
  -2   1   2   19.49    0.97
   2   1  -2   21.75    0.90
   1  -1  -2  226.49    9.26
  -1  -1   2  196.26    9.32
  -1  -1   2  205.98    8.50
  -1  -1   2  196.76    7.83
  -1  -1   2  199.05    9.27
   1  -1  -2  220.69    9.25
   1   1  -2  194.63    9.32
  -1   1   2  215.70    9.25
   1   1  -2  200.26    8.40
  -1   1   2  203.31    9.24
   1   1  -2  207.57    7.85
   0  -1   2    1.91    0.12
   0  -1  -2    1.73    0.09
   0  -1   2    1.63    0.11
   0  -1   2    1.76    0.10
   0  -1  -2    1.67    0.09
   0  -1   2    1.81    0.09
   0  -1  -2    1.64    0.09
   0   1  -2    1.66    0.10
   0   1  -2    1.87    0.12
   0   1   2    1.67    0.09
   0   1   2    1.75    0.09
   0   1  -2    1.58    0.09
   1  -1   2    2.74    0.18
   1  -1   2    2.54    0.17
  -1  -1  -2    2.89    0.17
  -1  -1  -2    3.05    0.16
   1  -1   2    3.20    0.14
  -1   1  -2    3.03    0.14
   1   1   2    2.79    0.12
   1   1   2    2.77    0.16
  -1   1  -2    2.69    0.17
   1   1   2    2.79    0.16
   1   1   2    2.93    0.12
   2  -1   2    0.32    0.05
  -2  -1  -2    0.33    0.06
   2  -1   2    0.38    0.07
   2  -1   2    0.27    0.06
  -2  -1  -2    0.36    0.06
  -2  -1  -2    0.30    0.05
   2   1   2    0.25    0.05
   2   1   2    0.32    0.04
   2   1   2    0.31    0.05
  -2   1  -2    0.33    0.05
   2   1   2    0.30    0.06
  -2   1  -2    0.40    0.07
   2   1   2    0.38    0.04
  -3  -1  -2    7.69    0.45
   3  -1   2    7.75    0.45
   3  -1   2    8.39    0.44
  -3  -1  -2    8.00    0.36
  -3  -1  -2    8.69    0.38
   3  -1   2    7.86    0.36
   3  -1   2    8.33    0.36
   3   1   2    8.45    0.43
  -3   1  -2    7.96    0.37
   3   1   2    8.07    0.45
  -3   1  -2    8.43    0.44
   3   1   2    7.89    0.43
   3   1   2    8.11    0.35
  -3   1  -2    7.81    0.45
  -4  -1  -2    0.11    0.04
  -4  -1  -2    0.05    0.03
   4  -1   2    0.06    0.03
  -4  -1  -2    0.02    0.03
   4  -1   2    0.03    0.04
   4  -1   2    0.05    0.04
  -4  -1  -2    0.01    0.03
   4   1   2    0.02    0.03
   4   1   2    0.03    0.03
   4   1   2    0.08    0.03
  -4   1  -2   -0.01    0.03
   4   1   2    0.07    0.04
  -4   1  -2    0.07    0.05
  -4   1  -2    0.04    0.03
   5  -1   2    4.72    0.25
  -5  -1  -2    4.26    0.26
   5  -1   2    4.67    0.31
  -5  -1  -2    4.47    0.26
  -5  -1  -2    4.16    0.26
  -5   1  -2    5.17    0.28
  -5   1  -2    3.95    0.32
  -5   1  -2    4.39    0.26
   5   1   2    4.39    0.30
   5   1   2    4.60    0.24
   5   1   2    4.52    0.31
   6  -1   2   15.57    0.84
  -6  -1  -2   16.01    0.73
   6  -1   2   15.80    0.69
   6   1   2   15.75    0.83
  -6   1  -2   14.86    0.71
   6   1   2   16.14    0.68
   6   1   2   15.45    0.83
  -6   1  -2   14.40    0.74
   7  -1   2    2.64    0.19
  -7   1  -2    2.59    0.25
   7   1   2    2.29    0.18
   7   1   2    2.76    0.28
   8  -1   2    1.46    0.18
   8   1   2    1.18    0.15
   9  -1   2    0.34    0.10
   9   1   2    0.33    0.09
 -10  -2   2    0.31    0.12
 -10   2   2    0.21    0.09
  10   2  -2    0.07    0.06
  -9  -2   2    0.31    0.10
   9   2  -2    0.27    0.08
  -9   2   2    0.37    0.10
  -8  -2   2    0.57    0.12
  -8   2   2    0.37    0.12
  -8   2   2    0.57    0.11
   8   2  -2    0.44    0.10
   7  -2  -2    1.33    0.16
  -7  -2   2    1.08    0.15
   7   2  -2    1.68    0.16
  -7   2   2    1.57    0.16
  -7   2   2    1.70    0.23
  -6  -2   2    0.17    0.06
  -6  -2   2    0.33    0.10
   6  -2  -2    0.26    0.07
  -6  -2   2    0.12    0.05
   6   2  -2    0.47    0.08
   6   2  -2    0.17    0.06
   6   2  -2    0.23    0.07
  -6   2   2    0.32    0.07
  -6   2   2    0.15    0.07
  -5  -2   2    0.11    0.04
  -5  -2   2    0.13    0.05
   5  -2  -2    0.05    0.03
   5  -2  -2    0.07    0.04
   5  -2  -2    0.05    0.04
  -5  -2   2    0.09    0.05
  -5   2   2    0.10    0.03
   5   2  -2    0.08    0.04
   5   2  -2    0.05    0.04
   5   2  -2    0.09    0.04
  -5   2   2    0.11    0.04
  -5   2   2    0.06    0.05
  -5   2   2    0.03    0.04
   4  -2  -2    3.40    0.21
  -4  -2   2    2.88    0.18
   4  -2  -2    3.05    0.16
  -4  -2   2    3.17    0.23
   4  -2  -2    3.38    0.19
  -4  -2   2    2.98    0.21
  -4   2   2    2.85    0.16
  -4   2   2    3.08    0.22
   4   2  -2    2.72    0.21
  -4   2   2    2.99    0.15
   4   2  -2    3.15    0.20
   4   2  -2    3.16    0.17
  -4   2   2    2.58    0.19
   4   2  -2    2.34    0.22
   3  -2  -2    7.52    0.39
   3  -2  -2    7.39    0.32
  -3  -2   2    8.13    0.41
  -3  -2   2    7.49    0.43
  -3  -2   2    7.12    0.37
   3  -2  -2    7.18    0.35
  -3  -2   2    6.87    0.34
  -3   2   2    7.56    0.41
   3   2  -2    7.92    0.41
  -3   2   2    7.77    0.32
   3   2  -2    7.27    0.34
  -3   2   2    8.58    0.32
   3   2  -2    7.08    0.37
   3   2  -2    6.86    0.42
  -3   2   2    7.27    0.32
  -2  -2   2   47.87    1.83
  -2  -2   2   47.41    1.98
   2  -2  -2   44.63    1.93
   2  -2  -2   48.75    1.89
   2  -2  -2   48.41    2.15
  -2  -2   2   40.26    2.18
  -2  -2   2   47.53    2.17
   2   2  -2   46.42    2.19
  -2   2   2   47.34    1.78
  -2   2   2   48.15    2.15
   2   2  -2   47.89    1.98
   2   2  -2   45.82    2.17
   2   2  -2   47.78    1.82
  -2   2   2   51.08    2.16
  -2   2   2   50.16    1.78
   1  -2  -2    0.00    0.01
  -1  -2   2   -0.02    0.02
  -1  -2   2    0.00    0.02
  -1  -2   2    0.02    0.02
   1  -2  -2    0.02    0.01
  -1  -2   2    0.02    0.02
  -1   2   2    0.02    0.02
   1   2  -2   -0.01    0.01
   1   2  -2    0.00    0.02
   1   2  -2    0.02    0.02
   1   2  -2    0.01    0.02
  -1   2   2   -0.02    0.01
   0  -2  -2   19.04    0.92
   0  -2   2   20.38    0.96
   0  -2  -2   19.46    0.93
   0  -2   2   20.45    0.80
   0  -2   2   19.81    0.86
   0  -2   2   20.81    0.96
   0   2  -2   20.91    0.80
   0   2  -2   20.26    0.96
   0   2   2   20.46    0.93
   0   2   2   19.73    0.93
   0   2  -2   20.84    0.97
   1  -2   2    0.11    0.04
   1  -2   2    0.22    0.05
  -1  -2  -2    0.19    0.04
  -1  -2  -2    0.12    0.03
   1  -2   2    0.21    0.04
  -1   2  -2    0.16    0.05
  -1   2  -2    0.08    0.03
  -1   2  -2    0.20    0.05
   1   2   2    0.14    0.03
  -1   2  -2    0.11    0.03
   1   2   2    0.10    0.03
   2  -2   2   10.16    0.50
   2  -2   2    8.81    0.40
  -2  -2  -2    8.63    0.48
  -2  -2  -2    9.63    0.41
  -2  -2  -2    9.26    0.45
   2  -2   2    8.67    0.49
  -2   2  -2   10.46    0.51
   2   2   2    9.35    0.49
   2   2   2    9.57    0.47
   2   2   2    9.35    0.38
  -2   2  -2   10.23    0.51
  -2   2  -2    8.79    0.42
   2   2   2    8.77    0.38
  -2   2  -2    9.29    0.41
  -3  -2  -2    9.75    0.44
   3  -2   2   10.63    0.54
  -3  -2  -2    9.66    0.45
   3  -2   2   10.77    0.44
  -3  -2  -2   10.74    0.55
  -3   2  -2    8.92    0.54
   3   2   2    9.21    0.53
   3   2   2    9.68    0.42
   3   2   2   10.16    0.52
  -3   2  -2   10.64    0.45
   3   2   2    9.90    0.42
  -3   2  -2    9.77    0.54
  -4  -2  -2    1.28    0.13
   4  -2   2    0.81    0.12
   4  -2   2    0.78    0.09
  -4  -2  -2    1.13    0.17
   4   2   2    1.17    0.09
  -4   2  -2    1.08    0.12
  -4   2  -2    1.03    0.12
   4   2   2    1.05    0.13
  -4   2  -2    1.06    0.15
   5  -2   2   -0.03    0.03
   5  -2   2   -0.01    0.03
   5  -2   2   -0.01    0.02
  -5  -2  -2    0.01    0.03
  -5   2  -2   -0.01    0.04
   5   2   2    0.01    0.02
   5   2   2    0.01    0.04
  -5   2  -2    0.06    0.06
  -6  -2  -2    6.22    0.35
   6  -2   2    5.95    0.33
  -6  -2  -2    5.65    0.35
   6   2   2    6.17    0.40
  -6   2  -2    6.52    0.35
   6   2   2    5.81    0.31
  -7  -2  -2    3.10    0.27
   7  -2   2    1.79    0.19
  -7  -2  -2    2.49    0.24
   7   2   2    2.23    0.26
   7   2   2    2.28    0.17
  -7   2  -2    1.91    0.22
   8  -2   2    0.06    0.06
   8   2   2    0.00    0.04
  -8   2  -2   -0.04    0.05
   9  -2   2    1.62    0.20
  -9   2  -2    1.14    0.19
   9   2   2    1.24    0.16
  10   3  -2    0.19    0.08
 -10   3   2    0.11    0.08
  -9   3   2    0.20    0.08
   9   3  -2    0.10    0.06
   8  -3  -2    0.30    0.10
  -8  -3   2    0.30    0.11
  -8   3   2    0.21    0.07
   8   3  -2    0.16    0.06
  -8   3   2    0.24    0.11
   7  -3  -2    0.32    0.09
  -7  -3   2    0.13    0.07
  -7   3   2    0.33    0.08
  -7   3   2    0.29    0.11
   7   3  -2    0.26    0.07
  -6  -3   2    0.20    0.07
   6  -3  -2    0.10    0.05
  -6  -3   2    0.22    0.07
   6   3  -2    0.14    0.05
  -6   3   2    0.24    0.09
   6   3  -2    0.17    0.07
  -6   3   2    0.24    0.06
  -5  -3   2    2.71    0.25
  -5  -3   2    3.25    0.21
   5  -3  -2    3.14    0.21
  -5  -3   2    3.16    0.21
   5   3  -2    2.81    0.22
  -5   3   2    4.19    0.28
   5   3  -2    3.10    0.19
  -5   3   2    3.16    0.18
   5   3  -2    3.10    0.25
  -4  -3   2   53.01    2.70
  -4  -3   2   57.97    2.26
   4  -3  -2   56.14    2.66
  -4  -3   2   58.11    2.36
   4  -3  -2   60.10    2.35
   4   3  -2   58.70    2.71
   4   3  -2   59.23    2.24
  -4   3   2   57.12    2.66
   4   3  -2   54.19    2.68
   4   3  -2   58.14    2.45
  -4   3   2   61.35    2.69
  -4   3   2   57.92    2.22
  -3  -3   2   22.94    0.98
  -3  -3   2   26.59    1.15
   3  -3  -2   21.54    1.09
  -3  -3   2   23.09    0.94
   3  -3  -2   21.91    0.97
  -3   3   2   23.53    0.90
  -3   3   2   23.28    1.10
  -3   3   2   21.45    1.10
   3   3  -2   22.33    1.14
  -3   3   2   22.90    0.90
   3   3  -2   22.87    0.93
   3   3  -2   23.46    1.12
   3   3  -2   22.32    1.02
  -2  -3   2    7.35    0.34
  -2  -3   2    7.02    0.41
   2  -3  -2    6.97    0.31
  -2  -3   2    7.76    0.41
   2  -3  -2    7.09    0.34
  -2  -3   2    6.72    0.37
   2  -3  -2    7.58    0.39
  -2   3   2    8.33    0.39
  -2   3   2    7.11    0.29
   2   3  -2    7.29    0.41
  -2   3   2    7.37    0.29
   2   3  -2    7.04    0.37
   2   3  -2    7.05    0.42
  -2   3   2    7.33    0.39
   2   3  -2    7.33    0.33
  -1  -3   2   18.84    0.92
  -1  -3   2   18.21    0.82
   1  -3  -2   18.75    0.77
   1  -3  -2   18.94    0.88
  -1  -3   2   19.21    0.76
   1  -3  -2   18.21    0.79
  -1  -3   2   19.06    0.91
  -1   3   2   18.06    0.88
   1   3  -2   18.33    0.82
   1   3  -2   16.69    0.90
   1   3  -2   19.22    0.93
   1   3  -2   18.64    0.75
  -1   3   2   19.39    0.88
   0  -3  -2   15.00    0.72
   0  -3   2   14.96    0.66
   0  -3   2   15.18    0.62
   0  -3  -2   15.01    0.62
   0  -3  -2   14.39    0.65
   0  -3   2   13.63    0.74
   0  -3   2   14.68    0.75
   0   3  -2   14.81    0.66
   0   3  -2   14.19    0.61
   0   3   2   16.50    0.73
   0   3   2   14.82    0.71
   0   3  -2   15.05    0.75
   1  -3   2    1.72    0.14
  -1  -3  -2    1.48    0.12
   1  -3   2    1.53    0.11
  -1  -3  -2    1.48    0.10
   1  -3   2    1.30    0.09
   1  -3   2    1.38    0.15
  -1  -3  -2    1.45    0.12
  -1   3  -2    1.39    0.16
   1   3   2    1.36    0.11
   1   3   2    1.45    0.12
  -1   3  -2    1.43    0.11
  -1   3  -2    1.59    0.16
  -1   3  -2    1.49    0.10
   2  -3   2    7.98    0.35
   2  -3   2    7.55    0.43
  -2  -3  -2    7.31    0.35
  -2  -3  -2    7.89    0.42
   2   3   2    7.25    0.31
  -2   3  -2    7.76    0.35
   2   3   2    7.76    0.42
   2   3   2    7.29    0.40
  -2   3  -2    7.32    0.35
  -2   3  -2    7.31    0.43
   2   3   2    7.82    0.31
  -2   3  -2    7.38    0.44
  -3  -3  -2    7.47    0.46
   3  -3   2    8.62    0.38
  -3  -3  -2    8.45    0.39
   3  -3   2    8.32    0.46
  -3   3  -2    7.79    0.37
  -3   3  -2    7.86    0.46
   3   3   2    7.97    0.34
   3   3   2    7.97    0.46
  -3   3  -2    7.87    0.38
  -3   3  -2    7.28    0.46
   3   3   2    8.11    0.44
   3   3   2    7.62    0.34
   4  -3   2    1.53    0.17
   4  -3   2    1.82    0.14
  -4  -3  -2    1.58    0.15
   4  -3   2    1.95    0.22
  -4   3  -2    1.73    0.12
  -4   3  -2    1.72    0.21
   4   3   2    1.46    0.17
  -4   3  -2    1.82    0.17
   4   3   2    1.66    0.11
  -5  -3  -2    6.05    0.32
   5  -3   2    5.38    0.30
   5   3   2    5.25    0.36
  -5   3  -2    5.72    0.41
   5   3   2    5.29    0.27
  -5   3  -2    5.92    0.32
  -6  -3  -2    9.01    0.47
   6  -3   2    8.61    0.44
   6  -3   2    8.44    0.43
  -6   3  -2    9.47    0.46
   6   3   2    8.42    0.53
   6   3   2    8.29    0.40
  -7  -3  -2    3.39    0.26
   7  -3   2    3.15    0.24
   7   3   2    3.55    0.38
   7   3   2    3.49    0.22
  -7   3  -2    4.60    0.29
   8  -3   2    0.26    0.08
  -8   3  -2    0.07    0.07
   8   3   2    0.14    0.06
   9   3   2    0.16    0.07
  -9   3  -2    0.33    0.12
  -9   4   2    0.44    0.11
   9   4  -2    0.20    0.08
   8  -4  -2    0.89    0.16
   8   4  -2    0.75    0.12
  -8   4   2    1.07    0.14
   7  -4  -2    0.97    0.16
  -7   4   2    1.05    0.19
  -7   4   2    1.16    0.14
   7   4  -2    1.39    0.16
  -6  -4   2    0.26    0.09
   6  -4  -2    0.25    0.08
  -6   4   2    0.16    0.08
   6   4  -2    0.09    0.07
  -6   4   2    0.16    0.06
   6   4  -2    0.21    0.06
   5  -4  -2    0.00    0.03
  -5  -4   2    0.01    0.04
  -5  -4   2    0.04    0.04
  -5   4   2    0.04    0.03
   5   4  -2    0.00    0.03
   5   4  -2    0.00    0.04
  -5   4   2    0.02    0.05
   4  -4  -2    1.11    0.13
  -4  -4   2    0.86    0.12
  -4  -4   2    1.20    0.14
  -4   4   2    1.15    0.10
   4   4  -2    1.17    0.13
  -4   4   2    1.42    0.17
   4   4  -2    1.35    0.16
   4   4  -2    1.00    0.15
   3  -4  -2    2.55    0.17
  -3  -4   2    2.44    0.22
  -3  -4   2    2.21    0.17
   3   4  -2    2.26    0.18
  -3   4   2    2.59    0.13
  -3   4   2    2.34    0.13
  -3   4   2    2.45    0.19
   3   4  -2    2.65    0.16
   3   4  -2    2.49    0.20
   2  -4  -2    3.03    0.19
   2  -4  -2    3.16    0.21
  -2  -4   2    2.36    0.19
  -2  -4   2    3.02    0.24
   2  -4  -2    3.24    0.15
  -2   4   2    3.25    0.14
   2   4  -2    3.05    0.18
   2   4  -2    2.54    0.23
  -2   4   2    3.09    0.14
   2   4  -2    3.20    0.23
  -2   4   2    3.82    0.23
  -2   4   2    3.48    0.22
   2   4  -2    3.45    0.22
   1  -4  -2    0.31    0.05
  -1  -4   2    0.12    0.04
  -1  -4   2    0.20    0.06
  -1  -4   2    0.19    0.06
  -1  -4   2    0.21    0.05
   1  -4  -2    0.12    0.04
   1  -4  -2    0.16    0.05
  -1   4   2    0.17    0.05
  -1   4   2    0.20    0.05
   1   4  -2    0.20    0.05
   1   4  -2    0.20    0.05
   1   4  -2    0.20    0.06
   1   4  -2    0.23    0.07
   0  -4   2    0.39    0.07
   0  -4  -2    0.43    0.08
   0  -4  -2    0.39    0.06
   0  -4   2    0.37    0.09
   0  -4   2    0.43    0.07
   0  -4   2    0.33    0.06
   0  -4  -2    0.33    0.06
   0   4   2    0.40    0.07
   0   4   2    0.36    0.07
   0   4  -2    0.40    0.06
   0   4  -2    0.37    0.06
   0   4  -2    0.49    0.10
   0   4  -2    0.46    0.09
   1  -4   2    0.98    0.10
   1  -4   2    1.31    0.16
  -1  -4  -2    1.30    0.13
  -1  -4  -2    1.21    0.14
   1  -4   2    1.68    0.15
  -1  -4  -2    1.18    0.10
  -1   4  -2    1.19    0.12
  -1   4  -2    1.24    0.16
  -1   4  -2    1.16    0.15
   1   4   2    1.44    0.12
  -1   4  -2    1.23    0.10
   1   4   2    0.94    0.13
   2  -4   2    4.67    0.26
   2  -4   2    5.55    0.34
  -2  -4  -2    4.89    0.26
  -2   4  -2    5.06    0.34
   2   4   2    5.02    0.21
   2   4   2    5.02    0.31
  -2   4  -2    5.02    0.27
  -2   4  -2    4.88    0.25
   2   4   2    5.01    0.22
  -3  -4  -2    1.73    0.14
   3  -4   2    1.94    0.15
   3  -4   2    2.14    0.19
   3   4   2    1.75    0.16
  -3   4  -2    2.05    0.23
  -3   4  -2    2.06    0.15
   3   4   2    1.93    0.11
   4  -4   2    0.48    0.09
  -4  -4  -2    0.46    0.09
   4  -4   2    0.48    0.09
   4   4   2    0.43    0.06
  -4   4  -2    0.37    0.08
  -4   4  -2    0.60    0.13
   4   4   2    0.45    0.10
   5  -4   2    0.15    0.06
  -5  -4  -2    0.01    0.04
   5   4   2    0.10    0.06
  -5   4  -2    0.11    0.09
  -5   4  -2    0.15    0.07
   5   4   2    0.12    0.04
  -6  -4  -2    4.12    0.28
   6   4   2    3.91    0.23
  -6   4  -2    4.48    0.29
  -7  -4  -2    0.32    0.10
   7   4   2    0.22    0.06
  -7   4  -2    0.47    0.12
  -8  -4  -2    0.00    0.07
   8   4   2   -0.04    0.04
  -8   4  -2   -0.10    0.06
   9   5  -2    0.10    0.07
  -9   5   2    0.09    0.06
   8  -5  -2    0.09    0.08
  -8   5   2    0.20    0.07
   8   5  -2    0.13    0.07
   7  -5  -2    0.90    0.16
  -7   5   2    0.68    0.11
   7   5  -2    0.90    0.14
   6  -5  -2    0.79    0.14
   6   5  -2    1.04    0.14
  -6   5   2    0.88    0.11
   6   5  -2    0.77    0.17
   5  -5  -2    2.14    0.22
   5   5  -2    2.36    0.27
  -5   5   2    2.15    0.14
  -5   5   2    2.34    0.27
   5   5  -2    2.60    0.18
  -4  -5   2    5.39    0.33
   4  -5  -2    5.91    0.33
  -4   5   2    4.90    0.37
  -4   5   2    5.88    0.27
   4   5  -2    6.34    0.31
   4   5  -2    5.67    0.39
   3  -5  -2    0.96    0.13
  -3  -5   2    0.97    0.12
   3   5  -2    0.88    0.15
  -3   5   2    0.80    0.06
  -3   5   2    0.82    0.13
   3   5  -2    0.80    0.12
   3   5  -2    0.90    0.11
   2  -5  -2    2.46    0.17
  -2  -5   2    2.52    0.19
  -2   5   2    2.37    0.11
  -2   5   2    2.48    0.20
   2   5  -2    2.55    0.19
   2   5  -2    2.66    0.22
   2   5  -2    2.26    0.16
   1  -5  -2   14.98    0.65
  -1  -5   2   14.86    0.67
  -1  -5   2   13.41    0.66
   1   5  -2   13.95    0.77
   1   5  -2   14.69    0.63
  -1   5   2   14.76    0.75
   0  -5  -2    0.29    0.06
   0  -5   2    0.28    0.08
   0  -5  -2    0.39    0.07
   0  -5   2    0.30    0.06
   0  -5   2    0.32    0.08
   0   5  -2    0.39    0.07
   0   5   2    0.20    0.06
   0   5  -2    0.26    0.06
   0   5  -2    0.33    0.09
  -1  -5  -2    0.26    0.06
   1  -5   2    0.24    0.06
   1   5   2    0.28    0.07
  -1   5  -2    0.35    0.07
  -1   5  -2    0.30    0.09
   2  -5   2    0.15    0.05
  -2  -5  -2    0.11    0.05
  -2   5  -2    0.13    0.05
   2   5   2    0.12    0.02
   2   5   2    0.13    0.02
  -2   5  -2    0.18    0.08
   2   5   2    0.17    0.06
  -3  -5  -2    1.31    0.15
  -3   5  -2    1.57    0.16
   3   5   2    1.28    0.08
   3   5   2    0.92    0.15
  -3   5  -2    1.33    0.20
   4  -5   2   -0.01    0.04
  -4  -5  -2    0.00    0.04
   4   5   2    0.01    0.02
  -4   5  -2    0.01    0.04
   4   5   2    0.02    0.04
  -4   5  -2   -0.04    0.04
  -5  -5  -2    0.09    0.06
   5   5   2    0.02    0.03
  -5   5  -2    0.07    0.06
  -6  -5  -2    4.23    0.29
   6   5   2    3.77    0.22
  -7  -5  -2    0.89    0.14
  -7   5  -2    0.73    0.14
   7   5   2    0.76    0.10
  -8  -5  -2    0.17    0.10
   8   5   2    0.24    0.07
  -8   5  -2    0.15    0.10
   8  -6  -2    1.28    0.22
  -8   6   2    1.04    0.13
   8   6  -2    1.09    0.16
   7  -6  -2    2.06    0.26
   7   6  -2    1.67    0.19
  -7   6   2    1.65    0.16
   6  -6  -2    0.41    0.12
  -6   6   2    0.41    0.07
   6   6  -2    0.37    0.09
  -5  -6   2    0.03    0.06
   5  -6  -2    0.07    0.07
  -5   6   2    0.08    0.04
   5   6  -2    0.17    0.09
   5   6  -2    0.07    0.05
   4  -6  -2    0.03    0.04
  -4  -6   2    0.06    0.06
  -4   6   2    0.03    0.03
   4   6  -2   -0.03    0.05
   4   6  -2    0.03    0.04
   3  -6  -2    0.33    0.08
  -3  -6   2    0.74    0.13
  -3   6   2    0.60    0.13
   3   6  -2    0.73    0.11
   3   6  -2    0.73    0.15
  -2  -6   2    0.25    0.07
   2  -6  -2    0.30    0.08
  -2   6   2    0.58    0.12
   2   6  -2    0.50    0.08
   2   6  -2    0.43    0.09
   2   6  -2    0.46    0.11
  -1  -6   2    0.37    0.09
   1  -6  -2    0.23    0.07
   1   6  -2    0.45    0.10
  -1   6   2    0.15    0.06
   1   6  -2    0.37    0.11
   1   6  -2    0.31    0.07
   0  -6   2    0.72    0.12
   0  -6  -2    0.56    0.09
   0   6   2    0.48    0.11
   0   6  -2    0.62    0.10
   0   6  -2    0.65    0.14
  -1  -6  -2    1.29    0.15
   1  -6   2    1.54    0.18
  -1   6  -2    1.73    0.17
  -1   6  -2    1.49    0.21
   1   6   2    1.86    0.20
   2  -6   2    1.21    0.16
  -2  -6  -2    0.77    0.11
  -2   6  -2    0.92    0.17
  -2   6  -2    1.27    0.15
   2   6   2    0.90    0.14
  -3  -6  -2   -0.01    0.04
   3  -6   2    0.01    0.05
  -3   6  -2    0.01    0.04
  -3   6  -2    0.06    0.07
  -4  -6  -2    0.01    0.04
  -4   6  -2    0.11    0.08
  -4   6  -2    0.03    0.05
   4   6   2    0.08    0.03
  -5  -6  -2    0.03    0.05
  -5   6  -2    0.04    0.06
   5   6   2    0.04    0.03
  -6  -6  -2    1.09    0.17
  -6   6  -2    1.12    0.17
   6   6   2    1.21    0.11
  -7  -6  -2    0.10    0.08
   7   6   2   -0.01    0.03
  -7   6  -2   -0.01    0.06
   7  -7  -2    0.19    0.11
  -7   7   2    0.06    0.04
   7   7  -2    0.11    0.07
   6  -7  -2    0.20    0.09
  -6   7   2    0.16    0.04
   6   7  -2    0.19    0.07
   5  -7  -2    0.78    0.14
   5   7  -2    0.93    0.13
  -4  -7   2    1.56    0.19
   4  -7  -2    1.95    0.22
   4   7  -2    1.63    0.17
  -3  -7   2    0.83    0.15
   3  -7  -2    0.77    0.14
   3   7  -2    0.75    0.12
   2  -7  -2    0.52    0.11
  -2  -7   2    0.44    0.11
   2   7  -2    0.55    0.10
  -1  -7   2    1.78    0.20
   1  -7  -2    1.60    0.18
   1   7  -2    1.35    0.22
   1   7  -2    1.56    0.17
   0  -7  -2    0.13    0.06
   0  -7   2    0.19    0.08
   0   7  -2    0.22    0.07
   0   7  -2    0.09    0.08
   1  -7   2    0.09    0.07
  -1  -7  -2    0.10    0.05
  -1   7  -2   -0.02    0.06
  -1   7  -2    0.00    0.04
  -2  -7  -2   -0.01    0.04
   2  -7   2    0.07    0.06
  -2   7  -2   -0.08    0.03
  -3  -7  -2    0.34    0.09
  -3   7  -2    0.49    0.10
  -4  -7  -2   -0.02    0.05
  -4   7  -2    0.04    0.06
  -5  -7  -2    0.01    0.05
  -5   7  -2    0.06    0.07
  -6  -7  -2    1.13    0.19
  -6   7  -2    0.97    0.16
   5  -8  -2    0.25    0.10
   5   8  -2    0.26    0.08
   4  -8  -2    0.16    0.10
   4   8  -2    0.42    0.09
   3  -8  -2   -0.01    0.06
  -3  -8   2    0.03    0.07
   3   8  -2   -0.05    0.04
   2  -8  -2   -0.05    0.05
  -2  -8   2    0.05    0.08
   2   8  -2    0.10    0.06
   1  -8  -2   -0.07    0.05
  -1  -8   2    0.03    0.06
   1   8  -2   -0.02    0.04
   0  -8  -2    0.08    0.06
   0  -8   2    0.03    0.06
   0   8  -2    0.14    0.06
   1  -8   2   -0.02    0.06
  -1  -8  -2   -0.03    0.05
  -1   8  -2   -0.02    0.04
  -2  -8  -2    0.24    0.09
  -2   8  -2    0.41    0.09
  -3  -8  -2    0.26    0.09
  -3   8  -2    0.22    0.08
  -4  -8  -2    0.26    0.09
  -4   8  -2    0.30    0.10
 -11   0   3    0.00    0.07
 -10   0   3    0.39    0.11
  -9   0   3   -0.01    0.05
   8   0  -3    0.77    0.14
  -8   0   3    0.92    0.14
  -8   0   3    0.60    0.15
  -7   0   3    9.33    0.44
   7   0  -3    8.73    0.47
  -7   0   3    8.76    0.56
   6   0  -3    8.77    0.46
  -6   0   3    9.71    0.55
  -6   0   3    9.53    0.43
   6   0  -3    8.89    0.47
   6   0  -3    9.02    0.43
   5   0  -3    1.87    0.13
  -5   0   3    1.99    0.15
  -5   0   3    2.11    0.14
   5   0  -3    2.18    0.15
  -5   0   3    2.01    0.17
  -5   0   3    2.02    0.21
   5   0  -3    2.15    0.16
   5   0  -3    2.08    0.17
   4   0  -3   14.05    0.56
   4   0  -3   13.61    0.61
   4   0  -3   13.05    0.60
  -4   0   3   13.78    0.67
   4   0  -3   11.88    0.66
  -4   0   3   13.11    0.55
  -4   0   3   13.77    0.61
  -4   0   3   13.68    0.69
  -3   0   3    1.99    0.13
   3   0  -3    1.40    0.11
   3   0  -3    1.67    0.13
  -3   0   3    1.68    0.12
   3   0  -3    1.71    0.12
  -3   0   3    1.63    0.11
  -3   0   3    1.58    0.13
  -3   0   3    1.77    0.10
  -2   0   3   21.49    0.79
  -2   0   3   20.64    0.96
  -2   0   3   20.82    0.79
  -2   0   3   20.42    0.97
   2   0  -3   21.29    0.97
   2   0  -3   20.76    0.96
   2   0  -3   20.40    0.88
  -2   0   3   19.76    0.88
  -1   0   3   67.75    2.94
   1   0  -3   65.05    2.94
   1   0  -3   64.34    2.94
  -1   0   3   64.02    2.69
   1   0  -3   64.85    2.69
  -1   0   3   66.16    2.94
   0   0  -3   10.11    0.48
   0   0   3   10.18    0.48
   0   0   3   10.15    0.48
   0   0  -3    9.94    0.48
  -1   0  -3   11.99    0.59
   1   0   3   12.13    0.59
   1   0   3   11.95    0.48
   1   0   3   12.81    0.48
   1   0   3   11.86    0.58
  -1   0  -3   12.06    0.58
   2   0   3  138.56    5.84
   2   0   3  126.91    4.89
  -2   0  -3  120.38    5.13
   2   0   3  127.45    5.82
  -2   0  -3  136.17    5.84
  -2   0  -3  127.88    4.90
   3   0   3   78.52    3.03
  -3   0  -3   85.13    3.65
  -3   0  -3   75.43    3.18
   3   0   3   80.14    3.62
  -3   0  -3   78.30    3.05
  -4   0  -3    2.69    0.23
  -4   0  -3    2.74    0.18
   4   0   3    3.17    0.22
  -4   0  -3    2.55    0.17
   4   0   3    2.72    0.16
   4   0   3    2.63    0.22
   5   0   3    1.02    0.15
  -5   0  -3    1.05    0.13
   5   0   3    1.37    0.13
   6   0   3    0.26    0.06
  -6   0  -3    0.18    0.07
   6   0   3    0.32    0.10
   7   0   3    2.76    0.20
   7   0   3    2.46    0.28
  -7   0  -3    3.25    0.30
   7   0   3    2.42    0.28
   8   0   3    0.68    0.12
   9   0   3   -0.04    0.04
 -11  -1   3    0.04    0.09
 -11   1   3   -0.01    0.06
 -10  -1   3   -0.01    0.06
 -10   1   3    0.12    0.07
  -9  -1   3    0.50    0.12
  -9   1   3    0.33    0.09
   8  -1  -3    2.46    0.27
  -8  -1   3    2.86    0.22
   8   1  -3    3.40    0.22
  -8   1   3    2.56    0.23
  -8   1   3    2.99    0.33
  -7  -1   3   10.17    0.64
  -7  -1   3   10.74    0.51
   7  -1  -3   11.48    0.56
  -7   1   3   10.57    0.50
   7   1  -3   10.30    0.55
   7   1  -3   10.14    0.50
  -7   1   3   10.40    0.63
   7   1  -3   10.68    0.55
  -6  -1   3    6.43    0.34
  -6  -1   3    6.73    0.44
   6  -1  -3    7.03    0.37
   6  -1  -3    6.55    0.34
   6   1  -3    5.97    0.40
  -6   1   3    6.72    0.43
   6   1  -3    6.70    0.33
   6   1  -3    7.13    0.38
  -6   1   3    6.61    0.35
   6   1  -3    6.65    0.37
  -6   1   3    6.80    0.33
   5  -1  -3   22.89    1.15
  -5  -1   3   24.52    0.98
   5  -1  -3   24.87    1.03
  -5  -1   3   24.41    1.17
  -5  -1   3   23.77    1.17
   5  -1  -3   23.87    1.16
  -5  -1   3   23.42    1.19
   5  -1  -3   24.37    0.97
   5  -1  -3   23.34    1.03
   5   1  -3   24.93    0.97
  -5   1   3   24.22    1.03
  -5   1   3   23.71    1.16
  -5   1   3   24.18    1.18
   5   1  -3   23.81    1.06
  -5   1   3   24.11    0.96
   5   1  -3   22.36    1.16
   4  -1  -3   43.67    1.77
  -4  -1   3   42.03    1.69
  -4  -1   3   43.68    1.84
   4  -1  -3   45.82    1.69
  -4  -1   3   42.67    2.01
   4  -1  -3   43.50    2.00
   4  -1  -3   42.38    1.69
   4  -1  -3   42.42    1.80
  -4  -1   3   40.60    2.03
   4  -1  -3   46.49    2.00
  -4   1   3   42.55    1.67
  -4   1   3   43.37    1.81
   4   1  -3   41.52    2.01
  -4   1   3   46.14    2.00
  -4   1   3   45.15    2.02
   4   1  -3   42.43    1.83
  -4   1   3   43.03    1.67
   4   1  -3   42.01    1.78
   4   1  -3   44.18    1.69
  -3  -1   3   13.32    0.62
  -3  -1   3   12.51    0.56
  -3  -1   3   13.95    0.67
   3  -1  -3   13.96    0.58
   3  -1  -3   14.62    0.66
  -3  -1   3   13.76    0.69
   3  -1  -3   12.88    0.65
   3  -1  -3   13.99    0.59
  -3   1   3   13.06    0.53
  -3   1   3   14.47    0.59
   3   1  -3   13.52    0.69
   3   1  -3   13.93    0.56
  -3   1   3   13.17    0.53
   3   1  -3   13.93    0.67
  -3   1   3   13.92    0.67
  -3   1   3   14.42    0.66
   3   1  -3   12.80    0.61
  -2  -1   3   16.16    0.64
  -2  -1   3   16.39    0.71
   2  -1  -3   14.60    0.74
   2  -1  -3   15.77    0.75
  -2  -1   3   16.24    0.77
   2  -1  -3   14.88    0.69
   2  -1  -3   16.28    0.75
  -2  -1   3   17.02    0.78
   2   1  -3   16.64    0.64
   2   1  -3   15.76    0.78
   2   1  -3   16.55    0.77
   2   1  -3   15.69    0.71
  -2   1   3   15.67    0.75
  -2   1   3   18.55    0.69
  -2   1   3   16.70    0.76
  -1  -1   3    2.85    0.17
  -1  -1   3    2.96    0.16
  -1  -1   3    2.89    0.14
  -1  -1   3    2.75    0.17
   1   1  -3    2.88    0.17
   1   1  -3    2.71    0.16
   1   1  -3    2.84    0.18
   0  -1   3   12.26    0.59
   0  -1   3   11.60    0.53
   0  -1  -3   11.87    0.56
   0  -1   3   12.37    0.49
   0  -1  -3   11.91    0.55
   0  -1   3   12.50    0.59
   0   1   3   11.82    0.55
   0   1  -3   12.85    0.59
   0   1   3   12.02    0.55
   0   1   3   12.28    0.55
   0   1  -3   12.34    0.59
   0   1  -3   11.78    0.54
   0   1  -3   12.08    0.49
  -1  -1  -3    2.86    0.17
   1  -1   3    2.68    0.17
  -1  -1  -3    2.86    0.16
   1  -1   3    2.65    0.14
   1  -1   3    2.78    0.18
  -1   1  -3    2.69    0.14
   1   1   3    2.85    0.16
  -1   1  -3    2.56    0.18
  -1   1  -3    2.99    0.18
   1   1   3    2.83    0.16
   2  -1   3    0.52    0.06
   2  -1   3    0.65    0.09
  -2  -1  -3    0.72    0.10
  -2  -1  -3    0.59    0.07
   2  -1   3    0.65    0.07
   2  -1   3    0.68    0.09
   2   1   3    0.80    0.09
  -2   1  -3    0.71    0.08
   2   1   3    0.63    0.05
  -2   1  -3    0.51    0.08
   2   1   3    0.57    0.04
  -2   1  -3    0.58    0.07
   2   1   3    0.66    0.09
   3  -1   3   13.68    0.73
   3  -1   3   13.30    0.58
  -3  -1  -3   14.55    0.60
  -3  -1  -3   14.42    0.62
  -3  -1  -3   14.26    0.62
  -3  -1  -3   14.38    0.73
   3  -1   3   14.34    0.72
   3   1   3   13.22    0.72
  -3   1  -3   14.31    0.61
   3   1   3   13.94    0.70
  -3   1  -3   13.53    0.73
   3   1   3   14.73    0.57
  -3   1  -3   14.12    0.63
   3   1   3   14.43    0.58
   4  -1   3    8.54    0.49
   4  -1   3    8.21    0.39
  -4  -1  -3    8.47    0.42
   4  -1   3    8.47    0.50
  -4  -1  -3    8.90    0.42
   4   1   3    8.36    0.38
   4   1   3    9.31    0.48
   4   1   3    8.72    0.48
  -4   1  -3    8.06    0.50
  -4   1  -3    8.59    0.41
   5  -1   3    2.84    0.23
   5  -1   3    2.90    0.18
  -5  -1  -3    2.94    0.20
   5   1   3    3.05    0.23
   5   1   3    3.33    0.24
   5   1   3    2.88    0.17
  -5   1  -3    2.47    0.20
  -5   1  -3    2.65    0.20
   6  -1   3    5.16    0.36
   6  -1   3    5.08    0.28
  -6  -1  -3    4.42    0.29
   6   1   3    4.68    0.26
   6   1   3    4.89    0.35
   6   1   3    5.01    0.35
  -6   1  -3    5.18    0.31
   7  -1   3    0.62    0.11
  -7  -1  -3    0.54    0.11
   7   1   3    0.78    0.11
   7   1   3    0.54    0.14
   8  -1   3    0.23    0.08
   8   1   3    0.20    0.07
   9  -1   3    0.29    0.09
   9   1   3    0.21    0.07
 -10  -2   3    0.29    0.11
  10   2  -3    0.46    0.11
 -10   2   3    0.43    0.11
  -9  -2   3    0.47    0.12
   9   2  -3    0.77    0.14
  -9   2   3    0.71    0.13
   8  -2  -3    3.03    0.29
  -8  -2   3    2.36    0.23
  -8   2   3    1.68    0.25
   8   2  -3    2.06    0.21
  -8   2   3    2.49    0.22
   7  -2  -3   11.56    0.60
  -7  -2   3   12.02    0.57
  -7   2   3   11.26    0.69
   7   2  -3   12.33    0.56
  -7   2   3   12.00    0.54
  -6  -2   3    0.80    0.15
   6  -2  -3    0.78    0.12
  -6  -2   3    0.70    0.11
   6   2  -3    0.53    0.10
   6   2  -3    0.47    0.10
   6   2  -3    0.90    0.12
   6   2  -3    0.81    0.12
  -6   2   3    0.66    0.13
  -6   2   3    0.82    0.10
  -5  -2   3    2.16    0.15
   5  -2  -3    2.15    0.12
  -5  -2   3    2.02    0.23
  -5  -2   3    1.88    0.20
   5  -2  -3    2.00    0.15
  -5   2   3    1.95    0.12
   5   2  -3    1.97    0.16
  -5   2   3    2.28    0.19
  -5   2   3    2.00    0.18
   5   2  -3    2.42    0.21
   5   2  -3    1.69    0.13
   5   2  -3    2.00    0.18
  -5   2   3    1.85    0.12
   4  -2  -3   26.58    1.21
   4  -2  -3   30.12    1.21
  -4  -2   3   30.00    1.42
  -4  -2   3   31.80    1.40
   4  -2  -3   28.28    1.37
  -4  -2   3   30.47    1.17
  -4   2   3   30.44    1.39
  -4   2   3   28.81    1.12
   4   2  -3   28.99    1.16
   4   2  -3   29.44    1.39
  -4   2   3   26.34    1.21
  -4   2   3   28.11    1.37
   4   2  -3   28.61    1.27
   4   2  -3   29.90    1.24
  -4   2   3   29.56    1.13
  -3  -2   3   11.69    0.57
  -3  -2   3   10.22    0.55
  -3  -2   3   10.71    0.51
   3  -2  -3   10.83    0.47
  -3  -2   3   10.54    0.46
   3  -2  -3   10.32    0.46
   3  -2  -3   11.27    0.52
   3   2  -3   10.24    0.45
   3   2  -3   10.44    0.55
  -3   2   3   10.38    0.53
  -3   2   3   11.45    0.54
   3   2  -3    9.88    0.56
   3   2  -3    9.89    0.50
  -2  -2   3   11.02    0.56
  -2  -2   3   11.28    0.52
  -2  -2   3   10.66    0.57
   2  -2  -3   11.09    0.46
   2  -2  -3   11.70    0.53
   2  -2  -3    9.06    0.47
  -2   2   3   10.94    0.53
  -2   2   3   10.81    0.53
   2   2  -3   12.16    0.59
   2   2  -3   11.95    0.52
   2   2  -3   11.23    0.47
   2   2  -3   11.52    0.56
  -1  -2   3    0.55    0.09
  -1  -2   3    0.49    0.07
   1  -2  -3    0.63    0.05
  -1  -2   3    0.55    0.08
  -1  -2   3    0.60    0.07
   1  -2  -3    0.54    0.04
   1   2  -3    0.47    0.07
  -1   2   3    0.63    0.05
   1   2  -3    0.40    0.07
   1   2  -3    0.74    0.08
   1   2  -3    0.61    0.09
  -1   2   3    0.60    0.05
   0  -2  -3    7.27    0.36
   0  -2   3    7.73    0.40
   0  -2   3    7.45    0.41
   0  -2   3    8.07    0.33
   0  -2   3    7.52    0.36
   0   2  -3    8.08    0.41
   0   2   3    7.87    0.37
   0   2   3    7.72    0.36
   0   2  -3    7.23    0.41
   0   2  -3    6.74    0.35
   0   2  -3    7.16    0.33
   1  -2   3    2.73    0.19
   1  -2   3    2.63    0.15
   1  -2   3    2.74    0.19
  -1  -2  -3    2.79    0.17
  -1  -2  -3    2.83    0.14
  -1   2  -3    2.72    0.15
   1   2   3    2.78    0.16
  -1   2  -3    2.60    0.19
   1   2   3    2.77    0.17
  -1   2  -3    2.87    0.20
   2  -2   3   24.89    1.18
   2  -2   3   24.43    0.98
  -2  -2  -3   24.73    1.01
  -2  -2  -3   24.98    1.17
   2  -2   3   25.61    1.19
   2   2   3   24.73    1.17
   2   2   3   25.40    0.93
  -2   2  -3   23.38    0.98
   2   2   3   24.70    1.15
  -2   2  -3   24.21    1.19
  -2   2  -3   21.79    1.04
  -2   2  -3   25.97    1.19
   2   2   3   23.70    0.93
  -3  -2  -3   24.57    1.04
  -3  -2  -3   24.12    1.20
   3  -2   3   24.55    1.20
   3  -2   3   23.09    0.99
   3  -2   3   25.52    1.21
  -3   2  -3   24.05    1.05
   3   2   3   25.55    1.18
  -3   2  -3   24.61    1.22
   3   2   3   25.34    0.96
   3   2   3   25.05    0.96
  -3   2  -3   24.53    1.01
   3   2   3   24.13    1.20
   4  -2   3    4.23    0.23
   4  -2   3    4.24    0.30
  -4  -2  -3    4.25    0.24
   4  -2   3    3.99    0.23
   4   2   3    4.32    0.21
   4   2   3    4.21    0.28
  -4   2  -3    4.15    0.26
  -4   2  -3    4.45    0.32
  -4   2  -3    4.37    0.25
   5  -2   3    6.20    0.37
   5  -2   3    5.11    0.28
  -5  -2  -3    4.71    0.29
  -5   2  -3    4.36    0.30
  -5   2  -3    4.72    0.29
   5   2   3    5.17    0.25
   5   2   3    5.01    0.34
   6  -2   3    0.05    0.04
  -6  -2  -3   -0.01    0.03
  -6  -2  -3    0.00    0.04
  -6   2  -3    0.01    0.04
   6   2   3    0.03    0.03
   6   2   3    0.03    0.06
  -7  -2  -3    3.42    0.26
   7  -2   3    3.43    0.24
   7   2   3    3.73    0.31
   7   2   3    3.17    0.21
  -7   2  -3    4.12    0.28
   8  -2   3    0.02    0.05
   8   2   3    0.08    0.05
   9  -2   3    0.09    0.07
   9   2   3    0.02    0.05
 -10  -3   3    0.44    0.13
 -10   3   3    0.34    0.10
  10   3  -3    0.16    0.08
   9  -3  -3    0.13    0.08
  -9  -3   3    0.26    0.09
   9   3  -3    0.33    0.09
  -9   3   3    0.28    0.08
  -8  -3   3    5.81    0.35
   8  -3  -3    5.30    0.35
  -8   3   3    4.96    0.44
   8   3  -3    5.34    0.32
  -8   3   3    4.97    0.30
   7  -3  -3   10.17    0.55
  -7  -3   3   10.36    0.53
   7   3  -3   10.08    0.50
  -7   3   3   10.98    0.65
  -7   3   3   10.73    0.49
   6  -3  -3    2.76    0.21
  -6  -3   3    3.45    0.22
   6   3  -3    2.78    0.25
  -6   3   3    3.02    0.26
   6   3  -3    2.93    0.20
  -6   3   3    3.04    0.18
  -5  -3   3    4.90    0.28
   5  -3  -3    5.00    0.28
  -5  -3   3    4.47    0.27
  -5  -3   3    4.65    0.35
   5   3  -3    4.99    0.31
  -5   3   3    4.49    0.32
   5   3  -3    5.00    0.26
   5   3  -3    4.70    0.33
  -5   3   3    4.84    0.23
  -4  -3   3    2.54    0.17
  -4  -3   3    2.64    0.17
   4  -3  -3    2.40    0.16
  -4  -3   3    2.65    0.22
   4   3  -3    2.54    0.16
  -4   3   3    2.34    0.12
   4   3  -3    2.47    0.19
  -4   3   3    2.54    0.19
  -4   3   3    2.28    0.18
  -4   3   3    2.35    0.12
   4   3  -3    2.46    0.20
   3  -3  -3    7.04    0.33
  -3  -3   3    7.37    0.42
   3  -3  -3    6.74    0.29
   3  -3  -3    6.57    0.37
  -3  -3   3    7.12    0.40
  -3  -3   3    6.96    0.34
   3   3  -3    6.57    0.32
  -3   3   3    7.25    0.38
   3   3  -3    6.82    0.37
   3   3  -3    6.67    0.40
   3   3  -3    6.86    0.42
  -3   3   3    6.79    0.37
   2  -3  -3    2.56    0.14
  -2  -3   3    2.66    0.20
  -2  -3   3    2.65    0.19
   2  -3  -3    2.75    0.16
  -2  -3   3    2.23    0.15
  -2  -3   3    2.86    0.18
  -2   3   3    2.35    0.16
   2   3  -3    2.21    0.20
   2   3  -3    2.41    0.15
   2   3  -3    2.56    0.19
  -2   3   3    2.42    0.16
   2   3  -3    2.43    0.17
  -1  -3   3    7.59    0.40
  -1  -3   3    6.19    0.40
   1  -3  -3    6.76    0.31
  -1  -3   3    7.08    0.36
   1  -3  -3    7.09    0.36
  -1  -3   3    7.15    0.33
   1   3  -3    7.43    0.41
   1   3  -3    6.87    0.33
  -1   3   3    7.56    0.36
   1   3  -3    6.64    0.41
   1   3  -3    6.65    0.35
  -1   3   3    7.43    0.36
   0  -3   3    9.75    0.45
   0  -3   3    9.45    0.42
   0  -3  -3    9.93    0.41
   0  -3   3    9.93    0.52
   0  -3   3    9.65    0.52
   0  -3  -3    8.50    0.46
   0   3   3    9.47    0.46
   0   3   3    9.66    0.47
   0   3  -3    9.24    0.52
   0   3  -3    9.00    0.51
   0   3  -3    9.36    0.42
  -1  -3  -3    2.80    0.15
   1  -3   3    3.05    0.17
  -1  -3  -3    2.99    0.19
   1  -3   3    2.97    0.22
   1  -3   3    2.81    0.17
   1  -3   3    2.92    0.21
   1   3   3    2.82    0.18
   1   3   3    2.71    0.19
  -1   3  -3    2.65    0.21
  -1   3  -3    2.89    0.17
  -1   3  -3    2.68    0.17
  -1   3  -3    3.14    0.22
  -2  -3  -3    1.25    0.10
   2  -3   3    1.78    0.19
   2  -3   3    1.42    0.13
   2  -3   3    1.50    0.18
  -2  -3  -3    1.42    0.13
   2   3   3    1.20    0.11
  -2   3  -3    1.40    0.10
  -2   3  -3    1.14    0.12
  -2   3  -3    1.17    0.15
  -2   3  -3    1.10    0.15
   2   3   3    1.54    0.16
   3  -3   3   10.96    0.53
  -3  -3  -3   12.94    0.55
   3  -3   3   11.79    0.57
   3  -3   3   12.54    0.66
  -3   3  -3   11.34    0.56
  -3   3  -3   12.25    0.55
   3   3   3   12.25    0.62
   3   3   3   11.75    0.48
  -3   3  -3   12.27    0.67
   3   3   3   12.14    0.47
  -3   3  -3   11.32    0.55
  -4  -3  -3    1.06    0.13
   4  -3   3    0.92    0.12
   4  -3   3    0.67    0.13
  -4   3  -3    1.00    0.10
   4   3   3    0.82    0.08
   4   3   3    0.77    0.12
  -4   3  -3    0.78    0.15
  -4   3  -3    0.76    0.12
  -5  -3  -3    1.19    0.14
   5  -3   3    1.37    0.15
  -5   3  -3    1.07    0.14
   5   3   3    1.10    0.10
   5   3   3    0.98    0.15
   6  -3   3    0.34    0.08
   6  -3   3    0.51    0.10
  -6  -3  -3    0.41    0.10
   6   3   3    0.35    0.10
  -6   3  -3    0.39    0.10
   6   3   3    0.41    0.07
  -7  -3  -3    1.01    0.16
   7  -3   3    0.95    0.14
  -7  -3  -3    1.08    0.17
  -7   3  -3    0.94    0.16
   7   3   3    1.22    0.13
  -8  -3  -3   -0.01    0.05
  -8  -3  -3   -0.04    0.05
   8  -3   3   -0.01    0.05
   8   3   3    0.03    0.04
  -8   3  -3    0.02    0.07
   9  -3   3    0.06    0.07
   9   3   3    0.04    0.05
  -9   3  -3    0.12    0.09
  10   4  -3    0.22    0.09
 -10   4   3    0.20    0.08
   9  -4  -3    0.09    0.08
   9   4  -3    0.19    0.08
  -9   4   3    0.14    0.07
   8  -4  -3    2.00    0.24
   8   4  -3    2.18    0.22
  -8   4   3    2.11    0.19
  -7  -4   3    5.17    0.33
   7  -4  -3    5.93    0.36
   7   4  -3    5.09    0.31
  -7   4   3    5.25    0.28
  -6  -4   3    0.21    0.08
   6  -4  -3    0.31    0.08
   6   4  -3    0.26    0.07
  -6   4   3    0.23    0.05
  -6   4   3    0.24    0.09
  -5  -4   3    0.09    0.05
  -5  -4   3    0.10    0.05
   5  -4  -3    0.04    0.04
  -5   4   3    0.04    0.05
  -5   4   3    0.05    0.02
   5   4  -3    0.05    0.05
   5   4  -3    0.01    0.03
  -4  -4   3    8.27    0.41
   4  -4  -3    7.77    0.40
  -4  -4   3    8.19    0.42
   4   4  -3    8.21    0.49
  -4   4   3    8.02    0.31
   4   4  -3    7.90    0.39
  -4   4   3    8.08    0.31
  -4   4   3    7.44    0.46
   4   4  -3    7.60    0.44
  -3  -4   3    0.68    0.11
   3  -4  -3    0.55    0.08
  -3  -4   3    0.43    0.10
  -3  -4   3    0.62    0.09
   3   4  -3    0.55    0.11
   3   4  -3    0.50    0.08
   3   4  -3    0.66    0.11
  -3   4   3    0.66    0.10
  -2  -4   3    2.26    0.16
  -2  -4   3    2.23    0.17
   2  -4  -3    2.18    0.13
   2  -4  -3    2.47    0.15
  -2  -4   3    2.14    0.23
   2   4  -3    2.67    0.22
   2   4  -3    2.37    0.16
  -2   4   3    2.25    0.16
   2   4  -3    2.09    0.19
  -2   4   3    2.21    0.17
   2   4  -3    2.09    0.17
  -1  -4   3    0.04    0.03
   1  -4  -3    0.07    0.03
  -1  -4   3    0.09    0.04
   1  -4  -3    0.07    0.03
  -1  -4   3    0.08    0.05
   1  -4  -3    0.04    0.03
  -1   4   3    0.03    0.03
   1   4  -3    0.03    0.03
   1   4  -3    0.01    0.03
  -1   4   3    0.07    0.03
   1   4  -3    0.01    0.03
   1   4  -3    0.02    0.04
   0  -4  -3    0.77    0.10
   0  -4  -3    0.51    0.08
   0  -4   3    0.78    0.12
   0  -4   3    0.96    0.12
   0  -4   3    0.64    0.09
   0  -4  -3    0.55    0.07
   0  -4   3    0.72    0.09
   0   4   3    0.67    0.09
   0   4  -3    0.47    0.10
   0   4  -3    0.63    0.09
   0   4  -3    0.60    0.08
   0   4  -3    0.68    0.12
   0   4   3    0.61    0.08
   1  -4   3    1.86    0.20
   1  -4   3    1.96    0.14
   1  -4   3    1.81    0.13
   1  -4   3    1.65    0.16
  -1  -4  -3    1.75    0.12
  -1   4  -3    1.58    0.19
  -1   4  -3    2.20    0.23
   1   4   3    1.97    0.14
  -1   4  -3    1.81    0.14
  -1   4  -3    1.89    0.14
   1   4   3    1.87    0.16
   2  -4   3    8.45    0.49
  -2  -4  -3    8.09    0.39
   2  -4   3    8.20    0.40
   2  -4   3    8.07    0.42
   2   4   3    8.15    0.45
  -2   4  -3    8.21    0.40
  -2   4  -3    7.81    0.49
  -2   4  -3    8.33    0.40
   3  -4   3    9.22    0.45
  -3  -4  -3   10.14    0.47
  -3   4  -3    9.35    0.46
  -3   4  -3    9.20    0.58
   3   4   3    9.94    0.53
  -4  -4  -3    3.05    0.21
   4  -4   3    2.92    0.20
   4   4   3    3.73    0.26
  -4   4  -3    3.12    0.22
   4   4   3    3.08    0.15
   5  -4   3    1.11    0.14
  -5  -4  -3    0.97    0.14
   5   4   3    0.96    0.15
   5   4   3    1.12    0.10
  -5   4  -3    0.96    0.15
   6  -4   3    0.02    0.05
  -6  -4  -3    0.12    0.07
   6   4   3    0.08    0.04
  -6   4  -3    0.12    0.07
   7  -4   3    1.96    0.22
  -7  -4  -3    1.33    0.19
   7  -4   3    1.62    0.20
   7   4   3    1.54    0.14
  -7   4  -3    1.93    0.23
  -8  -4  -3    0.02    0.06
  -8  -4  -3    0.08    0.07
  -8   4  -3    0.06    0.08
   8   4   3    0.04    0.04
   9  -5  -3    0.19    0.11
  -9   5   3    0.23    0.07
   9   5  -3    0.14    0.08
   8  -5  -3    1.24    0.20
   8   5  -3    1.00    0.16
  -8   5   3    0.94    0.12
   7  -5  -3    1.10    0.18
   7   5  -3    1.20    0.15
  -7   5   3    1.26    0.12
   6  -5  -3    0.81    0.14
   6   5  -3    0.98    0.13
  -6   5   3    1.10    0.10
   5  -5  -3    7.07    0.39
   5   5  -3    7.31    0.38
  -5   5   3    6.97    0.29
  -5   5   3    6.76    0.45
   5   5  -3    7.42    0.48
  -4  -5   3    3.88    0.26
  -4  -5   3    3.64    0.27
   4  -5  -3    3.50    0.23
   4   5  -3    3.66    0.29
   4   5  -3    3.71    0.23
  -4   5   3    3.53    0.27
  -3  -5   3    2.17    0.20
  -3  -5   3    2.42    0.19
   3  -5  -3    2.54    0.18
   3   5  -3    2.33    0.17
   3   5  -3    2.50    0.26
  -3   5   3    2.32    0.19
   3   5  -3    2.10    0.22
  -2  -5   3    1.20    0.15
   2  -5  -3    0.93    0.11
  -2  -5   3    1.14    0.15
   2   5  -3    1.21    0.17
   2   5  -3    0.99    0.13
   2   5  -3    1.20    0.13
  -2   5   3    0.93    0.13
   1  -5  -3    0.03    0.03
  -1  -5   3   -0.01    0.03
  -1  -5   3    0.06    0.04
   1   5  -3   -0.01    0.04
   1   5  -3    0.01    0.03
   1   5  -3    0.00    0.02
  -1   5   3    0.04    0.03
   0  -5   3    0.11    0.05
   0  -5  -3    0.08    0.04
   0  -5   3    0.01    0.03
   0   5  -3    0.05    0.05
   0   5  -3    0.00    0.03
   0   5   3    0.06    0.03
   0   5  -3    0.05    0.04
  -1  -5  -3    0.42    0.08
   1  -5   3    0.37    0.08
   1  -5   3    0.61    0.10
  -1   5  -3    0.40    0.08
   1   5   3    0.36    0.08
  -1   5  -3    0.41    0.10
   2  -5   3    1.49    0.16
   2  -5   3    1.19    0.15
  -2  -5  -3    1.70    0.13
  -2   5  -3    1.44    0.20
   2   5   3    1.74    0.15
  -2   5  -3    1.92    0.18
  -3  -5  -3    0.86    0.12
   3  -5   3    0.72    0.11
  -3   5  -3    0.52    0.12
   3   5   3    0.42    0.09
  -3   5  -3    0.57    0.11
  -4  -5  -3    2.03    0.20
  -4   5  -3    1.91    0.21
  -5  -5  -3    0.08    0.06
  -5   5  -3    0.17    0.07
   5   5   3    0.14    0.03
  -6  -5  -3    1.07    0.17
  -6   5  -3    0.67    0.14
   6   5   3    0.71    0.07
  -7  -5  -3    0.08    0.06
  -7   5  -3    0.06    0.08
   7   5   3    0.06    0.04
   8  -6  -3    0.55    0.15
   8   6  -3    1.04    0.16
  -8   6   3    0.65    0.08
   7  -6  -3    1.77    0.23
  -7   6   3    1.80    0.11
   7   6  -3    1.53    0.19
   6  -6  -3    0.47    0.11
   6   6  -3    0.37    0.09
   5  -6  -3    0.37    0.09
   5   6  -3    0.34    0.09
   4  -6  -3    0.96    0.14
   4   6  -3    0.99    0.18
   4   6  -3    1.22    0.15
  -3  -6   3    0.27    0.08
   3  -6  -3    0.47    0.09
   3   6  -3    0.73    0.11
   3   6  -3    0.45    0.12
   2  -6  -3    0.57    0.10
   2   6  -3    0.44    0.12
  -2   6   3    0.45    0.10
   2   6  -3    0.60    0.11
   2   6  -3    0.67    0.10
   1  -6  -3    1.01    0.13
   1   6  -3    1.25    0.19
  -1   6   3    1.28    0.16
   1   6  -3    0.95    0.13
   0  -6  -3    0.24    0.06
   0  -6   3    0.08    0.05
   0   6   3    0.18    0.06
   0   6  -3    0.23    0.07
   0   6  -3    0.27    0.10
  -1  -6  -3    1.38    0.15
   1  -6   3    1.76    0.21
  -1   6  -3    1.02    0.18
  -1   6  -3    1.34    0.16
   1   6   3    1.22    0.16
  -2  -6  -3    3.92    0.25
  -2   6  -3    4.03    0.26
  -2   6  -3    4.19    0.34
  -3  -6  -3    4.48    0.28
  -3   6  -3    4.19    0.28
  -4  -6  -3    0.91    0.14
  -4   6  -3    0.84    0.14
  -5  -6  -3    0.00    0.05
  -5   6  -3   -0.03    0.05
  -6  -6  -3    0.07    0.06
  -6   6  -3    0.14    0.09
   7  -7  -3    0.43    0.14
   7   7  -3    0.32    0.10
   6  -7  -3    0.44    0.12
   6   7  -3    0.46    0.10
   5  -7  -3    1.27    0.18
   5   7  -3    1.46    0.18
   4  -7  -3    0.32    0.09
   4   7  -3    0.61    0.12
   3  -7  -3    1.38    0.17
   3   7  -3    1.26    0.16
  -2  -7   3    0.07    0.06
   2  -7  -3    0.02    0.04
   2   7  -3    0.01    0.04
   2   7  -3   -0.02    0.06
   1  -7  -3    0.06    0.05
  -1  -7   3    0.10    0.06
   1   7  -3    0.01    0.06
   1   7  -3    0.00    0.04
   0  -7  -3    0.11    0.05
   0   7  -3    0.17    0.06
   0   7  -3    0.10    0.07
  -1  -7  -3    0.01    0.04
  -1   7  -3    0.02    0.05
  -2  -7  -3    0.39    0.09
  -2   7  -3    0.56    0.11
  -3  -7  -3    0.29    0.09
  -3   7  -3    0.37    0.10
  -4  -7  -3    0.24    0.09
  -4   7  -3    0.16    0.08
  -5  -7  -3    0.10    0.07
  -5   7  -3   -0.03    0.06
   5  -8  -3    0.09    0.08
   5   8  -3    0.10    0.07
   4  -8  -3    1.13    0.18
   4   8  -3    0.78    0.13
   3  -8  -3    0.12    0.07
   3   8  -3    0.11    0.07
   2  -8  -3    0.14    0.07
   2   8  -3    0.12    0.06
   1  -8  -3   -0.04    0.04
   1   8  -3    0.08    0.05
   0  -8  -3    0.12    0.07
   0   8  -3    0.03    0.05
  -1  -8  -3    0.15    0.07
  -1   8  -3    0.27    0.08
  -2  -8  -3    0.12    0.07
  -2   8  -3    0.01    0.06
  -3  -8  -3    0.65    0.13
  -3   8  -3    0.64    0.12
 -11   0   4    0.27    0.11
 -10   0   4    0.28    0.09
  -9   0   4    9.01    0.47
   8   0  -4    6.89    0.44
   8   0  -4    8.38    0.44
  -8   0   4    7.45    0.52
  -8   0   4    8.00    0.41
  -7   0   4    0.05    0.06
  -7   0   4   -0.01    0.03
   7   0  -4    0.02    0.04
   7   0  -4    0.07    0.05
  -6   0   4    3.87    0.29
   6   0  -4    3.71    0.24
  -6   0   4    3.76    0.21
   6   0  -4    3.51    0.23
   5   0  -4    0.42    0.08
  -5   0   4    0.40    0.08
  -5   0   4    0.28    0.05
   5   0  -4    0.54    0.08
   5   0  -4    0.21    0.06
  -5   0   4    0.32    0.07
  -5   0   4    0.31    0.08
   5   0  -4    0.45    0.07
   4   0  -4    5.26    0.26
  -4   0   4    4.62    0.29
  -4   0   4    4.50    0.27
  -4   0   4    4.13    0.27
  -4   0   4    4.65    0.22
  -4   0   4    4.86    0.26
   4   0  -4    4.80    0.28
   4   0  -4    5.18    0.23
   4   0  -4    4.93    0.26
  -4   0   4    4.96    0.22
   3   0  -4   42.49    1.73
  -3   0   4   40.37    1.57
   3   0  -4   39.52    1.88
  -3   0   4   40.21    1.89
  -3   0   4   41.39    1.88
  -3   0   4   42.87    1.56
  -3   0   4   41.68    1.73
   3   0  -4   40.22    1.66
   2   0  -4   20.90    0.92
   2   0  -4   21.45    0.99
  -2   0   4   21.80    0.92
  -2   0   4   21.89    0.98
  -2   0   4   21.22    0.99
   2   0  -4   20.35    0.99
   1   0  -4   51.12    2.38
  -1   0   4   54.08    2.38
   1   0  -4   54.04    2.38
  -1   0   4   51.78    2.38
   1   0  -4   52.72    2.19
   0   0  -4   10.19    0.53
   0   0   4   11.04    0.53
   0   0   4   11.46    0.53
   0   0  -4   11.64    0.54
  -1   0  -4   48.81    1.94
   1   0   4   49.85    1.84
   1   0   4   46.69    2.21
  -1   0  -4   48.42    2.22
   1   0   4   48.19    1.84
   1   0   4   49.17    2.22
   2   0   4    9.88    0.51
   2   0   4    9.73    0.40
   2   0   4    9.68    0.50
  -2   0  -4   10.30    0.44
   2   0   4    9.35    0.40
  -2   0  -4    9.41    0.51
   3   0   4    2.76    0.15
  -3   0  -4    2.68    0.17
   3   0   4    2.57    0.20
  -3   0  -4    2.71    0.16
   3   0   4    2.57    0.19
  -3   0  -4    2.37    0.20
  -4   0  -4    0.45    0.08
   4   0   4    0.30    0.05
   4   0   4    0.34    0.08
   5   0   4    0.13    0.07
   5   0   4    0.07    0.04
  -5   0  -4    0.18    0.06
   6   0   4    4.85    0.27
  -6   0  -4    4.60    0.30
   7   0   4    1.04    0.13
   7   0   4    1.10    0.19
  -7   0  -4    1.72    0.21
   8   0   4    1.30    0.16
   9   0   4    0.64    0.13
 -11  -1   4    0.58    0.14
 -11   1   4    0.92    0.15
 -10  -1   4    0.80    0.15
 -10   1   4    1.30    0.18
   9  -1  -4    0.05    0.06
  -9  -1   4   -0.02    0.05
  -9   1   4   -0.05    0.07
  -9   1   4    0.01    0.04
  -8  -1   4    4.19    0.36
   8  -1  -4    4.05    0.29
  -8  -1   4    4.06    0.27
  -8   1   4    4.31    0.26
  -8   1   4    3.76    0.33
   7  -1  -4    8.00    0.44
  -7  -1   4    8.41    0.53
  -7  -1   4    7.55    0.40
   7   1  -4    8.08    0.44
  -7   1   4    7.53    0.38
  -7   1   4    8.44    0.51
   6  -1  -4    0.04    0.03
  -6  -1   4    0.01    0.04
  -6  -1   4   -0.01    0.03
   6  -1  -4    0.04    0.04
  -6   1   4    0.03    0.03
   6   1  -4    0.01    0.04
   6   1  -4    0.01    0.03
   6   1  -4    0.03    0.03
  -6   1   4   -0.03    0.03
  -6   1   4    0.00    0.03
   5  -1  -4    0.22    0.06
  -5  -1   4    0.30    0.06
   5  -1  -4    0.29    0.05
  -5  -1   4    0.25    0.07
  -5  -1   4    0.32    0.08
  -5  -1   4    0.26    0.07
   5  -1  -4    0.34    0.07
  -5   1   4    0.24    0.06
  -5   1   4    0.27    0.07
   5   1  -4    0.26    0.07
   5   1  -4    0.29    0.07
  -5   1   4    0.32    0.05
  -5   1   4    0.28    0.05
   5   1  -4    0.17    0.04
   5   1  -4    0.24    0.06
  -5   1   4    0.31    0.05
   4  -1  -4   19.45    0.93
  -4  -1   4   19.03    0.79
   4  -1  -4   18.99    0.85
  -4  -1   4   18.68    0.87
   4  -1  -4   19.44    0.83
  -4  -1   4   20.17    0.98
  -4  -1   4   18.30    0.95
  -4   1   4   19.03    0.95
   4   1  -4   20.04    0.88
  -4   1   4   19.43    0.85
  -4   1   4   18.55    0.76
  -4   1   4   20.53    0.94
   4   1  -4   19.09    0.85
  -4   1   4   20.03    0.76
   4   1  -4   21.29    0.80
   4   1  -4   20.10    0.95
  -3  -1   4   33.58    1.35
  -3  -1   4   35.30    1.48
   3  -1  -4   35.96    1.59
  -3  -1   4   36.06    1.62
   3  -1  -4   34.77    1.46
   3  -1  -4   35.06    1.41
  -3  -1   4   36.11    1.64
   3   1  -4   35.12    1.48
   3   1  -4   34.70    1.43
  -3   1   4   32.30    1.60
   3   1  -4   32.89    1.35
  -3   1   4   34.66    1.46
   3   1  -4   37.55    1.62
  -3   1   4   33.30    1.59
  -2  -1   4    6.60    0.29
   2  -1  -4    6.75    0.32
  -2  -1   4    6.60    0.36
  -2  -1   4    6.51    0.35
  -2  -1   4    6.88    0.34
   2  -1  -4    6.65    0.32
   2   1  -4    6.59    0.37
  -2   1   4    7.04    0.33
   2   1  -4    6.81    0.36
   2   1  -4    6.95    0.34
   2   1  -4    6.96    0.32
  -2   1   4    6.76    0.33
  -1  -1   4    6.56    0.28
  -1  -1   4    6.11    0.32
  -1  -1   4    6.47    0.34
  -1  -1   4    6.51    0.35
   1   1  -4    7.07    0.33
   1   1  -4    6.40    0.35
   1   1  -4    7.04    0.35
   0  -1   4    0.82    0.09
   0  -1  -4    1.02    0.07
   0  -1   4    0.83    0.06
   0  -1   4    1.00    0.09
   0   1  -4    0.90    0.09
   0   1  -4    1.06    0.08
   0   1  -4    1.00    0.11
   0   1   4    0.92    0.06
   0   1   4    0.99    0.06
   0   1  -4    0.95    0.10
  -1  -1  -4    0.44    0.06
  -1  -1  -4    0.41    0.05
   1  -1   4    0.49    0.08
   1  -1   4    0.52    0.08
   1  -1   4    0.42    0.05
  -1   1  -4    0.36    0.06
  -1   1  -4    0.60    0.07
   1   1   4    0.37    0.06
   1   1   4    0.40    0.05
  -1   1  -4    0.32    0.06
   2  -1   4   20.98    0.85
  -2  -1  -4   22.37    1.04
  -2  -1  -4   21.58    0.89
   2  -1   4   22.58    1.04
   2  -1   4   21.67    1.04
   2  -1   4   20.37    0.85
  -2  -1  -4   21.09    0.89
   2   1   4   21.65    0.82
  -2   1  -4   20.30    0.87
   2   1   4   21.07    1.03
  -2   1  -4   22.43    1.05
   2   1   4   21.06    0.82
   2   1   4   21.52    1.01
  -2   1  -4   21.34    0.91
   3  -1   4   18.76    0.77
  -3  -1  -4   18.46    0.81
   3  -1   4   19.24    0.95
  -3  -1  -4   19.30    0.81
  -3  -1  -4   17.56    0.94
   3  -1   4   18.68    0.94
   3   1   4   17.85    0.92
   3   1   4   19.45    0.75
   3   1   4   19.80    0.94
  -3   1  -4   19.51    0.96
   3   1   4   18.40    0.75
  -3   1  -4   19.00    0.82
   4  -1   4    1.51    0.12
  -4  -1  -4    1.30    0.14
   4  -1   4    1.54    0.18
  -4   1  -4    1.64    0.16
   4   1   4    1.65    0.11
  -4   1  -4    1.68    0.17
   4   1   4    1.70    0.18
   5  -1   4    4.07    0.23
   5  -1   4    3.92    0.29
  -5  -1  -4    3.67    0.24
   5   1   4    3.46    0.28
   5   1   4    3.84    0.21
   5   1   4    4.04    0.29
  -5   1  -4    4.32    0.26
   6  -1   4    0.89    0.16
  -6  -1  -4    1.18    0.15
   6  -1   4    1.46    0.16
   6   1   4    1.05    0.12
   6   1   4    1.16    0.17
   6   1   4    1.32    0.19
  -7  -1  -4    0.65    0.14
   7  -1   4    0.89    0.13
   7   1   4    0.73    0.10
   8  -1   4    0.18    0.07
   8   1   4    0.28    0.07
   9  -1   4    1.13    0.17
   9   1   4    0.77    0.13
 -11  -2   4    0.18    0.10
 -11   2   4    0.05    0.07
 -10  -2   4    0.07    0.08
 -10   2   4    0.11    0.07
   9  -2  -4    6.22    0.41
  -9  -2   4    6.10    0.38
  -9   2   4    6.23    0.35
  -8  -2   4    2.37    0.23
   8  -2  -4    2.66    0.27
  -8   2   4    1.96    0.27
  -8   2   4    2.20    0.17
   8   2  -4    2.44    0.22
  -7  -2   4    2.38    0.22
  -7  -2   4    1.77    0.25
   7  -2  -4    2.26    0.22
   7   2  -4    2.27    0.21
  -7   2   4    2.03    0.15
  -7   2   4    2.02    0.25
  -6  -2   4    3.32    0.21
   6  -2  -4    3.35    0.22
  -6  -2   4    2.89    0.27
  -6   2   4    3.05    0.25
  -6   2   4    3.36    0.18
   6   2  -4    2.92    0.20
   6   2  -4    3.16    0.23
   6   2  -4    3.35    0.24
   5  -2  -4    4.42    0.23
   5  -2  -4    4.52    0.26
  -5  -2   4    4.72    0.25
  -5  -2   4    4.57    0.30
  -5  -2   4    4.44    0.32
  -5   2   4    4.47    0.30
  -5   2   4    4.47    0.21
   5   2  -4    4.43    0.28
  -5   2   4    4.20    0.23
   5   2  -4    4.55    0.25
   5   2  -4    4.47    0.30
  -5   2   4    4.90    0.21
   5   2  -4    4.40    0.28
  -4  -2   4    1.94    0.20
   4  -2  -4    1.68    0.12
  -4  -2   4    1.83    0.18
   4  -2  -4    1.77    0.11
  -4  -2   4    1.63    0.12
   4  -2  -4    1.81    0.13
   4   2  -4    1.70    0.12
   4   2  -4    1.53    0.16
  -4   2   4    1.35    0.10
   4   2  -4    1.90    0.16
  -4   2   4    1.63    0.13
  -4   2   4    1.54    0.14
  -3  -2   4   24.03    1.14
  -3  -2   4   24.15    0.94
  -3  -2   4   23.49    1.03
   3  -2  -4   21.58    1.07
  -3  -2   4   23.85    1.12
   3  -2  -4   23.98    0.95
   3  -2  -4   24.15    0.98
   3   2  -4   23.06    1.12
   3   2  -4   23.43    0.93
   3   2  -4   23.00    1.03
  -3   2   4   21.77    1.07
  -3   2   4   23.39    1.09
   3   2  -4   21.56    0.99
   2  -2  -4    2.70    0.12
  -2  -2   4    2.54    0.15
  -2  -2   4    2.59    0.18
  -2  -2   4    2.56    0.17
   2  -2  -4    2.22    0.14
   2  -2  -4    2.71    0.14
  -2  -2   4    2.54    0.19
   2   2  -4    2.72    0.18
  -2   2   4    2.53    0.14
   2   2  -4    2.84    0.18
   2   2  -4    2.64    0.15
  -2   2   4    2.70    0.14
   2   2  -4    2.55    0.16
  -1  -2   4    4.03    0.24
  -1  -2   4    3.88    0.24
  -1  -2   4    3.50    0.18
  -1  -2   4    3.54    0.21
   1   2  -4    3.77    0.21
   1   2  -4    3.54    0.24
   1   2  -4    3.51    0.23
   1   2  -4    3.91    0.21
   0  -2  -4   16.38    0.73
   0  -2   4   14.58    0.78
   0  -2   4   15.97    0.78
   0  -2   4   14.95    0.64
   0  -2  -4   16.16    0.63
   0  -2   4   15.74    0.70
   0   2  -4   15.46    0.79
   0   2  -4   15.37    0.65
   0   2  -4   15.86    0.69
   0   2  -4   16.07    0.71
   0   2   4   16.33    0.73
   0   2   4   15.84    0.72
   1  -2   4    2.23    0.13
   1  -2   4    2.16    0.17
  -1  -2  -4    2.38    0.15
  -1  -2  -4    1.98    0.11
   1  -2   4    2.27    0.17
   1   2   4    2.16    0.13
  -1   2  -4    2.99    0.15
  -1   2  -4    2.07    0.15
  -1   2  -4    2.35    0.18
  -1   2  -4    2.07    0.14
   1   2   4    2.03    0.14
  -2  -2  -4   15.55    0.79
   2  -2   4   17.79    0.82
   2  -2   4   15.55    0.66
  -2  -2  -4   16.96    0.68
   2  -2   4   14.62    0.81
  -2   2  -4   16.17    0.71
   2   2   4   16.43    0.79
  -2   2  -4   15.35    0.82
  -2   2  -4   15.57    0.68
   2   2   4   16.04    0.77
   3  -2   4    0.27    0.07
   3  -2   4    0.32    0.06
  -3  -2  -4    0.32    0.06
   3   2   4    0.37    0.08
  -3   2  -4    0.42    0.07
  -3   2  -4    0.32    0.09
   3   2   4    0.50    0.08
   3   2   4    0.38    0.04
   3   2   4    0.41    0.04
   4  -2   4    0.58    0.12
   4  -2   4    0.57    0.09
  -4  -2  -4    0.50    0.08
   4  -2   4    0.42    0.07
   4   2   4    0.48    0.10
  -4   2  -4    0.72    0.11
   4   2   4    0.61    0.06
  -4   2  -4    0.68    0.11
   5  -2   4    0.13    0.05
  -5  -2  -4    0.05    0.05
  -5  -2  -4    0.15    0.06
   5  -2   4    0.11    0.07
  -5   2  -4    0.07    0.05
   5   2   4    0.08    0.06
  -5   2  -4    0.19    0.07
   5   2   4    0.11    0.04
  -6  -2  -4    1.92    0.20
  -6  -2  -4    1.67    0.19
   6  -2   4    2.13    0.20
   6   2   4    1.92    0.23
   6   2   4    1.56    0.14
  -7  -2  -4    0.19    0.07
   7  -2   4    0.20    0.07
   7   2   4    0.15    0.05
   8  -2   4    1.00    0.15
  -8  -2  -4    0.66    0.14
   8   2   4    0.66    0.10
 -10  -3   4    0.23    0.10
 -10   3   4    0.39    0.10
  10   3  -4    0.42    0.11
   9  -3  -4    0.25    0.10
  -9  -3   4    0.17    0.09
  -9   3   4    0.27    0.07
   9   3  -4    0.09    0.06
  -8  -3   4    1.18    0.17
   8  -3  -4    1.26    0.18
  -8   3   4    0.94    0.12
   8   3  -4    1.32    0.17
  -7  -3   4    6.48    0.37
   7  -3  -4    6.52    0.38
  -7   3   4    6.65    0.31
   7   3  -4    6.76    0.36
  -7   3   4    5.71    0.43
  -6  -3   4    3.49    0.22
   6  -3  -4    3.08    0.21
  -6  -3   4    3.04    0.33
  -6   3   4    2.67    0.24
  -6   3   4    2.96    0.16
   6   3  -4    2.94    0.20
   5  -3  -4    0.82    0.11
  -5  -3   4    1.07    0.17
  -5  -3   4    0.86    0.12
   5   3  -4    1.10    0.15
   5   3  -4    0.81    0.13
   5   3  -4    1.09    0.16
   5   3  -4    0.64    0.10
  -5   3   4    0.92    0.14
  -5   3   4    0.93    0.05
  -4  -3   4    4.91    0.34
   4  -3  -4    4.89    0.23
   4  -3  -4    4.75    0.26
  -4  -3   4    4.47    0.32
  -4  -3   4    5.04    0.27
  -4   3   4    5.09    0.29
  -4   3   4    5.24    0.30
   4   3  -4    5.40    0.34
   4   3  -4    4.84    0.30
   4   3  -4    4.91    0.26
   4   3  -4    4.85    0.29
   3  -3  -4   34.02    1.64
  -3  -3   4   35.41    1.69
  -3  -3   4   35.84    1.42
   3  -3  -4   34.66    1.48
   3  -3  -4   36.78    1.45
  -3  -3   4   35.73    1.71
   3   3  -4   36.62    1.42
   3   3  -4   35.53    1.55
  -3   3   4   37.08    1.65
  -3   3   4   34.83    1.64
   3   3  -4   36.10    1.70
   3   3  -4   34.67    1.50
  -2  -3   4    0.05    0.04
  -2  -3   4    0.03    0.03
   2  -3  -4    0.05    0.02
  -2  -3   4    0.03    0.04
   2  -3  -4    0.05    0.02
  -2   3   4    0.03    0.02
   2   3  -4    0.04    0.04
   2   3  -4    0.02    0.03
   2   3  -4    0.08    0.04
  -2   3   4    0.06    0.02
   2   3  -4    0.07    0.04
  -1  -3   4    1.51    0.11
  -1  -3   4    1.32    0.13
  -1  -3   4    1.23    0.16
   1  -3  -4    1.57    0.08
   1  -3  -4    1.45    0.10
  -1  -3   4    1.66    0.17
   1   3  -4    1.43    0.11
   1   3  -4    1.47    0.16
   1   3  -4    1.41    0.14
   1   3  -4    1.84    0.16
  -1   3   4    1.46    0.10
  -1   3   4    1.70    0.10
   0  -3  -4    0.54    0.06
   0  -3   4    0.56    0.10
   0  -3   4    0.44    0.07
   0  -3   4    0.61    0.11
   0  -3   4    0.51    0.08
   0  -3  -4    0.49    0.05
   0   3  -4    0.63    0.09
   0   3  -4    0.60    0.10
   0   3   4    0.47    0.06
   0   3   4    0.44    0.06
   0   3  -4    0.37    0.07
   0   3  -4    0.39    0.07
   1  -3   4    0.04    0.03
  -1  -3  -4    0.02    0.02
  -1  -3  -4    0.08    0.03
   1  -3   4    0.07    0.04
   1  -3   4    0.06    0.05
   1   3   4    0.05    0.03
  -1   3  -4    0.06    0.03
  -1   3  -4    0.07    0.04
  -1   3  -4    0.02    0.04
  -1   3  -4    0.07    0.03
   1   3   4    0.05    0.03
  -2  -3  -4    3.20    0.18
   2  -3   4    3.00    0.24
   2  -3   4    2.97    0.18
   2  -3   4    3.85    0.26
   2   3   4    3.32    0.21
  -2   3  -4    2.62    0.23
  -2   3  -4    3.03    0.19
  -2   3  -4    3.27    0.20
  -2   3  -4    3.34    0.21
   2   3   4    3.21    0.22
   3  -3   4    2.50    0.17
  -3  -3  -4    2.17    0.16
   3  -3   4    2.66    0.22
  -3   3  -4    2.55    0.18
  -3   3  -4    2.56    0.23
   3   3   4    2.28    0.18
  -3   3  -4    2.37    0.18
  -3   3  -4    2.58    0.17
  -4  -3  -4    0.24    0.06
   4  -3   4    0.34    0.10
   4  -3   4    0.27    0.07
  -4   3  -4    0.30    0.08
   4   3   4    0.23    0.03
   4   3   4    0.37    0.09
   5  -3   4    0.27    0.07
  -5  -3  -4    0.21    0.08
   5  -3   4    0.18    0.07
   5   3   4    0.26    0.05
  -5   3  -4    0.27    0.08
   5   3   4    0.19    0.07
   6  -3   4    1.78    0.19
  -6  -3  -4    2.04    0.22
  -6   3  -4    1.39    0.20
   6   3   4    1.54    0.11
  -7  -3  -4    0.61    0.13
  -7  -3  -4    0.82    0.14
   7  -3   4    0.91    0.14
   7   3   4    0.73    0.09
  -8  -3  -4    0.60    0.14
   8  -3   4    0.62    0.12
   8   3   4    0.50    0.08
  10  -4  -4   -0.04    0.08
 -10   4   4    0.01    0.05
  10   4  -4    0.03    0.07
   9  -4  -4    3.52    0.35
  -9  -4   4    3.09    0.31
   9   4  -4    3.40    0.26
  -9   4   4    2.99    0.20
   8  -4  -4    0.87    0.16
  -8  -4   4    0.72    0.14
  -8   4   4    0.63    0.09
   8   4  -4    0.74    0.13
  -7  -4   4    0.82    0.14
   7  -4  -4    0.71    0.13
   7   4  -4    0.85    0.13
  -7   4   4    0.73    0.08
   6  -4  -4    1.49    0.17
  -6  -4   4    1.73    0.19
   6   4  -4    1.58    0.17
  -6   4   4    1.46    0.08
  -6   4   4    1.16    0.18
   5  -4  -4    0.35    0.07
  -5  -4   4    0.39    0.09
   5   4  -4    0.48    0.09
  -5   4   4    0.43    0.10
  -4  -4   4    0.76    0.15
   4  -4  -4    0.67    0.09
  -4  -4   4    0.67    0.11
   4   4  -4    0.80    0.13
  -4   4   4    0.52    0.10
   4   4  -4    0.67    0.12
   4   4  -4    0.68    0.10
  -3  -4   4   10.98    0.50
   3  -4  -4   10.30    0.48
  -3  -4   4   10.88    0.52
  -3  -4   4   11.24    0.62
   3   4  -4   10.91    0.55
   3   4  -4   10.24    0.49
  -3   4   4   10.66    0.56
  -3   4   4   10.86    0.55
   3   4  -4   10.78    0.54
   3   4  -4   10.15    0.59
  -2  -4   4    0.15    0.06
  -2  -4   4    0.14    0.06
  -2  -4   4    0.18    0.05
   2  -4  -4    0.17    0.04
   2   4  -4    0.18    0.05
   2   4  -4    0.04    0.04
  -2   4   4    0.13    0.04
   2   4  -4    0.23    0.07
  -2   4   4    0.12    0.04
   2   4  -4    0.11    0.05
  -1  -4   4    0.98    0.12
   1  -4  -4    1.14    0.08
   1  -4  -4    1.16    0.10
  -1  -4   4    1.38    0.18
  -1  -4   4    1.19    0.13
   1   4  -4    1.11    0.14
  -1   4   4    1.03    0.09
   1   4  -4    1.14    0.13
   1   4  -4    1.09    0.12
   1   4  -4    1.09    0.15
  -1   4   4    1.09    0.10
   0  -4   4    2.22    0.16
   0  -4   4    2.11    0.15
   0  -4  -4    1.87    0.12
   0  -4   4    2.17    0.20
   0   4  -4    1.82    0.14
   0   4  -4    2.05    0.16
   0   4   4    2.19    0.15
   0   4   4    1.99    0.15
   0   4  -4    2.30    0.20
   1  -4   4    0.67    0.09
   1  -4   4    0.80    0.11
  -1  -4  -4    0.68    0.08
   1  -4   4    0.93    0.15
  -1   4  -4    0.67    0.11
  -1   4  -4    0.67    0.12
  -1   4  -4    0.71    0.10
   1   4   4    0.69    0.09
  -1   4  -4    0.66    0.09
   1   4   4    0.55    0.09
  -2  -4  -4    3.32    0.20
   2  -4   4    3.33    0.21
   2  -4   4    3.24    0.26
   2   4   4    3.56    0.23
  -2   4  -4    3.48    0.28
  -2   4  -4    3.32    0.21
  -2   4  -4    3.44    0.21
   3  -4   4    0.30    0.07
  -3  -4  -4    0.39    0.07
   3   4   4    0.17    0.06
  -3   4  -4    0.24    0.07
  -4  -4  -4    0.08    0.05
   4  -4   4    0.05    0.05
  -4   4  -4    0.15    0.06
   4   4   4    0.06    0.05
  -5  -4  -4    0.15    0.06
   5  -4   4    0.21    0.07
  -5   4  -4    0.25    0.09
   6  -4   4    0.94    0.15
   6  -4   4    1.20    0.17
  -6  -4  -4    1.02    0.15
   6   4   4    1.15    0.08
  -6   4  -4    1.08    0.17
   7  -4   4    0.03    0.06
  -7  -4  -4    0.08    0.07
   7   4   4    0.20    0.05
  -7   4  -4    0.04    0.07
   8  -4   4    0.26    0.10
  -8  -4  -4    0.18    0.09
  -8  -4  -4    0.41    0.12
  -8   4  -4    0.71    0.16
   8   4   4    0.33    0.07
   9  -5  -4    0.16    0.09
   9   5  -4    0.17    0.09
  -9   5   4    0.30    0.06
   8  -5  -4    1.69    0.22
  -8   5   4    1.61    0.10
   8   5  -4    1.60    0.20
   7  -5  -4    5.37    0.35
   7   5  -4    5.17    0.32
   6  -5  -4    0.15    0.06
  -6  -5   4    0.14    0.07
   6   5  -4    0.18    0.07
   5  -5  -4    0.09    0.05
  -5  -5   4    0.11    0.07
  -5   5   4    0.07    0.06
   5   5  -4    0.14    0.06
  -4  -5   4    3.07    0.22
   4  -5  -4    2.59    0.19
  -4   5   4    2.91    0.23
   4   5  -4    2.87    0.20
  -3  -5   4    1.78    0.18
   3  -5  -4    1.46    0.15
   3   5  -4    1.78    0.19
   3   5  -4    1.39    0.20
   3   5  -4    1.87    0.19
  -3   5   4    1.65    0.18
  -2  -5   4    0.65    0.11
  -2  -5   4    0.67    0.11
   2  -5  -4    0.83    0.10
   2   5  -4    0.66    0.10
  -2   5   4    0.62    0.10
   2   5  -4    0.75    0.12
   2   5  -4    0.74    0.15
  -1  -5   4    0.07    0.04
  -1  -5   4    0.11    0.06
   1  -5  -4    0.05    0.03
   1   5  -4    0.03    0.03
   1   5  -4    0.09    0.05
   1   5  -4    0.09    0.06
  -1   5   4    0.04    0.03
   0  -5   4    2.49    0.22
   0  -5  -4    1.98    0.14
   0  -5   4    1.92    0.19
   0   5  -4    2.11    0.19
   0   5  -4    2.17    0.25
   0   5  -4    2.17    0.17
   0   5   4    2.30    0.17
  -1  -5  -4    0.02    0.03
   1  -5   4   -0.01    0.03
  -1   5  -4    0.02    0.05
  -1   5  -4    0.00    0.04
   1   5   4    0.09    0.04
   2  -5   4    5.87    0.33
  -2  -5  -4    6.18    0.33
  -2   5  -4    6.65    0.35
   2   5   4    6.03    0.37
   3  -5   4    2.09    0.20
  -3  -5  -4    2.16    0.17
  -3   5  -4    2.04    0.21
   4  -5   4    0.06    0.05
  -4  -5  -4    0.13    0.06
  -4   5  -4    0.17    0.07
   5  -5   4    0.90    0.15
  -5  -5  -4    0.81    0.13
  -5   5  -4    0.85    0.15
   6  -5   4    0.17    0.09
  -6  -5  -4    0.09    0.06
  -6   5  -4    0.24    0.09
  -7  -5  -4    0.07    0.07
  -7   5  -4    0.07    0.08
   8  -6  -4    0.24    0.11
   8   6  -4    0.37    0.11
   7  -6  -4    0.01    0.06
   7   6  -4   -0.04    0.05
   6  -6  -4    0.32    0.10
   6   6  -4    0.46    0.10
   5  -6  -4    0.05    0.06
   5   6  -4    0.18    0.07
   4  -6  -4    0.14    0.06
   4   6  -4    0.31    0.09
   3  -6  -4    2.82    0.19
   3   6  -4    2.64    0.20
   2  -6  -4    0.28    0.07
   2   6  -4    0.24    0.08
   2   6  -4    0.25    0.07
   1  -6  -4    1.02    0.12
   1   6  -4    1.32    0.16
  -1   6   4    1.10    0.14
   0  -6  -4    0.23    0.06
   0   6  -4    0.09    0.05
  -1  -6  -4    0.66    0.10
  -1   6  -4    0.67    0.12
  -2  -6  -4    0.34    0.08
  -2   6  -4    0.64    0.12
  -3  -6  -4    0.42    0.09
  -3   6  -4    0.37    0.10
  -4  -6  -4    0.72    0.12
  -4   6  -4    0.87    0.14
  -5  -6  -4    0.13    0.07
  -5   6  -4    0.12    0.08
  -6  -6  -4    0.75    0.16
  -6   6  -4    0.81    0.16
   7  -7  -4    2.16    0.27
   7   7  -4    1.90    0.22
   6  -7  -4    0.57    0.14
   6   7  -4    0.33    0.10
   5  -7  -4    0.04    0.05
   5   7  -4    0.00    0.05
   4  -7  -4    0.78    0.13
   4   7  -4    0.55    0.12
   3  -7  -4    1.09    0.15
   3   7  -4    1.05    0.15
   2  -7  -4    0.08    0.05
   2   7  -4    0.09    0.06
   1  -7  -4    0.02    0.04
   1   7  -4    0.01    0.05
   0  -7  -4    0.37    0.08
   0   7  -4    0.29    0.08
  -1  -7  -4    0.05    0.05
  -1   7  -4   -0.02    0.05
  -2  -7  -4    1.78    0.19
  -2   7  -4    2.00    0.21
  -3  -7  -4    0.29    0.09
  -3   7  -4    0.21    0.09
  -4  -7  -4    0.05    0.06
  -4   7  -4    0.09    0.07
  -5  -7  -4    0.10    0.08
  -5   7  -4    0.11    0.08
   5  -8  -4    0.00    0.06
   5   8  -4   -0.06    0.05
   4  -8  -4    0.13    0.08
   4   8  -4    0.14    0.07
   3  -8  -4    0.65    0.13
   3   8  -4    0.65    0.12
   2  -8  -4    0.26    0.08
   2   8  -4    0.18    0.08
   1  -8  -4    0.08    0.05
   1   8  -4   -0.04    0.05
   0  -8  -4    0.10    0.06
   0   8  -4    0.14    0.07
  -1  -8  -4    0.08    0.06
  -1   8  -4    0.03    0.06
  -2  -8  -4    0.34    0.09
  -2   8  -4    0.22    0.09
  -3  -8  -4    0.07    0.06
  -3   8  -4    0.13    0.08
 -11   0   5    1.25    0.19
 -10   0   5    0.25    0.09
   9   0  -5    0.13    0.08
  -9   0   5    0.18    0.07
  -9   0   5   -0.01    0.07
  -8   0   5    0.02    0.04
   8   0  -5    0.06    0.06
  -8   0   5   -0.05    0.06
   8   0  -5    0.09    0.05
   7   0  -5    7.74    0.43
  -7   0   5    7.85    0.38
  -7   0   5    7.71    0.50
   7   0  -5    7.82    0.42
  -6   0   5    5.58    0.38
   6   0  -5    5.52    0.32
   6   0  -5    5.73    0.33
  -6   0   5    5.76    0.28
  -5   0   5    2.66    0.19
   5   0  -5    2.65    0.18
   5   0  -5    2.63    0.18
   5   0  -5    2.53    0.19
  -5   0   5    2.41    0.14
  -5   0   5    2.84    0.21
  -4   0   5    4.65    0.21
   4   0  -5    4.64    0.25
  -4   0   5    4.58    0.20
  -4   0   5    4.45    0.26
  -4   0   5    4.72    0.29
  -4   0   5    4.77    0.27
  -4   0   5    4.35    0.27
   4   0  -5    4.77    0.26
   4   0  -5    4.87    0.28
  -3   0   5   31.02    1.46
  -3   0   5   32.04    1.34
  -3   0   5   31.88    1.45
   3   0  -5   31.38    1.28
   3   0  -5   31.01    1.34
   3   0  -5   30.76    1.45
   2   0  -5   47.41    1.94
  -2   0   5   44.30    1.93
   2   0  -5   46.91    2.10
  -2   0   5   45.39    2.11
  -2   0   5   47.63    2.10
   2   0  -5   45.71    1.85
   1   0  -5   15.27    0.69
  -1   0   5   15.82    0.73
   1   0  -5   14.86    0.63
   1   0  -5   15.81    0.73
  -1   0   5   15.53    0.73
   0   0  -5   15.62    0.76
   0   0  -5   15.94    0.66
   0   0   5   15.72    0.75
   0   0   5   16.30    0.76
  -1   0  -5    4.04    0.20
   1   0   5    4.03    0.16
   1   0   5    3.99    0.23
   1   0   5    3.97    0.24
  -1   0  -5    4.09    0.24
   1   0   5    3.80    0.16
   2   0   5    0.14    0.03
  -2   0  -5    0.20    0.06
  -2   0  -5    0.18    0.05
   2   0   5    0.07    0.04
   2   0   5    0.16    0.03
   2   0   5    0.16    0.05
   3   0   5    1.41    0.10
   3   0   5    1.50    0.16
  -3   0  -5    1.83    0.16
   4   0   5    4.79    0.23
  -4   0  -5    4.53    0.27
   4   0   5    4.14    0.30
  -5   0  -5    0.42    0.09
   5   0   5    0.39    0.11
   5   0   5    0.45    0.07
   6   0   5    0.38    0.10
   6   0   5    0.34    0.07
  -6   0  -5    0.51    0.11
  -7   0  -5    0.17    0.07
   7   0   5    0.02    0.04
   8   0   5    0.51    0.10
 -11  -1   5    0.04    0.07
 -11   1   5    0.01    0.06
 -10  -1   5    0.48    0.11
 -10   1   5    0.72    0.12
   9  -1  -5    2.52    0.27
  -9  -1   5    2.45    0.24
  -9   1   5    2.25    0.21
  -8  -1   5   19.73    1.06
  -8  -1   5   19.74    0.85
   8  -1  -5   18.82    0.91
  -8   1   5   18.79    0.82
  -8   1   5   19.14    1.05
  -7  -1   5    0.05    0.06
   7  -1  -5    0.02    0.04
  -7  -1   5    0.04    0.04
  -7   1   5    0.02    0.04
  -7   1   5    0.02    0.03
   7   1  -5    0.04    0.04
   7   1  -5    0.02    0.05
  -6  -1   5    0.34    0.07
  -6  -1   5    0.18    0.08
   6  -1  -5    0.26    0.06
   6  -1  -5    0.25    0.07
   6   1  -5    0.30    0.08
  -6   1   5    0.32    0.05
   6   1  -5    0.41    0.09
  -6   1   5    0.28    0.09
  -6   1   5    0.31    0.07
  -5  -1   5    4.49    0.29
  -5  -1   5    3.93    0.30
  -5  -1   5    4.36    0.23
   5  -1  -5    4.71    0.25
   5  -1  -5    4.31    0.25
  -5   1   5    4.64    0.27
   5   1  -5    4.31    0.23
   5   1  -5    3.79    0.25
   5   1  -5    4.23    0.28
  -5   1   5    4.59    0.20
  -5   1   5    4.58    0.29
  -5   1   5    4.26    0.25
   5   1  -5    4.37    0.27
  -5   1   5    4.42    0.20
  -4  -1   5   18.91    0.77
   4  -1  -5   19.80    0.84
  -4  -1   5   18.24    0.93
   4  -1  -5   18.79    0.91
   4  -1  -5   19.61    0.81
  -4  -1   5   19.03    0.95
   4   1  -5   19.20    0.94
   4   1  -5   19.88    0.87
  -4   1   5   19.20    0.91
  -4   1   5   18.03    0.84
   4   1  -5   19.32    0.83
  -4   1   5   18.83    0.93
   4   1  -5   19.04    0.78
   3  -1  -5    3.85    0.20
  -3  -1   5    3.42    0.22
  -3  -1   5    3.55    0.22
   3  -1  -5    3.57    0.20
  -3  -1   5    3.11    0.23
   3  -1  -5    3.48    0.18
  -3  -1   5    3.83    0.18
  -3  -1   5    3.75    0.18
  -3   1   5    3.74    0.21
   3   1  -5    3.83    0.23
  -3   1   5    3.46    0.20
   3   1  -5    3.69    0.21
  -3   1   5    3.99    0.21
   3   1  -5    3.68    0.22
   3   1  -5    3.61    0.19
   2  -1  -5   32.36    1.26
  -2  -1   5   30.38    1.22
  -2  -1   5   30.81    1.36
   2  -1  -5   31.69    1.44
  -2  -1   5   31.90    1.48
  -2  -1   5   31.00    1.22
  -2  -1   5   31.95    1.49
   2  -1  -5   32.47    1.35
   2   1  -5   31.64    1.48
   2   1  -5   31.82    1.36
  -2   1   5   32.86    1.44
   2   1  -5   32.05    1.30
  -2   1   5   31.90    1.44
  -1  -1   5    2.66    0.13
   1  -1  -5    2.77    0.13
  -1  -1   5    2.48    0.16
  -1  -1   5    2.54    0.12
  -1  -1   5    2.54    0.17
  -1  -1   5    2.69    0.17
  -1   1   5    2.61    0.13
   1   1  -5    2.40    0.15
  -1   1   5    2.68    0.13
   1   1  -5    2.62    0.17
   1   1  -5    2.71    0.17
   0  -1   5    1.08    0.07
   0  -1  -5    1.27    0.09
   0  -1  -5    1.27    0.07
   0  -1   5    1.23    0.11
   0  -1   5    1.34    0.11
   0  -1   5    1.26    0.08
   0   1  -5    1.22    0.11
   0   1   5    1.11    0.08
   0   1  -5    1.21    0.12
   0   1   5    1.17    0.08
   0   1  -5    1.20    0.09
  -1  -1  -5    1.84    0.11
   1  -1   5    1.88    0.15
  -1  -1  -5    2.05    0.14
   1  -1   5    2.04    0.16
  -1  -1  -5    2.02    0.11
   1  -1   5    2.03    0.11
   1  -1   5    1.71    0.11
   1  -1   5    1.97    0.11
   1   1   5    2.06    0.14
  -1   1  -5    2.20    0.13
  -1   1  -5    1.95    0.13
  -1   1  -5    2.08    0.15
   1   1   5    2.14    0.13
  -1   1  -5    1.95    0.16
   2  -1   5    5.75    0.26
  -2  -1  -5    5.82    0.28
  -2  -1  -5    5.81    0.34
   2  -1   5    5.94    0.34
   2  -1   5    4.99    0.33
  -2  -1  -5    5.93    0.28
  -2   1  -5    5.64    0.35
  -2   1  -5    5.44    0.28
  -2   1  -5    5.50    0.29
   2   1   5    5.43    0.32
   2   1   5    5.85    0.32
   3  -1   5    2.48    0.14
   3  -1   5    2.21    0.19
  -3  -1  -5    2.48    0.16
  -3   1  -5    2.15    0.16
   3   1   5    2.30    0.18
   3   1   5    2.37    0.12
   3   1   5    2.28    0.11
   4  -1   5   18.41    0.77
   4  -1   5   18.10    0.94
  -4  -1  -5   19.38    0.82
  -4   1  -5   17.60    0.83
   4   1   5   18.95    0.74
   4   1   5   17.72    0.93
   5  -1   5    4.60    0.35
  -5  -1  -5    4.88    0.30
   5  -1   5    5.28    0.28
   5   1   5    5.54    0.36
   5   1   5    4.98    0.25
  -5   1  -5    5.88    0.33
   5   1   5    5.03    0.35
  -6  -1  -5    0.06    0.06
   6  -1   5   -0.03    0.03
   6  -1   5    0.01    0.06
   6   1   5    0.00    0.03
  -6   1  -5   -0.06    0.05
   6   1   5    0.07    0.07
   7  -1   5    0.19    0.07
  -7  -1  -5    0.07    0.06
   7   1   5    0.05    0.04
   8  -1   5    0.11    0.06
   8   1   5    0.17    0.06
 -11  -2   5    0.23    0.10
 -11   2   5    0.16    0.08
 -10  -2   5    0.14    0.08
  10  -2  -5    0.12    0.09
 -10   2   5    0.39    0.09
  -9  -2   5    0.01    0.05
   9  -2  -5    0.14    0.08
  -9   2   5    0.20    0.06
  -8  -2   5    0.83    0.13
   8  -2  -5    0.62    0.13
  -8   2   5    0.85    0.11
  -8   2   5    0.55    0.14
  -7  -2   5    5.91    0.33
   7  -2  -5    5.53    0.34
  -7  -2   5    5.67    0.42
   7   2  -5    6.39    0.38
  -7   2   5    5.88    0.28
  -7   2   5    5.69    0.40
  -6  -2   5    0.55    0.13
   6  -2  -5    0.64    0.11
  -6  -2   5    0.47    0.09
   6   2  -5    0.57    0.11
  -6   2   5    0.53    0.11
   6   2  -5    0.52    0.09
   5  -2  -5    0.09    0.03
  -5  -2   5    0.03    0.05
   5  -2  -5    0.04    0.03
  -5  -2   5    0.11    0.04
   5   2  -5    0.10    0.04
   5   2  -5    0.13    0.05
  -5   2   5    0.13    0.04
   5   2  -5    0.04    0.04
  -5   2   5    0.08    0.04
  -4  -2   5    5.41    0.28
   4  -2  -5    5.52    0.31
   4  -2  -5    5.59    0.28
   4  -2  -5    5.84    0.31
  -4  -2   5    5.30    0.34
   4  -2  -5    5.96    0.29
  -4  -2   5    5.46    0.36
  -4   2   5    5.53    0.31
   4   2  -5    5.84    0.28
  -4   2   5    5.23    0.32
   4   2  -5    5.94    0.32
   4   2  -5    6.24    0.36
   4   2  -5    5.79    0.33
  -3  -2   5    1.30    0.16
   3  -2  -5    1.51    0.11
  -3  -2   5    1.49    0.14
   3  -2  -5    1.41    0.09
  -3  -2   5    1.44    0.10
   3  -2  -5    1.48    0.10
   3   2  -5    1.49    0.15
   3   2  -5    1.57    0.11
  -3   2   5    1.44    0.10
  -3   2   5    1.63    0.10
   3   2  -5    1.40    0.15
   3   2  -5    1.38    0.14
   2  -2  -5   10.57    0.51
  -2  -2   5   12.05    0.60
  -2  -2   5   11.28    0.48
  -2  -2   5   11.00    0.59
  -2   2   5   11.55    0.52
   2   2  -5   11.52    0.55
   2   2  -5   11.30    0.49
   2   2  -5   11.48    0.52
   2   2  -5   11.53    0.59
  -1  -2   5    0.02    0.02
  -1  -2   5    0.01    0.03
  -1  -2   5    0.02    0.03
  -1  -2   5    0.05    0.03
   1   2  -5    0.04    0.03
   1   2  -5    0.00    0.02
   1   2  -5    0.02    0.03
   1   2  -5    0.03    0.03
   0  -2  -5   34.91    1.41
   0  -2   5   36.03    1.68
   0  -2  -5   34.75    1.41
   0  -2   5   35.71    1.39
   0  -2   5   36.00    1.68
   0   2  -5   35.06    1.52
   0   2   5   36.13    1.61
   0   2  -5   35.39    1.68
   0   2  -5   35.81    1.40
   0   2   5   36.58    1.60
   0   2  -5   35.21    1.47
  -1  -2  -5    4.35    0.21
   1  -2   5    4.30    0.28
  -1  -2  -5    4.34    0.25
   1  -2   5    4.66    0.29
   1  -2   5    4.43    0.22
  -1   2  -5    3.92    0.28
   1   2   5    4.33    0.24
  -1   2  -5    3.82    0.25
  -1   2  -5    4.53    0.23
  -1   2  -5    4.90    0.25
   1   2   5    4.72    0.25
   2  -2   5    2.19    0.19
  -2  -2  -5    2.10    0.13
  -2  -2  -5    2.26    0.18
   2  -2   5    2.11    0.14
  -2   2  -5    2.14    0.16
  -2   2  -5    2.42    0.20
   2   2   5    2.17    0.16
  -2   2  -5    2.33    0.16
   2   2   5    2.25    0.15
  -2   2  -5    2.20    0.16
   3  -2   5    0.43    0.08
   3  -2   5    0.47    0.08
  -3  -2  -5    0.37    0.07
   3  -2   5    0.33    0.09
  -3   2  -5    0.48    0.09
  -3   2  -5    0.46    0.09
   3   2   5    0.42    0.08
   4  -2   5    1.79    0.22
  -4  -2  -5    2.11    0.16
  -4  -2  -5    2.06    0.16
   4  -2   5    2.21    0.15
  -4   2  -5    1.93    0.19
   4   2   5    2.06    0.18
   4   2   5    2.00    0.10
  -5  -2  -5    2.29    0.21
  -5  -2  -5    2.33    0.21
   5  -2   5    2.03    0.18
   5  -2   5    2.12    0.24
   5   2   5    2.29    0.21
   5   2   5    1.98    0.12
  -6  -2  -5   -0.02    0.04
   6  -2   5    0.01    0.04
   6   2   5    0.02    0.03
  -7  -2  -5    0.12    0.07
   7  -2   5    0.05    0.05
   7   2   5    0.08    0.04
   8  -2   5    0.84    0.14
  -8  -2  -5    1.11    0.18
   8   2   5    0.91    0.12
 -10  -3   5    0.03    0.07
  10  -3  -5    0.01    0.08
 -10   3   5    0.05    0.04
   9  -3  -5    0.28    0.10
  -9  -3   5    0.32    0.10
  -9   3   5    0.32    0.07
   8  -3  -5   15.42    0.77
  -8  -3   5   15.62    0.74
  -8   3   5   15.98    0.66
  -7  -3   5    1.33    0.16
   7  -3  -5    1.58    0.18
  -7   3   5    1.51    0.09
  -7   3   5    1.26    0.19
   7   3  -5    1.36    0.16
  -6  -3   5    0.65    0.14
  -6  -3   5    0.65    0.11
   6  -3  -5    0.71    0.11
   6   3  -5    0.84    0.14
   6   3  -5    0.64    0.11
  -6   3   5    0.70    0.13
   5  -3  -5    7.14    0.35
  -5  -3   5    6.21    0.43
  -5  -3   5    6.33    0.34
  -5   3   5    7.20    0.40
   5   3  -5    6.55    0.38
   5   3  -5    6.53    0.39
   5   3  -5    6.31    0.34
   4  -3  -5    0.58    0.08
  -4  -3   5    0.49    0.11
  -4  -3   5    0.68    0.10
   4  -3  -5    0.56    0.06
   4   3  -5    0.65    0.12
   4   3  -5    0.73    0.12
  -4   3   5    0.61    0.08
   4   3  -5    0.50    0.10
   4   3  -5    0.54    0.08
  -4   3   5    0.54    0.09
   3  -3  -5    2.31    0.15
   3  -3  -5    2.01    0.13
  -3  -3   5    2.26    0.20
  -3  -3   5    2.55    0.20
   3  -3  -5    2.43    0.13
  -3  -3   5    2.45    0.15
  -3   3   5    2.14    0.15
   3   3  -5    2.22    0.15
   3   3  -5    2.28    0.18
   3   3  -5    2.26    0.19
   3   3  -5    2.02    0.19
  -3   3   5    2.32    0.14
  -2  -3   5    4.05    0.28
  -2  -3   5    4.39    0.28
  -2  -3   5    3.86    0.21
   2  -3  -5    3.94    0.18
   2  -3  -5    3.93    0.18
   2   3  -5    3.84    0.25
   2   3  -5    3.90    0.27
   2   3  -5    4.17    0.22
  -2   3   5    3.59    0.20
  -2   3   5    3.86    0.20
   1  -3  -5    1.55    0.07
  -1  -3   5    1.43    0.11
  -1  -3   5    1.82    0.19
  -1  -3   5    1.24    0.16
   1  -3  -5    1.49    0.07
   1   3  -5    1.62    0.18
   1   3  -5    1.66    0.12
  -1   3   5    1.45    0.08
  -1   3   5    1.43    0.08
   1   3  -5    1.72    0.16
   0  -3   5    0.61    0.10
   0  -3  -5    0.50    0.05
   0  -3   5    0.59    0.08
   0  -3  -5    0.56    0.05
   0  -3   5    0.30    0.08
   0   3   5    0.53    0.06
   0   3  -5    0.60    0.11
   0   3   5    0.43    0.05
   0   3  -5    0.44    0.08
   0   3  -5    0.37    0.07
   1  -3   5    7.58    0.37
  -1  -3  -5    7.84    0.35
   1  -3   5    7.46    0.46
   1   3   5    8.20    0.41
  -1   3  -5    7.83    0.38
   1   3   5    7.71    0.39
  -1   3  -5    7.02    0.46
  -1   3  -5    8.31    0.41
  -2  -3  -5    0.06    0.03
   2  -3   5    0.04    0.03
   2  -3   5    0.06    0.05
   2   3   5    0.03    0.02
  -2   3  -5    0.01    0.02
  -2   3  -5    0.03    0.04
  -2   3  -5    0.01    0.03
   3  -3   5    0.37    0.07
  -3  -3  -5    0.33    0.07
   3  -3   5    0.23    0.08
  -3   3  -5    0.38    0.08
   3   3   5    0.35    0.08
  -3   3  -5    0.30    0.08
  -3   3  -5    0.24    0.07
  -4  -3  -5   16.86    0.77
   4  -3   5   17.05    0.74
   4  -3   5   16.67    0.92
  -4   3  -5   17.53    0.81
   4   3   5   16.54    0.87
  -4   3  -5   17.79    0.78
   5  -3   5    2.27    0.21
  -5  -3  -5    1.82    0.19
   5  -3   5    2.50    0.19
   6  -3   5    0.07    0.05
  -6  -3  -5    0.03    0.05
  -6  -3  -5    0.00    0.04
   6   3   5    0.03    0.02
   7  -3   5    0.62    0.12
  -7  -3  -5    0.47    0.12
   7   3   5    0.38    0.06
   8  -3   5    0.04    0.06
  -8  -3  -5    0.12    0.09
   8   3   5    0.03    0.04
  10  -4  -5    0.27    0.12
 -10  -4   5    0.18    0.10
  10   4  -5    0.13    0.09
 -10   4   5    0.15    0.05
   9  -4  -5    0.02    0.07
  -9  -4   5    0.09    0.08
  -9   4   5    0.09    0.04
   9   4  -5    0.05    0.07
   8  -4  -5    0.00    0.05
  -8  -4   5    0.01    0.06
   8   4  -5    0.15    0.08
  -7  -4   5    2.59    0.25
   7  -4  -5    2.90    0.22
   7   4  -5    2.37    0.23
   6  -4  -5    0.76    0.12
  -6  -4   5    0.77    0.13
  -6   4   5    0.56    0.12
   6   4  -5    0.77    0.12
   5  -4  -5    0.03    0.03
  -5  -4   5    0.02    0.04
  -5   4   5    0.00    0.04
   5   4  -5    0.00    0.04
  -4  -4   5    1.03    0.13
  -4  -4   5    1.10    0.18
   4  -4  -5    1.10    0.12
  -4   4   5    1.31    0.14
   4   4  -5    0.95    0.15
   4   4  -5    1.06    0.16
   4   4  -5    0.94    0.12
  -3  -4   5    1.93    0.23
   3  -4  -5    2.29    0.14
  -3  -4   5    2.28    0.17
   3   4  -5    2.46    0.25
  -3   4   5    2.26    0.16
   3   4  -5    1.86    0.20
  -3   4   5    2.29    0.16
   3   4  -5    2.21    0.16
   2  -4  -5    2.82    0.15
  -2  -4   5    2.60    0.18
  -2  -4   5    2.72    0.23
   2   4  -5    2.36    0.17
   2   4  -5    2.58    0.20
   2   4  -5    2.55    0.23
  -2   4   5    2.44    0.16
  -2   4   5    2.50    0.16
   2   4  -5    1.96    0.23
  -1  -4   5   -0.01    0.03
  -1  -4   5    0.01    0.04
   1  -4  -5    0.00    0.01
   1   4  -5   -0.02    0.03
   1   4  -5    0.01    0.03
   1   4  -5   -0.01    0.04
  -1   4   5    0.00    0.02
   1   4  -5    0.04    0.05
  -1   4   5    0.01    0.02
   0  -4   5    8.10    0.48
   0  -4   5    7.46    0.38
   0  -4  -5    7.96    0.35
   0   4  -5    8.23    0.39
   0   4  -5    7.56    0.48
   0   4   5    7.38    0.40
   0   4  -5    7.86    0.41
   0   4  -5    8.25    0.42
   0   4   5    7.75    0.40
   1  -4   5    0.32    0.07
  -1  -4  -5    0.25    0.05
   1  -4   5    0.17    0.07
  -1   4  -5    0.25    0.06
  -1   4  -5    0.23    0.07
   1   4   5    0.31    0.06
  -2  -4  -5    0.26    0.05
   2  -4   5    0.15    0.05
   2  -4   5    0.26    0.09
  -2   4  -5    0.20    0.06
   2   4   5    0.25    0.06
  -2   4  -5    0.26    0.06
   3  -4   5    0.07    0.05
  -3  -4  -5    0.08    0.04
  -3   4  -5    0.08    0.05
   3   4   5    0.05    0.04
  -4  -4  -5    0.99    0.13
   4  -4   5    1.03    0.14
  -4   4  -5    0.86    0.14
   5  -4   5    1.06    0.15
  -5  -4  -5    1.54    0.17
  -5   4  -5    1.55    0.20
  -6  -4  -5    0.08    0.07
   6  -4   5    0.09    0.06
   6  -4   5    0.07    0.07
  -7  -4  -5    0.04    0.06
  -7  -4  -5    0.27    0.09
   7  -4   5    0.03    0.06
   9  -5  -5    0.51    0.14
  -9  -5   5    0.39    0.12
   9   5  -5    0.30    0.11
  -8  -5   5    6.04    0.39
   8  -5  -5    6.35    0.41
   8   5  -5    5.85    0.37
  -7  -5   5   -0.03    0.05
   7  -5  -5    0.07    0.05
   7   5  -5   -0.04    0.04
  -6  -5   5    0.11    0.07
   6  -5  -5    0.13    0.06
   6   5  -5    0.04    0.05
   5  -5  -5    1.02    0.13
  -5  -5   5    0.85    0.13
   5   5  -5    1.28    0.16
   4  -5  -5    3.41    0.22
  -4  -5   5    3.59    0.24
   4   5  -5    3.32    0.23
  -4   5   5    3.31    0.24
  -3  -5   5    0.06    0.05
   3  -5  -5    0.04    0.03
   3   5  -5    0.04    0.05
  -3   5   5    0.01    0.03
   3   5  -5    0.04    0.05
  -2  -5   5    7.12    0.37
   2  -5  -5    7.28    0.34
   2   5  -5    6.88    0.41
   2   5  -5    6.87    0.36
  -2   5   5    6.77    0.38
   1  -5  -5    0.81    0.09
  -1  -5   5    0.76    0.11
   1   5  -5    0.80    0.12
   1   5  -5    0.98    0.13
  -1   5   5    0.68    0.09
   0  -5  -5    0.60    0.08
   0  -5   5    0.51    0.10
   0   5   5    0.58    0.08
   0   5  -5    0.61    0.11
   0   5  -5    0.82    0.12
  -1  -5  -5    1.05    0.11
   1  -5   5    0.68    0.11
   1   5   5    0.99    0.12
  -1   5  -5    1.03    0.14
   2  -5   5    0.10    0.05
  -2  -5  -5    0.14    0.05
   2   5   5    0.21    0.06
  -2   5  -5    0.21    0.07
   3  -5   5    0.10    0.06
  -3  -5  -5    0.13    0.05
  -3   5  -5    0.09    0.06
  -4  -5  -5    3.21    0.23
   4  -5   5    3.41    0.24
  -4   5  -5    3.05    0.28
  -5  -5  -5    2.27    0.24
   5  -5   5    2.41    0.25
  -5   5  -5    2.59    0.28
   6  -5   5   -0.07    0.05
   6  -5   5    0.04    0.06
  -6  -5  -5    0.04    0.05
  -6   5  -5    0.01    0.07
   8  -6  -5    0.47    0.13
   8   6  -5    0.32    0.10
   7  -6  -5    1.87    0.23
   7   6  -5    1.66    0.22
   6  -6  -5    1.14    0.16
   6   6  -5    0.92    0.15
   5  -6  -5    0.39    0.09
   5   6  -5    0.39    0.10
   4  -6  -5    0.26    0.07
  -4  -6   5    0.26    0.09
   4   6  -5    0.52    0.11
  -3  -6   5    2.58    0.24
   3  -6  -5    2.45    0.18
   3   6  -5    2.89    0.21
   2  -6  -5    1.59    0.16
  -2  -6   5    1.55    0.19
   2   6  -5    1.67    0.19
  -1  -6   5    0.11    0.06
   1  -6  -5    0.01    0.03
   1   6  -5    0.06    0.05
   0  -6   5    0.41    0.10
   0  -6  -5    0.59    0.09
   0   6  -5    1.06    0.15
   1  -6   5    0.05    0.05
  -1  -6  -5    0.06    0.04
  -1   6  -5    0.12    0.06
  -2  -6  -5    0.08    0.04
   2  -6   5    0.05    0.05
  -2   6  -5    0.09    0.06
   3  -6   5    0.02    0.05
  -3  -6  -5    0.02    0.04
  -3   6  -5    0.05    0.06
  -4  -6  -5    0.24    0.08
  -4   6  -5    0.21    0.10
  -5  -6  -5    0.30    0.09
  -5   6  -5    0.39    0.12
   7  -7  -5    0.08    0.08
   7   7  -5    0.16    0.08
   6  -7  -5    0.03    0.06
   6   7  -5   -0.03    0.06
   5  -7  -5    0.82    0.14
   5   7  -5    0.53    0.12
   4  -7  -5    0.28    0.08
   4   7  -5    0.50    0.11
   3  -7  -5    0.03    0.04
   3   7  -5    0.06    0.05
   2  -7  -5    1.80    0.18
   2   7  -5    1.76    0.20
   1  -7  -5    0.07    0.05
   1   7  -5    0.25    0.08
   0  -7  -5    0.20    0.06
   0   7  -5    0.16    0.08
  -1  -7  -5    0.60    0.10
  -1   7  -5    0.88    0.14
  -2  -7  -5    0.03    0.04
  -2   7  -5    0.09    0.07
  -3  -7  -5    0.00    0.05
  -3   7  -5    0.00    0.06
  -4  -7  -5    1.05    0.17
  -4   7  -5    1.41    0.20
   4  -8  -5    0.26    0.09
   4   8  -5    0.37    0.10
   3  -8  -5    0.02    0.05
   3   8  -5    0.05    0.06
   2  -8  -5    0.19    0.08
   2   8  -5    0.12    0.08
   1  -8  -5    0.03    0.05
   1   8  -5    0.07    0.07
   0  -8  -5    1.39    0.18
   0   8  -5    1.28    0.19
  -1  -8  -5   -0.05    0.04
  -1   8  -5    0.09    0.07
  -2  -8  -5    0.18    0.08
  -2   8  -5    0.10    0.08
 -11   0   6    0.84    0.15
 -10   0   6    0.60    0.12
  -9   0   6    0.08    0.05
   9   0  -6    0.08    0.07
   8   0  -6    2.16    0.22
  -8   0   6    2.11    0.19
   8   0  -6    2.08    0.23
  -8   0   6    2.13    0.27
   7   0  -6    0.06    0.05
   7   0  -6    0.22    0.07
  -7   0   6    0.06    0.03
  -7   0   6    0.03    0.05
   6   0  -6    1.11    0.14
   6   0  -6    1.11    0.14
  -6   0   6    1.14    0.17
  -6   0   6    1.11    0.10
   5   0  -6    0.13    0.05
   5   0  -6    0.15    0.05
  -5   0   6    0.21    0.03
  -5   0   6    0.27    0.04
  -5   0   6    0.20    0.07
   4   0  -6    0.12    0.04
   4   0  -6    0.05    0.03
   4   0  -6    0.10    0.04
  -4   0   6    0.06    0.03
  -4   0   6    0.11    0.05
  -3   0   6   28.96    1.33
  -3   0   6   28.41    1.24
   3   0  -6   28.34    1.24
   3   0  -6   28.67    1.18
   3   0  -6   29.16    1.33
  -3   0   6   28.23    1.34
   2   0  -6  106.89    4.26
   2   0  -6  112.87    4.84
  -2   0   6  106.41    4.44
  -2   0   6  109.06    4.84
  -2   0   6  103.64    4.83
   2   0  -6  106.94    4.44
  -1   0   6   45.26    2.09
   1   0  -6   46.73    1.95
  -1   0   6   46.55    2.09
   1   0  -6   47.40    1.84
   1   0  -6   43.95    2.09
   0   0  -6    1.71    0.11
   0   0  -6    1.68    0.13
   0   0   6    1.64    0.12
   0   0  -6    1.76    0.14
   0   0   6    1.60    0.12
   1   0   6    5.35    0.31
  -1   0  -6    5.10    0.31
   1   0   6    5.75    0.31
  -1   0  -6    5.34    0.27
   2   0   6    6.61    0.38
   2   0   6    6.85    0.28
   2   0   6    6.87    0.28
  -2   0  -6    6.83    0.34
   3   0   6    0.63    0.07
   3   0   6    0.56    0.10
  -3   0  -6    0.68    0.09
   4   0   6    5.93    0.38
  -4   0  -6    6.10    0.34
   4   0   6    5.99    0.28
   5   0   6    2.66    0.16
  -5   0  -6    2.80    0.22
   5   0   6    2.41    0.27
   6   0   6    0.18    0.06
  -6   0  -6    0.11    0.06
  -7   0  -6    0.86    0.16
   7   0   6    0.86    0.12
   8   0   6    0.71    0.11
 -11  -1   6    0.70    0.14
 -11   1   6    0.81    0.13
 -10  -1   6   -0.03    0.05
  10  -1  -6   -0.04    0.07
 -10   1   6    0.03    0.05
  -9  -1   6    4.43    0.26
   9  -1  -6    3.53    0.29
  -9  -1   6    3.63    0.41
  -9   1   6    3.55    0.22
   9   1  -6    3.65    0.34
  -8  -1   6    3.03    0.33
  -8  -1   6    2.99    0.20
   8  -1  -6    3.04    0.24
  -8   1   6    3.05    0.33
  -8   1   6    3.03    0.18
   8   1  -6    2.71    0.27
  -7  -1   6    0.03    0.03
   7  -1  -6    0.00    0.04
  -7  -1   6    0.04    0.05
  -7   1   6    0.02    0.05
   7   1  -6   -0.03    0.04
  -7   1   6    0.02    0.02
   7   1  -6    0.09    0.06
   6  -1  -6    2.93    0.21
   6  -1  -6    3.56    0.22
  -6  -1   6    3.73    0.28
  -6  -1   6    3.25    0.19
   6   1  -6    3.45    0.24
   6   1  -6    3.62    0.24
  -6   1   6    3.16    0.25
  -6   1   6    3.57    0.16
  -5  -1   6    0.74    0.12
   5  -1  -6    0.64    0.09
   5  -1  -6    0.79    0.10
  -5  -1   6    0.54    0.07
  -5   1   6    0.60    0.09
   5   1  -6    0.60    0.10
  -5   1   6    0.61    0.09
   5   1  -6    0.46    0.08
  -5   1   6    0.76    0.11
   4  -1  -6   21.49    0.94
  -4  -1   6   18.99    0.96
  -4  -1   6   19.56    0.79
   4  -1  -6   19.76    0.84
  -4  -1   6   18.86    0.78
  -4  -1   6   19.48    0.98
   4  -1  -6   19.59    0.88
  -4   1   6   20.01    0.96
  -4   1   6   20.50    0.88
   4   1  -6   20.05    0.91
  -4   1   6   20.18    0.94
   4   1  -6   19.64    0.86
   4   1  -6   19.15    0.97
  -3  -1   6    1.64    0.13
  -3  -1   6    1.68    0.14
  -3  -1   6    1.91    0.10
  -3  -1   6    1.66    0.10
   3  -1  -6    1.64    0.11
   3  -1  -6    1.69    0.10
   3  -1  -6    1.95    0.14
   3   1  -6    1.73    0.13
  -3   1   6    1.73    0.11
   3   1  -6    1.90    0.14
  -3   1   6    1.70    0.12
   3   1  -6    1.80    0.14
   2  -1  -6    0.22    0.03
  -2  -1   6    0.08    0.04
   2  -1  -6    0.15    0.02
  -2  -1   6    0.18    0.03
  -2  -1   6    0.12    0.02
   2  -1  -6    0.15    0.04
  -2  -1   6    0.10    0.04
  -2   1   6    0.20    0.03
   2   1  -6    0.13    0.04
   2   1  -6    0.13    0.04
   2   1  -6    0.15    0.05
  -2   1   6    0.10    0.02
   1  -1  -6    5.20    0.29
  -1  -1   6    4.99    0.30
  -1  -1   6    5.14    0.22
  -1  -1   6    5.30    0.22
  -1  -1   6    5.16    0.29
   1  -1  -6    5.55    0.22
   1   1  -6    5.21    0.29
   1   1  -6    4.71    0.30
  -1   1   6    5.14    0.25
   1   1  -6    4.85    0.26
  -1   1   6    5.30    0.25
   0  -1   6   49.24    2.27
   0  -1   6   47.79    1.87
   0  -1  -6   50.12    2.23
   0  -1   6   49.59    1.87
   0  -1   6   48.51    2.26
   0  -1  -6   48.50    1.96
   0  -1   6   50.08    1.88
   0   1   6   49.54    2.23
   0   1  -6   49.79    1.99
   0   1   6   48.16    2.22
   0   1  -6   49.75    2.08
   0   1  -6   49.34    2.27
   1  -1   6    4.86    0.22
   1  -1   6    4.05    0.28
  -1  -1  -6    4.63    0.27
   1  -1   6    4.51    0.29
   1  -1   6    4.47    0.21
  -1  -1  -6    4.86    0.23
   1   1   6    4.46    0.26
  -1   1  -6    4.94    0.25
  -1   1  -6    4.41    0.29
  -1   1  -6    4.98    0.28
   1   1   6    4.96    0.26
   2  -1   6    5.82    0.35
  -2  -1  -6    5.84    0.29
   2  -1   6    5.53    0.26
  -2   1  -6    5.76    0.31
   2   1   6    5.83    0.34
   2   1   6    5.72    0.33
  -3  -1  -6    4.30    0.24
   3  -1   6    4.54    0.30
   3  -1   6    4.09    0.22
  -3   1  -6    4.68    0.26
   3   1   6    3.89    0.27
  -4  -1  -6    9.66    0.46
   4  -1   6    8.43    0.40
   4  -1   6    9.10    0.53
   4   1   6    8.37    0.50
   4   1   6    8.88    0.37
  -4   1  -6    8.69    0.46
  -5  -1  -6    3.92    0.26
   5  -1   6    3.50    0.30
   5  -1   6    3.68    0.22
  -5   1  -6    3.89    0.27
   5   1   6    4.11    0.30
   5   1   6    3.79    0.19
   5   1   6    3.31    0.28
   6  -1   6    0.21    0.06
  -6  -1  -6    0.29    0.08
  -6   1  -6    0.17    0.08
   6   1   6    0.21    0.05
  -7  -1  -6    0.12    0.07
   7  -1   6    0.04    0.05
   7   1   6   -0.01    0.03
  -8  -1  -6    0.17    0.10
   8  -1   6    0.10    0.06
   8   1   6    0.19    0.06
 -11  -2   6    0.89    0.16
 -11   2   6    0.70    0.12
  10  -2  -6    0.07    0.07
 -10  -2   6    0.09    0.07
 -10   2   6    0.02    0.04
   9  -2  -6    0.34    0.11
  -9  -2   6    0.23    0.08
  -9   2   6    0.20    0.05
  -8  -2   6    1.94    0.20
   8  -2  -6    1.67    0.21
  -8  -2   6    1.45    0.24
  -8   2   6    1.36    0.10
  -7  -2   6    0.83    0.16
  -7  -2   6    1.02    0.13
   7  -2  -6    0.88    0.14
   7   2  -6    0.93    0.15
  -7   2   6    0.76    0.14
  -7   2   6    0.86    0.05
  -6  -2   6    3.50    0.30
   6  -2  -6    3.91    0.24
  -6  -2   6    3.49    0.22
   6   2  -6    3.93    0.27
  -6   2   6    4.05    0.28
   6   2  -6    3.59    0.26
  -5  -2   6    0.15    0.06
  -5  -2   6    0.32    0.06
   5  -2  -6    0.23    0.05
   5  -2  -6    0.22    0.05
   5   2  -6    0.29    0.07
  -5   2   6    0.19    0.06
   5   2  -6    0.18    0.06
  -5   2   6    0.23    0.05
   4  -2  -6    8.45    0.42
  -4  -2   6    8.97    0.40
  -4  -2   6    8.69    0.51
   4  -2  -6    8.61    0.40
   4  -2  -6    8.96    0.45
   4   2  -6    8.48    0.41
   4   2  -6    9.20    0.47
   4   2  -6    9.29    0.45
  -4   2   6    9.40    0.45
  -4   2   6    8.62    0.46
  -3  -2   6   25.19    1.14
   3  -2  -6   25.76    1.02
  -3  -2   6   22.14    1.14
   3  -2  -6   23.85    0.94
   3  -2  -6   22.13    0.94
  -3  -2   6   22.91    0.93
   3   2  -6   22.98    1.00
   3   2  -6   23.43    0.94
  -3   2   6   23.32    1.07
   3   2  -6   21.71    1.13
   3   2  -6   23.59    1.05
  -3   2   6   22.22    1.06
   2  -2  -6   28.96    1.31
  -2  -2   6   30.46    1.20
  -2  -2   6   31.17    1.45
  -2  -2   6   29.83    1.46
   2   2  -6   31.42    1.21
   2   2  -6   30.94    1.46
   2   2  -6   31.50    1.28
   2   2  -6   29.63    1.33
  -1  -2   6    9.41    0.52
  -1  -2   6   10.21    0.53
  -1  -2   6    9.95    0.42
   1   2  -6    9.99    0.47
   1   2  -6    9.46    0.49
   1   2  -6    9.88    0.43
   1   2  -6    9.71    0.53
   0  -2  -6    1.53    0.08
   0  -2   6    1.54    0.17
   0  -2   6    1.60    0.17
   0  -2   6    1.48    0.10
   0  -2  -6    1.55    0.08
   0   2   6    1.48    0.09
   0   2  -6    1.61    0.13
   0   2  -6    1.59    0.11
   0   2  -6    1.39    0.15
   0   2  -6    1.48    0.16
   0   2   6    1.55    0.09
  -1  -2  -6    0.33    0.05
   1  -2   6    0.38    0.06
   1  -2   6    0.26    0.07
  -1   2  -6    0.39    0.07
  -1   2  -6    0.33    0.06
   1   2   6    0.35    0.06
   1   2   6    0.42    0.06
   2  -2   6    0.08    0.03
  -2  -2  -6    0.18    0.04
   2  -2   6    0.12    0.06
  -2   2  -6    0.08    0.04
  -2   2  -6    0.19    0.06
   2   2   6    0.17    0.05
   3  -2   6    0.36    0.07
   3  -2   6    0.46    0.07
  -3  -2  -6    0.53    0.08
   3  -2   6    0.28    0.08
  -3  -2  -6    0.41    0.07
  -3   2  -6    0.32    0.08
   3   2   6    0.46    0.09
  -3   2  -6    0.54    0.10
   4  -2   6    1.28    0.18
  -4  -2  -6    1.62    0.17
   4  -2   6    1.50    0.15
  -4  -2  -6    1.39    0.16
   4   2   6    1.66    0.19
  -4   2  -6    1.26    0.16
  -5  -2  -6    4.65    0.30
   5  -2   6    5.05    0.37
   5  -2   6    4.37    0.27
  -5   2  -6    5.61    0.34
   6  -2   6    0.22    0.07
  -6  -2  -6    0.19    0.08
   6   2   6    0.22    0.04
  -7  -2  -6    0.11    0.07
   7  -2   6    0.17    0.07
   7   2   6    0.10    0.04
  10  -3  -6    0.25    0.10
 -10  -3   6    0.20    0.09
 -10   3   6    0.21    0.05
   9  -3  -6    1.05    0.17
  -9  -3   6    1.57    0.20
  -9   3   6    1.29    0.09
   8  -3  -6    0.30    0.09
  -8  -3   6    0.21    0.08
  -7  -3   6    0.13    0.06
   7  -3  -6    0.04    0.05
  -7  -3   6    0.06    0.07
  -6  -3   6    0.32    0.08
   6  -3  -6    0.37    0.08
  -6  -3   6    0.34    0.11
  -6   3   6    0.16    0.07
   6   3  -6    0.29    0.09
   5  -3  -6    4.54    0.26
  -5  -3   6    4.98    0.36
  -5  -3   6    4.67    0.27
   5   3  -6    4.86    0.28
  -5   3   6    4.56    0.30
   5   3  -6    4.98    0.32
   4  -3  -6   12.29    0.54
  -4  -3   6   12.27    0.54
  -4  -3   6   12.87    0.69
  -4   3   6   11.31    0.59
  -4   3   6   11.59    0.61
   4   3  -6   12.17    0.55
   4   3  -6   13.26    0.61
   4   3  -6   12.42    0.62
   3  -3  -6    5.37    0.28
  -3  -3   6    4.84    0.26
  -3  -3   6    5.45    0.35
   3  -3  -6    4.96    0.23
   3  -3  -6    5.00    0.24
   3   3  -6    5.02    0.31
  -3   3   6    5.17    0.26
  -3   3   6    5.19    0.26
   3   3  -6    5.45    0.31
   3   3  -6    5.20    0.27
  -2  -3   6    4.57    0.25
  -2  -3   6    4.58    0.32
   2   3  -6    5.13    0.33
   2   3  -6    4.67    0.28
   2   3  -6    4.93    0.30
   2   3  -6    4.68    0.25
  -1  -3   6    2.34    0.20
  -1  -3   6    2.28    0.15
   1   3  -6    2.30    0.18
   1   3  -6    1.91    0.15
   1   3  -6    2.32    0.17
   1   3  -6    2.14    0.19
   0  -3   6    8.41    0.40
   0  -3  -6    8.34    0.37
   0  -3  -6    8.73    0.36
   0  -3   6    8.98    0.51
   0   3  -6    9.04    0.45
   0   3  -6    8.70    0.41
   0   3   6    8.68    0.41
   0   3   6    8.59    0.41
   0   3  -6    8.26    0.43
   1  -3   6    3.40    0.26
   1  -3   6    3.57    0.20
  -1  -3  -6    3.37    0.18
  -1   3  -6    3.35    0.21
  -1   3  -6    3.53    0.23
   1   3   6    3.16    0.20
  -1   3  -6    3.97    0.24
   1   3   6    3.39    0.20
   2  -3   6    4.37    0.25
   2  -3   6    4.78    0.33
  -2  -3  -6    4.36    0.24
  -2   3  -6    4.36    0.28
  -2   3  -6    5.03    0.29
   2   3   6    4.58    0.27
   3  -3   6    1.00    0.16
   3  -3   6    0.84    0.11
  -3  -3  -6    0.80    0.10
   3   3   6    0.88    0.12
   4  -3   6    8.86    0.42
  -4  -3  -6    7.84    0.42
   4  -3   6    8.47    0.53
   4  -3   6    8.69    0.42
  -4   3  -6    7.96    0.46
  -5  -3  -6    1.38    0.17
  -5  -3  -6    1.24    0.16
   5  -3   6    1.38    0.16
  -6  -3  -6    0.02    0.05
   6  -3   6    0.01    0.04
  -6  -3  -6    0.01    0.05
   7  -3   6    0.07    0.06
  -7  -3  -6    0.00    0.05
  10  -4  -6    0.11    0.09
 -10  -4   6    0.25    0.11
   9  -4  -6    0.07    0.07
  -9  -4   6   -0.01    0.06
  -8  -4   6    1.44    0.19
   8  -4  -6    1.31    0.18
  -7  -4   6    0.05    0.06
   7  -4  -6    0.19    0.07
  -6  -4   6    2.24    0.22
   6  -4  -6    2.55    0.19
   6   4  -6    2.03    0.21
  -5  -4   6    0.08    0.07
  -5  -4   6    0.03    0.05
   5  -4  -6    0.15    0.05
   5   4  -6    0.14    0.06
  -5   4   6    0.11    0.05
  -4  -4   6    3.14    0.28
   4  -4  -6    3.07    0.19
  -4  -4   6    3.33    0.21
   4   4  -6    3.54    0.22
  -4   4   6    3.10    0.21
   4   4  -6    3.17    0.24
  -3  -4   6    9.39    0.55
   3  -4  -6    8.04    0.40
  -3  -4   6    9.35    0.44
  -3   4   6    9.33    0.45
   3   4  -6    9.22    0.49
   3   4  -6    8.38    0.47
   3   4  -6    9.09    0.44
  -3   4   6    8.77    0.45
  -2  -4   6   11.22    0.50
  -2  -4   6    9.93    0.62
   2  -4  -6   10.97    0.46
   2   4  -6   11.12    0.55
  -2   4   6   10.42    0.51
  -2   4   6   10.86    0.51
   2   4  -6   10.24    0.55
  -1  -4   6    7.46    0.37
   1  -4  -6    7.16    0.32
  -1  -4   6    6.83    0.46
   1   4  -6    7.72    0.42
   1   4  -6    7.64    0.38
  -1   4   6    7.31    0.35
   1   4  -6    7.75    0.41
  -1   4   6    7.60    0.36
   0  -4  -6    0.69    0.07
   0  -4   6    0.59    0.12
   0  -4   6    0.80    0.11
   0   4  -6    0.77    0.12
   0   4   6    0.77    0.06
   0   4  -6    0.61    0.11
   0   4  -6    0.71    0.11
   0   4   6    0.53    0.07
   1  -4   6    1.12    0.13
  -1  -4  -6    1.05    0.10
   1  -4   6    1.00    0.16
   1   4   6    0.90    0.10
  -1   4  -6    1.04    0.15
  -1   4  -6    0.74    0.11
   2  -4   6    0.00    0.04
   2  -4   6    0.07    0.07
  -2  -4  -6    0.03    0.03
   2   4   6    0.04    0.03
  -2   4  -6    0.06    0.06
  -2   4  -6    0.01    0.04
  -2   4  -6    0.06    0.05
  -3  -4  -6    0.09    0.04
   3  -4   6    0.21    0.07
   4  -4   6    0.75    0.12
  -4  -4  -6    0.97    0.13
   5  -4   6    2.84    0.25
  -5  -4  -6    2.22    0.22
   5  -4   6    2.46    0.23
  -6  -4  -6    0.08    0.06
   6  -4   6    0.06    0.06
  -6  -4  -6    0.12    0.07
  -7  -4  -6    0.15    0.08
   7  -4   6    0.07    0.07
  -7  -4  -6    0.02    0.07
   9  -5  -6    1.24    0.20
  -9  -5   6    1.33    0.20
   9   5  -6    1.51    0.21
   8  -5  -6    1.56    0.21
  -8  -5   6    1.66    0.22
   8   5  -6    1.85    0.22
  -7  -5   6   -0.01    0.06
   7  -5  -6    0.01    0.04
   7   5  -6   -0.02    0.05
  -6  -5   6    1.49    0.19
   6  -5  -6    1.70    0.19
   6   5  -6    1.55    0.18
   5  -5  -6    0.00    0.03
  -5  -5   6   -0.04    0.04
   5   5  -6    0.03    0.05
  -4  -5   6    3.09    0.22
   4  -5  -6    3.28    0.20
  -4   5   6    3.27    0.22
   4   5  -6    2.93    0.22
  -3  -5   6    0.07    0.05
   3  -5  -6    0.10    0.04
  -3   5   6    0.11    0.04
   3   5  -6    0.12    0.05
  -2  -5   6    0.21    0.06
   2  -5  -6    0.25    0.05
   2   5  -6    0.12    0.06
   2   5  -6    0.33    0.08
  -2   5   6    0.17    0.04
  -1  -5   6    0.08    0.05
   1  -5  -6    0.07    0.03
   1   5  -6    0.03    0.05
  -1   5   6    0.03    0.02
   1   5  -6    0.00    0.04
   0  -5  -6    6.35    0.30
   0  -5   6    6.38    0.34
   0   5  -6    6.01    0.34
   0   5   6    5.91    0.33
  -1  -5  -6    0.14    0.05
   1  -5   6    0.12    0.06
   1   5   6    0.05    0.04
  -1   5  -6    0.11    0.06
   2  -5   6    0.89    0.13
  -2  -5  -6    0.73    0.10
  -2   5  -6    0.89    0.14
  -3  -5  -6    2.29    0.18
   3  -5   6    2.75    0.21
  -3   5  -6    2.17    0.23
  -4  -5  -6    3.68    0.25
   4  -5   6    3.94    0.26
  -4   5  -6    2.61    0.30
  -5  -5  -6    1.58    0.19
   5  -5   6    1.31    0.17
   6  -5   6    0.13    0.08
   6  -5   6    0.27    0.09
  -6  -5  -6    0.16    0.08
   8  -6  -6    0.86    0.16
  -8  -6   6    0.79    0.16
   8   6  -6    0.71    0.15
  -7  -6   6    0.08    0.08
   7  -6  -6    0.01    0.05
   7   6  -6    0.00    0.06
  -6  -6   6    0.32    0.10
   6  -6  -6    0.21    0.08
   6   6  -6    0.26    0.09
  -5  -6   6    0.48    0.11
   5  -6  -6    0.52    0.10
   5   6  -6    0.65    0.12
  -4  -6   6    0.06    0.06
   4  -6  -6    0.21    0.07
   4   6  -6   -0.01    0.05
   3  -6  -6    1.70    0.16
  -3  -6   6    1.97    0.21
   3   6  -6    1.74    0.19
  -2  -6   6    3.87    0.26
   2  -6  -6    3.47    0.22
   2   6  -6    3.73    0.26
  -1  -6   6    6.53    0.38
   1  -6  -6    6.66    0.34
   1   6  -6    6.94    0.38
   0  -6  -6    0.24    0.06
   0  -6   6    0.34    0.09
   0   6  -6    0.11    0.07
  -1  -6  -6    1.52    0.15
   1  -6   6    1.39    0.18
  -1   6  -6    1.67    0.20
   2  -6   6    0.45    0.11
  -2  -6  -6    0.36    0.08
  -2   6  -6    0.28    0.10
  -3  -6  -6    0.01    0.04
   3  -6   6    0.07    0.07
  -3   6  -6    0.17    0.09
   4  -6   6    0.78    0.14
  -4  -6  -6    1.03    0.15
  -4   6  -6    0.85    0.16
  -5  -6  -6    1.00    0.16
   5  -6   6    0.91    0.17
  -5   6  -6    0.74    0.16
   6  -7  -6    0.24    0.09
   6   7  -6    0.12    0.08
   5  -7  -6   -0.02    0.04
   5   7  -6    0.02    0.06
   4  -7  -6    0.55    0.10
   4   7  -6    0.74    0.13
   3  -7  -6    0.05    0.05
   3   7  -6   -0.09    0.04
   2  -7  -6    0.27    0.07
   2   7  -6    0.35    0.10
   1  -7  -6    0.03    0.04
   1   7  -6    0.05    0.06
   0  -7  -6    1.21    0.15
   0   7  -6    1.22    0.18
  -1  -7  -6   -0.01    0.04
  -1   7  -6    0.00    0.06
  -2  -7  -6    0.32    0.09
  -2   7  -6    0.30    0.11
  -3  -7  -6    0.51    0.11
  -3   7  -6    0.53    0.13
   4  -8  -6    0.80    0.14
   4   8  -6    0.74    0.14
   3  -8  -6    1.17    0.16
   3   8  -6    0.99    0.17
   2  -8  -6    0.31    0.08
   2   8  -6    0.38    0.12
   1  -8  -6    0.80    0.13
   1   8  -6    1.10    0.18
   0  -8  -6    0.05    0.06
   0   8  -6   -0.05    0.06
  -1  -8  -6    0.07    0.06
  -1   8  -6    0.04    0.08
 -11   0   7    0.69    0.13
 -10   0   7    2.85    0.20
  10   0  -7    2.96    0.31
   9   0  -7    0.45    0.12
  -9   0   7    0.38    0.08
   8   0  -7    1.37    0.18
  -8   0   7    1.71    0.13
  -8   0   7    1.52    0.23
  -7   0   7    5.87    0.41
  -7   0   7    6.04    0.28
   7   0  -7    6.07    0.36
   7   0  -7    6.11    0.36
  -6   0   7    4.63    0.32
  -6   0   7    4.46    0.21
   6   0  -7    4.53    0.29
   6   0  -7    4.58    0.28
  -5   0   7    1.14    0.15
   5   0  -7    1.03    0.13
   5   0  -7    1.06    0.12
   4   0  -7    3.37    0.20
  -4   0   7    3.23    0.22
   4   0  -7    3.34    0.22
  -4   0   7    3.31    0.21
   3   0  -7    0.15    0.04
   3   0  -7    0.01    0.03
  -3   0   7    0.08    0.03
  -3   0   7    0.10    0.03
   3   0  -7    0.06    0.03
  -2   0   7   15.42    0.74
   2   0  -7   14.70    0.65
   2   0  -7   15.00    0.73
  -2   0   7   15.34    0.73
   2   0  -7   16.08    0.72
  -1   0   7    0.36    0.06
   1   0  -7    0.37    0.05
   1   0  -7    0.38    0.07
  -1   0   7    0.33    0.05
   1   0  -7    0.38    0.06
   0   0  -7    0.25    0.05
   0   0  -7    0.30    0.06
   0   0  -7    0.20    0.06
   0   0   7    0.40    0.07
   0   0   7    0.26    0.05
   1   0   7    1.26    0.14
   1   0   7    1.42    0.12
  -1   0  -7    1.37    0.12
   2   0   7    1.73    0.15
  -2   0  -7    1.72    0.13
   3   0   7    3.91    0.27
  -3   0  -7    3.91    0.24
   3   0   7    3.81    0.18
   4   0   7    7.48    0.33
   4   0   7    6.97    0.45
  -4   0  -7    7.91    0.41
  -5   0  -7    0.18    0.07
   5   0   7    0.14    0.04
   6   0   7    0.12    0.05
  -6   0  -7    0.08    0.07
  -7   0  -7    0.05    0.07
   7   0   7    0.14    0.05
 -11  -1   7    0.34    0.10
  11  -1  -7    0.28    0.13
 -11   1   7    0.50    0.10
  10  -1  -7    0.15    0.10
 -10  -1   7    0.23    0.08
 -10   1   7    0.22    0.06
  -9  -1   7    0.03    0.04
   9  -1  -7    0.04    0.07
  -9   1   7    0.03    0.03
   9   1  -7    0.06    0.06
  -8  -1   7    0.02    0.06
   8  -1  -7    0.07    0.06
  -8  -1   7    0.09    0.04
   8   1  -7    0.07    0.07
  -8   1   7    0.07    0.03
  -7  -1   7    2.36    0.28
  -7  -1   7    2.39    0.16
   7  -1  -7    2.56    0.24
  -7   1   7    2.32    0.26
  -7   1   7    2.60    0.12
   7   1  -7    2.49    0.24
  -6  -1   7   16.58    0.90
   6  -1  -7   17.07    0.77
   6  -1  -7   16.00    0.78
  -6  -1   7   16.90    0.70
   6   1  -7   16.89    0.81
   6   1  -7   16.75    0.79
  -6   1   7   17.42    0.87
   5  -1  -7    0.07    0.04
  -5  -1   7    0.13    0.06
  -5  -1   7    0.11    0.03
   5  -1  -7    0.10    0.05
   5   1  -7    0.04    0.04
  -5   1   7    0.13    0.05
   5   1  -7    0.04    0.04
   4  -1  -7    0.76    0.09
   4  -1  -7    0.59    0.09
   4  -1  -7    0.82    0.09
  -4  -1   7    0.73    0.06
  -4  -1   7    0.76    0.06
  -4  -1   7    0.81    0.12
  -4   1   7    0.79    0.09
   4   1  -7    0.64    0.09
  -4   1   7    0.72    0.10
   4   1  -7    0.74    0.11
   3  -1  -7    9.51    0.48
  -3  -1   7   10.01    0.39
  -3  -1   7    9.07    0.50
  -3  -1   7    9.59    0.52
  -3  -1   7    9.90    0.39
   3  -1  -7    9.54    0.42
   3   1  -7    9.69    0.52
   3   1  -7   10.04    0.46
  -3   1   7   10.06    0.47
   3   1  -7    9.80    0.50
  -3   1   7    9.23    0.47
  -3   1   7    9.61    0.47
  -2  -1   7    0.20    0.05
   2  -1  -7    0.10    0.02
  -2  -1   7    0.15    0.02
   2  -1  -7    0.13    0.02
   2  -1  -7    0.15    0.05
  -2  -1   7    0.13    0.02
  -2  -1   7    0.08    0.04
  -2   1   7    0.14    0.03
   2   1  -7    0.20    0.05
   2   1  -7    0.09    0.04
   2   1  -7    0.14    0.04
  -2   1   7    0.16    0.03
   1  -1  -7    3.01    0.20
  -1  -1   7    3.22    0.20
   1  -1  -7    3.00    0.14
  -1  -1   7    2.97    0.13
  -1  -1   7    3.10    0.20
  -1  -1   7    2.82    0.12
   1  -1  -7    2.92    0.14
   1   1  -7    2.94    0.20
  -1   1   7    2.82    0.16
   1   1  -7    2.99    0.21
  -1   1   7    2.97    0.16
   1   1  -7    2.92    0.17
   0  -1   7    0.14    0.02
   0  -1   7    0.12    0.02
   0  -1   7    0.10    0.04
   0  -1   7    0.09    0.04
   0  -1  -7    0.08    0.02
   0   1  -7    0.06    0.04
   0   1   7    0.11    0.03
   0   1  -7    0.11    0.04
   0   1   7    0.11    0.03
  -1  -1  -7    0.60    0.07
   1  -1   7    0.58    0.09
   1  -1   7    0.57    0.06
  -1   1  -7    0.56    0.08
   1   1   7    0.56    0.08
   1   1   7    0.69    0.08
  -1   1  -7    0.52    0.09
   2  -1   7    0.72    0.11
  -2  -1  -7    0.53    0.08
   2  -1   7    0.49    0.06
   2   1   7    0.40    0.08
  -2   1  -7    0.65    0.10
   3  -1   7    3.51    0.27
  -3  -1  -7    3.74    0.23
   3  -1   7    3.82    0.20
   3   1   7    3.74    0.26
  -3   1  -7    4.01    0.25
  -4  -1  -7    6.95    0.38
   4  -1   7    7.47    0.46
   4  -1   7    7.44    0.34
   4   1   7    6.75    0.43
  -4   1  -7    6.55    0.39
  -5  -1  -7    0.32    0.08
   5  -1   7    0.12    0.05
   5   1   7    0.14    0.03
  -5   1  -7    0.18    0.07
  -6  -1  -7   -0.02    0.04
   6  -1   7   -0.04    0.03
   6   1   7    0.01    0.03
  -6   1  -7    0.02    0.05
  -7  -1  -7    0.10    0.07
   7  -1   7    0.08    0.05
   7   1   7   -0.01    0.03
 -10  -2   7    1.23    0.17
  10  -2  -7    1.20    0.20
 -10   2   7    1.12    0.10
   9  -2  -7    0.79    0.15
  -9  -2   7    0.77    0.12
  -9   2   7    0.82    0.07
  -8  -2   7    4.53    0.38
  -8  -2   7    4.77    0.28
   8  -2  -7    4.20    0.30
   8   2  -7    4.10    0.32
  -7  -2   7    2.13    0.19
   7  -2  -7    2.42    0.22
  -7  -2   7    1.96    0.26
   7   2  -7    2.59    0.26
  -7   2   7    1.65    0.21
  -6  -2   7   10.05    0.59
  -6  -2   7    9.04    0.44
   6  -2  -7    9.59    0.48
   6   2  -7    9.76    0.52
  -6   2   7    9.96    0.55
  -5  -2   7    2.02    0.14
  -5  -2   7    2.09    0.24
   5  -2  -7    2.03    0.14
   5  -2  -7    1.81    0.15
   5   2  -7    1.76    0.19
   5   2  -7    1.97    0.20
  -5   2   7    2.03    0.16
   4  -2  -7    2.60    0.15
  -4  -2   7    2.60    0.21
  -4  -2   7    2.40    0.15
   4  -2  -7    2.85    0.18
   4   2  -7    2.54    0.19
  -4   2   7    2.64    0.17
  -4   2   7    2.48    0.16
   4   2  -7    2.56    0.20
   3  -2  -7    6.80    0.29
   3  -2  -7    7.21    0.37
  -3  -2   7    6.51    0.41
   3  -2  -7    7.14    0.30
  -3  -2   7    6.81    0.31
  -3   2   7    7.23    0.33
   3   2  -7    6.70    0.36
   3   2  -7    6.79    0.39
  -3   2   7    6.81    0.33
  -2  -2   7   25.30    1.25
   2  -2  -7   26.25    1.13
  -2  -2   7   25.17    1.01
   2   2  -7   25.25    1.09
   2   2  -7   26.35    1.16
  -1  -2   7    0.32    0.08
  -1  -2   7    0.32    0.05
   1   2  -7    0.31    0.08
   1   2  -7    0.35    0.07
   0  -2   7    3.04    0.23
   0  -2  -7    3.45    0.15
   0  -2  -7    3.15    0.15
   0  -2   7    2.95    0.16
   0   2  -7    2.94    0.21
   0   2  -7    3.04    0.20
   0   2   7    2.93    0.16
   0   2   7    2.93    0.16
  -1  -2  -7    0.09    0.03
   1  -2   7    0.19    0.07
   1  -2   7    0.10    0.03
   1   2   7    0.07    0.03
  -1   2  -7    0.10    0.05
   1   2   7    0.12    0.03
  -1   2  -7    0.17    0.06
  -2  -2  -7    1.62    0.12
   2  -2   7    1.36    0.13
   2  -2   7    1.39    0.13
  -2  -2  -7    1.35    0.13
   2  -2   7    1.40    0.18
  -2   2  -7    1.14    0.14
  -2   2  -7    1.35    0.16
   2   2   7    2.04    0.14
   3  -2   7    6.92    0.46
  -3  -2  -7    7.44    0.37
   3  -2   7    7.51    0.35
   3   2   7    7.03    0.42
  -3   2  -7    7.12    0.41
  -3   2  -7    7.84    0.41
  -4  -2  -7    3.26    0.22
   4  -2   7    3.41    0.28
   4  -2   7    3.11    0.20
  -4   2  -7    3.91    0.26
  -5  -2  -7    0.01    0.04
   5  -2   7    0.01    0.04
  -5   2  -7    0.02    0.06
  -6  -2  -7    0.53    0.11
   6  -2   7    0.35    0.08
   7  -2   7   -0.02    0.05
  -7  -2  -7   -0.02    0.05
  10  -3  -7    0.05    0.07
 -10  -3   7    0.04    0.07
   9  -3  -7    0.70    0.15
  -9  -3   7    0.62    0.13
   8  -3  -7    0.04    0.05
  -8  -3   7    0.08    0.06
   7  -3  -7    5.12    0.31
  -7  -3   7    4.57    0.39
  -7  -3   7    5.44    0.31
   6  -3  -7   18.58    0.84
  -6  -3   7   19.07    0.81
  -6  -3   7   19.39    1.03
  -6   3   7   18.21    0.95
   6   3  -7   18.41    0.89
  -5  -3   7    0.02    0.03
   5  -3  -7   -0.03    0.02
  -5  -3   7    0.00    0.05
   5   3  -7    0.01    0.04
  -5   3   7    0.00    0.03
  -4  -3   7    4.45    0.25
  -4  -3   7    4.56    0.33
   4  -3  -7    4.64    0.23
  -4   3   7    4.60    0.25
   4   3  -7    4.81    0.30
  -4   3   7    4.33    0.24
   4   3  -7    4.31    0.30
   3  -3  -7    0.40    0.07
   3  -3  -7    0.51    0.05
  -3  -3   7    0.54    0.08
   3  -3  -7    0.59    0.05
  -3  -3   7    0.45    0.11
   3   3  -7    0.55    0.10
   3   3  -7    0.51    0.10
  -2  -3   7    1.12    0.16
  -2  -3   7    1.12    0.12
   2   3  -7    1.28    0.15
   2   3  -7    0.97    0.13
  -1  -3   7    6.81    0.33
  -1  -3   7    7.41    0.44
   1   3  -7    7.03    0.38
   1   3  -7    6.96    0.40
   0  -3  -7    0.06    0.02
   0  -3   7    0.06    0.03
   0  -3  -7    0.04    0.02
   0  -3   7    0.12    0.06
   0   3  -7    0.03    0.04
   0   3  -7    0.01    0.04
   1  -3   7    0.00    0.04
   1  -3   7    0.04    0.03
  -1  -3  -7    0.03    0.02
   1   3   7    0.06    0.03
   1   3   7    0.03    0.02
  -1   3  -7    0.03    0.05
  -1   3  -7    0.05    0.05
   2  -3   7    0.36    0.07
   2  -3   7    0.43    0.11
  -2  -3  -7    0.38    0.06
  -2   3  -7    0.40    0.10
  -2   3  -7    0.27    0.07
   2   3   7    0.38    0.07
   3  -3   7    2.29    0.17
  -3  -3  -7    2.34    0.17
   3  -3   7    2.31    0.17
   3  -3   7    2.21    0.26
  -3   3  -7    2.71    0.25
  -3   3  -7    2.20    0.22
  -4  -3  -7    7.33    0.40
  -4  -3  -7    7.76    0.41
   4  -3   7    7.84    0.39
   4  -3   7    7.81    0.51
  -4   3  -7    7.90    0.45
  -5  -3  -7    0.70    0.12
   5  -3   7    0.74    0.11
  -5  -3  -7    0.54    0.11
  -6  -3  -7    0.09    0.06
   6  -3   7   -0.03    0.04
   7  -3   7    0.09    0.07
  -7  -3  -7    0.06    0.06
  -9  -4   7    0.44    0.12
   9  -4  -7    0.24    0.10
  -8  -4   7    2.11    0.23
   8  -4  -7    1.62    0.20
   7  -4  -7    1.04    0.14
  -7  -4   7    0.89    0.14
  -6  -4   7    5.03    0.30
   6  -4  -7    4.54    0.28
   5  -4  -7    1.68    0.13
  -5  -4   7    1.90    0.25
  -5  -4   7    1.55    0.17
  -5   4   7    1.38    0.15
   5   4  -7    1.80    0.22
  -4  -4   7    0.59    0.14
   4  -4  -7    0.88    0.09
  -4  -4   7    0.70    0.11
   4   4  -7    0.73    0.13
  -4   4   7    0.75    0.09
  -3  -4   7    1.98    0.18
  -3  -4   7    1.47    0.21
   3  -4  -7    1.71    0.11
   2  -4  -7    7.49    0.32
  -2  -4   7    7.56    0.48
  -2  -4   7    7.81    0.38
   2   4  -7    6.98    0.42
  -1  -4   7    1.33    0.19
  -1  -4   7    1.05    0.12
   1  -4  -7    1.05    0.07
   1   4  -7    1.15    0.15
   0  -4   7    1.69    0.21
   0  -4  -7    1.28    0.09
   0  -4   7    1.13    0.13
   0   4  -7    1.41    0.17
   0   4   7    1.34    0.08
   0   4   7    1.24    0.08
   1  -4   7    0.02    0.04
   1  -4   7    0.06    0.04
  -1  -4  -7    0.01    0.02
   1   4   7    0.05    0.03
  -1   4  -7   -0.03    0.04
  -1   4  -7    0.06    0.05
   2  -4   7    0.39    0.08
  -2  -4  -7    0.46    0.07
   2  -4   7    0.54    0.13
  -2   4  -7    0.77    0.14
   3  -4   7    3.71    0.25
  -3  -4  -7    3.88    0.24
  -4  -4  -7    2.46    0.19
   4  -4   7    2.00    0.20
   4  -4   7    2.33    0.22
   5  -4   7    0.02    0.05
  -5  -4  -7   -0.06    0.04
   5  -4   7   -0.03    0.04
  -6  -4  -7    0.17    0.08
  -6  -4  -7    0.14    0.07
   6  -4   7    0.31    0.10
  -9  -5   7    0.16    0.09
   9  -5  -7   -0.01    0.06
  -8  -5   7   -0.07    0.06
   8  -5  -7    0.02    0.05
   7  -5  -7    0.85    0.14
  -7  -5   7    0.92    0.16
  -6  -5   7    3.30    0.25
   6  -5  -7    3.67    0.24
  -5  -5   7    0.24    0.08
   5  -5  -7    0.27    0.07
   4  -5  -7    0.00    0.02
  -4  -5   7    0.05    0.05
  -3  -5   7    0.83    0.12
   3  -5  -7    0.75    0.09
   3   5  -7    0.63    0.12
  -3   5   7    0.62    0.07
  -2  -5   7    0.13    0.06
   2  -5  -7    0.18    0.04
   2   5  -7    0.12    0.06
  -1  -5   7    0.22    0.07
   1  -5  -7    0.29    0.05
   1   5  -7    0.39    0.10
   0  -5   7    0.46    0.10
   0  -5  -7    0.34    0.06
   0   5   7    0.32    0.05
   0   5  -7    0.43    0.10
  -1  -5  -7    0.26    0.06
   1  -5   7    0.28    0.08
   2  -5   7    0.04    0.05
  -2  -5  -7    0.05    0.04
   3  -5   7    1.49    0.18
  -3  -5  -7    1.77    0.18
   4  -5   7    2.37    0.23
  -4  -5  -7    2.04    0.21
  -5  -5  -7    0.03    0.06
   5  -5   7    0.06    0.06
   5  -5   7    0.06    0.07
  -8  -6   7    0.12    0.10
   8  -6  -7    0.08    0.07
   8   6  -7    0.20    0.10
   7  -6  -7    0.78    0.14
  -7  -6   7    0.61    0.15
   7   6  -7    0.58    0.14
  -6  -6   7    1.49    0.20
   6  -6  -7    1.51    0.18
   6   6  -7    1.84    0.21
  -5  -6   7    0.22    0.08
   5  -6  -7    0.12    0.06
   5   6  -7    0.08    0.07
   4  -6  -7   -0.01    0.03
  -4  -6   7    0.04    0.06
   4   6  -7   -0.06    0.04
  -3  -6   7    0.12    0.06
   3  -6  -7    0.15    0.05
   3   6  -7    0.00    0.05
   2  -6  -7    0.89    0.10
  -2  -6   7    0.80    0.14
   2   6  -7    0.93    0.15
  -1  -6   7    0.58    0.11
   1  -6  -7    0.45    0.07
   1   6  -7    0.64    0.13
   0  -6   7   -0.01    0.05
   0  -6  -7    0.03    0.04
   0   6  -7    0.09    0.07
   1  -6   7    0.05    0.06
  -1  -6  -7    0.03    0.04
  -1   6  -7    0.06    0.06
   2  -6   7    0.09    0.07
  -2  -6  -7    0.09    0.05
  -2   6  -7    0.21    0.11
  -3  -6  -7    0.57    0.10
   3  -6   7    0.90    0.15
  -4  -6  -7    1.20    0.17
   4  -6   7    1.18    0.18
   6  -7  -7    1.61    0.20
  -6  -7   7    1.81    0.23
   6   7  -7    1.81    0.23
   5  -7  -7    0.07    0.06
  -5  -7   7    0.02    0.06
   5   7  -7    0.09    0.07
  -4  -7   7    0.04    0.08
   4  -7  -7   -0.07    0.03
   4   7  -7    0.19    0.08
   3  -7  -7    0.03    0.04
  -3  -7   7   -0.01    0.05
   3   7  -7   -0.02    0.06
  -2  -7   7    0.24    0.10
   2  -7  -7    0.27    0.07
   2   7  -7    0.02    0.07
  -1  -7   7    0.30    0.10
   1  -7  -7    0.31    0.07
   1   7  -7    0.22    0.10
   0  -7   7    0.28    0.10
   0  -7  -7    0.10    0.05
   0   7  -7    0.11    0.07
   1  -7   7    0.02    0.06
  -1  -7  -7    0.06    0.04
  -1   7  -7    0.03    0.07
   2  -7   7   -0.04    0.06
  -2  -7  -7    0.00    0.05
  -2   7  -7    0.06    0.08
   2  -8  -7    0.84    0.13
   2   8  -7    0.66    0.15
   1  -8  -7    0.04    0.06
   1   8  -7    0.18    0.10
 -11   0   8    0.49    0.10
  10   0  -8    1.68    0.24
 -10   0   8    1.53    0.15
  -9   0   8    2.82    0.18
   9   0  -8    2.73    0.29
   8   0  -8    5.54    0.36
  -8   0   8    5.59    0.26
   7   0  -8    7.83    0.44
   7   0  -8    7.60    0.45
  -7   0   8    7.95    0.33
  -7   0   8    8.10    0.51
   6   0  -8    3.92    0.26
   6   0  -8    3.66    0.25
  -6   0   8    3.86    0.29
   5   0  -8    1.90    0.19
  -5   0   8    1.86    0.17
   5   0  -8    2.10    0.16
   4   0  -8    0.11    0.04
  -4   0   8    0.04    0.03
   4   0  -8    0.20    0.05
  -3   0   8    5.04    0.30
  -3   0   8    5.36    0.29
   3   0  -8    5.24    0.31
   3   0  -8    4.88    0.26
   2   0  -8    1.35    0.15
  -2   0   8    1.12    0.10
   2   0  -8    1.17    0.09
  -2   0   8    1.00    0.11
  -1   0   8    2.71    0.18
   1   0  -8    3.00    0.21
   1   0  -8    2.94    0.16
  -1   0   8    2.61    0.18
   0   0  -8   18.46    0.79
   0   0   8   18.39    0.89
   0   0  -8   18.37    0.86
  -1   0  -8    3.80    0.22
   1   0   8    3.68    0.24
   2   0   8    0.23    0.07
  -2   0  -8    0.34    0.07
   3   0   8    0.87    0.14
  -3   0  -8    1.01    0.13
  -4   0  -8    1.84    0.20
   4   0   8    1.73    0.09
   5   0   8   -0.01    0.02
  -5   0  -8   -0.03    0.04
  -6   0  -8    0.22    0.09
   6   0   8    0.12    0.04
  -7   0  -8    0.07    0.08
   7   0   8   -0.01    0.03
 -11  -1   8    0.04    0.06
  11  -1  -8    0.24    0.11
 -11   1   8    0.15    0.05
  10  -1  -8    0.03    0.08
 -10  -1   8    0.01    0.05
  10   1  -8    0.08    0.09
 -10   1   8   -0.01    0.03
   9  -1  -8    0.24    0.10
  -9  -1   8    0.25    0.07
   9   1  -8    0.08    0.08
  -9   1   8    0.15    0.03
   8  -1  -8    0.88    0.15
  -8  -1   8    0.82    0.11
   8   1  -8    0.95    0.16
  -7  -1   8   22.34    1.14
  -7  -1   8   21.11    0.87
   7  -1  -8   21.33    0.97
  -7   1   8   21.27    1.10
   7   1  -8   20.51    0.98
   6  -1  -8   39.59    1.68
   6  -1  -8   41.11    1.74
  -6  -1   8   39.96    1.93
  -6  -1   8   40.25    1.55
   6   1  -8   39.46    1.77
  -6   1   8   39.61    1.90
   6   1  -8   39.82    1.70
  -5  -1   8    5.19    0.23
  -5  -1   8    5.26    0.35
   5  -1  -8    5.40    0.29
   5  -1  -8    5.30    0.32
   5   1  -8    5.53    0.34
  -5   1   8    5.52    0.33
   5   1  -8    5.05    0.31
  -4  -1   8    2.08    0.17
  -4  -1   8    1.94    0.09
   4  -1  -8    2.14    0.13
  -4  -1   8    1.93    0.09
   4  -1  -8    1.48    0.16
   4   1  -8    2.05    0.15
  -4   1   8    1.89    0.13
  -4   1   8    1.85    0.14
   4   1  -8    2.03    0.20
  -3  -1   8   32.72    1.55
   3  -1  -8   32.20    1.32
   3  -1  -8   32.21    1.43
   3   1  -8   32.48    1.44
   3   1  -8   32.16    1.36
  -3   1   8   33.11    1.49
  -3   1   8   32.89    1.49
  -3   1   8   32.84    1.49
   2  -1  -8    0.11    0.03
   2  -1  -8    0.14    0.06
  -2  -1   8    0.19    0.05
   2  -1  -8    0.12    0.03
   2   1  -8    0.10    0.04
   2   1  -8    0.09    0.05
  -2   1   8    0.14    0.03
  -2   1   8    0.13    0.03
  -1  -1   8    0.03    0.03
   1  -1  -8    0.00    0.01
   1  -1  -8    0.01    0.02
   1  -1  -8    0.03    0.03
   1   1  -8    0.00    0.03
  -1   1   8    0.00    0.02
  -1   1   8    0.03    0.02
   1   1  -8    0.01    0.02
   0  -1   8    3.67    0.24
   0  -1  -8    3.62    0.18
   0   1   8    3.43    0.21
   0   1  -8    3.41    0.21
   0   1   8    3.48    0.20
   0   1  -8    3.46    0.25
   1  -1   8    0.79    0.05
   1  -1   8    0.78    0.12
  -1  -1  -8    0.71    0.08
   1  -1   8    0.81    0.05
  -1   1  -8    0.52    0.11
   1   1   8    0.88    0.10
  -1   1  -8    0.83    0.11
   2  -1   8    0.61    0.11
   2  -1   8    0.68    0.07
  -2  -1  -8    0.66    0.09
  -2   1  -8    0.55    0.09
   2   1   8    0.50    0.09
   3  -1   8    0.03    0.03
  -3  -1  -8   -0.01    0.03
   3  -1   8    0.05    0.05
   3   1   8    0.01    0.03
  -3   1  -8    0.03    0.05
   4  -1   8    1.07    0.11
  -4  -1  -8    0.89    0.13
  -4   1  -8    1.22    0.17
   5  -1   8    0.27    0.06
  -5  -1  -8    0.35    0.09
  -5   1  -8    0.35    0.10
  -6  -1  -8    0.00    0.06
   6  -1   8    0.04    0.04
  -6   1  -8    0.11    0.08
  10  -2  -8    2.55    0.30
 -10  -2   8    2.11    0.21
  -9  -2   8    0.23    0.07
   9  -2  -8    0.28    0.10
   9   2  -8    0.28    0.12
  -8  -2   8    3.10    0.21
   8  -2  -8    2.82    0.27
   8   2  -8    2.49    0.27
  -7  -2   8    2.38    0.17
  -7  -2   8    1.95    0.26
   7  -2  -8    2.21    0.21
   7   2  -8    2.29    0.25
  -6  -2   8    0.12    0.04
   6  -2  -8    0.23    0.07
  -6  -2   8    0.10    0.07
   6   2  -8    0.06    0.07
  -6   2   8    0.19    0.06
   5  -2  -8    1.07    0.13
   5  -2  -8    1.09    0.11
  -5  -2   8    1.12    0.17
  -5  -2   8    1.29    0.12
  -5   2   8    1.42    0.14
   5   2  -8    1.13    0.15
   4  -2  -8    3.48    0.23
   4  -2  -8    3.56    0.19
  -4  -2   8    3.49    0.19
  -4  -2   8    3.68    0.27
  -4   2   8    3.71    0.20
   4   2  -8    3.42    0.25
  -4   2   8    3.57    0.20
   4   2  -8    3.64    0.24
  -3  -2   8    0.16    0.06
  -3  -2   8    0.08    0.03
   3  -2  -8    0.15    0.02
   3  -2  -8    0.11    0.02
   3  -2  -8    0.22    0.07
   3   2  -8    0.06    0.05
   3   2  -8    0.11    0.05
  -2  -2   8    0.02    0.02
   2  -2  -8   -0.02    0.02
  -2  -2   8    0.05    0.04
   2   2  -8    0.05    0.04
   2   2  -8   -0.01    0.04
   1  -2  -8    0.09    0.02
  -1  -2   8    0.14    0.03
  -1  -2   8    0.10    0.05
   1  -2  -8    0.11    0.02
   1   2  -8    0.12    0.05
   1   2  -8    0.11    0.05
   0  -2  -8    8.56    0.37
   0  -2   8    8.59    0.37
   0  -2  -8    8.71    0.37
   0  -2   8    8.12    0.48
   0   2   8    8.44    0.41
   0   2  -8    8.73    0.47
   0   2  -8    8.01    0.43
   0   2   8    8.65    0.41
   1  -2   8    5.30    0.26
  -1  -2  -8    5.19    0.26
   1  -2   8    5.30    0.26
   1  -2   8    5.24    0.35
  -1   2  -8    5.20    0.30
  -1   2  -8    6.16    0.35
   1   2   8    5.02    0.29
   2  -2   8    0.55    0.12
  -2  -2  -8    0.41    0.07
   2  -2   8    0.33    0.06
  -2   2  -8    0.43    0.10
   2   2   8    0.32    0.07
  -3  -2  -8    1.44    0.15
   3  -2   8    1.50    0.20
   3  -2   8    1.69    0.12
  -3   2  -8    1.49    0.18
   4  -2   8    0.55    0.09
  -4  -2  -8    0.66    0.11
  -4   2  -8    0.45    0.10
  -5  -2  -8    0.31    0.09
   5  -2   8    0.54    0.10
  -5   2  -8    0.59    0.13
   6  -2   8    0.04    0.04
  -6  -2  -8    0.01    0.05
 -10  -3   8    0.27    0.09
  10  -3  -8    0.30    0.12
   9  -3  -8    0.19    0.09
  -9  -3   8    0.26    0.08
  -8  -3   8    0.01    0.04
   8  -3  -8    0.03    0.05
  -7  -3   8    9.88    0.64
   7  -3  -8   10.13    0.51
  -7  -3   8    9.78    0.48
   7   3  -8    9.69    0.56
   6  -3  -8   24.91    1.09
  -6  -3   8   25.27    1.05
  -6  -3   8   25.28    1.32
   6   3  -8   25.04    1.15
   5  -3  -8   13.90    0.63
  -5  -3   8   14.98    0.63
  -5  -3   8   14.46    0.81
   5   3  -8   14.81    0.71
  -5   3   8   13.94    0.71
   4  -3  -8    3.05    0.17
  -4  -3   8    3.04    0.26
  -4  -3   8    3.17    0.19
   4   3  -8    3.02    0.23
  -4   3   8    3.13    0.16
  -4   3   8    3.24    0.16
  -3  -3   8    9.09    0.53
  -3  -3   8    8.65    0.40
   3  -3  -8    9.29    0.46
   3   3  -8    8.08    0.46
  -2  -3   8    1.12    0.17
   2  -3  -8    1.31    0.15
  -2  -3   8    1.19    0.12
   2   3  -8    1.30    0.16
   2   3  -8    1.27    0.17
  -1  -3   8    0.34    0.10
  -1  -3   8    0.52    0.08
   1   3  -8    0.48    0.10
   1   3  -8    0.43    0.09
   0  -3   8    0.34    0.06
   0  -3   8    0.35    0.09
   0  -3  -8    0.53    0.05
   0   3  -8    0.32    0.08
   0   3  -8    0.41    0.09
   1  -3   8    0.04    0.05
   1  -3   8    0.01    0.03
  -1  -3  -8    0.03    0.02
   1   3   8    0.05    0.03
  -1   3  -8    0.02    0.05
  -1   3  -8    0.14    0.06
  -2  -3  -8    0.27    0.06
   2  -3   8    0.29    0.07
   2  -3   8    0.22    0.09
  -2   3  -8    0.17    0.07
  -3  -3  -8    0.23    0.06
   3  -3   8    0.20    0.06
   3  -3   8    0.27    0.07
   3  -3   8    0.20    0.09
  -3  -3  -8    0.32    0.07
  -3   3  -8    0.43    0.11
  -4  -3  -8    0.10    0.06
  -4  -3  -8    0.07    0.05
   4  -3   8    0.09    0.05
  -4   3  -8    0.02    0.06
   5  -3   8    0.53    0.10
  -5  -3  -8    0.58    0.12
   6  -3   8    0.12    0.07
  -6  -3  -8    0.15    0.07
  -9  -4   8    0.29    0.11
   9  -4  -8    0.23    0.09
   8  -4  -8    1.14    0.17
  -8  -4   8    1.54    0.19
   7  -4  -8    1.31    0.16
  -7  -4   8    1.22    0.17
   6  -4  -8    0.49    0.09
  -6  -4   8    0.52    0.10
  -6  -4   8    0.35    0.12
  -5  -4   8    0.77    0.12
   5  -4  -8    0.44    0.08
  -5  -4   8    0.44    0.13
   5   4  -8    0.18    0.07
  -5   4   8    0.43    0.07
  -4  -4   8    0.32    0.08
   4  -4  -8    0.22    0.05
  -4  -4   8    0.26    0.10
   4   4  -8    0.29    0.09
  -3  -4   8    0.03    0.06
  -3  -4   8    0.03    0.04
   3  -4  -8    0.04    0.02
   3   4  -8    0.03    0.06
   2  -4  -8    0.39    0.04
  -2  -4   8    0.39    0.11
  -2  -4   8    0.28    0.07
   2   4  -8    0.32    0.09
   1  -4  -8    0.00    0.01
  -1  -4   8   -0.04    0.04
  -1  -4   8   -0.04    0.03
   1   4  -8   -0.05    0.04
   0  -4   8    5.35    0.28
   0  -4  -8    4.83    0.24
   0  -4   8    4.92    0.37
   0   4  -8    5.08    0.33
   1  -4   8    2.99    0.20
  -1  -4  -8    2.91    0.17
   1  -4   8    3.15    0.27
  -1   4  -8    2.38    0.25
   1   4   8    2.66    0.16
  -2  -4  -8    0.22    0.05
   2  -4   8    0.11    0.08
   2  -4   8    0.16    0.06
  -2   4  -8    0.08    0.06
   3  -4   8    0.74    0.12
  -3  -4  -8    0.58    0.10
  -4  -4  -8    0.33    0.09
   4  -4   8    0.12    0.06
   4  -4   8    0.17    0.07
   5  -4   8    0.12    0.06
  -5  -4  -8    0.02    0.05
  -5  -4  -8    0.21    0.08
  -8  -5   8    1.16    0.18
   8  -5  -8    1.18    0.17
  -7  -5   8    9.88    0.51
   7  -5  -8    9.29    0.50
  -6  -5   8    8.41    0.44
   6  -5  -8    7.53    0.41
   5  -5  -8    3.14    0.20
  -5  -5   8    2.59    0.24
  -4  -5   8    0.18    0.07
   4  -5  -8    0.21    0.05
  -3  -5   8    5.34    0.31
   3  -5  -8    5.17    0.26
   2  -5  -8    0.26    0.05
  -2  -5   8    0.40    0.09
   1  -5  -8    0.08    0.03
  -1  -5   8    0.05    0.05
   0  -5  -8    1.28    0.10
   0  -5   8    1.68    0.18
   1  -5   8    0.56    0.11
  -1  -5  -8    0.42    0.07
  -2  -5  -8    0.13    0.05
   2  -5   8    0.19    0.07
   3  -5   8    0.15    0.07
  -3  -5  -8    0.11    0.06
   4  -5   8    0.36    0.10
  -4  -5  -8    0.29    0.09
   7  -6  -8    0.47    0.11
  -7  -6   8    0.77    0.15
  -6  -6   8    1.13    0.17
   6  -6  -8    1.32    0.16
   5  -6  -8   -0.02    0.04
  -5  -6   8    0.01    0.06
  -4  -6   8    0.10    0.07
   4  -6  -8    0.18    0.06
   3  -6  -8    0.26    0.06
  -3  -6   8    0.28    0.09
   2  -6  -8    0.49    0.08
  -2  -6   8    0.43    0.10
   1  -6  -8    0.41    0.07
  -1  -6   8    0.41    0.10
   0  -6  -8    3.38    0.21
   0  -6   8    3.50    0.25
  -1  -6  -8    0.71    0.11
   1  -6   8    0.82    0.14
   2  -6   8    0.00    0.06
  -2  -6  -8    0.01    0.04
   3  -6   8    0.09    0.08
  -3  -6  -8    0.12    0.06
  -5  -7   8    2.27    0.26
   5  -7  -8    2.12    0.22
  -4  -7   8    0.18    0.09
   4  -7  -8    0.15    0.06
  -3  -7   8    1.03    0.17
   3  -7  -8    0.88    0.12
   3   7  -8    1.28    0.21
   2  -7  -8   -0.02    0.04
  -2  -7   8    0.07    0.07
  -1  -7   8    0.04    0.07
   1  -7  -8    0.08    0.05
   0  -7   8    0.14    0.09
   0  -7  -8    0.19    0.07
  -1  -7  -8    0.25    0.07
   1  -7   8    0.07    0.08
 -10   0   9    7.24    0.33
  10   0  -9    7.70    0.49
  -9   0   9    0.44    0.05
   9   0  -9    0.47    0.12
   8   0  -9    1.08    0.16
   7   0  -9    1.66    0.19
   6   0  -9    5.72    0.33
   6   0  -9    5.54    0.36
  -6   0   9    5.48    0.37
   5   0  -9    0.02    0.03
  -5   0   9   -0.03    0.03
   5   0  -9   -0.01    0.04
   4   0  -9    1.04    0.12
  -4   0   9    1.02    0.12
   4   0  -9    1.16    0.15
  -3   0   9   10.62    0.55
   3   0  -9   10.44    0.55
   3   0  -9   10.82    0.49
   2   0  -9   11.00    0.58
   2   0  -9   11.44    0.50
  -2   0   9   10.99    0.56
  -1   0   9    7.71    0.41
   1   0  -9    7.36    0.36
   1   0  -9    7.61    0.43
   0   0   9   29.25    1.37
   0   0  -9   28.59    1.21
  -1   0  -9   37.34    1.56
   1   0   9   37.23    1.76
  -2   0  -9    1.34    0.15
   2   0   9    1.15    0.15
  -3   0  -9    1.15    0.14
  -4   0  -9    0.52    0.11
  -5   0  -9    0.15    0.07
  -6   0  -9    0.00    0.06
 -10  -1   9   -0.01    0.04
  10  -1  -9    0.06    0.07
  10   1  -9    0.00    0.07
   9  -1  -9    0.13    0.07
  -9  -1   9    0.26    0.06
   9   1  -9    0.05    0.07
  -8  -1   9    0.02    0.03
   8  -1  -9    0.15    0.07
   8   1  -9    0.10    0.07
  -7  -1   9    1.73    0.11
   7  -1  -9    1.53    0.18
   7   1  -9    2.01    0.23
   6  -1  -9   23.72    1.04
   6  -1  -9   24.02    1.10
  -6  -1   9   24.66    0.92
  -6  -1   9   23.58    1.22
  -6   1   9   22.73    1.18
   6   1  -9   23.95    1.07
   5  -1  -9    0.01    0.04
   5  -1  -9    0.04    0.03
  -5  -1   9    0.07    0.05
  -5   1   9    0.06    0.04
   5   1  -9    0.04    0.04
  -4  -1   9    2.36    0.19
   4  -1  -9    2.25    0.14
   4  -1  -9    2.45    0.19
  -4   1   9    2.11    0.15
   4   1  -9    2.20    0.17
   4   1  -9    2.43    0.24
   3  -1  -9    2.03    0.12
   3  -1  -9    1.72    0.19
  -3  -1   9    2.03    0.17
  -3   1   9    2.21    0.13
   3   1  -9    2.28    0.22
  -3   1   9    1.96    0.13
   3   1  -9    1.98    0.15
  -2  -1   9    0.38    0.08
   2  -1  -9    0.31    0.08
   2  -1  -9    0.37    0.05
  -2   1   9    0.40    0.05
  -2   1   9    0.41    0.05
   2   1  -9    0.28    0.06
   2   1  -9    0.28    0.08
   1  -1  -9    1.64    0.11
  -1  -1   9    2.10    0.17
   1  -1  -9    1.89    0.20
  -1   1   9    1.88    0.12
   1   1  -9    1.86    0.14
   1   1  -9    2.03    0.21
  -1   1   9    1.93    0.12
   0  -1  -9    1.03    0.10
   0  -1   9    0.81    0.12
   0   1  -9    0.89    0.11
   0   1   9    1.07    0.09
   1  -1   9    2.48    0.21
  -1  -1  -9    2.82    0.17
  -1   1  -9    2.86    0.20
   1   1   9    2.61    0.19
  -2  -1  -9    2.30    0.17
   2  -1   9    2.15    0.23
  -2   1  -9    2.45    0.22
   3  -1   9    0.35    0.04
  -3  -1  -9    0.30    0.08
  -3   1  -9    0.24    0.08
   4  -1   9    0.33    0.05
  -4  -1  -9    0.29    0.08
  -4   1  -9    0.44    0.10
  -5  -1  -9   -0.06    0.05
   5  -1   9    0.01    0.03
  -5   1  -9    0.05    0.07
   6  -1   9    0.22    0.06
  -6  -1  -9    0.29    0.10
  -6   1  -9    0.12    0.10
  10  -2  -9    3.21    0.33
 -10  -2   9    3.04    0.22
   9  -2  -9    0.55    0.12
  -9  -2   9    0.29    0.08
   9   2  -9    0.58    0.14
  -8  -2   9   -0.05    0.03
   8  -2  -9    0.01    0.04
   8   2  -9    0.10    0.07
  -7  -2   9    4.04    0.23
   7  -2  -9    4.07    0.27
   7   2  -9    4.17    0.30
  -6  -2   9    4.61    0.24
  -6  -2   9    5.14    0.37
   6  -2  -9    4.70    0.28
   6   2  -9    5.23    0.33
  -6   2   9    4.77    0.31
   5  -2  -9    2.86    0.20
  -5  -2   9    2.48    0.14
  -5  -2   9    2.69    0.24
   5  -2  -9    2.52    0.16
   5   2  -9    2.29    0.22
  -5   2   9    2.31    0.17
   4  -2  -9    0.06    0.03
  -4  -2   9    0.06    0.05
   4  -2  -9    0.08    0.05
  -4  -2   9    0.08    0.03
  -4   2   9    0.08    0.02
   4   2  -9    0.10    0.05
  -4   2   9    0.08    0.02
  -3  -2   9   15.52    0.62
  -3  -2   9   15.74    0.81
   3  -2  -9   13.71    0.63
   3  -2  -9   15.25    0.63
   3  -2  -9   17.09    0.76
   3   2  -9   15.83    0.72
   2  -2  -9    1.26    0.15
   2  -2  -9    1.54    0.08
  -2  -2   9    1.55    0.18
  -2  -2   9    1.45    0.09
   2   2  -9    1.63    0.17
  -1  -2   9    8.48    0.36
   1  -2  -9    8.42    0.47
   1  -2  -9    8.33    0.36
  -1  -2   9    8.31    0.49
   1   2  -9    9.00    0.44
   0  -2   9   16.20    0.65
   0  -2   9   16.48    0.84
   0  -2  -9   16.07    0.68
   0   2   9   15.81    0.74
   0   2   9   15.38    0.74
   0   2  -9   16.84    0.75
  -1  -2  -9   19.83    0.83
   1  -2   9   19.36    0.78
   1  -2   9   19.75    1.01
  -1   2  -9   19.55    0.88
   1   2   9   18.71    0.92
   2  -2   9    0.43    0.06
  -2  -2  -9    0.57    0.08
   2  -2   9    0.46    0.11
  -2   2  -9    0.38    0.09
   3  -2   9    1.94    0.14
  -3  -2  -9    2.17    0.17
  -3   2  -9    2.05    0.22
   4  -2   9    0.00    0.03
  -4  -2  -9    0.02    0.04
  -4   2  -9    0.05    0.06
   5  -2   9    0.08    0.05
  -5  -2  -9    0.16    0.07
  -5   2  -9    0.09    0.07
  -6  -2  -9    0.01    0.06
  10  -3  -9    0.06    0.08
 -10  -3   9    0.00    0.05
  -9  -3   9    0.87    0.14
   9  -3  -9    0.69    0.14
  -8  -3   9    1.32    0.15
   8  -3  -9    1.14    0.16
   8   3  -9    1.35    0.21
   7  -3  -9    0.25    0.07
  -7  -3   9    0.21    0.06
   7   3  -9    0.25    0.10
  -6  -3   9    6.17    0.44
  -6  -3   9    5.99    0.32
   6  -3  -9    6.14    0.33
   6   3  -9    5.82    0.39
  -5  -3   9    0.01    0.03
  -5  -3   9    0.01    0.05
   5  -3  -9    0.03    0.03
   5   3  -9    0.03    0.05
  -5   3   9    0.02    0.02
   4  -3  -9    5.03    0.24
  -4  -3   9    4.87    0.37
  -4  -3   9    5.25    0.27
   4   3  -9    5.05    0.32
  -3  -3   9    0.02    0.03
  -3  -3   9    0.07    0.06
   3  -3  -9    0.02    0.04
   3   3  -9   -0.01    0.04
  -2  -3   9    0.01    0.03
  -2  -3   9    0.18    0.08
   2  -3  -9    0.14    0.06
   2   3  -9    0.13    0.06
  -1  -3   9    0.20    0.08
  -1  -3   9    0.14    0.04
   1   3  -9    0.13    0.06
   0  -3  -9   -0.02    0.02
   0  -3   9   -0.01    0.03
   0  -3   9    0.02    0.05
   0   3  -9   -0.02    0.04
  -1  -3  -9    1.68    0.12
   1  -3   9    1.76    0.13
   1  -3   9    1.75    0.23
   1   3   9    1.65    0.12
  -1   3  -9    1.88    0.21
  -2  -3  -9    0.35    0.07
   2  -3   9    0.30    0.07
   2  -3   9    0.42    0.08
  -2  -3  -9    0.35    0.07
  -2   3  -9    0.41    0.10
   3  -3   9    0.02    0.04
  -3  -3  -9   -0.02    0.03
  -3   3  -9    0.01    0.05
   4  -3   9    0.08    0.05
  -4  -3  -9    0.14    0.06
  -4   3  -9    0.07    0.07
   5  -3   9    0.04    0.05
  -5  -3  -9    0.11    0.07
   9  -4  -9    0.25    0.09
  -9  -4   9    0.14    0.08
  -8  -4   9    0.10    0.06
   8  -4  -9    0.04    0.05
  -7  -4   9    1.09    0.14
   7  -4  -9    1.12    0.15
  -6  -4   9    2.05    0.31
  -6  -4   9    1.61    0.18
   6  -4  -9    1.96    0.18
   6   4  -9    2.39    0.27
  -5  -4   9    0.58    0.10
   5  -4  -9    0.55    0.08
  -5  -4   9    0.41    0.12
  -5   4   9    0.54    0.06
   5   4  -9    0.44    0.11
  -4  -4   9    0.13    0.05
  -4  -4   9    0.07    0.06
   4  -4  -9    0.14    0.04
   4   4  -9    0.16    0.08
  -3  -4   9    7.88    0.51
  -3  -4   9    7.24    0.37
   3  -4  -9    7.45    0.32
   3   4  -9    7.64    0.45
  -2  -4   9    1.51    0.22
  -2  -4   9    1.20    0.14
   2   4  -9    1.30    0.18
   1  -4  -9    4.04    0.18
  -1  -4   9    3.81    0.23
  -1  -4   9    3.44    0.31
   1   4  -9    4.18    0.29
   0  -4  -9    8.51    0.39
   0  -4   9    8.18    0.55
   0  -4   9    9.43    0.43
   0   4  -9    9.17    0.50
  -1  -4  -9   11.90    0.54
   1  -4   9   11.99    0.56
   1  -4   9   12.40    0.72
  -1   4  -9   12.23    0.64
   2  -4   9    0.54    0.10
  -2  -4  -9    0.70    0.10
  -2   4  -9    0.71    0.15
   3  -4   9    0.74    0.12
   3  -4   9    0.89    0.13
  -3  -4  -9    0.73    0.11
  -4  -4  -9    0.01    0.04
  -4  -4  -9   -0.04    0.04
   4  -4   9    0.01    0.04
   8  -5  -9    0.33    0.10
  -8  -5   9    0.30    0.10
   7  -5  -9    0.40    0.10
  -7  -5   9    0.44    0.11
  -6  -5   9    6.49    0.39
   6  -5  -9    7.18    0.38
  -5  -5   9    0.34    0.09
   5  -5  -9    0.55    0.09
   4  -5  -9    0.74    0.09
  -4  -5   9    0.70    0.11
  -3  -5   9    1.24    0.15
   3  -5  -9    1.22    0.09
   2  -5  -9    0.11    0.03
  -2  -5   9    0.13    0.06
  -1  -5   9    1.15    0.14
   1  -5  -9    1.17    0.09
   0  -5  -9    0.55    0.08
   0  -5   9    0.50    0.10
   1  -5   9    0.54    0.11
  -1  -5  -9    0.56    0.08
  -2  -5  -9    0.73    0.10
   2  -5   9    0.85    0.14
   3  -5   9    0.17    0.07
  -3  -5  -9    0.10    0.05
   4  -5   9    0.06    0.06
   7  -6  -9    0.00    0.05
  -7  -6   9   -0.01    0.06
  -6  -6   9    0.76    0.15
   6  -6  -9    0.92    0.13
   5  -6  -9   -0.03    0.03
  -5  -6   9    0.01    0.06
  -4  -6   9   -0.03    0.05
   4  -6  -9    0.04    0.04
   3  -6  -9    2.45    0.16
  -3  -6   9    2.80    0.25
   2  -6  -9    1.68    0.13
  -2  -6   9    2.12    0.22
  -1  -6   9    1.19    0.17
   1  -6  -9    1.00    0.11
   0  -6   9    4.80    0.31
   0  -6  -9    4.37    0.25
   1  -6   9    7.23    0.41
  -1  -6  -9    7.23    0.38
  -2  -6  -9    0.59    0.10
   2  -6   9    0.78    0.14
  -4  -7   9    0.61    0.14
   4  -7  -9    0.78    0.11
   3  -7  -9    0.30    0.07
  -3  -7   9    0.66    0.14
   2  -7  -9    0.04    0.04
  -2  -7   9    0.17    0.09
  -1  -7   9    0.21    0.10
   1  -7  -9    0.25    0.07
   0  -7  -9    0.27    0.07
   0  -7   9    0.22    0.10
  10   0 -10    5.11    0.38
   9   0 -10    0.65    0.14
   8   0 -10    4.72    0.32
   7   0 -10    0.18    0.07
   6   0 -10    0.08    0.05
   5   0 -10    0.49    0.09
  -5   0  10    0.37    0.09
  -4   0  10   31.19    1.44
   4   0 -10   29.19    1.27
   3   0 -10    0.13    0.05
  -3   0  10    0.06    0.04
  -2   0  10    0.25    0.06
   2   0 -10    0.32    0.06
   1   0 -10    0.92    0.10
  -1   0  10    0.84    0.11
   0   0 -10   10.43    0.51
   0   0  10   11.50    0.58
  -1   0 -10    0.41    0.08
  -2   0 -10   -0.01    0.03
  -3   0 -10    0.52    0.10
  -4   0 -10    0.02    0.05
  -5   0 -10    0.23    0.10
 -10  -1  10    0.21    0.05
  10  -1 -10    0.26    0.11
  10   1 -10    0.09    0.09
  -9  -1  10    1.14    0.09
   9  -1 -10    1.27    0.19
   9   1 -10    1.55    0.22
  -8  -1  10    3.99    0.17
   8  -1 -10    3.73    0.28
   8   1 -10    4.13    0.30
   7  -1 -10    0.58    0.11
   7   1 -10    0.40    0.10
   6  -1 -10    3.51    0.23
   6   1 -10    3.46    0.25
  -5  -1  10    0.13    0.06
   5  -1 -10    0.21    0.06
  -5   1  10    0.14    0.05
   5   1 -10    0.14    0.06
   4  -1 -10    3.34    0.25
  -4  -1  10    2.94    0.24
   4  -1 -10    3.24    0.19
  -4   1  10    3.02    0.19
   4   1 -10    3.37    0.22
   3  -1 -10   10.46    0.46
  -3  -1  10   10.20    0.57
   3   1 -10   10.07    0.50
  -3   1  10   10.47    0.50
  -3   1  10   10.68    0.51
   2  -1 -10    2.99    0.17
  -2  -1  10    3.44    0.23
  -2   1  10    3.09    0.17
  -2   1  10    3.13    0.18
   2   1 -10    2.97    0.20
   1  -1 -10    0.00    0.02
  -1  -1  10    0.04    0.04
  -1   1  10    0.00    0.02
   1   1 -10    0.03    0.04
   0  -1 -10    2.92    0.17
   0  -1  10    2.75    0.22
   0   1 -10    2.93    0.20
   0   1  10    2.61    0.18
  -1  -1 -10    0.46    0.08
  -1   1 -10    0.46    0.09
  -2  -1 -10    0.11    0.05
  -2   1 -10    0.06    0.05
  -3  -1 -10    0.31    0.08
  -3   1 -10    0.32    0.09
  -4  -1 -10    0.03    0.05
  -4   1 -10    0.02    0.06
  -5  -1 -10    0.18    0.08
  -5   1 -10    0.05    0.07
 -10  -2  10    3.79    0.24
  10  -2 -10    3.70    0.36
  10   2 -10    4.84    0.44
  -9  -2  10    0.01    0.04
   9  -2 -10    0.04    0.06
   9   2 -10    0.06    0.07
   8  -2 -10    1.16    0.16
  -8  -2  10    1.08    0.11
   8   2 -10    1.12    0.18
  -7  -2  10    0.16    0.05
   7  -2 -10    0.20    0.07
   7   2 -10    0.22    0.09
  -6  -2  10    1.95    0.12
   6  -2 -10    1.89    0.18
   6   2 -10    1.88    0.21
  -5  -2  10    0.09    0.03
   5  -2 -10    0.06    0.04
  -5  -2  10   -0.02    0.05
   5   2 -10    0.10    0.06
  -5   2  10    0.07    0.03
  -4  -2  10   15.80    0.61
   4  -2 -10   15.77    0.67
   4  -2 -10   15.82    0.77
  -4  -2  10   15.07    0.83
   4   2 -10   15.78    0.75
  -3  -2  10    4.02    0.29
   3  -2 -10    3.61    0.18
   3   2 -10    3.61    0.25
   2  -2 -10    0.77    0.06
  -2  -2  10    0.68    0.12
   2   2 -10    0.77    0.12
  -1  -2  10    0.04    0.05
   1  -2 -10    0.01    0.02
   1   2 -10    0.00    0.03
   0  -2 -10   15.63    0.68
   0  -2  10   15.94    0.62
   0  -2  10   15.59    0.84
   0   2 -10   16.47    0.75
   0   2  10   15.54    0.73
   1  -2  10    0.80    0.07
  -1  -2 -10    0.90    0.10
  -1   2 -10    0.81    0.13
   2  -2  10    0.35    0.05
  -2  -2 -10    0.34    0.07
  -2   2 -10    0.47    0.10
  -3  -2 -10   -0.04    0.03
  -3   2 -10    0.03    0.05
  -4  -2 -10   -0.02    0.04
   4  -2  10   -0.05    0.03
  -4   2 -10   -0.02    0.06
  -5  -2 -10    0.10    0.07
   5  -2  10    0.01    0.03
  -5   2 -10    0.09    0.08
   9  -3 -10    0.15    0.07
  -9  -3  10    0.21    0.07
  -8  -3  10    0.93    0.12
   8  -3 -10    0.93    0.14
   8   3 -10    1.30    0.22
   7  -3 -10    2.45    0.19
  -7  -3  10    2.40    0.17
   7   3 -10    2.77    0.30
  -6  -3  10    3.43    0.20
   6  -3 -10    3.22    0.21
   6   3 -10    3.30    0.31
  -5  -3  10    0.10    0.04
   5  -3 -10    0.08    0.04
   5   3 -10    0.15    0.07
   4  -3 -10    7.06    0.32
  -4  -3  10    7.10    0.47
  -4  -3  10    7.23    0.34
   4   3 -10    7.13    0.42
  -3  -3  10    7.88    0.51
  -3  -3  10    8.42    0.37
   3   3 -10    7.42    0.45
  -2  -3  10    5.53    0.28
  -2  -3  10    6.13    0.41
   2   3 -10    6.31    0.36
  -1  -3  10    0.35    0.10
   1  -3 -10    0.39    0.04
  -1  -3  10    0.33    0.06
   1   3 -10    0.49    0.11
   0  -3  10    1.56    0.12
   0  -3 -10    1.72    0.11
   0  -3 -10    1.83    0.11
   0   3 -10    1.74    0.20
   1  -3  10    0.18    0.05
  -1  -3 -10    0.06    0.04
  -1   3 -10    0.15    0.08
   2  -3  10    0.21    0.05
  -2  -3 -10    0.20    0.06
  -2   3 -10    0.20    0.08
  -3  -3 -10    0.05    0.04
   3  -3  10    0.03    0.04
  -3   3 -10    0.00    0.06
   4  -3  10    0.00    0.04
  -4  -3 -10    0.02    0.05
  -4   3 -10    0.04    0.07
  -9  -4  10    0.21    0.07
   9  -4 -10    0.15    0.08
   8  -4 -10    0.79    0.14
  -8  -4  10    1.18    0.15
  -7  -4  10   -0.01    0.04
   7  -4 -10    0.03    0.04
   6  -4 -10    0.92    0.12
  -6  -4  10    0.87    0.12
   6   4 -10    1.05    0.18
   5  -4 -10    0.02    0.03
  -5  -4  10    0.02    0.04
   5   4 -10   -0.06    0.05
   4  -4 -10    9.09    0.40
  -4  -4  10    8.68    0.43
   4   4 -10    9.13    0.52
  -3  -4  10    2.18    0.16
   3   4 -10    2.11    0.24
  -2  -4  10    0.54    0.09
   2   4 -10    0.25    0.10
  -1  -4  10    0.03    0.04
   1  -4 -10    0.03    0.02
   0  -4  10    7.84    0.39
   0  -4 -10    7.80    0.35
   0   4 -10    7.36    0.46
  -1  -4 -10    0.72    0.09
   1  -4  10    0.95    0.12
  -1   4 -10    0.56    0.13
  -2  -4 -10    0.20    0.06
  -2  -4 -10    0.10    0.05
   2  -4  10    0.09    0.05
   2  -4  10    0.06    0.05
  -2   4 -10    0.11    0.08
   3  -4  10    0.00    0.04
  -3  -4 -10    0.00    0.04
  -3  -4 -10    0.00    0.04
   4  -4  10   -0.02    0.04
  -4  -4 -10    0.01    0.04
  -8  -5  10    0.88    0.15
   8  -5 -10    1.01    0.16
   7  -5 -10    0.05    0.05
  -7  -5  10    0.02    0.06
   6  -5 -10    0.68    0.10
  -6  -5  10    0.68    0.12
   5  -5 -10    0.48    0.08
  -5  -5  10    0.38    0.09
   4  -5 -10    1.07    0.10
  -4  -5  10    1.25    0.16
   3  -5 -10    4.93    0.23
  -3  -5  10    4.64    0.29
   2  -5 -10    0.61    0.06
  -2  -5  10    0.53    0.10
  -1  -5  10    0.05    0.04
   1  -5 -10    0.02    0.03
   0  -5  10    0.96    0.13
   0  -5 -10    1.34    0.10
  -1  -5 -10    0.05    0.04
   1  -5  10    0.04    0.06
  -2  -5 -10   -0.01    0.04
   2  -5  10    0.02    0.05
   6  -6 -10   -0.02    0.04
  -6  -6  10    0.01    0.06
  -5  -6  10    0.10    0.07
   5  -6 -10    0.15    0.06
   4  -6 -10    3.79    0.22
  -4  -6  10    3.99    0.28
  -3  -6  10    0.17    0.08
   3  -6 -10    0.31    0.06
  -2  -6  10    0.06    0.06
   2  -6 -10    0.09    0.04
   1  -6 -10   -0.02    0.03
  -1  -6  10   -0.01    0.06
   0  -6  10    2.04    0.21
   0  -6 -10    2.04    0.15
   1  -6  10    0.25    0.09
  -1  -6 -10    0.36    0.08
  10   0 -11    1.51    0.23
   9   0 -11    0.23    0.10
   8   0 -11   -0.04    0.04
   7   0 -11    2.71    0.26
   6   0 -11    0.19    0.07
   5   0 -11    0.80    0.11
   4   0 -11    1.59    0.16
   3   0 -11   -0.01    0.03
  -3   0  11    0.02    0.03
  -2   0  11    0.01    0.03
   2   0 -11    0.01    0.03
   1   0 -11    0.91    0.11
   0   0 -11    2.67    0.19
  -1   0 -11    1.06    0.13
  -2   0 -11    0.83    0.13
  -3   0 -11    0.03    0.05
  -4   0 -11    0.87    0.15
  10  -1 -11   -0.08    0.06
  10   1 -11    0.14    0.09
   9  -1 -11    0.08    0.06
   9   1 -11   -0.02    0.06
   8  -1 -11    0.19    0.07
   8   1 -11    0.18    0.08
   7  -1 -11    1.43    0.17
   7   1 -11    1.34    0.18
   6  -1 -11    0.11    0.05
   6   1 -11    0.21    0.08
   5  -1 -11    1.40    0.14
   5   1 -11    1.55    0.17
   4  -1 -11   16.97    0.72
   4   1 -11   16.30    0.76
  -4   1  11   15.97    0.78
   3  -1 -11    0.02    0.03
   3   1 -11   -0.04    0.03
  -3   1  11    0.03    0.02
   2  -1 -11    0.06    0.03
  -2   1  11    0.10    0.03
   2   1 -11    0.13    0.05
   1  -1 -11    1.93    0.13
   1   1 -11    1.74    0.18
  -1   1  11    1.83    0.13
   0  -1 -11    1.11    0.12
   0   1 -11    1.04    0.13
  -1  -1 -11    0.09    0.04
  -1   1 -11    0.17    0.06
  -2  -1 -11    0.07    0.05
  -2   1 -11    0.06    0.06
  -3  -1 -11    0.19    0.07
  -3   1 -11    0.15    0.07
  -4  -1 -11    0.14    0.07
  -4   1 -11    0.32    0.10
  -9  -2  11    0.07    0.04
   9  -2 -11    0.02    0.06
   9   2 -11    0.01    0.07
  -8  -2  11    0.18    0.04
   8  -2 -11    0.16    0.07
   8   2 -11    0.22    0.10
  -7  -2  11    0.18    0.03
   7  -2 -11    0.01    0.04
   7   2 -11    0.01    0.06
   6  -2 -11    0.02    0.04
   6   2 -11    0.10    0.07
   5  -2 -11    2.38    0.16
   5   2 -11    2.30    0.24
   4  -2 -11    0.00    0.03
   4   2 -11    0.03    0.05
   3  -2 -11   -0.02    0.02
   3   2 -11    0.03    0.05
   2  -2 -11    0.82    0.08
   2   2 -11    0.64    0.11
   1  -2 -11    0.04    0.03
   1   2 -11    0.02    0.04
   0  -2 -11    1.48    0.11
   0   2 -11    1.73    0.19
  -1  -2 -11    0.11    0.05
  -1   2 -11    0.04    0.06
  -2  -2 -11    0.06    0.04
  -2   2 -11    0.19    0.07
  -3  -2 -11    0.05    0.05
  -3   2 -11    0.03    0.06
  -4  -2 -11    1.08    0.16
  -4   2 -11    1.06    0.18
  -9  -3  11    0.07    0.05
   9  -3 -11    0.09    0.06
   9   3 -11    0.02    0.09
   8  -3 -11    0.96    0.15
  -8  -3  11    1.04    0.12
   8   3 -11    1.09    0.20
  -7  -3  11    0.65    0.09
   7  -3 -11    0.52    0.10
   7   3 -11    0.76    0.16
  -6  -3  11    1.05    0.11
   6  -3 -11    1.36    0.14
   6   3 -11    1.14    0.19
  -5  -3  11    0.01    0.03
   5  -3 -11    0.04    0.03
   5   3 -11    0.03    0.06
  -4  -3  11   13.04    0.55
   4  -3 -11   13.06    0.56
   4   3 -11   13.71    0.68
  -3  -3  11    0.84    0.09
   3   3 -11    0.94    0.16
  -2  -3  11    0.94    0.09
   2   3 -11    0.94    0.16
  -1  -3  11    0.36    0.06
   1  -3 -11    0.28    0.04
  -1  -3  11    0.37    0.06
   1   3 -11    0.35    0.10
   0  -3  11    0.06    0.03
   0  -3 -11    0.05    0.03
   0   3 -11    0.02    0.06
  -1  -3 -11    0.31    0.07
   1  -3  11    0.23    0.05
  -1   3 -11    0.34    0.11
   2  -3  11    0.22    0.05
  -2  -3 -11    0.17    0.06
  -2   3 -11    0.17    0.09
  -3  -3 -11    0.42    0.09
   3  -3  11    0.43    0.07
  -3   3 -11    0.26    0.10
  -8  -4  11    0.09    0.06
   8  -4 -11    0.02    0.05
  -7  -4  11    0.18    0.07
   7  -4 -11    0.07    0.05
   7   4 -11    0.30    0.11
  -6  -4  11    0.05    0.05
   6  -4 -11    0.02    0.04
   6   4 -11    0.07    0.09
   5  -4 -11    1.29    0.12
  -5  -4  11    0.99    0.12
   5   4 -11    1.68    0.22
  -4  -4  11    0.00    0.03
   4  -4 -11    0.01    0.02
   4   4 -11    0.04    0.07
  -3  -4  11    0.04    0.04
   3   4 -11   -0.06    0.05
  -2  -4  11    0.08    0.04
   2   4 -11    0.03    0.06
  -1  -4  11    0.19    0.06
   1  -4 -11    0.18    0.03
   1   4 -11    0.08    0.08
   0  -4 -11    0.91    0.09
   0  -4 -11    0.91    0.09
   0  -4  11    0.80    0.10
   0   4 -11    0.78    0.16
  -1  -4 -11    0.11    0.05
   1  -4  11    0.05    0.05
  -1  -4 -11    0.06    0.04
   1  -4  11    0.13    0.05
  -1   4 -11   -0.06    0.06
  -2  -4 -11    0.14    0.06
   2  -4  11    0.10    0.05
  -2   4 -11   -0.02    0.07
   7  -5 -11    0.29    0.08
  -7  -5  11    0.26    0.09
  -6  -5  11    0.03    0.05
   6  -5 -11    0.02    0.04
  -5  -5  11    0.87    0.13
   5  -5 -11    0.73    0.09
   4  -5 -11    5.94    0.27
  -4  -5  11    5.24    0.32
  -3  -5  11    0.01    0.04
   3  -5 -11   -0.01    0.02
  -2  -5  11    0.03    0.05
   2  -5 -11    0.07    0.02
   1  -5 -11    0.11    0.03
  -1  -5  11    0.13    0.06
   0  -5  11    0.64    0.11
   0  -5 -11    0.51    0.07
  -1  -5 -11    0.00    0.03
   1  -5  11    0.07    0.05
   5  -6 -11    0.40    0.08
  -5  -6  11    0.68    0.13
   4  -6 -11    0.31    0.06
  -4  -6  11    0.32    0.09
  -3  -6  11    0.19    0.08
   3  -6 -11    0.15    0.04
   2  -6 -11    0.01    0.03
  -2  -6  11    0.02    0.06
   1  -6 -11    0.44    0.07
  -1  -6  11    0.47    0.10
   9   0 -12   -0.06    0.05
   8   0 -12    0.07    0.07
   7   0 -12    0.36    0.09
   6   0 -12    0.10    0.05
   5   0 -12    0.05    0.04
   4   0 -12    0.06    0.04
   3   0 -12    0.51    0.09
   2   0 -12    0.73    0.11
   1   0 -12    0.12    0.05
   0   0 -12    0.66    0.11
  -1   0 -12    0.17    0.06
  -2   0 -12    0.34    0.09
  -3   0 -12    2.59    0.26
   9  -1 -12    0.06    0.07
   9   1 -12    0.22    0.10
   8  -1 -12    1.59    0.20
   8   1 -12    1.37    0.20
   7  -1 -12    0.55    0.11
   7   1 -12    0.64    0.13
   6  -1 -12    0.70    0.11
   6   1 -12    0.62    0.12
   5  -1 -12    1.11    0.13
   5   1 -12    1.11    0.15
   4  -1 -12    2.30    0.17
   4   1 -12    2.97    0.21
   3  -1 -12    0.02    0.03
   3   1 -12    0.05    0.04
   2  -1 -12    0.07    0.04
   2   1 -12    0.10    0.05
   1  -1 -12    0.11    0.04
   1   1 -12    0.09    0.05
   0  -1 -12    0.37    0.07
   0   1 -12    0.42    0.09
  -1  -1 -12    0.29    0.07
  -1   1 -12    0.30    0.08
  -2  -1 -12    0.71    0.12
  -2   1 -12    0.76    0.14
  -3  -1 -12    0.22    0.08
  -3   1 -12    0.35    0.11
   9  -2 -12    0.26    0.09
   9   2 -12    0.23    0.11
   8  -2 -12    0.26    0.09
   8   2 -12    0.49    0.13
   7  -2 -12    0.68    0.12
   7   2 -12    1.05    0.18
   6  -2 -12    0.30    0.08
   6   2 -12    0.19    0.08
   5  -2 -12    0.81    0.10
   5   2 -12    0.57    0.12
   4  -2 -12    0.04    0.03
   4   2 -12   -0.02    0.04
   3  -2 -12    2.09    0.13
   3   2 -12    1.88    0.20
   2  -2 -12    0.03    0.03
   2   2 -12    0.07    0.06
   1  -2 -12    0.06    0.03
   1   2 -12    0.02    0.05
   0  -2 -12    0.01    0.03
   0   2 -12    0.00    0.05
  -1  -2 -12    0.56    0.09
  -1   2 -12    0.48    0.11
  -2  -2 -12    0.13    0.06
  -2   2 -12    0.12    0.08
  -3  -2 -12    1.24    0.16
  -3   2 -12    0.99    0.17
  -8  -3  12    0.79    0.09
   8  -3 -12    0.90    0.14
   8   3 -12    1.02    0.19
   7  -3 -12    1.52    0.17
  -7  -3  12    1.45    0.10
   7   3 -12    1.28    0.21
  -6  -3  12    1.97    0.11
   6  -3 -12    2.10    0.16
   6   3 -12    2.01    0.25
  -5  -3  12    0.57    0.05
   5  -3 -12    0.69    0.09
   5   3 -12    0.73    0.15
   4  -3 -12    0.18    0.04
   4   3 -12    0.17    0.08
   3  -3 -12    0.31    0.04
   3   3 -12    0.26    0.09
   2  -3 -12    0.06    0.02
   2   3 -12    0.01    0.05
   1  -3 -12    0.55    0.07
   1   3 -12    0.59    0.13
   0  -3 -12    0.11    0.04
   0   3 -12    0.15    0.08
  -1  -3 -12    0.42    0.08
  -1   3 -12    0.80    0.16
  -2  -3 -12    0.06    0.05
  -2   3 -12    0.11    0.08
  -7  -4  12    0.57    0.09
   7  -4 -12    0.35    0.08
   7   4 -12    0.40    0.14
  -6  -4  12   -0.01    0.04
   6  -4 -12   -0.02    0.03
   6   4 -12    0.20    0.10
   5  -4 -12    0.15    0.05
  -5  -4  12    0.16    0.05
   5   4 -12    0.18    0.09
  -4  -4  12    0.02    0.03
   4  -4 -12    0.05    0.02
   4   4 -12    0.04    0.07
  -3  -4  12    0.52    0.08
   3   4 -12    0.70    0.15
  -2  -4  12    0.06    0.04
   2   4 -12    0.13    0.08
   1  -4 -12    0.08    0.03
  -1  -4  12    0.15    0.05
   1   4 -12   -0.01    0.07
   0  -4  12   -0.02    0.03
   0  -4  12    0.08    0.04
   0  -4 -12    0.06    0.03
   0   4 -12    0.03    0.07
  -1  -4 -12    0.14    0.05
   1  -4  12    0.09    0.04
  -1   4 -12    0.20    0.10
  -6  -5  12    0.19    0.07
   6  -5 -12    0.25    0.07
   5  -5 -12    0.71    0.09
  -5  -5  12    0.78    0.12
   4  -5 -12    0.66    0.07
  -4  -5  12    0.76    0.11
  -3  -5  12    0.00    0.04
  -2  -5  12    0.05    0.05
   1  -5 -12    0.01    0.03
  -1  -5  12    0.03    0.04
   8   0 -13    1.44    0.20
   7   0 -13    0.05    0.06
   6   0 -13    0.11    0.06
   5   0 -13    0.03    0.05
   4   0 -13    0.10    0.05
   3   0 -13    0.32    0.08
   2   0 -13    0.71    0.11
   1   0 -13    0.88    0.12
   0   0 -13    0.37    0.08
  -1   0 -13   -0.04    0.04
  -2   0 -13    0.06    0.05
   8  -1 -13    0.04    0.06
   8   1 -13   -0.06    0.05
   7  -1 -13    1.72    0.20
   7   1 -13    1.03    0.17
   6  -1 -13    1.56    0.17
   6   1 -13    1.20    0.18
   5  -1 -13    0.01    0.04
   5   1 -13    0.03    0.06
   4  -1 -13    0.03    0.03
   4   1 -13    0.04    0.05
   3  -1 -13    0.08    0.04
   3   1 -13    0.05    0.05
   2  -1 -13    0.03    0.04
   2   1 -13    0.08    0.05
   1  -1 -13    0.61    0.09
   1   1 -13    0.22    0.08
   0  -1 -13    0.50    0.09
   0   1 -13    0.56    0.11
  -1  -1 -13    0.03    0.04
  -1   1 -13   -0.02    0.05
  -2  -1 -13    0.10    0.07
   8  -2 -13    0.64    0.12
   8   2 -13    0.69    0.16
   7  -2 -13    0.61    0.11
   7   2 -13    0.52    0.13
   6  -2 -13    0.18    0.06
   6   2 -13    0.25    0.10
   5  -2 -13    0.04    0.04
   5   2 -13    0.01    0.06
   4  -2 -13    0.34    0.06
   4   2 -13    0.30    0.10
   3  -2 -13    0.13    0.04
   3   2 -13    0.06    0.06
   2  -2 -13    0.38    0.07
   2   2 -13    0.35    0.10
   1  -2 -13    0.12    0.05
   1   2 -13    0.20    0.08
   0  -2 -13    0.14    0.05
   0   2 -13    0.06    0.06
  -1  -2 -13   -0.04    0.04
  -1   2 -13    0.15    0.08
   7  -3 -13    0.17    0.07
   7   3 -13   -0.03    0.07
   6  -3 -13    0.47    0.08
   6   3 -13    0.64    0.15
   5  -3 -13    0.69    0.09
   5   3 -13    0.49    0.13
   4  -3 -13    0.20    0.04
   4   3 -13    0.21    0.09
   3  -3 -13    0.24    0.04
   3   3 -13    0.16    0.09
   2  -3 -13    0.14    0.04
   2   3 -13    0.03    0.06
   1  -3 -13    0.23    0.05
   1   3 -13    0.08    0.07
   0  -3 -13    0.00    0.03
   0   3 -13    0.07    0.07
  -1  -3 -13    0.06    0.05
  -1   3 -13    0.03    0.07
  -6  -4  13    0.04    0.04
   6  -4 -13    0.03    0.04
   6   4 -13    0.07    0.08
  -5  -4  13    0.05    0.03
   5  -4 -13    0.01    0.03
   5   4 -13   -0.04    0.06
  -4  -4  13    0.03    0.03
   4   4 -13    0.05    0.08
  -3  -4  13    0.02    0.03
   3   4 -13   -0.03    0.06
  -2  -4  13    0.10    0.03
   2   4 -13    0.14    0.08
   1  -4 -13    0.09    0.03
  -1  -4  13    0.10    0.03
   1   4 -13    0.19    0.09
   7   0 -14    0.03    0.06
   6   0 -14    0.69    0.13
   5   0 -14    0.90    0.14
   4   0 -14    0.07    0.06
   3   0 -14    1.89    0.19
   2   0 -14    0.37    0.09
   1   0 -14    0.26    0.08
   0   0 -14    0.07    0.05
   7  -1 -14    2.07    0.22
   7   1 -14    1.46    0.21
   6  -1 -14    0.08    0.06
   6   1 -14    0.07    0.06
   5  -1 -14    0.09    0.06
   5   1 -14    0.06    0.07
   4  -1 -14    0.08    0.05
   4   1 -14   -0.01    0.05
   3  -1 -14    0.15    0.05
   3   1 -14    0.14    0.07
   2  -1 -14    1.96    0.18
   2   1 -14    1.32    0.17
   1  -1 -14    0.07    0.05
   1   1 -14    0.06    0.06
   0  -1 -14    0.09    0.05
   0   1 -14    0.05    0.06
   7  -2 -14    0.16    0.07
   7   2 -14    0.17    0.09
   6  -2 -14    0.65    0.11
   6   2 -14    0.73    0.15
   5  -2 -14    0.05    0.05
   5   2 -14    0.10    0.07
   4  -2 -14    0.11    0.05
   4   2 -14    0.25    0.09
   3  -2 -14    0.95    0.11
   3   2 -14    0.81    0.15
   2  -2 -14    0.04    0.04
   2   2 -14    0.00    0.06
   1  -2 -14    0.08    0.04
   1   2 -14    0.11    0.08
   0  -2 -14    0.11    0.05
   0   2 -14    0.10    0.08
   6  -3 -14    0.62    0.10
   6   3 -14    0.51    0.15
   5  -3 -14    0.02    0.04
   5   3 -14    0.01    0.06
   4  -3 -14    0.06    0.04
   4   3 -14    0.00    0.07
   3  -3 -14    0.08    0.04
   3   3 -14    0.00    0.07
   2  -3 -14    1.15    0.11
   2   3 -14    0.91    0.17
   1  -3 -14    0.00    0.03
   1   3 -14   -0.04    0.06
   6   0 -15    0.07    0.06
   5   0 -15    0.08    0.06
   4   0 -15    0.56    0.12
   3   0 -15    0.03    0.05
   2   0 -15    0.38    0.10
   5  -1 -15    0.01    0.05
   5   1 -15    0.02    0.06
   4  -1 -15    0.46    0.10
   4   1 -15    0.52    0.12
   3  -1 -15    0.16    0.06
   3   1 -15    0.15    0.08
   2  -1 -15    0.43    0.09
   2   1 -15    0.38    0.11
   0   0   0    0.00    0.00
;
loop_
_symmetry_equiv_pos_as_xyz
'x, y, z'
'-x, y+1/2, -z'
loop_
_atom_site_label
_atom_site_type_symbol
_atom_site_fract_x
_atom_site_fract_y
_atom_site_fract_z
_atom_site_U_iso_or_equiv
_atom_site_adp_type
_atom_site_occupancy
_atom_site_calc_flag
O3 O 0.1110(2) 0.0567(14) -0.14096(18) 0.0882(9) Uani 1 d
O2 O 0.2036(2) 0.0556(15) 0.04647(18) 0.0866(9) Uani 1 d
O1 O 0.52192(17) 0.0456(9) 0.16625(13) 0.0433(4) Uani 1 d
N1 N 0.2216(2) 0.0482(11) -0.04844(19) 0.0504(5) Uani 1 d
C1 C 0.6809(10) 0.2234(7) -0.2967(6) 0.0564(16) Uani 1 d
H12 H 0.6893 0.23 -0.374 0.085 Uiso 1 calc
H11 H 0.7864 0.217 -0.2383 0.085 Uiso 1 calc
H1 H 0.6267 0.3336 -0.2834 0.085 Uiso 1 calc
C2 C 0.5864(3) 0.0488(12) -0.28829(19) 0.0435(6) Uani 1 d
C3 C 0.5596(3) 0.0511(12) -0.16901(19) 0.0400(5) Uani 1 d
C4 C 0.6925(3) 0.0486(12) -0.06456(19) 0.0423(5) Uani 1 d
H4 H 0.7955 0.0482 -0.0682 0.051 Uiso 1 calc
C5 C 0.6721(2) 0.0469(11) 0.04421(19) 0.0396(5) Uani 1 d
C6 C 0.7805(2) 0.0460(11) 0.16534(19) 0.0398(5) Uani 1 d
C7 C 0.6838(2) 0.0477(11) 0.23510(19) 0.0398(5) Uani 1 d
C8 C 0.7421(3) 0.0440(11) 0.3563(2) 0.0437(6) Uani 1 d
H5 H 0.6733 0.0381 0.3996 0.052 Uiso 1 calc
C9 C 0.9077(3) 0.0493(12) 0.4120(2) 0.0436(5) Uani 1 d
C10 C 0.9798(3) 0.0461(14) 0.5443(2) 0.0564(7) Uani 1 d
H2 H 0.9055 -0.0106 0.5764 0.085 Uiso 1 calc
H7 H 1.0027 0.1727 0.5734 0.085 Uiso 1 calc
H6 H 1.0774 -0.0258 0.5678 0.085 Uiso 1 calc
C11 C 0.6826(9) -0.1299(7) -0.2953(6) 0.0550(16) Uani 1 d
H17 H 0.6235 -0.2399 -0.2881 0.082 Uiso 1 calc
H3 H 0.7844 -0.1282 -0.2322 0.082 Uiso 1 calc
H16 H 0.6995 -0.1326 -0.3698 0.082 Uiso 1 calc
C12 C 0.4074(3) 0.0459(12) -0.1595(2) 0.0416(5) Uani 1 d
H10 H 0.3179 0.0401 -0.2281 0.05 Uiso 1 calc
C13 C 0.3850(2) 0.0492(12) -0.0510(2) 0.0405(5) Uani 1 d
C14 C 0.5169(2) 0.0461(11) 0.05138(19) 0.0382(5) Uani 1 d
C15 C 0.9459(3) 0.0454(12) 0.2213(2) 0.0455(6) Uani 1 d
H9 H 1.0144 0.0458 0.1776 0.055 Uiso 1 calc
C16 C 1.0060(3) 0.0443(13) 0.3427(2) 0.0481(6) Uani 1 d
H8 H 1.1167 0.0401 0.3805 0.058 Uiso 1 calc
C17 C 0.4291(3) 0.0445(15) -0.3922(2) 0.0578(7) Uani 1 d
H15 H 0.4512 0.0346 -0.4646 0.087 Uiso 1 calc
H14 H 0.3702 0.1583 -0.3929 0.087 Uiso 1 calc
H13 H 0.3666 -0.062 -0.3846 0.087 Uiso 1 calc
loop_
_atom_site_aniso_label
_atom_site_aniso_U_11
_atom_site_aniso_U_22
_atom_site_aniso_U_33
_atom_site_aniso_U_23
_atom_site_aniso_U_13
_atom_site_aniso_U_12
O3 0.0358(10) 0.159(3) 0.0691(13) 0.023(4) 0.0171(9) 0.011(4)
O2 0.0474(11) 0.157(3) 0.0687(13) -0.019(4) 0.0367(10) -0.002(4)
O1 0.0378(8) 0.0509(9) 0.0476(9) -0.002(2) 0.0230(7) 0.006(3)
N1 0.0368(11) 0.0584(13) 0.0616(13) -0.001(3) 0.0241(10) -0.006(4)
C1 0.061(5) 0.060(3) 0.053(3) -0.010(3) 0.026(3) -0.007(3)
C2 0.0410(12) 0.0480(13) 0.0475(12) -0.005(4) 0.0231(10) 0.002(4)
C3 0.0416(12) 0.0376(12) 0.0467(12) 0.002(3) 0.0229(10) 0.002(3)
C4 0.0354(11) 0.0484(13) 0.0497(12) 0.002(4) 0.0233(10) -0.001(4)
C5 0.0357(11) 0.0382(11) 0.0496(12) -0.007(3) 0.0210(9) 0.005(3)
C6 0.0396(12) 0.0389(11) 0.0470(12) 0.002(3) 0.0230(10) 0.000(4)
C7 0.0351(11) 0.0377(11) 0.0509(12) 0.002(3) 0.0205(9) -0.003(4)
C8 0.0447(13) 0.0439(13) 0.0517(13) 0.011(3) 0.0282(11) 0.008(4)
C9 0.0446(13) 0.0381(12) 0.0512(13) -0.006(3) 0.0202(10) -0.003(4)
C10 0.0536(15) 0.0648(17) 0.0528(15) 0.019(4) 0.0208(12) 0.009(5)
C11 0.062(4) 0.052(3) 0.066(4) -0.012(3) 0.042(4) 0.004(3)
C12 0.0379(11) 0.0412(12) 0.0489(12) 0.000(3) 0.0189(10) 0.001(4)
C13 0.0327(11) 0.0401(12) 0.0548(13) 0.010(3) 0.0228(10) 0.006(3)
C14 0.0395(11) 0.0358(11) 0.0470(12) -0.004(3) 0.0246(9) -0.001(4)
C15 0.0390(12) 0.0507(13) 0.0540(13) 0.004(4) 0.0251(10) 0.008(4)
C16 0.0387(12) 0.0535(14) 0.0542(14) 0.001(4) 0.0188(10) 0.009(4)
C17 0.0552(15) 0.0716(18) 0.0494(14) 0.001(4) 0.0214(12) 0.003(5)
loop_
_atom_type_symbol
_atom_type_description
_atom_type_scat_dispersion_real
_atom_type_scat_dispersion_imag
_atom_type_scat_source
C C 0.0033 0.0016 'International Tables Vol C Tables 4.2.6.8 and 6.1.1.4'
H H 0 0 'International Tables Vol C Tables 4.2.6.8 and 6.1.1.4'
N N 0.0061 0.0033 'International Tables Vol C Tables 4.2.6.8 and 6.1.1.4'
O O 0.0106 0.006 'International Tables Vol C Tables 4.2.6.8 and 6.1.1.4'
loop_
_geom_angle_atom_site_label_1
_geom_angle_atom_site_label_2
_geom_angle_atom_site_label_3
_geom_angle
C14 O1 C7 105.74(15)
O3 N1 O2 122.8(2)
O3 N1 C13 118.6(2)
O2 N1 C13 118.3(2)
C2 C1 H12 109.5
C2 C1 H11 109.5
H12 C1 H11 109.5
C2 C1 H1 109.5
H12 C1 H1 109.5
H11 C1 H1 109.5
C1 C2 C17 109.4(6)
C1 C2 C3 108.7(5)
C17 C2 C3 112.16(18)
C1 C2 C11 109.75(18)
C17 C2 C11 107.8(6)
C3 C2 C11 109.0(5)
C12 C3 C4 117.8(2)
C12 C3 C2 122.9(2)
C4 C3 C2 119.25(18)
C5 C4 C3 120.58(19)
C5 C4 H4 119.7
C3 C4 H4 119.7
C4 C5 C14 120.5(2)
C4 C5 C6 134.32(19)
C14 C5 C6 105.23(18)
C15 C6 C7 118.3(2)
C15 C6 C5 135.6(2)
C7 C6 C5 106.02(18)
C8 C7 O1 124.71(18)
C8 C7 C6 123.9(2)
O1 C7 C6 111.34(19)
C7 C8 C9 117.6(2)
C7 C8 H5 121.2
C9 C8 H5 121.2
C8 C9 C16 118.9(2)
C8 C9 C10 120.4(2)
C16 C9 C10 120.5(2)
C9 C10 H2 109.5
C9 C10 H7 109.5
H2 C10 H7 109.5
C9 C10 H6 109.5
H2 C10 H6 109.5
H7 C10 H6 109.5
C2 C11 H17 109.5
C2 C11 H3 109.5
H17 C11 H3 109.5
C2 C11 H16 109.5
H17 C11 H16 109.5
H3 C11 H16 109.5
C13 C12 C3 122.2(2)
C13 C12 H10 118.9
C3 C12 H10 118.9
C14 C13 C12 119.37(18)
C14 C13 N1 121.64(19)
C12 C13 N1 118.9(2)
O1 C14 C13 128.86(18)
O1 C14 C5 111.66(18)
C13 C14 C5 119.5(2)
C16 C15 C6 118.4(2)
C16 C15 H9 120.8
C6 C15 H9 120.8
C15 C16 C9 122.8(2)
C15 C16 H8 118.6
C9 C16 H8 118.6
C2 C17 H15 109.5
C2 C17 H14 109.5
H15 C17 H14 109.5
C2 C17 H13 109.5
H15 C17 H13 109.5
H14 C17 H13 109.5
loop_
_geom_bond_atom_site_label_1
_geom_bond_atom_site_label_2
_geom_bond_distance
O3 N1 1.208(3)
O2 N1 1.209(3)
O1 C14 1.370(2)
O1 C7 1.390(2)
N1 C13 1.460(3)
C1 C2 1.519(10)
C1 H12 0.96
C1 H11 0.96
C1 H1 0.96
C2 C17 1.522(3)
C2 C3 1.536(3)
C2 C11 1.547(9)
C3 C12 1.395(3)
C3 C4 1.398(3)
C4 C5 1.384(3)
C4 H4 0.93
C5 C14 1.409(3)
C5 C6 1.446(3)
C6 C15 1.389(3)
C6 C7 1.392(3)
C7 C8 1.372(3)
C8 C9 1.390(3)
C8 H5 0.93
C9 C16 1.400(3)
C9 C10 1.501(3)
C10 H2 0.96
C10 H7 0.96
C10 H6 0.96
C11 H17 0.96
C11 H3 0.96
C11 H16 0.96
C12 C13 1.388(3)
C12 H10 0.93
C13 C14 1.378(3)
C15 C16 1.375(3)
C15 H9 0.93
C16 H8 0.93
C17 H15 0.96
C17 H14 0.96
C17 H13 0.96
loop_
_geom_torsion_atom_site_label_1
_geom_torsion_atom_site_label_2
_geom_torsion_atom_site_label_3
_geom_torsion_atom_site_label_4
_geom_torsion
C1 C2 C3 C12 122.3(8)
C17 C2 C3 C12 1.2(12)
C11 C2 C3 C12 -118.1(8)
C1 C2 C3 C4 -61.1(8)
C17 C2 C3 C4 177.9(7)
C11 C2 C3 C4 58.5(8)
C12 C3 C4 C5 -1.9(12)
C2 C3 C4 C5 -178.7(7)
C3 C4 C5 C14 0.5(12)
C3 C4 C5 C6 -179.3(8)
C4 C5 C6 C15 -0.5(16)
C14 C5 C6 C15 179.7(10)
C4 C5 C6 C7 178.9(9)
C14 C5 C6 C7 -0.9(8)
C14 O1 C7 C8 -178.6(7)
C14 O1 C7 C6 -1.1(8)
C15 C6 C7 C8 -1.7(12)
C5 C6 C7 C8 178.7(7)
C15 C6 C7 O1 -179.2(7)
C5 C6 C7 O1 1.2(8)
O1 C7 C8 C9 -179.2(8)
C6 C7 C8 C9 3.6(11)
C7 C8 C9 C16 -4.5(11)
C7 C8 C9 C10 179.9(7)
C4 C3 C12 C13 3.7(12)
C2 C3 C12 C13 -179.6(7)
C3 C12 C13 C14 -4.0(12)
C3 C12 C13 N1 178.4(8)
O3 N1 C13 C14 177.8(8)
O2 N1 C13 C14 4.2(13)
O3 N1 C13 C12 -4.6(13)
O2 N1 C13 C12 -178.3(8)
C7 O1 C14 C13 -178.3(7)
C7 O1 C14 C5 0.5(9)
C12 C13 C14 O1 -178.9(7)
N1 C13 C14 O1 -1.4(13)
C12 C13 C14 C5 2.4(12)
N1 C13 C14 C5 179.9(8)
C4 C5 C14 O1 -179.6(7)
C6 C5 C14 O1 0.2(9)
C4 C5 C14 C13 -0.7(12)
C6 C5 C14 C13 179.1(7)
C7 C6 C15 C16 0.7(13)
C5 C6 C15 C16 -179.9(9)
C6 C15 C16 C9 -1.9(13)
C8 C9 C16 C15 3.9(13)
C10 C9 C16 C15 179.5(9)
