#------------------------------------------------------------------------------
#$Date: 2019-11-23 09:16:34 +0200 (Sat, 23 Nov 2019) $
#$Revision: 232684 $
#$URL: file:///home/coder/svn-repositories/cod/cif/7/23/53/7235321.cif $
#------------------------------------------------------------------------------
#
# This file is available in the Crystallography Open Database (COD),
# http://www.crystallography.net/
#
# All data on this site have been placed in the public domain by the
# contributors.
#
data_7235321
loop_
_publ_author_name
'Lu, Yuhua'
'Bolokowicz, Andrew. J.'
'Reeb, Sarah A.'
'Wiseman, Joshua D.'
'Wheeler, Kraig A.'
_publ_section_title
;
 Chiral transmission to crystal photodimerizations of leucine--methionine
 quasiracemic assemblies
;
_journal_issue                   16
_journal_name_full               'RSC Advances'
_journal_page_first              8125
_journal_paper_doi               10.1039/c3ra47270a
_journal_volume                  4
_journal_year                    2014
_chemical_formula_moiety         'C11 H11 N O6 S, C H2 Cl2'
_chemical_formula_sum            'C12 H13 Cl2 N O6 S'
_chemical_formula_weight         370.19
_space_group_crystal_system      triclinic
_space_group_IT_number           2
_space_group_name_Hall           '-P 1'
_space_group_name_H-M_alt        'P -1'
_atom_sites_solution_hydrogens   mixed
_audit_creation_method           SHELXL-2013
_cell_angle_alpha                91.867(1)
_cell_angle_beta                 93.641(1)
_cell_angle_gamma                97.715(2)
_cell_formula_units_Z            2
_cell_length_a                   5.0738(1)
_cell_length_b                   8.1430(2)
_cell_length_c                   18.6485(4)
_cell_measurement_reflns_used    3256
_cell_measurement_temperature    100(2)
_cell_measurement_theta_max      67.072
_cell_measurement_theta_min      4.757
_cell_volume                     761.31(3)
_computing_cell_refinement       APEX2
_computing_data_collection       APEX2
_computing_data_reduction
;
SAINT (Bruker, 2010) and XPREP (Bruker, 2010)
;
_computing_molecular_graphics    'XSEED (Barbour, 2001)'
_computing_publication_material  'XSEED (Barbour, 2001)'
_computing_structure_refinement  'SHELXL-2013 (Sheldrick, 2013)'
_computing_structure_solution    'SHELXL-2013 (Sheldrick, 2013)'
_diffrn_ambient_temperature      100(2)
_diffrn_detector_area_resol_mean 8.33
_diffrn_measured_fraction_theta_full 0.968
_diffrn_measured_fraction_theta_max 0.965
_diffrn_measurement_device_type  'Bruker APEXII CCD'
_diffrn_measurement_method       'phi and omega scans'
_diffrn_radiation_monochromator  graphite
_diffrn_radiation_source         'fine-focus sealed tube'
_diffrn_radiation_type           CuK\a
_diffrn_radiation_wavelength     1.54178
_diffrn_reflns_av_R_equivalents  0.0597
_diffrn_reflns_av_unetI/netI     0.0432
_diffrn_reflns_Laue_measured_fraction_full 0.968
_diffrn_reflns_Laue_measured_fraction_max 0.965
_diffrn_reflns_limit_h_max       6
_diffrn_reflns_limit_h_min       -6
_diffrn_reflns_limit_k_max       9
_diffrn_reflns_limit_k_min       -9
_diffrn_reflns_limit_l_max       22
_diffrn_reflns_limit_l_min       -22
_diffrn_reflns_number            13623
_diffrn_reflns_point_group_measured_fraction_full 0.968
_diffrn_reflns_point_group_measured_fraction_max 0.965
_diffrn_reflns_theta_full        67.679
_diffrn_reflns_theta_max         67.922
_diffrn_reflns_theta_min         2.376
_exptl_absorpt_coefficient_mu    5.394
_exptl_absorpt_correction_T_max  0.938
_exptl_absorpt_correction_T_min  0.561
_exptl_absorpt_correction_type   multi-scan
_exptl_absorpt_process_details   'SADABS (Bruker, 2010)'
_exptl_crystal_colour            colorless
_exptl_crystal_density_diffrn    1.615
_exptl_crystal_description       'transparent plate'
_exptl_crystal_F_000             380
_exptl_crystal_size_max          0.121
_exptl_crystal_size_mid          0.113
_exptl_crystal_size_min          0.012
_refine_diff_density_max         0.632
_refine_diff_density_min         -0.784
_refine_diff_density_rms         0.117
_refine_ls_extinction_method     none
_refine_ls_goodness_of_fit_ref   1.062
_refine_ls_hydrogen_treatment    mixed
_refine_ls_matrix_type           full
_refine_ls_number_parameters     208
_refine_ls_number_reflns         2669
_refine_ls_number_restraints     3
_refine_ls_restrained_S_all      1.062
_refine_ls_R_factor_all          0.0804
_refine_ls_R_factor_gt           0.0619
_refine_ls_shift/su_max          0.000
_refine_ls_shift/su_mean         0.000
_refine_ls_structure_factor_coef Fsqd
_refine_ls_weighting_details
'w=1/[\s^2^(Fo^2^)+(0.1211P)^2^+1.3386P] where P=(Fo^2^+2Fc^2^)/3'
_refine_ls_weighting_scheme      calc
_refine_ls_wR_factor_gt          0.1825
_refine_ls_wR_factor_ref         0.1989
_reflns_Friedel_coverage         0.000
_reflns_number_gt                2051
_reflns_number_total             2669
_reflns_threshold_expression     'I > 2\s(I)'
_cod_data_source_file            c3ra47270a.cif
_cod_data_source_block           kaw56
_cod_database_code               7235321
_shelx_space_group_comment
;
The symmetry employed for this shelxl refinement is uniquely defined
by the following loop, which should always be used as a source of
symmetry information in preference to the above space-group names.
They are only intended as comments.
;
_shelx_estimated_absorpt_t_min   0.561
_shelx_estimated_absorpt_t_max   0.938
_shelxl_version_number           2013-4
_shelx_res_file
;
REM  kaw56 in P-1
REM R1 =  0.0615 for    2051 Fo > 4sig(Fo)  and  0.0798 for all    2669 data
REM    211 parameters refined using      0 restraints
REM Highest difference peak  0.636,  deepest hole -0.777,  1-sigma level  0.117
TITL kaw56 in P-1
CELL 1.54178 5.0738 8.1430 18.6485 91.867 93.641 97.715
ZERR 2.0000 0.0001 0.0002 0.0004 0.001 0.001 0.002
LATT 1
SFAC C H N O S CL
UNIT 24 26 2 12 2 4
MERG 2
SHEL 99999.00 0.83
FMAP 2
GRID
PLAN 20
TEMP -173
SIZE 0.012 0.113 0.121
DFIX 0.85 0.02 O1 H1
DFIX 0.85 0.02 O5 H4
DFIX 0.85 0.02 N1 H7
BOND $H
CONF
EQIV $1 -X-1, -Y-1, -Z
EQIV $2 -X, 1-Y, 1-Z
EQIV $3 X-1, Y, Z
HTAB O1 O2_$1
HTAB O5 O6_$2
HTAB N1 O3_$3
L.S. 10
ACTA
WGHT    0.121100    1.338600
FVAR       0.18758
CL1   6    0.687039    1.093251    0.425131    11.00000    0.07295    0.05988 =
         0.06993    0.00378    0.00896    0.01545
CL2   6    1.002117    0.990138    0.310413    11.00000    0.06124    0.05028 =
         0.05580    0.00575    0.00429    0.00161
S1    5    0.542412    0.558724    0.237362    11.00000    0.01959    0.01544 =
         0.02479   -0.00086    0.00117   -0.00072
O1    4   -0.205013   -0.408366    0.048563    11.00000    0.02644    0.01522 =
         0.02871   -0.00195   -0.00718    0.00373
H1    2   -0.275593   -0.499026    0.032354    11.00000   -1.20000
O2    4   -0.561922   -0.300231    0.003535    11.00000    0.01774    0.01902 =
         0.03047   -0.00025   -0.00497   -0.00160
O3    4    0.810210    0.542613    0.262158    11.00000    0.01635    0.02621 =
         0.03717   -0.00414   -0.00260   -0.00087
O4    4    0.487583    0.692033    0.193617    11.00000    0.03150    0.01560 =
         0.03234    0.00338    0.00190    0.00009
O5    4    0.249855    0.370260    0.473756    11.00000    0.04734    0.04338 =
         0.03867    0.01479    0.01429    0.01274
H4    2    0.162525    0.409334    0.506715    11.00000   -1.20000
O6    4    0.081451    0.584399    0.424788    11.00000    0.04212    0.04453 =
         0.02769    0.00464    0.00480    0.01445
N1    3    0.378702    0.577068    0.309223    11.00000    0.02230    0.02505 =
         0.02551   -0.00034    0.00069    0.00345
H7    2    0.226039    0.606423    0.301746    11.00000   -1.20000
C1    1   -0.333039   -0.285633    0.036506    11.00000    0.02423    0.01669 =
         0.01825   -0.00181    0.00218   -0.00022
C2    1   -0.208606   -0.119191    0.061980    11.00000    0.02165    0.01385 =
         0.02465   -0.00092    0.00202    0.00021
AFIX  43
H2    2   -0.296758   -0.027042    0.049860    11.00000   -1.20000
AFIX   0
C3    1    0.022659   -0.091524    0.101376    11.00000    0.02163    0.01570 =
         0.02304    0.00011    0.00109    0.00219
AFIX  43
H3    2    0.110071   -0.185163    0.111382    11.00000   -1.20000
AFIX   0
C4    1    0.154092    0.069483    0.130585    11.00000    0.01829    0.01915 =
         0.02115    0.00108    0.00078    0.00153
C5    1    0.056837    0.218315    0.114068    11.00000    0.02194    0.01901 =
         0.01869    0.00093   -0.00220    0.00186
AFIX  43
H5    2   -0.094621    0.215846    0.081169    11.00000   -1.20000
AFIX   0
C6    1    0.177587    0.367525    0.144806    11.00000    0.02163    0.01812 =
         0.02135    0.00360   -0.00107    0.00408
AFIX  43
H6    2    0.108991    0.467335    0.133681    11.00000   -1.20000
AFIX   0
C7    1    0.403971    0.371047    0.192951    11.00000    0.01763    0.01853 =
         0.02001   -0.00129    0.00076    0.00001
C8    1    0.506409    0.225597    0.208186    11.00000    0.02036    0.01954 =
         0.02488    0.00063   -0.00404    0.00398
AFIX  43
H8    2    0.660820    0.228544    0.240057    11.00000   -1.20000
AFIX   0
C9    1    0.383417    0.076133    0.176903    11.00000    0.02083    0.01990 =
         0.02853    0.00054   -0.00345    0.00346
AFIX  43
H9    2    0.455573   -0.023060    0.187006    11.00000   -1.20000
AFIX   0
C10   1    0.226070    0.476732    0.422972    11.00000    0.02988    0.03242 =
         0.02761    0.00202   -0.00181    0.00177
C11   1    0.390203    0.447703    0.361230    11.00000    0.03575    0.02679 =
         0.03018    0.00511    0.00239    0.00445
AFIX  23
H11A  2    0.577597    0.446221    0.379274    11.00000   -1.20000
H11B  2    0.323587    0.338320    0.337352    11.00000   -1.20000
AFIX   0
C13   1    0.839741    0.931987    0.388374    11.00000    0.09672    0.04025 =
         0.06653    0.00734    0.01779    0.00570
AFIX  23
H13B  2    0.703028    0.834734    0.376295    11.00000   -1.20000
H13A  2    0.971202    0.898861    0.424730    11.00000   -1.20000
AFIX   0
HKLF 4

REM  kaw56 in P-1
REM R1 =  0.0619 for    2051 Fo > 4sig(Fo)  and  0.0804 for all    2669 data
REM    208 parameters refined using      3 restraints

END

WGHT      0.1212      1.3342

REM Highest difference peak  0.632,  deepest hole -0.784,  1-sigma level  0.117
Q1    1   0.2971  0.3645  0.1697  11.00000  0.05    0.63
Q2    1   0.5292  0.6253  0.2201  11.00000  0.05    0.53
Q3    1   0.6521  0.5541  0.2409  11.00000  0.05    0.52
Q4    1  -0.4568 -0.3078  0.0152  11.00000  0.05    0.52
Q5    1  -0.0889 -0.1023  0.0854  11.00000  0.05    0.50
Q6    1  -0.2862 -0.2127  0.0515  11.00000  0.05    0.49
Q7    1  -0.3047 -0.3792  0.0498  11.00000  0.05    0.49
Q8    1   0.4317  0.2977  0.1970  11.00000  0.05    0.46
Q9    1  -0.5798 -0.2582  0.0009  11.00000  0.05    0.45
Q10   1   0.2388  0.0607  0.1577  11.00000  0.05    0.44
Q11   1  -0.5520 -0.3377 -0.0200  11.00000  0.05    0.44
Q12   1   0.1330  0.1525  0.1183  11.00000  0.05    0.43
Q13   1   0.1070  0.1207  0.1304  11.00000  0.05    0.41
Q14   1   0.5024  0.5071  0.2269  11.00000  0.05    0.40
Q15   1   0.0875  0.0063  0.1238  11.00000  0.05    0.39
Q16   1  -0.2586 -0.1038  0.0684  11.00000  0.05    0.37
Q17   1   0.6936  0.9338  0.3479  11.00000  0.05    0.35
Q18   1   0.4807  0.5782  0.2835  11.00000  0.05    0.34
Q19   1   0.8038  0.9565  0.3374  11.00000  0.05    0.34
Q20   1   0.8909  0.5331  0.2601  11.00000  0.05    0.32
;
_shelx_res_checksum              33593
_shelx_hkl_file
;
  -1   0   0   28.49    1.43
  -1   0   0   26.74    1.59
  -1   0   0   26.99    1.16
   1   0   0   28.83    1.09
   1   0   0   24.36    1.33
   1   0   0   28.35    1.59
  -2   0   0   14.46    0.95
  -2   0   0   15.46    0.83
   2   0   0   15.14    0.71
   2   0   0   13.72    1.01
   2   0   0   13.78    0.83
  -3   0   0    4.58    0.65
  -3   0   0    5.05    0.57
   3   0   0    4.53    0.62
   3   0   0    5.41    0.61
   3   0   0    4.31    0.62
   3   0   0    4.62    0.55
   3   0   0    5.58    0.47
  -4   0   0    8.54    1.08
   4   0   0    7.76    0.73
   4   0   0    7.89    0.72
   4   0   0    6.59    0.84
  -5   0   0    7.90    1.10
   5   0   0    5.02    0.78
   5   0   0    5.19    0.62
   5   0   0    5.80    0.70
   5   0   0    4.76    0.80
   5   0   0    5.74    0.64
   5   0   0    5.36    0.65
   5   0   0    5.68    0.74
   6   0   0    1.39    0.30
   6   0   0    1.70    0.35
   6   0   0    1.81    0.34
   6  -1   0    6.49    0.65
   6  -1   0    7.65    0.61
   6  -1   0    5.43    0.48
   5  -1   0    0.37    0.36
   5  -1   0   -0.21    0.65
   5  -1   0    1.51    0.51
   5  -1   0   -0.24    0.38
   5  -1   0    0.27    0.50
   5  -1   0    1.07    0.58
   5  -1   0   -0.12    0.30
  -5   1   0    0.10    0.66
   4  -1   0    2.07    0.43
   4  -1   0    2.39    0.60
   4  -1   0    3.08    0.49
   4  -1   0    2.68    0.60
   4  -1   0    2.02    0.60
  -4   1   0    1.70    0.76
   3  -1   0   34.19    1.93
   3  -1   0   35.20    1.49
   3  -1   0   31.94    1.73
   3  -1   0   34.43    1.70
   3  -1   0   35.51    2.14
  -3   1   0   32.33    1.56
  -3   1   0   33.22    1.89
  -3   1   0   36.03    2.01
   2  -1   0   23.36    1.00
   2  -1   0   23.51    1.42
   2  -1   0   19.99    1.26
  -2   1   0   22.82    1.07
  -2   1   0   23.53    1.34
   1  -1   0  385.00   16.92
   1  -1   0  373.16   20.60
   1  -1   0  383.42   13.97
  -1   1   0  374.66   14.58
  -1   1   0  375.76   18.27
  -1   1   0  363.20   21.23
   0  -1   0   48.45    2.20
   0  -1   0   47.92    1.81
   0   1   0   47.94    1.90
   0   1   0   47.72    2.77
   0   1   0   48.11    2.66
   0   1   0   49.03    2.40
  -1  -1   0   29.14    1.58
  -1  -1   0   25.13    1.17
   1   1   0   25.60    1.53
   1   1   0   25.73    1.21
   1   1   0   25.36    1.37
   1   1   0   24.73    1.03
  -2  -1   0    1.52    0.41
   2   1   0    1.88    0.42
   2   1   0    1.09    0.28
   2   1   0    1.85    0.40
  -3  -1   0   80.34    4.17
  -3  -1   0   78.67    3.39
   3   1   0   78.53    4.63
   3   1   0   81.90    3.66
   3   1   0   77.48    3.80
   3   1   0   78.64    3.15
   3   1   0   79.94    4.09
   4   1   0    3.51    0.66
   4   1   0    3.86    0.55
   4   1   0    3.97    0.70
   4   1   0    3.41    0.59
   4   1   0    4.50    0.62
   4   1   0    4.30    0.74
   4   1   0    3.69    0.56
  -5  -1   0    1.03    0.72
   5   1   0   -0.09    0.60
   5   1   0    0.28    0.50
   5   1   0    0.09    0.58
   5   1   0    0.24    0.32
   5   1   0    0.22    0.43
   5   1   0    0.82    0.42
   5   1   0    0.04    0.42
   6  -2   0    1.01    0.26
   6  -2   0    0.48    0.34
   5  -2   0    2.91    0.48
   5  -2   0    2.33    0.74
   5  -2   0    2.29    0.58
   5  -2   0    2.82    0.47
  -5   2   0    1.41    0.71
   4  -2   0    3.27    0.50
   4  -2   0    2.55    0.46
   4  -2   0    2.16    0.60
  -4   2   0    2.93    0.77
   3  -2   0   15.77    0.93
   3  -2   0   15.52    1.12
   3  -2   0   15.50    0.83
   3  -2   0   15.64    1.04
  -3   2   0   16.12    0.88
  -3   2   0   14.90    1.20
  -3   2   0   16.38    1.25
   2  -2   0    1.75    0.29
   2  -2   0    2.34    0.48
   2  -2   0    1.79    0.36
  -2   2   0    1.44    0.31
  -2   2   0    1.90    0.53
   1  -2   0    1.19    0.27
   1  -2   0    0.87    0.19
  -1   2   0    0.95    0.22
  -1   2   0    1.96    0.49
  -1   2   0    0.74    0.24
  -1   2   0    0.97    0.23
   0  -2   0  217.69    9.57
   0  -2   0  213.31    7.88
   0   2   0  203.63   10.37
   0   2   0  211.21   12.04
   0   2   0  212.86    8.26
   0   2   0  212.61   11.63
  -1  -2   0  162.71    8.62
  -1  -2   0  153.50    6.79
   1   2   0  143.15    5.62
   1   2   0  143.71    7.39
   1   2   0  147.77    5.93
   1   2   0  149.94    8.32
  -2  -2   0    9.95    0.76
  -2  -2   0    9.33    0.91
   2   2   0   10.68    0.84
   2   2   0   11.23    0.78
   2   2   0   10.45    0.58
  -3  -2   0    2.43    0.58
  -3  -2   0    2.27    0.60
   3   2   0    1.78    0.39
   3   2   0    1.65    0.34
   3   2   0    2.44    0.53
   3   2   0    2.12    0.52
   3   2   0    2.63    0.52
   4   2   0    0.48    0.43
   4   2   0    0.23    0.51
   4   2   0   -0.04    0.60
   4   2   0   -0.32    0.45
   4   2   0    0.18    0.35
   4   2   0   -0.51    0.46
   4   2   0   -0.76    0.36
  -5  -2   0   12.27    1.22
   5   2   0   13.05    1.11
   5   2   0   12.38    0.98
   5   2   0   12.01    0.88
   5   2   0   12.00    1.03
   5   2   0   12.48    0.93
   5  -3   0    4.66    0.59
   5  -3   0    5.33    0.71
   5  -3   0    4.62    0.63
   5  -3   0    5.41    0.82
  -5   3   0    3.97    0.80
   4  -3   0   54.03    2.59
   4  -3   0   55.30    2.68
   4  -3   0   52.72    2.97
   4  -3   0   55.42    2.49
  -4   3   0   55.36    2.94
   3  -3   0    4.64    0.61
   3  -3   0    3.82    0.63
   3  -3   0    3.41    0.41
  -3   3   0    4.81    0.90
  -3   3   0    4.11    0.47
  -3   3   0    4.64    0.69
   2  -3   0   17.95    0.85
   2  -3   0   18.80    1.16
  -2   3   0   18.14    1.41
  -2   3   0   18.68    0.91
   1  -3   0   47.93    1.83
   1  -3   0   47.51    2.29
  -1   3   0   48.83    2.81
  -1   3   0   48.85    1.95
  -1   3   0   36.99    2.66
   0  -3   0   22.46    1.17
   0  -3   0   22.28    0.89
   0   3   0   21.68    1.31
   0   3   0   21.79    1.03
   0   3   0   22.78    1.30
   0   3   0   22.10    1.46
  -1  -3   0   36.68    1.79
  -1  -3   0   37.47    2.35
   1   3   0   36.87    2.02
   1   3   0   36.91    2.20
   1   3   0   37.60    1.64
  -2  -3   0    2.99    0.64
  -2  -3   0    3.39    0.57
   2   3   0    3.49    0.53
   2   3   0    3.25    0.55
   2   3   0    3.63    0.52
   2   3   0    3.42    0.54
  -3  -3   0    2.35    0.64
  -3  -3   0    1.59    0.67
   3   3   0    2.33    0.44
   3   3   0    3.31    0.58
   3   3   0    2.18    0.55
   3   3   0    2.28    0.57
   4   3   0   54.91    2.54
   4   3   0   55.33    3.02
   4   3   0   53.64    2.90
   4   3   0   54.38    2.86
   4   3   0   55.50    2.83
   4   3   0   53.01    2.71
  -5  -3   0    0.47    0.66
   5   3   0    0.76    0.54
   5   3   0   -0.41    0.33
   5   3   0    0.80    0.41
   5   3   0    0.84    0.46
   5  -4   0   15.60    1.04
   5  -4   0   15.66    0.93
   5  -4   0   15.35    1.07
  -5   4   0   15.15    1.29
  -5   4   0   14.57    1.78
   4  -4   0   18.47    1.26
   4  -4   0   17.89    1.21
   4  -4   0   18.56    1.08
   4  -4   0   18.44    1.49
  -4   4   0   16.93    1.48
   3  -4   0   -0.29    0.29
   3  -4   0    0.01    0.50
   3  -4   0   -0.46    0.41
  -3   4   0   -0.33    0.54
  -3   4   0    0.54    0.82
  -3   4   0   -0.30    0.31
   2  -4   0   73.83    2.75
   2  -4   0   69.17    3.16
  -2   4   0   69.82    3.47
  -2   4   0   70.76    2.90
  -2   4   0   63.64    3.94
   1  -4   0    2.40    0.44
   1  -4   0    2.43    0.50
  -1   4   0    2.87    0.77
  -1   4   0    2.32    0.35
   0  -4   0    5.53    0.55
   0  -4   0    5.01    0.66
   0   4   0    3.92    0.57
   0   4   0    5.22    0.46
  -1  -4   0    8.18    0.86
  -1  -4   0    7.93    0.60
   1   4   0    8.72    0.65
   1   4   0    9.70    0.72
   1   4   0    8.51    0.73
  -2  -4   0    9.87    0.87
   2   4   0   11.61    0.93
   2   4   0   10.71    0.94
   2   4   0   10.72    0.88
   2   4   0    9.60    0.85
   2   4   0   11.18    0.89
   3   4   0    2.10    0.48
   3   4   0    3.27    0.62
   3   4   0    2.40    0.62
   3   4   0    2.11    0.51
   3   4   0    2.05    0.78
   3   4   0    3.24    0.75
   4   4   0    1.36    0.53
   4   4   0    0.63    0.51
   4   4   0    1.08    0.66
   4   4   0    1.37    0.48
   4   4   0    0.69    0.42
   5   4   0    7.37    0.59
   5   4   0    5.58    0.72
   5   4   0    6.86    0.65
   5  -5   0    3.67    0.50
   5  -5   0    2.11    0.49
  -5   5   0    2.83    0.68
   4  -5   0    2.99    0.61
  -4   5   0    2.67    0.81
  -4   5   0    0.74    1.28
   3  -5   0    2.60    0.60
  -3   5   0    3.06    0.81
   2  -5   0    5.17    0.70
   2  -5   0    5.86    0.75
  -2   5   0    5.24    0.50
  -2   5   0    6.10    0.85
  -2   5   0    5.40    0.73
  -2   5   0    6.37    1.12
   1  -5   0   35.33    1.89
   1  -5   0   36.48    2.33
   1  -5   0   34.31    1.74
  -1   5   0   34.76    2.04
  -1   5   0   34.56    2.18
  -1   5   0   34.29    1.57
  -1   5   0   34.57    1.71
  -1   5   0   32.41    2.03
   0  -5   0    0.01    0.33
   0  -5   0   -0.22    0.43
   0   5   0    0.36    0.54
   0   5   0    0.45    0.32
   0   5   0    0.05    0.33
   0   5   0    0.38    0.43
   0   5   0   -0.26    0.34
  -1  -5   0    6.13    0.92
   1   5   0    6.24    0.79
   1   5   0    7.14    0.71
   1   5   0    6.80    0.75
   1   5   0    6.18    0.64
   1   5   0    6.55    0.74
  -2  -5   0    6.58    0.84
   2   5   0    6.65    0.78
   2   5   0    7.53    0.87
   2   5   0    7.36    0.89
   2   5   0    6.13    0.79
   3   5   0    2.21    0.80
   3   5   0    2.09    0.57
   3   5   0    1.36    0.58
   3   5   0    2.05    0.48
   3   5   0    2.51    0.75
   4   5   0    7.39    0.94
   4   5   0    6.04    0.76
   4   5   0    7.49    0.84
   4   5   0    7.52    0.66
   4   5   0    5.09    0.66
   4  -6   0    6.74    0.79
   4  -6   0    7.14    0.95
   4  -6   0    7.74    1.03
  -4   6   0    7.49    1.01
   3  -6   0    0.31    0.51
  -3   6   0   -0.50    0.55
  -3   6   0    2.03    0.63
  -3   6   0    0.29    0.56
  -3   6   0    0.21    0.64
   2  -6   0    2.29    0.54
  -2   6   0    3.49    0.80
  -2   6   0    1.82    0.59
   1  -6   0    7.40    0.96
   1  -6   0    5.80    0.81
  -1   6   0    6.69    0.62
  -1   6   0    7.32    0.99
  -1   6   0    7.62    0.99
  -1   6   0    6.30    0.83
  -1   6   0    8.12    0.73
   0  -6   0   33.99    2.43
   0  -6   0   33.21    1.90
   0   6   0   33.23    2.07
   0   6   0   32.66    2.07
   0   6   0   32.49    2.02
   0   6   0   34.25    1.65
   0   6   0   33.16    1.75
   1   6   0    3.98    0.67
   1   6   0    3.69    0.70
   1   6   0    2.64    0.71
   1   6   0    3.55    0.62
   2   6   0    0.85    0.70
   2   6   0   -0.60    0.67
   2   6   0    0.87    0.64
   2   6   0    0.53    0.59
   2   6   0   -0.52    0.69
   3   6   0   -0.90    0.54
   3   6   0   -0.50    0.49
   3   6   0    0.11    0.36
   3   6   0   -0.07    0.71
   3   6   0    0.44    0.65
   4   6   0   -0.03    0.28
   4   6   0    0.27    0.48
   4  -7   0    3.43    0.67
   4  -7   0    4.59    0.61
   4  -7   0    1.68    0.63
  -4   7   0    4.71    0.73
   3  -7   0   -0.08    0.48
   3  -7   0    0.78    0.83
  -3   7   0    0.13    0.49
  -3   7   0    0.34    0.67
   2  -7   0    6.64    1.19
  -2   7   0    6.69    0.90
  -2   7   0    6.38    0.87
  -2   7   0    4.98    0.91
  -2   7   0    5.87    0.79
  -1   7   0    1.77    0.82
  -1   7   0    1.13    0.58
  -1   7   0    1.42    0.48
  -1   7   0    0.64    0.56
  -1   7   0    1.01    0.54
  -1   7   0    1.08    0.65
  -1   7   0    2.13    0.62
  -1   7   0    1.32    0.60
   0   7   0    4.06    0.88
   0   7   0    3.83    0.69
   0   7   0    3.80    0.72
   0   7   0    5.20    0.71
   0   7   0    6.49    0.84
   0   7   0    5.12    0.67
   1   7   0    7.71    0.92
   1   7   0    9.60    1.06
   1   7   0    8.72    1.03
   1   7   0    7.92    1.04
   1   7   0    9.34    0.97
   1   7   0    8.29    1.02
   1   7   0    8.09    1.07
   2   7   0   12.97    1.33
   2   7   0    8.06    1.09
   2   7   0   11.50    1.17
   2   7   0   13.58    1.14
   2   7   0   13.08    1.21
   2   7   0   13.28    1.23
   3   7   0   -0.04    0.59
   3   7   0   -0.06    0.54
   3   7   0    1.10    0.61
   4  -8   0    5.84    0.61
   4  -8   0    5.28    0.62
   3  -8   0   -0.13    0.60
   3  -8   0   -0.41    0.60
  -3   8   0    0.60    0.44
  -3   8   0    0.15    0.52
   2  -8   0    7.83    1.24
  -2   8   0    9.17    0.99
  -2   8   0    9.83    0.90
  -2   8   0    9.45    1.10
  -2   8   0    7.93    0.91
   1  -8   0    9.66    1.46
  -1   8   0   12.63    1.01
  -1   8   0   11.98    1.04
  -1   8   0   11.04    1.11
  -1   8   0   11.67    1.07
  -1   8   0   12.09    1.19
  -1   8   0   11.81    0.93
  -1   8   0   12.07    1.10
   0  -8   0    6.80    1.25
   0   8   0    6.40    0.97
   0   8   0    6.66    0.88
   0   8   0    6.56    0.94
   0   8   0    7.03    0.90
   0   8   0    5.98    0.80
   1   8   0   19.58    1.36
   1   8   0   18.08    1.26
   1   8   0   19.29    1.43
   1   8   0   18.10    1.36
   1   8   0   19.76    1.45
   2   8   0    3.29    0.58
   2   8   0    1.49    0.67
   2   8   0    1.59    0.63
   3  -9   0   -0.04    0.41
   3  -9   0    0.03    0.41
   2  -9   0    5.13    0.74
   2  -9   0    4.48    0.75
  -2   9   0    4.61    0.65
   1  -9   0   -0.45    0.70
   1  -9   0    0.26    0.68
  -1   9   0    0.10    0.47
  -1   9   0   -0.20    0.43
  -1   9   0    0.56    0.54
  -1   9   0    0.47    0.45
   0  -9   0    7.02    1.14
   0   9   0    9.43    0.91
   0   9   0   10.07    0.91
   0   9   0    9.33    0.91
   0   9   0    7.38    0.94
   0   9   0    9.51    0.82
   1   9   0    3.32    0.53
   1   9   0    4.51    0.63
   1   9   0    2.80    0.57
   1   9  -1   -0.24    0.47
   1   9  -1    1.17    0.42
   1   9  -1    0.60    0.48
   0   9  -1   -0.19    0.39
   0   9  -1    0.89    0.53
   0   9  -1    0.09    0.42
   0   9  -1    0.50    0.50
   0  -9   1   -0.21    0.72
  -1   9  -1    0.76    0.46
  -1   9  -1    1.29    0.50
  -1   9  -1    0.65    0.46
  -1   9  -1    1.53    0.52
  -1   9  -1    0.26    0.57
   1  -9   1    1.06    0.75
   1  -9   1   -0.55    0.66
  -2   9  -1   -0.26    0.37
   2  -9   1    1.07    0.66
  -3   9  -1   -0.04    0.28
   3  -9   1    0.29    0.42
   3  -9   1    0.08    0.43
   2   8  -1    3.38    0.73
   2   8  -1    2.64    0.67
   1   8  -1    0.50    0.49
   1   8  -1    0.31    0.51
   1   8  -1    0.58    0.61
   1   8  -1    1.19    0.65
   1   8  -1    0.72    0.64
  -1  -8   1    1.36    1.00
   0   8  -1    9.67    1.01
   0   8  -1   10.39    1.13
   0   8  -1   10.21    1.22
   0   8  -1    9.66    1.04
   0   8  -1   11.61    0.93
   0   8  -1   10.57    1.02
  -1   8  -1    0.03    0.44
  -1   8  -1   -0.07    0.50
  -1   8  -1    0.28    0.56
  -1   8  -1    0.54    0.56
  -1   8  -1    0.75    0.53
  -1   8  -1    0.96    0.73
  -1   8  -1   -0.12    0.46
  -1   8  -1    1.23    0.53
  -2   8  -1    0.45    0.51
  -2   8  -1    0.23    0.53
  -2   8  -1    0.71    0.54
  -2   8  -1   -0.01    0.50
  -2   8  -1    1.25    0.71
   2  -8   1   -0.38    0.77
  -3   8  -1    2.06    0.51
  -3   8  -1    2.68    0.68
   3  -8   1    3.67    0.78
   3  -8   1    2.65    0.73
   4  -8   1    0.53    0.39
   4  -8   1    0.45    0.39
   3   7  -1    0.62    0.49
   3   7  -1    0.69    0.61
   2   7  -1   11.69    1.12
   2   7  -1   13.61    1.18
   2   7  -1   10.84    1.16
   2   7  -1   14.23    1.40
   1   7  -1    0.28    0.61
   1   7  -1   -0.33    0.62
   1   7  -1    0.47    0.55
   1   7  -1    0.00    0.47
   1   7  -1    0.57    0.55
   1   7  -1    1.05    0.71
   0   7  -1    6.62    0.78
   0   7  -1    6.66    0.89
   0   7  -1    7.19    0.92
   0   7  -1    7.05    0.87
   0   7  -1    6.15    1.02
   0   7  -1    7.78    0.92
  -1   7  -1    2.19    0.87
  -1   7  -1    2.20    0.54
  -1   7  -1    2.90    0.65
  -1   7  -1    3.63    0.68
  -1   7  -1    2.73    0.66
  -1   7  -1    2.90    0.71
  -1   7  -1    1.84    0.60
  -1   7  -1    3.19    0.64
  -2   7  -1   12.96    0.97
  -2   7  -1   11.95    1.16
  -2   7  -1   11.56    1.12
  -2   7  -1   14.51    1.04
  -2   7  -1   13.53    1.33
  -2   7  -1   11.43    1.12
  -2   7  -1   13.76    1.14
   2  -7   1   12.54    1.03
  -3   7  -1    1.81    0.78
  -3   7  -1    3.03    0.62
  -3   7  -1    2.15    0.64
   3  -7   1    3.68    0.93
   3  -7   1    2.85    0.60
  -4   7  -1    1.85    0.62
   4  -7   1    2.55    0.49
   4  -7   1    2.28    0.62
   4  -7   1    1.78    0.64
   4   6  -1   -0.36    0.43
   4   6  -1   -0.54    0.26
   3   6  -1   18.62    1.37
   3   6  -1   18.39    1.55
   3   6  -1   18.37    1.32
   2   6  -1    0.54    0.63
   2   6  -1   -0.08    0.71
   2   6  -1    0.60    0.59
   2   6  -1    0.26    0.67
   2   6  -1    0.85    0.72
   1   6  -1   17.38    1.40
   1   6  -1   18.11    1.17
   1   6  -1   16.36    1.29
   0   6  -1   23.58    1.37
   0   6  -1   24.59    1.29
   0   6  -1   23.87    1.65
   0   6  -1   24.40    1.62
   0  -6   1   23.78    1.49
   0  -6   1   23.97    1.90
  -1   6  -1   36.49    2.28
  -1   6  -1   38.90    1.92
  -1   6  -1   35.50    1.75
  -1   6  -1   40.85    2.31
   1  -6   1   38.57    2.61
   1  -6   1   36.54    2.14
  -2   6  -1    6.77    0.74
  -2   6  -1    7.24    1.01
  -2   6  -1    6.41    0.84
   2  -6   1    6.41    0.80
  -3   6  -1   -0.20    0.56
  -3   6  -1    0.53    0.60
  -3   6  -1   -0.54    0.65
  -3   6  -1    0.88    0.62
   3  -6   1    0.64    0.53
  -4   6  -1    0.15    0.64
  -4   6  -1    0.63    0.53
   4  -6   1    0.04    0.45
   4  -6   1   -0.17    0.57
   4  -6   1    1.26    0.66
   4   5  -1    0.09    0.45
   4   5  -1    0.21    0.36
   4   5  -1   -0.06    0.45
   4   5  -1    0.14    0.57
   3   5  -1    0.45    0.63
   3   5  -1    0.93    0.42
   3   5  -1   -0.33    0.49
   3   5  -1   -0.11    0.46
   3   5  -1    1.74    0.79
   2   5  -1   13.93    1.09
   2   5  -1   15.77    1.14
   2   5  -1   15.53    1.14
  -2  -5   1    9.84    0.99
   1   5  -1    2.37    0.46
   1   5  -1    2.94    0.60
   1   5  -1    3.09    0.51
   1   5  -1    3.22    0.54
   1   5  -1    1.93    0.48
  -1  -5   1    2.93    0.68
   0   5  -1   39.32    1.78
   0   5  -1   35.43    2.15
   0   5  -1   40.27    2.29
   0   5  -1   39.84    2.21
   0   5  -1   39.26    1.93
   0  -5   1   40.40    2.06
   0  -5   1   39.70    2.60
  -1   5  -1    0.09    0.46
  -1   5  -1   -0.63    0.62
  -1   5  -1    0.39    0.30
  -1   5  -1    0.38    0.37
  -1   5  -1    0.60    0.37
   1  -5   1    0.38    0.41
   1  -5   1    0.77    0.41
   1  -5   1    0.34    0.43
  -2   5  -1   26.47    1.42
  -2   5  -1   26.58    1.70
  -2   5  -1   25.51    1.99
  -2   5  -1   27.11    1.31
  -2   5  -1   25.62    1.77
   2  -5   1   26.14    1.62
   2  -5   1   28.84    1.49
  -3   5  -1    1.73    0.77
   3  -5   1    1.81    0.59
  -4   5  -1    1.21    0.76
   4  -5   1    0.58    0.51
   4  -5   1    0.83    0.54
  -5   5  -1    0.61    0.59
   5  -5   1   -0.28    0.40
   5  -5   1    0.43    0.38
   5   4  -1   -0.29    0.41
   5   4  -1   -0.33    0.34
   5   4  -1    0.00    0.31
   4   4  -1    2.43    0.53
   4   4  -1    3.06    0.50
   4   4  -1    2.49    0.70
   4   4  -1    2.18    0.57
   4   4  -1    1.63    0.58
   3   4  -1   -0.14    0.46
   3   4  -1   -0.04    0.48
   3   4  -1   -0.31    0.38
   3   4  -1    0.83    0.65
   2   4  -1    1.08    0.46
   2   4  -1    0.76    0.39
   2   4  -1    0.60    0.49
   2   4  -1    1.26    0.47
  -2  -4   1   -0.08    0.46
   1   4  -1   55.29    2.37
   1   4  -1   53.67    2.90
  -1  -4   1   55.75    2.65
  -1  -4   1   54.50    3.42
   0   4  -1   25.97    1.51
   0   4  -1   25.06    1.70
   0   4  -1   27.24    1.22
   0  -4   1   24.91    1.38
  -1   4  -1    8.14    1.00
  -1   4  -1    9.20    0.82
  -1   4  -1   10.06    0.61
   1  -4   1   10.47    0.54
   1  -4   1   11.12    0.78
  -2   4  -1   22.55    1.51
  -2   4  -1   18.60    1.70
  -2   4  -1   21.98    1.09
   2  -4   1   23.84    1.35
   2  -4   1   21.15    1.25
   2  -4   1   22.65    1.01
  -3   4  -1   -0.02    0.62
  -3   4  -1    0.22    0.34
  -3   4  -1   -0.39    0.77
   3  -4   1    0.09    0.46
   3  -4   1    0.52    0.32
   3  -4   1   -0.41    0.47
  -4   4  -1    2.52    0.83
   4  -4   1    4.51    0.65
   4  -4   1    3.97    0.52
   4  -4   1    3.18    0.67
  -5   4  -1   17.83    1.40
   5  -4   1   18.84    1.21
   5  -4   1   18.02    1.03
   5  -4   1   19.17    1.15
   5   3  -1    1.91    0.56
   5   3  -1    0.88    0.40
   5   3  -1    0.88    0.44
   5   3  -1    1.16    0.40
  -5  -3   1    0.92    0.68
   4   3  -1   18.01    1.35
   4   3  -1   17.80    1.17
   4   3  -1   17.93    1.26
   4   3  -1   17.11    1.28
   4   3  -1   18.23    1.13
   4   3  -1   18.95    1.33
   3   3  -1    2.90    0.57
   3   3  -1    2.57    0.55
   3   3  -1    1.79    0.53
   3   3  -1    1.86    0.43
  -3  -3   1    1.97    0.66
  -3  -3   1    3.55    0.68
   2   3  -1   21.52    1.27
   2   3  -1   21.21    1.30
   2   3  -1   21.76    1.45
   2   3  -1   21.15    1.30
  -2  -3   1   21.95    1.55
  -2  -3   1   19.77    1.21
   1   3  -1   62.48    3.25
   1   3  -1   59.98    2.44
   1   3  -1   61.51    2.62
   1   3  -1   65.61    3.62
  -1  -3   1   66.56    3.80
  -1  -3   1   63.46    2.97
   0   3  -1   17.47    1.04
   0   3  -1   15.94    1.14
   0   3  -1   15.92    0.82
   0  -3   1   17.55    0.74
   0  -3   1   17.18    0.94
  -1   3  -1   13.45    1.36
  -1   3  -1   20.44    0.93
  -1   3  -1   20.58    1.30
   1  -3   1   19.38    1.08
   1  -3   1   20.39    0.86
  -2   3  -1   19.21    1.50
  -2   3  -1   20.07    1.00
   2  -3   1   21.46    1.23
   2  -3   1   21.23    0.95
  -3   3  -1    2.27    0.78
  -3   3  -1    3.07    0.68
  -3   3  -1    2.45    0.42
   3  -3   1    2.38    0.54
   3  -3   1    2.77    0.38
   3  -3   1    2.60    0.54
  -4   3  -1    7.25    0.97
   4  -3   1    5.14    0.75
   4  -3   1    6.55    0.69
   4  -3   1    4.15    0.90
   4  -3   1    7.21    0.85
  -5   3  -1   -0.07    0.62
   5  -3   1    1.62    0.71
   5  -3   1    1.22    0.37
   5  -3   1    1.12    0.49
   5  -3   1    1.17    0.54
   5   2  -1   11.37    0.88
   5   2  -1    8.28    0.81
   5   2  -1    8.67    0.98
   5   2  -1    9.54    0.91
   5   2  -1    9.35    0.76
   5   2  -1    7.10    0.75
  -5  -2   1    9.28    1.09
   4   2  -1    3.94    0.61
   4   2  -1    3.34    0.52
   4   2  -1    2.81    0.66
   4   2  -1    3.91    0.73
   4   2  -1    3.85    0.61
   4   2  -1    3.03    0.53
   4   2  -1    3.24    0.63
   3   2  -1    5.41    0.49
   3   2  -1    5.26    0.59
   3   2  -1    3.93    0.65
   3   2  -1    5.73    0.68
   3   2  -1    5.80    0.70
  -3  -2   1    5.11    0.69
  -3  -2   1    4.57    0.67
   2   2  -1    3.66    0.49
   2   2  -1    4.52    0.37
   2   2  -1    3.34    0.49
  -2  -2   1    2.98    0.51
   1   2  -1   74.68    4.12
   1   2  -1   71.33    2.95
   1   2  -1   73.97    4.25
   1   2  -1   71.31    2.80
   1   2  -1   74.67    3.67
   1   2  -1   72.70    3.36
   0   2  -1   15.23    0.89
   0   2  -1   15.72    0.70
   0   2  -1   15.42    0.89
   0   2  -1   15.09    0.99
   0  -2   1   15.20    0.80
   0  -2   1   15.72    0.65
  -1   2  -1    0.26    0.22
  -1   2  -1    0.08    0.20
  -1   2  -1   -0.24    0.46
   1  -2   1    0.08    0.15
   1  -2   1    0.08    0.18
   1  -2   1    0.42    0.24
  -2   2  -1   10.58    0.90
  -2   2  -1    9.82    0.63
   2  -2   1    9.42    0.55
   2  -2   1    8.16    0.72
   2  -2   1    8.94    0.69
  -3   2  -1   26.48    1.60
  -3   2  -1   27.85    1.73
  -3   2  -1   26.88    1.30
   3  -2   1   25.77    1.21
   3  -2   1   26.48    1.39
   3  -2   1   26.62    1.46
  -4   2  -1    2.58    0.79
   4  -2   1    2.80    0.47
   4  -2   1    2.59    0.64
   4  -2   1    2.49    0.46
  -5   2  -1   -0.42    0.65
   5  -2   1    0.65    0.36
   5  -2   1    0.87    0.71
   5  -2   1    0.55    0.35
   5  -2   1    0.64    0.50
   6  -2   1    1.33    0.37
   6  -2   1    1.20    0.26
   5   1  -1   12.94    1.08
   5   1  -1   12.39    0.91
   5   1  -1   12.24    0.88
   5   1  -1   11.65    1.10
   5   1  -1   12.98    0.94
   5   1  -1   10.75    0.95
  -5  -1   1   11.81    1.23
   4   1  -1   32.45    1.67
   4   1  -1   28.73    1.57
   4   1  -1   30.58    1.60
   4   1  -1   32.02    1.89
   4   1  -1   28.97    1.77
   4   1  -1   31.18    1.86
   4   1  -1   30.12    1.78
   3   1  -1    5.30    0.69
   3   1  -1    6.11    0.67
   3   1  -1    6.48    0.72
   3   1  -1    6.09    0.60
   3   1  -1    6.66    0.51
  -3  -1   1    6.51    0.71
  -3  -1   1    7.45    0.66
   2   1  -1    1.43    0.38
   2   1  -1    1.50    0.28
   2   1  -1    1.37    0.23
  -2  -1   1    0.86    0.41
  -2  -1   1    1.82    0.40
   1   1  -1   16.36    0.82
   1   1  -1   17.32    0.77
   1   1  -1   17.16    1.03
   1   1  -1   16.61    0.71
   1   1  -1   16.86    1.03
   1   1  -1   16.66    0.93
  -1  -1   1   15.97    0.81
   0   1  -1    0.22    0.11
   0   1  -1    0.42    0.14
   0   1  -1    0.20    0.11
   0   1  -1    0.28    0.09
   0   1  -1    0.20    0.14
   0  -1   1    0.28    0.12
  -1   1  -1  104.49    6.07
  -1   1  -1  108.61    4.21
  -1   1  -1  107.22    5.26
   1  -1   1  105.62    5.90
   1  -1   1  105.06    4.03
   1  -1   1  110.17    4.87
  -2   1  -1    5.01    0.48
  -2   1  -1    5.59    0.59
   2  -1   1    5.71    0.43
   2  -1   1    5.36    0.57
   2  -1   1    4.48    0.55
  -3   1  -1    1.05    0.39
  -3   1  -1    0.76    0.47
  -3   1  -1    0.27    0.57
   3  -1   1    0.94    0.40
   3  -1   1    1.04    0.44
   3  -1   1    1.53    0.35
   3  -1   1    0.61    0.29
   3  -1   1    0.78    0.48
  -4   1  -1    7.76    1.12
   4  -1   1    5.83    0.66
   4  -1   1    5.57    0.80
   4  -1   1    5.80    0.67
   4  -1   1    5.99    0.82
  -5   1  -1    4.96    0.87
   5  -1   1    5.67    0.65
   5  -1   1    5.13    0.65
   5  -1   1    3.89    0.55
   5  -1   1    4.93    0.84
   5  -1   1    3.90    0.68
   5  -1   1    4.70    0.58
   6  -1   1    0.59    0.25
   6  -1   1    0.35    0.35
   6  -1   1    0.79    0.39
   6   0  -1    8.41    0.63
   6   0  -1    8.68    0.60
   6   0  -1    8.17    0.57
   5   0  -1    0.37    0.40
   5   0  -1    0.07    0.31
   5   0  -1    0.32    0.61
   5   0  -1    0.15    0.51
   5   0  -1    0.26    0.44
   5   0  -1    0.48    0.37
   5   0  -1   -0.94    0.49
  -5   0   1    0.12    0.70
   4   0  -1    4.13    0.55
   4   0  -1    4.38    0.53
   4   0  -1    4.98    0.75
  -4   0   1    3.39    0.86
   3   0  -1    1.32    0.33
   3   0  -1    2.32    0.48
   3   0  -1    1.34    0.43
   3   0  -1    1.72    0.32
   3   0  -1    2.22    0.47
  -3   0   1    1.69    0.49
  -3   0   1    1.49    0.38
   2   0  -1    9.06    0.67
   2   0  -1    9.89    0.77
   2   0  -1    9.42    0.56
  -2   0   1    9.82    0.77
  -2   0   1    9.57    0.62
   1   0  -1    2.46    0.34
   1   0  -1    3.12    0.37
   1   0  -1    3.81    0.26
  -1   0   1    3.29    0.35
  -1   0   1    4.32    0.31
   0   0  -1    0.74    0.07
   0   0  -1    0.67    0.07
   0   0  -1    0.79    0.14
   0   0   1    0.68    0.09
   0   0   1    0.27    0.13
   0   0   1    0.79    0.08
  -1   0  -1   13.84    0.72
  -1   0  -1   15.10    0.93
   1   0   1   14.76    0.62
   1   0   1   15.39    0.82
   1   0   1   14.16    0.91
   1   0   1   12.98    0.73
  -2   0  -1   15.83    0.86
  -2   0  -1   15.27    0.98
   2   0   1   15.23    0.73
   2   0   1   14.54    1.05
  -3   0  -1   53.53    2.86
  -3   0  -1   52.48    2.32
   3   0   1   48.59    2.14
   3   0   1   53.63    3.13
   3   0   1   52.43    2.78
   3   0   1   51.19    2.61
   3   0   1   52.96    2.48
  -4   0  -1    5.07    0.93
   4   0   1    4.43    0.55
   4   0   1    4.15    0.55
   4   0   1    4.00    0.67
  -5   0  -1    6.45    0.97
   5   0   1    7.21    0.77
   5   0   1    8.75    0.94
   5   0   1    6.11    0.65
   5   0   1    6.69    0.70
   5   0   1    6.64    0.74
   5   0   1    6.43    0.83
   5   0   1    7.45    1.05
   6  -1  -1    1.78    0.30
   6  -1  -1    1.42    0.42
   6  -1  -1    1.02    0.37
   5  -1  -1    0.52    0.56
   5  -1  -1    0.38    0.46
   5  -1  -1    0.95    0.45
   5  -1  -1    0.94    0.38
   5  -1  -1    0.89    0.68
   5  -1  -1    1.37    0.53
   5  -1  -1    0.61    0.34
  -5   1   1    0.17    0.68
   4  -1  -1    0.36    0.50
   4  -1  -1    0.59    0.35
   4  -1  -1    1.38    0.56
   4  -1  -1   -0.16    0.46
   4  -1  -1    0.19    0.35
  -4   1   1    0.50    0.67
   3  -1  -1    3.02    0.53
   3  -1  -1    3.24    0.40
   3  -1  -1    2.91    0.38
   3  -1  -1    3.70    0.54
   3  -1  -1    2.60    0.49
  -3   1   1    3.27    0.60
  -3   1   1    2.97    0.41
  -3   1   1    3.32    0.63
   2  -1  -1   22.93    1.44
   2  -1  -1   23.89    1.01
   2  -1  -1   20.64    1.30
  -2   1   1   23.89    1.06
  -2   1   1   23.71    1.37
   1  -1  -1   24.88    1.04
   1  -1  -1   27.56    1.54
   1  -1  -1   25.21    1.32
   1  -1  -1   26.87    1.52
  -1   1   1   25.36    1.41
  -1   1   1   26.83    1.09
   0  -1  -1    0.03    0.18
   0  -1  -1    0.28    0.13
   0   1   1   -0.21    0.21
   0   1   1    0.20    0.18
   0   1   1    0.03    0.12
  -1  -1  -1    1.34    0.34
  -1  -1  -1    1.90    0.15
  -1  -1  -1    1.82    0.34
   1   1   1    1.91    0.31
   1   1   1    1.96    0.28
   1   1   1    1.78    0.19
  -2  -1  -1    0.94    0.44
   2   1   1    1.27    0.27
   2   1   1    1.43    0.40
   2   1   1    1.04    0.36
  -3  -1  -1    6.49    0.79
  -3  -1  -1    6.37    0.68
   3   1   1    6.69    0.63
   3   1   1    7.07    0.76
   3   1   1    7.74    0.79
   3   1   1    6.22    0.51
   3   1   1    6.34    0.72
   4   1   1    2.90    0.51
   4   1   1    3.55    0.73
   4   1   1    3.66    0.68
   4   1   1    3.98    0.76
   4   1   1    2.79    0.50
   4   1   1    3.73    0.69
   4   1   1    4.71    0.62
   4   1   1    3.84    0.57
  -5  -1  -1    0.44    0.71
   5   1   1    0.13    0.49
   5   1   1   -0.30    0.41
   5   1   1    0.34    0.34
   5   1   1    0.00    0.43
   5   1   1   -0.04    0.52
   5   1   1    0.15    0.37
   5   1   1    0.19    0.59
   6  -2  -1    0.01    0.21
   6  -2  -1    0.26    0.32
   5  -2  -1    0.01    0.48
   5  -2  -1    0.34    0.53
   5  -2  -1   -0.22    0.30
   5  -2  -1    0.15    0.33
   5  -2  -1    0.51    0.65
  -5   2   1    0.46    0.66
   4  -2  -1    2.47    0.45
   4  -2  -1    0.89    0.52
   4  -2  -1    2.28    0.65
   4  -2  -1    2.62    0.45
  -4   2   1    1.20    0.69
   3  -2  -1    2.28    0.51
   3  -2  -1    3.43    0.54
   3  -2  -1    3.22    0.41
   3  -2  -1    3.15    0.53
   3  -2  -1    3.37    0.59
   3  -2  -1    3.32    0.38
  -3   2   1    4.16    0.67
  -3   2   1    3.64    0.43
  -3   2   1    3.36    0.68
   2  -2  -1  101.03    3.85
   2  -2  -1   95.33    4.73
   2  -2  -1  104.14    5.63
  -2   2   1  101.69    5.12
  -2   2   1   98.66    4.00
   1  -2  -1   99.05    4.72
   1  -2  -1  101.79    3.85
   1  -2  -1  102.94    5.87
  -1   2   1  103.85    4.03
  -1   2   1  103.05    5.68
   0  -2  -1  357.01   19.58
   0  -2  -1  353.40   15.54
   0  -2  -1  338.42   12.82
   0   2   1  337.03   16.83
   0   2   1  342.16   18.93
   0   2   1  342.49   13.40
  -1  -2  -1   30.51    1.41
  -1  -2  -1   30.81    1.88
   1   2   1   30.38    1.32
   1   2   1   29.79    1.79
   1   2   1   28.29    1.17
   1   2   1   29.37    1.62
  -2  -2  -1    0.04    0.48
  -2  -2  -1   -0.13    0.41
   2   2   1    0.07    0.21
   2   2   1   -0.05    0.29
   2   2   1    0.00    0.35
  -3  -2  -1    4.62    0.68
  -3  -2  -1    2.82    0.63
   3   2   1    4.02    0.61
   3   2   1    3.50    0.58
   3   2   1    3.00    0.59
   3   2   1    4.20    0.53
   4   2   1    6.76    0.79
   4   2   1    7.84    0.98
   4   2   1    6.87    0.71
   4   2   1    9.02    0.96
   4   2   1    6.46    0.83
   4   2   1    6.63    0.84
   4   2   1    7.71    1.03
  -5  -2  -1    5.68    0.97
   5   2   1    9.04    0.97
   5   2   1    8.09    0.80
   5   2   1    7.60    0.75
   5   2   1    6.47    0.67
   5   2   1    6.78    0.81
   5  -3  -1   -0.55    0.45
   5  -3  -1    0.61    0.49
   5  -3  -1    0.39    0.63
   5  -3  -1    0.48    0.36
  -5   3   1    1.98    0.68
   4  -3  -1    7.46    0.85
   4  -3  -1    6.22    0.91
   4  -3  -1    6.15    0.83
   4  -3  -1    5.79    0.65
  -4   3   1    7.46    1.06
   3  -3  -1    2.44    0.58
   3  -3  -1    4.56    0.60
   3  -3  -1    4.10    0.43
  -3   3   1    4.26    0.45
  -3   3   1    4.73    0.86
  -3   3   1    3.79    0.66
   2  -3  -1   10.37    0.56
   2  -3  -1   11.16    0.83
  -2   3   1   10.05    0.59
  -2   3   1    8.59    1.05
   1  -3  -1   20.94    0.88
   1  -3  -1   21.18    1.20
   1  -3  -1   21.49    1.40
  -1   3   1   16.77    1.56
  -1   3   1   22.30    0.97
   0  -3  -1   68.67    3.20
   0  -3  -1   69.45    4.05
   0   3   1   68.00    3.82
   0   3   1   67.50    2.77
   0   3   1   67.06    3.53
  -1  -3  -1  166.32    7.34
  -1  -3  -1  163.97    9.34
   1   3   1  154.55    8.00
   1   3   1  161.43    6.42
   1   3   1  159.95    8.98
  -2  -3  -1   15.80    1.46
  -2  -3  -1   19.16    1.13
   2   3   1   17.65    1.14
   2   3   1   20.64    1.34
   2   3   1   19.51    1.22
   2   3   1   18.40    1.21
  -3  -3  -1   18.68    1.43
  -3  -3  -1   19.48    1.33
   3   3   1   18.93    1.45
   3   3   1   18.18    1.28
   3   3   1   19.39    1.15
   3   3   1   18.14    1.26
   4   3   1   25.70    1.65
   4   3   1   23.90    1.62
   4   3   1   22.68    1.36
   4   3   1   23.43    1.55
   4   3   1   22.51    1.59
   4   3   1   24.57    1.50
   4   3   1   23.96    1.42
  -5  -3  -1   -0.62    0.63
   5   3   1    0.46    0.38
   5   3   1   -0.17    0.38
   5   3   1    1.35    0.56
   5   3   1    0.06    0.44
   5  -4  -1   22.66    1.15
   5  -4  -1   21.08    1.30
   5  -4  -1   21.32    1.25
  -5   4   1   18.56    1.93
  -5   4   1   20.61    1.50
   4  -4  -1    8.98    0.91
   4  -4  -1    9.45    1.17
   4  -4  -1    9.35    0.94
  -4   4   1    8.25    1.16
   3  -4  -1   -0.10    0.48
   3  -4  -1    0.13    0.28
   3  -4  -1    0.94    0.45
  -3   4   1    0.42    0.60
  -3   4   1   -0.30    0.75
   2  -4  -1   -0.41    0.38
   2  -4  -1    0.52    0.44
   2  -4  -1    0.02    0.22
  -2   4   1    0.26    0.27
  -2   4   1    1.03    0.76
  -2   4   1    0.85    0.53
   1  -4  -1    0.13    0.37
   1  -4  -1    1.32    0.39
  -1   4   1    0.83    0.29
  -1   4   1    0.95    0.68
   0  -4  -1   15.18    0.96
   0  -4  -1   16.77    1.26
   0   4   1   15.64    0.85
   0   4   1   15.02    1.10
  -1  -4  -1    0.86    0.47
   1   4   1    0.32    0.42
   1   4   1    0.11    0.38
   1   4   1    0.44    0.37
   1   4   1    0.11    0.30
  -2  -4  -1    4.32    0.68
  -2  -4  -1    5.35    0.92
   2   4   1    5.04    0.68
   2   4   1    4.88    0.68
   2   4   1    5.27    0.68
   2   4   1    4.74    0.67
   2   4   1    6.11    0.73
   3   4   1   28.70    1.80
   3   4   1   30.72    1.76
   3   4   1   31.42    1.87
   3   4   1   29.47    1.87
   3   4   1   31.67    2.05
   3   4   1   29.28    1.58
   4   4   1    3.37    0.77
   4   4   1    2.82    0.56
   4   4   1    2.14    0.73
   4   4   1    2.47    0.62
   4   4   1    3.10    0.65
   4   4   1    3.75    0.55
   5   4   1    2.49    0.45
   5   4   1    1.00    0.35
   5   4   1    2.09    0.51
   5  -5  -1    0.43    0.41
   5  -5  -1    0.06    0.39
  -5   5   1    0.39    0.88
  -5   5   1    0.46    0.58
   4  -5  -1    9.25    0.92
  -4   5   1   10.39    1.58
  -4   5   1    8.01    1.13
   3  -5  -1    2.65    0.59
  -3   5   1    2.23    0.76
   2  -5  -1    5.11    0.75
   2  -5  -1    5.64    0.69
  -2   5   1    5.30    0.72
  -2   5   1    6.08    0.53
  -2   5   1    6.31    1.11
  -2   5   1    4.02    0.72
   1  -5  -1    2.76    0.52
   1  -5  -1    3.17    0.62
  -1   5   1    2.83    0.73
  -1   5   1    4.04    0.71
  -1   5   1    3.78    0.47
  -1   5   1    3.23    0.54
  -1   5   1    3.23    0.46
   0  -5  -1    5.80    0.86
   0  -5  -1    6.92    0.69
   0   5   1    6.75    0.64
   0   5   1    5.81    0.74
   0   5   1    6.49    0.55
   0   5   1    6.78    0.81
   0   5   1    8.12    0.95
  -1  -5  -1    9.08    1.09
   1   5   1    7.97    0.78
   1   5   1    8.89    0.72
   1   5   1    9.53    0.90
   1   5   1    8.48    0.95
   1   5   1   10.18    0.87
  -2  -5  -1    1.04    0.55
   2   5   1    1.64    0.56
   2   5   1    2.16    0.64
   2   5   1    1.07    0.53
   2   5   1    0.88    0.56
   3   5   1    3.60    0.66
   3   5   1    6.02    0.88
   3   5   1    4.17    0.89
   3   5   1    3.61    0.56
   3   5   1    4.17    0.97
   3   5   1    4.35    0.74
   4   5   1    1.42    0.51
   4   5   1    1.44    0.65
   4   5   1    1.44    0.62
   4   5   1    0.95    0.45
   4   5   1    1.56    0.43
   4   5   1    1.26    0.54
   4  -6  -1   17.03    1.37
   4  -6  -1   17.52    1.11
   4  -6  -1   17.15    1.28
  -4   6   1   17.13    1.33
  -4   6   1   10.21    1.61
   3  -6  -1   25.49    1.46
   3  -6  -1   20.67    1.76
  -3   6   1   25.04    1.68
  -3   6   1   24.99    2.28
   2  -6  -1    4.57    1.06
   2  -6  -1    5.81    0.77
  -2   6   1    4.78    0.57
  -2   6   1    3.98    0.85
  -2   6   1    4.03    1.09
  -2   6   1    4.96    0.78
   1  -6  -1    3.18    0.74
   1  -6  -1    1.69    0.58
  -1   6   1    2.49    0.83
  -1   6   1    2.20    0.49
  -1   6   1    3.33    0.77
  -1   6   1    2.32    0.56
  -1   6   1    3.09    0.45
   0  -6  -1   31.31    2.38
   0   6   1   31.66    1.72
   0   6   1   31.94    1.98
   0   6   1   33.64    1.63
   0   6   1   33.00    2.05
   0   6   1   33.47    2.11
   1   6   1    1.56    0.67
   1   6   1    1.91    0.59
   1   6   1    1.42    0.57
   2   6   1    2.70    0.72
   2   6   1    3.77    0.84
   2   6   1    4.33    0.88
   2   6   1    3.36    0.84
   2   6   1    3.26    0.76
   3   6   1    4.18    0.70
   3   6   1    4.12    0.87
   3   6   1    3.58    0.83
   3   6   1    4.46    0.74
   3   6   1    3.28    0.80
   3   6   1    5.41    0.63
   4   6   1    0.81    0.33
   4   6   1   -0.10    0.39
   4   6   1    0.17    0.50
   4  -7  -1   15.78    1.14
   4  -7  -1   14.82    0.96
  -4   7   1   13.93    1.14
   3  -7  -1    5.95    0.78
   3  -7  -1    4.96    0.90
   3  -7  -1    6.94    0.97
  -3   7   1    7.34    0.95
  -3   7   1    6.57    0.82
   2  -7  -1    0.11    0.82
  -2   7   1    0.19    0.54
  -2   7   1   -0.15    0.52
  -2   7   1    0.37    0.52
  -2   7   1   -0.20    0.63
  -1   7   1   64.89    3.75
  -1   7   1   66.34    3.19
  -1   7   1   66.58    3.11
  -1   7   1   64.41    3.34
  -1   7   1   66.16    3.37
  -1   7   1   67.02    3.49
  -1   7   1   64.66    3.20
  -1   7   1   65.10    3.17
   0   7   1   15.21    1.49
   0   7   1   15.47    1.38
   0   7   1   15.15    1.31
   0   7   1   15.22    1.27
   0   7   1   13.93    1.18
   0   7   1   14.25    1.19
   0   7   1   15.16    1.10
  -1  -7  -1   -1.22    0.86
   1   7   1    0.61    0.67
   1   7   1    0.92    0.57
   1   7   1    0.54    0.64
   1   7   1   -0.15    0.73
   1   7   1   -0.46    0.51
   1   7   1    0.22    0.66
   2   7   1    1.02    0.67
   2   7   1    1.04    0.63
   2   7   1    1.61    0.78
   2   7   1    0.65    0.64
   2   7   1    0.57    0.68
   2   7   1    0.98    0.71
   3   7   1    1.25    0.62
   3   7   1   -0.24    0.57
   3   7   1    0.61    0.61
   4  -8  -1    6.49    0.65
   4  -8  -1    7.49    0.65
   3  -8  -1    0.74    0.65
   3  -8  -1    0.79    0.62
  -3   8   1    0.87    0.53
   2  -8  -1    1.26    0.81
   2  -8  -1    1.17    0.79
  -2   8   1   -0.15    0.57
  -2   8   1    0.18    0.50
   1  -8  -1    0.55    0.87
  -1   8   1    0.82    0.55
  -1   8   1    0.99    0.51
  -1   8   1    1.32    0.54
  -1   8   1    0.58    0.49
  -1   8   1    1.47    0.60
  -1   8   1    0.96    0.67
  -1   8   1    0.66    0.53
   0  -8  -1    2.61    0.97
   0   8   1    2.27    0.68
   0   8   1    2.30    0.59
   0   8   1    1.63    0.71
   0   8   1    2.17    0.67
   0   8   1    2.09    0.57
   1   8   1    0.67    0.63
   1   8   1    1.03    0.55
   1   8   1    1.04    0.55
   1   8   1    1.11    0.65
   1   8   1    0.63    0.73
   1   8   1    0.47    0.58
   2   8   1   -0.12    0.61
   2   8   1    0.15    0.48
   2   8   1    0.39    0.58
   2   8   1   -0.43    0.56
   3  -9  -1    0.10    0.39
   3  -9  -1   -0.14    0.38
   2  -9  -1    0.22    0.60
   2  -9  -1    0.29    0.57
  -2   9   1   -0.27    0.37
   1  -9  -1   -0.40    0.61
   1  -9  -1   -0.07    0.63
   1  -9  -1    0.00    0.68
  -1   9   1    0.31    0.45
  -1   9   1    0.00    0.42
  -1   9   1    0.51    0.50
  -1   9   1    0.59    0.50
   0   9   1    2.86    0.63
   0   9   1    1.78    0.51
   0   9   1    2.28    0.54
   0   9   1    3.21    0.61
   0   9   1    2.26    0.52
   1   9   1   16.06    1.09
   1   9   1   14.88    1.06
   1   9   1   15.81    1.07
   1   9  -2    1.53    0.44
   1   9  -2    0.04    0.48
   1   9  -2    0.80    0.51
   0   9  -2    5.03    0.65
   0   9  -2    5.38    0.73
   0   9  -2    4.46    0.67
   0   9  -2    5.09    0.74
   0  -9   2    5.31    1.02
  -1   9  -2    4.52    0.66
  -1   9  -2    4.24    0.57
  -1   9  -2    5.34    0.75
  -1   9  -2    5.33    0.71
  -1   9  -2    3.03    0.74
  -1   9  -2    3.58    0.53
  -1   9  -2    4.74    0.61
   1  -9   2    3.80    0.93
  -2   9  -2    4.55    0.61
  -2   9  -2    2.91    0.52
   2  -9   2    2.60    0.74
  -3   9  -2    3.65    0.47
   3  -9   2    3.14    0.54
   2   8  -2   -0.61    0.60
   2   8  -2    0.04    0.56
   1   8  -2   14.88    1.38
   1   8  -2   15.50    1.25
   1   8  -2   15.10    1.20
   1   8  -2   15.83    1.20
   1   8  -2   14.51    1.12
  -1  -8   2   16.31    1.70
   0   8  -2    7.93    1.03
   0   8  -2    7.56    0.92
   0   8  -2    8.01    1.05
   0   8  -2    6.91    0.85
   0   8  -2    6.48    0.77
   0   8  -2    7.77    0.93
  -1   8  -2    0.83    0.72
  -1   8  -2    0.23    0.45
  -1   8  -2    0.24    0.47
  -1   8  -2   -0.34    0.46
  -1   8  -2    0.01    0.48
  -1   8  -2    0.23    0.57
  -1   8  -2   -0.12    0.53
  -1   8  -2    0.81    0.54
  -2   8  -2    0.01    0.52
  -2   8  -2    0.03    0.50
  -2   8  -2    0.36    0.52
  -2   8  -2    0.14    0.51
  -2   8  -2    0.43    0.68
   2  -8   2   -0.07    0.74
  -3   8  -2    1.42    0.64
  -3   8  -2    0.94    0.47
   3  -8   2    2.12    0.72
   3  -8   2    2.38    0.51
   4  -8   2    0.75    0.38
   4  -8   2    0.96    0.38
   3   7  -2   -0.80    0.53
   2   7  -2    6.22    0.83
   2   7  -2    5.30    0.80
   2   7  -2    6.42    0.98
   2   7  -2    7.24    0.94
   1   7  -2    0.04    0.51
   1   7  -2   -0.33    0.66
   1   7  -2   -0.14    0.62
   1   7  -2    0.22    0.49
   1   7  -2   -0.17    0.46
   1   7  -2    0.14    0.59
   0   7  -2    3.86    0.67
   0   7  -2    2.62    0.63
   0   7  -2    2.85    0.82
   0   7  -2    2.15    0.75
   0   7  -2    2.45    0.58
   0   7  -2    3.49    0.61
   0   7  -2    3.30    0.67
   0   7  -2    2.38    0.68
  -1   7  -2   15.42    1.33
  -1   7  -2   14.92    1.29
  -1   7  -2   17.82    1.26
  -1   7  -2   17.96    1.22
  -1   7  -2   17.09    1.23
  -1   7  -2   17.30    1.14
  -1   7  -2   13.49    1.50
  -1   7  -2   16.43    1.29
  -2   7  -2   10.26    0.96
  -2   7  -2   10.17    0.87
  -2   7  -2    9.50    1.03
  -2   7  -2    9.15    0.97
  -2   7  -2    9.17    1.02
  -2   7  -2    9.76    0.99
  -2   7  -2    6.66    1.09
   2  -7   2   10.34    0.95
  -3   7  -2    7.12    0.96
  -3   7  -2    6.70    0.90
  -3   7  -2    7.76    1.06
  -3   7  -2    5.66    0.77
   3  -7   2    6.85    0.82
  -4   7  -2    2.14    0.67
  -4   7  -2    1.06    0.44
   4  -7   2    1.70    0.61
   4  -7   2    0.99    0.43
   4  -7   2    2.27    0.61
   4   6  -2    0.93    0.41
   3   6  -2    6.80    0.96
   3   6  -2    6.74    0.83
   3   6  -2    6.34    0.84
   2   6  -2    5.24    0.78
   2   6  -2    3.80    0.73
   2   6  -2    4.86    0.91
   2   6  -2    5.70    0.90
   1   6  -2   38.39    2.18
   1   6  -2   37.68    1.98
   1   6  -2   36.67    2.29
   0   6  -2   22.87    1.37
   0   6  -2   25.69    1.61
   0   6  -2   24.28    1.28
   0   6  -2   22.73    1.62
   0  -6   2   24.15    1.50
   0  -6   2   24.09    1.90
  -1   6  -2    3.66    0.51
  -1   6  -2    3.79    0.56
  -1   6  -2    3.03    0.62
  -1   6  -2    3.49    0.89
   1  -6   2    3.57    0.73
   1  -6   2    4.49    0.66
   1  -6   2    4.15    0.66
  -2   6  -2    0.84    0.47
  -2   6  -2    0.96    0.52
  -2   6  -2    1.31    0.81
   2  -6   2    0.88    0.51
  -3   6  -2    4.18    0.72
  -3   6  -2    2.32    0.85
  -3   6  -2    3.41    0.73
  -3   6  -2    4.47    0.78
   3  -6   2    2.91    0.66
  -4   6  -2    1.78    0.59
  -4   6  -2    1.58    0.74
   4  -6   2    1.49    0.52
   4   5  -2    7.00    0.76
   4   5  -2    7.14    0.63
   4   5  -2    6.70    0.89
   3   5  -2    3.30    0.73
   3   5  -2    3.63    0.66
   3   5  -2    2.94    0.51
   3   5  -2    3.51    0.63
   2   5  -2    0.34    0.55
   2   5  -2    0.21    0.42
   2   5  -2    0.77    0.52
  -2  -5   2    0.19    0.52
   1   5  -2   10.12    0.81
   1   5  -2    8.97    0.92
   1   5  -2   10.01    0.75
   1   5  -2    9.02    0.79
   1   5  -2    9.26    0.87
  -1  -5   2   10.07    1.09
   0   5  -2    8.94    0.64
   0   5  -2    7.67    0.91
   0   5  -2    8.93    0.79
   0   5  -2    8.58    0.73
   0   5  -2    8.38    0.73
   0  -5   2    8.96    0.97
   0  -5   2    8.95    0.74
  -1   5  -2   20.52    1.60
  -1   5  -2   23.66    1.48
  -1   5  -2   23.69    1.25
  -1   5  -2   22.40    1.60
  -1   5  -2   22.81    1.14
   1  -5   2   20.36    1.25
   1  -5   2   23.10    1.37
  -2   5  -2    4.61    0.53
  -2   5  -2    5.17    0.59
  -2   5  -2    4.97    0.92
  -2   5  -2    4.28    0.67
   2  -5   2    5.34    0.66
   2  -5   2    5.03    0.69
  -3   5  -2    7.42    1.10
   3  -5   2    7.38    1.01
  -4   5  -2    4.19    0.70
  -4   5  -2    4.43    0.93
   4  -5   2    3.23    0.66
   4  -5   2    4.12    0.62
  -5   5  -2    6.95    0.93
   5  -5   2    7.51    0.69
   5  -5   2    7.30    0.75
   5   4  -2    0.35    0.36
   5   4  -2    0.42    0.31
   5   4  -2    0.57    0.41
   4   4  -2    2.75    0.61
   4   4  -2    2.07    0.55
   4   4  -2    3.78    0.71
   4   4  -2    2.97    0.56
   4   4  -2    2.65    0.49
   3   4  -2    6.28    0.91
   3   4  -2    6.02    0.83
   3   4  -2    5.84    0.84
   3   4  -2    7.46    0.79
   3   4  -2    6.99    0.73
   2   4  -2    0.58    0.44
   2   4  -2    0.54    0.43
   2   4  -2   -0.29    0.31
   2   4  -2    0.35    0.47
  -2  -4   2    0.23    0.46
   1   4  -2   14.68    0.85
   1   4  -2   14.16    0.96
  -1  -4   2   14.78    1.18
  -1  -4   2   14.16    0.88
   0   4  -2   49.75    2.61
   0   4  -2   50.13    3.04
   0   4  -2   50.14    2.12
   0  -4   2   48.82    2.44
  -1   4  -2    2.87    0.37
  -1   4  -2    2.97    0.53
  -1   4  -2    3.65    0.61
   1  -4   2    2.90    0.46
   1  -4   2    3.07    0.34
  -2   4  -2    6.84    0.56
  -2   4  -2    7.07    1.07
  -2   4  -2    8.54    1.07
   2  -4   2    6.11    0.66
   2  -4   2    5.91    0.68
   2  -4   2    6.27    0.49
  -3   4  -2    0.51    0.38
  -3   4  -2    0.00    0.61
   3  -4   2    0.45    0.51
   3  -4   2    0.96    0.34
   3  -4   2   -0.61    0.44
  -4   4  -2   22.60    1.72
  -4   4  -2   24.32    1.55
   4  -4   2   24.80    1.31
   4  -4   2   22.63    1.47
   4  -4   2   24.58    1.42
   5  -4   2    4.26    0.53
   5  -4   2    4.09    0.64
   5  -4   2    3.55    0.55
   5   3  -2    0.33    0.37
   5   3  -2   -0.29    0.47
   5   3  -2    0.33    0.33
   5   3  -2    0.06    0.42
   5   3  -2   -0.29    0.34
   4   3  -2   22.92    1.42
   4   3  -2   24.10    1.58
   4   3  -2   24.45    1.52
   4   3  -2   23.32    1.34
   4   3  -2   25.15    1.59
   4   3  -2   24.92    1.50
   3   3  -2    0.30    0.45
   3   3  -2    0.82    0.38
   3   3  -2    0.40    0.45
   3   3  -2    0.53    0.45
  -3  -3   2    0.45    0.51
   2   3  -2   12.96    0.92
   2   3  -2   12.75    0.96
   2   3  -2   12.28    0.88
   2   3  -2   12.17    0.89
  -2  -3   2   10.31    0.86
   1   3  -2    0.73    0.33
   1   3  -2    0.21    0.29
   1   3  -2    0.49    0.22
   1   3  -2    0.18    0.29
   1   3  -2    0.03    0.33
  -1  -3   2   -0.14    0.24
   0   3  -2    0.91    0.31
   0   3  -2    0.39    0.30
   0   3  -2    0.66    0.26
   0  -3   2    0.26    0.26
   0  -3   2    0.85    0.24
  -1   3  -2   47.54    2.07
  -1   3  -2   49.27    2.97
   1  -3   2   51.39    2.42
   1  -3   2   50.62    1.97
  -2   3  -2    5.91    0.51
  -2   3  -2    6.55    0.60
  -2   3  -2    5.38    0.86
   2  -3   2    6.54    0.49
   2  -3   2    5.66    0.58
  -3   3  -2   59.36    3.20
  -3   3  -2   52.22    2.34
  -3   3  -2   51.45    2.79
   3  -3   2   55.01    2.58
   3  -3   2   53.09    2.24
  -4   3  -2    1.35    0.65
  -4   3  -2    0.81    0.73
   4  -3   2    1.13    0.41
   4  -3   2    1.48    0.60
   4  -3   2    3.28    0.61
  -5   3  -2    0.59    0.66
   5  -3   2    0.74    0.68
   5  -3   2    0.74    0.35
   5  -3   2    0.12    0.47
   5   2  -2   20.14    1.17
   5   2  -2   18.01    1.33
   5   2  -2   19.85    1.27
   5   2  -2   20.20    1.34
   5   2  -2   19.53    1.17
   5   2  -2   18.97    1.15
  -5  -2   2   17.41    1.40
   4   2  -2   10.64    1.00
   4   2  -2   11.39    0.99
   4   2  -2   10.47    0.89
   4   2  -2   10.40    1.01
   4   2  -2   10.71    1.10
   4   2  -2   11.12    0.89
   4   2  -2   10.54    0.89
   3   2  -2   50.90    2.55
   3   2  -2   50.97    2.13
   3   2  -2   49.52    2.74
   3   2  -2   52.89    2.46
   3   2  -2   49.55    3.09
  -3  -2   2   49.75    2.81
   2   2  -2   12.58    0.86
   2   2  -2   12.09    0.65
   2   2  -2   12.76    0.94
  -2  -2   2   11.15    0.79
   1   2  -2    1.86    0.28
   1   2  -2    2.36    0.33
   1   2  -2    2.08    0.25
   1   2  -2    2.43    0.39
   1   2  -2    2.35    0.37
   1   2  -2    2.35    0.31
   0   2  -2   75.99    3.87
   0   2  -2   77.50    3.11
   0   2  -2   74.25    4.52
   0  -2   2   77.88    2.99
   0  -2   2   83.84    4.34
   0  -2   2   80.38    3.61
  -1   2  -2   18.01    0.81
  -1   2  -2   17.22    1.11
  -1   2  -2   17.64    1.18
   1  -2   2   16.81    0.99
   1  -2   2   16.90    0.92
   1  -2   2   17.69    0.78
  -2   2  -2    2.54    0.58
  -2   2  -2    3.13    0.40
   2  -2   2    2.59    0.42
   2  -2   2    2.28    0.33
   2  -2   2    2.25    0.41
  -3   2  -2    2.88    0.44
  -3   2  -2    2.19    0.62
  -3   2  -2    4.18    0.72
   3  -2   2    3.47    0.44
   3  -2   2    2.66    0.37
   3  -2   2    3.81    0.57
  -4   2  -2    8.40    1.05
   4  -2   2    7.82    0.75
   4  -2   2    7.33    0.96
   4  -2   2    8.74    0.91
   4  -2   2    8.72    0.74
  -5   2  -2    1.62    0.70
   5  -2   2    1.28    0.37
   5  -2   2    1.02    0.52
   5  -2   2    1.18    0.73
   5  -2   2    1.40    0.39
   6  -2   2    0.34    0.24
   5   1  -2   -0.16    0.35
   5   1  -2    0.19    0.41
   5   1  -2   -0.57    0.40
   5   1  -2    0.78    0.37
   5   1  -2    0.27    0.51
   5   1  -2    1.10    0.62
   5   1  -2    0.79    0.56
  -5  -1   2    0.18    0.68
   4   1  -2    6.59    0.78
   4   1  -2    5.05    0.67
   4   1  -2    8.36    0.96
   4   1  -2    6.24    0.69
   4   1  -2    7.08    1.01
   4   1  -2    5.93    0.81
   4   1  -2    6.57    0.74
   4   1  -2    6.66    0.83
   3   1  -2    1.38    0.36
   3   1  -2    0.97    0.42
   3   1  -2    1.58    0.45
   3   1  -2    1.66    0.45
   3   1  -2    1.51    0.31
  -3  -1   2    1.53    0.50
   2   1  -2    1.04    0.35
   2   1  -2    0.37    0.23
   2   1  -2    1.29    0.26
  -2  -1   2    1.10    0.40
  -2  -1   2    0.81    0.34
   1   1  -2   12.80    0.68
   1   1  -2   13.27    0.85
   1   1  -2   12.37    0.58
   1   1  -2   12.30    0.73
   1   1  -2   13.15    0.62
   1   1  -2   13.40    0.82
   0   1  -2   21.36    1.12
   0   1  -2   23.21    1.35
   0   1  -2   20.95    1.07
   0   1  -2   23.08    0.93
   0  -1   2   21.75    0.92
   0  -1   2   24.30    1.30
  -1   1  -2  212.38   11.86
  -1   1  -2  211.73   10.20
  -1   1  -2  206.83    8.17
   1  -1   2  205.93    9.43
   1  -1   2  204.57    7.82
   1  -1   2  212.68   11.50
  -2   1  -2   37.84    1.63
  -2   1  -2   36.25    1.98
   2  -1   2   35.65    1.82
   2  -1   2   36.21    2.15
   2  -1   2   35.76    1.50
  -3   1  -2   76.35    3.33
  -3   1  -2   78.40    3.87
  -3   1  -2   83.01    4.18
   3  -1   2   79.39    3.16
   3  -1   2   79.37    3.64
   3  -1   2   79.32    4.06
   3  -1   2   78.81    4.59
  -4   1  -2    4.58    0.88
   4  -1   2    4.07    0.55
   4  -1   2    4.36    0.69
   4  -1   2    3.60    0.51
  -5   1  -2   -0.28    0.68
   5  -1   2    0.95    0.38
   5  -1   2    0.61    0.52
   5  -1   2    1.96    0.74
   5  -1   2    1.00    0.36
   6  -1   2   -0.03    0.22
   6   0  -2    2.50    0.37
   6   0  -2    2.28    0.39
   6   0  -2    2.19    0.45
   6   0  -2    1.47    0.29
   6   0  -2    2.33    0.35
   5   0  -2    4.00    0.65
   5   0  -2    3.78    0.69
   5   0  -2    2.90    0.70
   5   0  -2    3.27    0.50
   5   0  -2    3.49    0.52
   5   0  -2    3.75    0.56
   5   0  -2    3.74    0.57
  -5   0   2    4.12    0.82
   4   0  -2    0.11    0.33
   4   0  -2    0.34    0.36
   4   0  -2   -0.69    0.49
  -4   0   2   -0.15    0.67
   3   0  -2   21.26    1.23
   3   0  -2   20.47    1.43
   3   0  -2   21.44    1.23
   3   0  -2   20.13    1.29
   3   0  -2   20.27    1.00
   3   0  -2   20.95    1.15
  -3   0   2   21.06    1.35
   2   0  -2  106.34    5.84
   2   0  -2   95.10    4.83
   2   0  -2  106.52    3.97
  -2   0   2  102.21    4.14
  -2   0   2  108.45    5.21
   1   0  -2   94.47    5.03
   1   0  -2   82.36    4.08
   1   0  -2   88.51    4.93
   1   0  -2   87.80    3.35
  -1   0   2   90.55    4.37
  -1   0   2   86.92    3.47
   0   0  -2   10.89    0.72
   0   0  -2   11.42    0.46
   0   0  -2   10.85    0.53
   0   0   2    9.57    0.57
   0   0   2    9.97    0.45
  -1   0  -2   23.00    1.42
  -1   0  -2   21.97    1.05
   1   0   2   22.55    1.36
   1   0   2   22.20    0.93
   1   0   2   23.17    1.06
   1   0   2   22.82    1.19
  -2   0  -2  147.65    7.44
  -2   0  -2  153.65    6.02
   2   0   2  147.05    5.69
   2   0   2  152.76    8.38
  -3   0  -2    1.23    0.45
  -3   0  -2    1.44    0.49
   3   0   2    1.19    0.46
   3   0   2    1.58    0.37
   3   0   2    2.29    0.48
   3   0   2    2.17    0.48
   3   0   2    2.46    0.37
  -4   0  -2    4.24    0.95
   4   0   2    3.14    0.52
   4   0   2    3.67    0.65
   4   0   2    2.73    0.49
  -5   0  -2   -0.07    0.72
   5   0   2   -0.56    0.61
   5   0   2   -0.04    0.38
   5   0   2   -0.29    0.48
   5   0   2   -0.09    0.57
   5   0   2    0.48    0.45
   5   0   2   -0.35    0.28
   5   0   2    0.39    0.39
   6  -1  -2    2.79    0.36
   6  -1  -2    2.62    0.37
   6  -1  -2    2.10    0.38
   6  -1  -2    3.38    0.49
   5  -1  -2    3.90    0.59
   5  -1  -2    3.44    0.70
   5  -1  -2    4.26    0.60
   5  -1  -2    3.77    0.76
   5  -1  -2    3.79    0.53
   5  -1  -2    3.90    0.55
   5  -1  -2    4.65    0.65
  -5   1   2    5.46    0.85
   4  -1  -2   10.60    0.94
   4  -1  -2    9.43    1.00
   4  -1  -2   11.11    0.80
   4  -1  -2    9.01    0.77
   4  -1  -2    9.55    1.02
  -4   1   2    9.88    1.14
   3  -1  -2   17.70    1.02
   3  -1  -2   17.86    1.09
   3  -1  -2   18.64    0.91
   3  -1  -2   17.37    1.27
   3  -1  -2   19.08    1.20
  -3   1   2   18.04    1.26
  -3   1   2   18.60    1.29
   2  -1  -2    2.03    0.38
   2  -1  -2    1.81    0.29
   2  -1  -2    0.97    0.45
  -2   1   2    1.26    0.48
  -2   1   2    2.04    0.30
   1  -1  -2    2.77    0.41
   1  -1  -2    2.18    0.37
   1  -1  -2    3.41    0.26
  -1   1   2    3.52    0.48
  -1   1   2    2.84    0.40
  -1   1   2    3.08    0.23
   0  -1  -2   13.47    0.69
   0  -1  -2   12.07    0.88
   0   1   2   12.72    0.57
   0   1   2   13.04    0.79
   0   1   2   13.17    0.51
   0   1   2   12.70    0.87
  -1  -1  -2  539.71   21.77
   1   1   2  577.46   20.80
   1   1   2  556.81   27.21
   1   1   2  567.39   30.75
  -2  -1  -2    3.12    0.51
  -2  -1  -2    3.63    0.60
   2   1   2    3.87    0.54
   2   1   2    3.66    0.49
   2   1   2    3.03    0.34
  -3  -1  -2    0.49    0.48
  -3  -1  -2    0.01    0.42
   3   1   2    0.39    0.32
   3   1   2   -0.07    0.42
   3   1   2    0.60    0.42
   3   1   2    0.32    0.41
   3   1   2    0.15    0.28
   4   1   2    2.06    0.74
   4   1   2    1.35    0.61
   4   1   2    1.49    0.68
   4   1   2    1.70    0.44
   4   1   2    2.12    0.59
   4   1   2    1.25    0.47
   4   1   2    1.75    0.47
   4   1   2    1.52    0.47
  -5  -1  -2    0.38    0.72
   5   1   2   -0.24    0.40
   5   1   2   -0.43    0.29
   5   1   2    0.08    0.39
   5   1   2   -0.32    0.46
   5   1   2   -0.22    0.58
   5   1   2    0.99    0.46
   6  -2  -2    2.42    0.38
   6  -2  -2    2.95    0.35
   5  -2  -2    1.25    0.54
   5  -2  -2    1.96    0.58
   5  -2  -2    2.34    0.56
   5  -2  -2    1.46    0.40
   5  -2  -2    1.46    0.41
   5  -2  -2    2.51    0.71
  -5   2   2    2.68    0.74
   4  -2  -2    9.92    0.78
   4  -2  -2    8.73    0.99
   4  -2  -2   10.50    0.78
   4  -2  -2    9.15    0.87
  -4   2   2    9.42    1.10
   3  -2  -2   19.67    1.13
   3  -2  -2   21.71    1.24
   3  -2  -2   20.67    1.34
   3  -2  -2   21.78    1.39
   3  -2  -2   20.20    1.01
  -3   2   2   22.95    1.49
  -3   2   2   21.47    1.40
  -3   2   2   22.44    1.50
   2  -2  -2   14.70    1.08
   2  -2  -2   16.49    0.77
  -2   2   2   18.43    1.15
  -2   2   2   15.86    1.17
  -2   2   2   15.63    0.78
   1  -2  -2    0.16    0.30
   1  -2  -2    0.56    0.30
   1  -2  -2    0.11    0.15
  -1   2   2    0.61    0.48
  -1   2   2    0.00    0.17
  -1   2   2    0.13    0.36
   0  -2  -2   42.33    2.57
   0  -2  -2   43.64    2.02
   0   2   2   40.93    1.73
   0   2   2   43.33    2.45
   0   2   2   42.63    2.27
  -1  -2  -2   26.97    1.82
  -1  -2  -2   28.55    1.32
  -1  -2  -2   28.83    1.30
   1   2   2   28.09    1.54
   1   2   2   26.99    1.25
   1   2   2   27.49    1.69
   1   2   2   26.57    1.09
  -2  -2  -2   24.27    1.30
   2   2   2   24.54    1.09
   2   2   2   26.21    1.64
   2   2   2   25.65    1.49
  -3  -2  -2    0.62    0.55
  -3  -2  -2    0.86    0.52
   3   2   2    1.06    0.36
   3   2   2    0.34    0.44
   3   2   2    1.03    0.49
   3   2   2    1.00    0.49
   4   2   2    4.03    0.58
   4   2   2    4.16    0.63
   4   2   2    3.83    0.68
   4   2   2    2.78    0.54
   4   2   2    4.12    0.72
   4   2   2    2.86    0.73
   4   2   2    3.48    0.78
  -5  -2  -2    1.61    0.76
   5   2   2    2.06    0.64
   5   2   2    1.33    0.54
   5   2   2    3.53    0.55
   5   2   2    1.33    0.43
   5   2   2    1.91    0.49
   6  -3  -2    1.58    0.26
   5  -3  -2    4.16    0.62
   5  -3  -2    3.47    0.75
   5  -3  -2    4.39    0.56
   5  -3  -2    3.29    0.60
  -5   3   2    4.19    0.80
   4  -3  -2   -0.30    0.68
   4  -3  -2   -0.58    0.30
   4  -3  -2    0.50    0.49
   4  -3  -2    0.10    0.47
  -4   3   2   -0.51    0.63
   3  -3  -2   12.18    0.70
   3  -3  -2   13.22    0.93
   3  -3  -2   10.72    0.99
  -3   3   2   12.07    1.24
  -3   3   2   12.35    1.08
   2  -3  -2    0.19    0.40
   2  -3  -2    0.26    0.21
  -2   3   2   -0.41    0.58
  -2   3   2    0.06    0.23
   1  -3  -2   29.40    1.51
   1  -3  -2   28.94    1.80
   1  -3  -2   27.10    1.10
  -1   3   2   22.41    1.82
  -1   3   2   28.10    1.20
  -1   3   2   27.13    1.79
   0  -3  -2    4.39    0.68
   0  -3  -2    4.68    0.50
   0   3   2    4.85    0.52
   0   3   2    4.69    0.41
   0   3   2    4.45    0.71
  -1  -3  -2   23.69    1.71
   1   3   2   23.12    1.42
   1   3   2   25.32    1.53
   1   3   2   23.12    1.16
  -2  -3  -2   12.75    1.34
  -2  -3  -2   16.31    1.02
   2   3   2   15.42    1.10
   2   3   2   16.64    1.18
   2   3   2   17.65    1.13
   2   3   2   15.56    1.09
   2   3   2   15.42    1.08
  -3  -3  -2    2.38    0.65
  -3  -3  -2    3.00    0.71
   3   3   2    2.03    0.53
   3   3   2    3.49    0.51
   3   3   2    3.24    0.64
   3   3   2    2.51    0.56
   3   3   2    1.94    0.59
   4   3   2   11.23    1.09
   4   3   2   12.69    1.20
   4   3   2   10.65    0.90
   4   3   2   11.46    1.07
   4   3   2   11.46    0.99
   4   3   2   12.47    1.21
   4   3   2   12.79    0.96
  -5  -3  -2   -0.47    0.61
   5   3   2   -0.04    0.37
   5   3   2   -0.36    0.42
   5   3   2    0.17    0.52
   5   3   2   -0.35    0.37
   5  -4  -2    0.12    0.32
   5  -4  -2   -0.42    0.41
   5  -4  -2    0.25    0.45
  -5   4   2   -0.70    0.59
  -5   4   2   -0.20    1.05
   4  -4  -2   10.12    1.19
   4  -4  -2    9.83    0.95
   4  -4  -2   10.07    0.94
  -4   4   2    8.30    1.16
   3  -4  -2   14.37    1.00
  -3   4   2   11.83    1.12
   2  -4  -2   29.54    1.51
   2  -4  -2   28.70    1.68
   2  -4  -2   30.10    2.03
  -2   4   2   30.66    1.33
  -2   4   2   28.46    1.73
  -2   4   2   25.95    1.99
   1  -4  -2   33.28    2.17
   1  -4  -2   32.00    1.76
  -1   4   2   33.69    2.12
  -1   4   2   33.27    1.47
   0  -4  -2   20.21    1.19
   0  -4  -2   22.34    1.54
   0   4   2   20.81    1.02
   0   4   2   20.15    1.41
  -1  -4  -2    1.27    0.57
   1   4   2    1.46    0.36
   1   4   2    2.29    0.52
   1   4   2    1.03    0.37
   1   4   2    1.49    0.43
   1   4   2    1.50    0.47
  -2  -4  -2    1.53    0.72
  -2  -4  -2    1.37    0.51
   2   4   2    1.85    0.50
   2   4   2    1.42    0.50
   2   4   2    1.30    0.50
   2   4   2    0.95    0.50
   2   4   2    2.05    0.60
   3   4   2    1.69    0.74
   3   4   2    2.54    0.81
   3   4   2    1.27    0.57
   3   4   2   -0.01    0.53
   3   4   2    1.45    0.78
   3   4   2    0.40    0.86
   3   4   2    1.19    0.46
   3   4   2    1.88    0.50
   4   4   2   -0.18    0.41
   4   4   2    0.15    0.50
   4   4   2    0.83    0.63
   4   4   2   -0.12    0.41
   4   4   2   -0.50    0.65
   4   4   2   -0.86    0.46
   5   4   2    9.25    0.71
   5   4   2    6.44    0.75
   5   4   2    7.53    0.60
   5  -5  -2    2.95    0.49
  -5   5   2    1.17    0.64
  -5   5   2    2.72    0.94
   4  -5  -2    1.58    0.74
   4  -5  -2    0.46    0.50
   4  -5  -2    1.25    0.69
  -4   5   2   -0.08    1.17
  -4   5   2   -0.13    0.66
   3  -5  -2    9.92    0.90
  -3   5   2    8.92    1.14
   2  -5  -2    3.76    0.67
   2  -5  -2    4.08    0.96
   2  -5  -2    3.90    0.57
  -2   5   2    5.85    1.06
  -2   5   2    3.11    0.67
  -2   5   2    4.71    0.48
   1  -5  -2   19.94    1.34
   1  -5  -2   21.97    1.64
  -1   5   2   21.60    1.08
  -1   5   2   20.17    1.42
  -1   5   2   21.85    1.20
  -1   5   2   21.07    1.46
  -1   5   2   22.06    1.66
   0  -5  -2   31.07    1.65
   0  -5  -2   29.39    2.10
   0   5   2   28.16    1.87
   0   5   2   28.11    1.50
   0   5   2   29.17    1.41
   0   5   2   27.24    1.72
   0   5   2   29.42    1.81
  -1  -5  -2   11.10    1.26
   1   5   2   11.02    0.82
   1   5   2   13.80    0.94
   1   5   2   11.61    1.00
   1   5   2   13.20    1.02
   1   5   2   13.47    1.10
   1   5   2   11.79    1.06
   2   5   2   10.19    0.95
   2   5   2   12.24    1.07
   2   5   2   10.13    1.04
   3   5   2    0.75    0.74
   3   5   2   -0.49    0.39
   3   5   2    0.41    0.52
   3   5   2   -0.39    0.71
   3   5   2   -0.31    0.81
   3   5   2    0.41    0.57
   3   5   2   -0.61    0.67
   4   5   2    3.91    0.66
   4   5   2    4.39    0.76
   4   5   2    3.88    0.72
   4   5   2    4.18    0.54
   4   5   2    3.54    0.58
   4   5   2    3.85    0.66
  -5   6   2    2.53    0.64
   4  -6  -2   10.51    0.88
   4  -6  -2   10.81    1.16
   4  -6  -2    9.85    1.06
  -4   6   2   13.37    1.60
  -4   6   2   10.97    1.10
   3  -6  -2   -0.16    0.47
   3  -6  -2    0.33    0.71
   3  -6  -2    0.52    0.76
  -3   6   2    0.09    1.14
  -3   6   2   -0.36    0.63
   2  -6  -2    0.31    0.47
   2  -6  -2    0.22    0.81
  -2   6   2    0.09    0.68
   1  -6  -2    9.44    1.14
   1  -6  -2    8.49    0.96
  -1   6   2    7.95    1.18
  -1   6   2    9.42    0.72
  -1   6   2    9.00    0.79
  -1   6   2    9.62    1.10
  -1   6   2    9.12    0.96
   0  -6  -2   43.32    2.97
   0   6   2   42.14    2.61
   0   6   2   45.23    2.55
   0   6   2   39.90    2.10
   0   6   2   41.26    1.98
   0   6   2   40.30    2.36
   1   6   2   16.82    1.45
   1   6   2   14.38    1.14
   1   6   2   14.51    1.31
   1   6   2   14.96    1.20
   1   6   2   16.11    1.26
   2   6   2    1.30    0.75
   2   6   2   -0.95    0.65
   2   6   2    0.89    0.76
   2   6   2   -0.55    0.56
   2   6   2   -0.53    0.47
   2   6   2   -0.11    0.42
   2   6   2    0.30    0.66
   2   6   2   -0.22    0.62
   3   6   2    8.04    0.98
   3   6   2    5.61    0.93
   3   6   2    6.17    0.89
   3   6   2    6.20    0.69
   3   6   2    6.61    0.82
   3   6   2    6.34    0.94
   3   6   2    5.79    0.92
   4   6   2    2.15    0.48
   4   6   2    2.70    0.59
   4   6   2    2.45    0.40
   4  -7  -2    0.10    0.51
   4  -7  -2    0.12    0.37
   4  -7  -2    0.26    0.52
  -4   7   2   -0.38    0.49
   3  -7  -2    8.28    1.10
   3  -7  -2    9.37    0.86
   3  -7  -2    6.91    0.97
  -3   7   2    7.74    1.05
  -3   7   2    8.97    1.26
   2  -7  -2    0.08    0.83
  -2   7   2    0.88    0.56
  -2   7   2    0.61    1.01
  -2   7   2    2.35    0.63
  -2   7   2    0.47    0.66
  -2   7   2    0.90    0.53
   1  -7  -2   34.85    2.63
  -1   7   2   36.33    2.10
  -1   7   2   37.22    1.89
  -1   7   2   37.45    2.01
  -1   7   2   34.62    1.94
  -1   7   2   33.18    2.45
  -1   7   2   36.71    1.96
  -1   7   2   35.64    2.18
  -1   7   2   34.41    2.07
   0  -7  -2    3.73    1.08
   0   7   2    5.77    0.80
   0   7   2    5.19    0.70
   0   7   2    5.59    0.92
   0   7   2    5.58    1.09
   0   7   2    4.17    0.79
   0   7   2    4.08    0.68
  -1  -7  -2    6.42    1.27
   1   7   2    6.98    0.96
   1   7   2    7.65    1.06
   1   7   2    7.92    0.96
   1   7   2    6.87    0.95
   1   7   2    8.83    1.05
   1   7   2    7.62    1.04
   2   7   2    0.34    0.60
   2   7   2    0.58    0.63
   2   7   2    0.80    0.73
   2   7   2    0.91    0.67
   2   7   2    1.23    0.80
   2   7   2    0.56    0.64
   3   7   2    0.05    0.55
   3   7   2    1.63    0.63
   3   7   2    0.57    0.64
   4  -8  -2   -0.09    0.36
   4  -8  -2    0.58    0.36
   3  -8  -2    6.34    0.81
   3  -8  -2    6.50    0.83
   2  -8  -2    1.76    0.82
   2  -8  -2   -0.45    0.70
  -2   8   2    2.81    0.55
  -2   8   2    2.91    0.65
   1  -8  -2    3.14    0.97
   1  -8  -2    0.66    0.84
  -1   8   2    1.40    0.64
  -1   8   2    2.10    0.62
  -1   8   2    1.02    0.95
  -1   8   2    2.95    0.65
  -1   8   2    1.78    0.57
  -1   8   2    2.19    0.57
   0  -8  -2    1.21    0.90
   0   8   2    1.69    0.55
   0   8   2    1.15    0.64
   0   8   2    1.66    0.65
   0   8   2    2.00    0.69
   0   8   2    1.52    0.91
   0   8   2    1.79    0.56
   1   8   2   15.86    1.18
   1   8   2   15.05    1.23
   1   8   2   14.71    1.26
   1   8   2   15.87    1.29
   1   8   2   16.29    1.44
   1   8   2   17.15    1.29
   2   8   2    1.89    0.65
   2   8   2    3.93    0.60
   2   8   2    3.42    0.67
   2   8   2    3.58    0.82
   2  -9  -2    5.90    0.74
   2  -9  -2    6.35    0.81
  -2   9   2    5.78    0.65
   1  -9  -2    1.76    0.72
  -1   9   2    1.50    0.48
  -1   9   2    1.69    0.53
  -1   9   2    1.70    0.55
  -1   9   2    3.04    0.58
   0   9   2   13.61    1.09
   0   9   2   15.28    1.08
   0   9   2   14.15    1.07
   1   9   2    2.55    0.52
   1   9   2    3.41    0.59
   1   9   2    5.58    0.67
   1   9  -3   12.09    1.03
   1   9  -3   11.53    0.92
   1   9  -3   10.53    0.85
   0   9  -3    0.84    0.44
   0   9  -3    0.34    0.41
   0   9  -3    0.84    0.58
   0   9  -3    1.05    0.53
   0  -9   3    0.62    0.77
  -1   9  -3    4.04    0.53
  -1   9  -3    3.19    0.51
  -1   9  -3    4.02    0.57
  -1   9  -3    3.68    0.54
  -1   9  -3    4.45    0.63
  -1   9  -3    2.92    0.60
   1  -9   3    3.24    0.88
  -2   9  -3    0.32    0.42
  -2   9  -3    0.54    0.43
  -2   9  -3    0.73    0.41
   2  -9   3    0.60    0.66
   2   8  -3    8.52    1.05
   2   8  -3    8.87    0.94
   1   8  -3    0.01    0.50
   1   8  -3    0.54    0.47
   1   8  -3   -0.06    0.42
   1   8  -3   -0.52    0.55
   1   8  -3   -0.01    0.68
   0   8  -3    4.76    0.79
   0   8  -3    5.91    0.93
   0   8  -3    5.99    0.87
   0   8  -3    5.41    0.86
   0   8  -3    6.21    0.74
   0   8  -3    6.32    0.87
   0   8  -3    5.30    0.77
   0   8  -3    5.82    0.79
  -1   8  -3    5.63    0.74
  -1   8  -3    6.68    0.86
  -1   8  -3    6.20    0.89
  -1   8  -3    6.03    0.72
  -1   8  -3    5.24    0.94
  -1   8  -3    4.86    0.68
  -1   8  -3    4.96    0.73
  -1   8  -3    6.01    0.81
  -2   8  -3   12.94    1.11
  -2   8  -3   11.52    1.26
  -2   8  -3   12.37    1.07
  -2   8  -3   11.80    0.99
  -2   8  -3   11.56    1.03
  -2   8  -3   13.17    0.94
   2  -8   3   13.53    1.47
  -3   8  -3    2.10    0.52
  -3   8  -3    0.45    0.62
   3  -8   3    1.65    0.72
   3  -8   3    1.83    0.49
   2   7  -3    0.59    0.59
   2   7  -3    0.27    0.71
   2   7  -3    0.26    0.67
   1   7  -3    0.39    0.53
   1   7  -3    0.72    0.57
   1   7  -3   -0.12    0.45
   1   7  -3   -0.73    0.66
   1   7  -3    0.01    0.49
   1   7  -3    0.02    0.62
   0   7  -3   76.33    3.60
   0   7  -3   77.54    3.87
   0   7  -3   75.87    3.94
   0   7  -3   73.88    3.79
   0   7  -3   76.75    4.27
   0   7  -3   79.49    3.60
   0   7  -3   74.30    3.59
   0   7  -3   76.60    3.69
  -1   7  -3    1.09    0.58
  -1   7  -3   -0.22    0.47
  -1   7  -3    0.48    0.54
  -1   7  -3    0.82    0.81
  -1   7  -3    1.60    0.66
  -1   7  -3    0.84    0.59
  -1   7  -3    0.02    0.51
  -1   7  -3    0.33    0.46
  -2   7  -3   10.39    1.04
  -2   7  -3    9.07    0.96
  -2   7  -3    9.26    0.86
  -2   7  -3    7.98    0.95
  -2   7  -3    7.97    0.93
  -2   7  -3    8.97    0.91
  -2   7  -3    7.02    1.11
   2  -7   3    8.41    0.92
  -3   7  -3    5.99    0.80
  -3   7  -3    5.32    0.76
  -3   7  -3    4.80    0.98
  -3   7  -3    5.29    0.76
   3  -7   3    8.20    0.83
  -4   7  -3    2.30    0.69
  -4   7  -3    2.18    0.48
   4  -7   3    2.19    0.47
   4  -7   3    1.47    0.55
   2   6  -3    1.87    0.64
   2   6  -3   -0.13    0.68
   2   6  -3    0.21    0.68
   2   6  -3    0.69    0.56
   1   6  -3   83.84    4.28
   1   6  -3   88.03    4.76
   1   6  -3   88.17    4.04
   0   6  -3    2.76    0.57
   0   6  -3    4.29    0.78
   0   6  -3    2.65    0.53
   0   6  -3    3.44    0.52
   0  -6   3    3.70    0.78
   0  -6   3    2.29    0.56
  -1   6  -3    1.70    0.50
  -1   6  -3    2.06    0.83
  -1   6  -3    2.19    0.41
  -1   6  -3    2.11    0.51
   1  -6   3    1.96    0.56
   1  -6   3    2.36    0.59
   1  -6   3    1.75    0.64
  -2   6  -3    3.07    0.63
  -2   6  -3    2.35    0.91
  -2   6  -3    2.11    0.68
  -2   6  -3    3.95    0.71
  -2   6  -3    2.86    0.56
  -2   6  -3    2.75    0.62
   2  -6   3    3.31    0.64
  -3   6  -3   44.25    2.40
  -3   6  -3   42.84    2.31
  -3   6  -3   44.59    2.36
  -3   6  -3   44.67    2.63
   3  -6   3   43.50    2.27
  -4   6  -3   -0.17    0.53
  -4   6  -3    0.29    0.70
   4  -6   3    0.80    0.50
   4   5  -3    4.68    0.56
   4   5  -3    5.26    0.69
   4   5  -3    6.30    0.81
   3   5  -3    1.92    0.66
   3   5  -3    1.22    0.57
   2   5  -3    1.27    0.53
   2   5  -3    1.43    0.58
  -2  -5   3    1.96    0.58
   1   5  -3   -0.09    0.34
   1   5  -3    0.22    0.42
   1   5  -3   -0.31    0.44
   1   5  -3    0.35    0.38
  -1  -5   3    0.46    0.36
  -1  -5   3    0.46    0.56
   0   5  -3   30.39    2.11
   0   5  -3   31.67    1.64
   0   5  -3   33.66    1.53
   0   5  -3   29.13    1.84
   0   5  -3   32.04    1.93
   0  -5   3   33.96    1.75
  -1   5  -3    0.66    0.40
  -1   5  -3    1.37    0.33
  -1   5  -3    0.27    0.71
  -1   5  -3    1.29    0.42
  -1   5  -3    1.36    0.43
   1  -5   3    1.39    0.42
   1  -5   3    1.39    0.46
  -2   5  -3   16.09    1.49
  -2   5  -3   17.16    1.02
  -2   5  -3   14.51    0.90
  -2   5  -3   16.97    1.21
   2  -5   3   16.22    1.12
   2  -5   3   15.53    1.16
  -3   5  -3    3.87    1.01
  -3   5  -3    3.23    0.72
   3  -5   3    3.31    0.65
  -4   5  -3    0.44    0.56
  -4   5  -3   -0.66    0.77
   4  -5   3    0.46    0.55
   4  -5   3    0.75    0.51
  -5   5  -3    0.92    0.62
   5  -5   3    2.20    0.42
   5   4  -3    0.22    0.33
   5   4  -3   -0.48    0.26
   5   4  -3    0.05    0.39
   4   4  -3    6.47    0.92
   4   4  -3    6.21    0.66
   4   4  -3    6.19    0.75
   4   4  -3    5.71    0.77
   3   4  -3    8.02    0.77
   3   4  -3    7.15    0.97
   3   4  -3    7.80    0.83
   3   4  -3    7.33    0.87
   2   4  -3    2.64    0.53
   2   4  -3    3.30    0.52
   2   4  -3    3.46    0.53
  -2  -4   3    2.28    0.54
   1   4  -3   76.48    3.19
   1   4  -3   73.93    3.89
   1   4  -3   77.20    4.58
  -1  -4   3   77.81    3.64
   0   4  -3    4.44    0.45
   0   4  -3    5.13    0.63
   0   4  -3    4.79    0.49
   0  -4   3    4.58    0.53
   0  -4   3    4.88    0.42
  -1   4  -3    1.92    0.40
  -1   4  -3    1.86    0.42
  -1   4  -3    1.70    0.33
   1  -4   3    1.40    0.36
   1  -4   3    2.01    0.31
  -2   4  -3    2.97    0.81
  -2   4  -3    2.26    0.38
  -2   4  -3    1.91    0.45
  -2   4  -3    1.76    0.46
   2  -4   3    2.43    0.47
   2  -4   3    1.72    0.34
   2  -4   3    1.66    0.50
  -3   4  -3   19.24    1.07
  -3   4  -3   18.90    1.51
   3  -4   3   17.04    0.96
   3  -4   3   18.02    1.22
  -4   4  -3    4.37    0.90
  -4   4  -3    3.99    0.74
   4  -4   3    5.08    0.69
   4  -4   3    5.18    0.67
   4  -4   3    4.16    0.71
  -5   4  -3   -0.12    0.48
  -5   4  -3   -0.68    0.61
   5  -4   3    0.28    0.49
   5  -4   3    0.24    0.30
   5  -4   3    0.00    0.44
   5   3  -3    7.44    0.78
   5   3  -3    7.93    0.83
   5   3  -3    6.95    0.65
   5   3  -3    7.76    0.75
   4   3  -3    4.13    0.64
   4   3  -3    3.37    0.62
   4   3  -3    5.42    0.76
   4   3  -3    3.86    0.74
   4   3  -3    3.78    0.57
   4   3  -3    5.33    0.67
   3   3  -3    1.35    0.52
   3   3  -3    1.45    0.40
   3   3  -3    1.34    0.52
   3   3  -3    0.63    0.48
  -3  -3   3    1.43    0.55
   2   3  -3    2.08    0.42
   2   3  -3    2.05    0.30
   2   3  -3    2.40    0.46
   2   3  -3    2.06    0.45
  -2  -3   3    1.31    0.47
   1   3  -3   32.08    1.85
   1   3  -3   31.26    1.66
   1   3  -3   30.35    1.94
   1   3  -3   31.10    1.54
   1   3  -3   30.64    1.38
  -1  -3   3   27.79    1.38
   0   3  -3   36.40    1.59
   0   3  -3   37.89    2.30
   0   3  -3   36.77    1.93
   0  -3   3   38.44    1.85
   0  -3   3   36.75    1.53
  -1   3  -3   37.41    1.61
  -1   3  -3   38.48    2.28
  -1   3  -3   32.14    2.05
   1  -3   3   37.43    1.53
   1  -3   3   38.34    1.85
  -2   3  -3   18.78    1.02
  -2   3  -3   18.64    1.46
  -2   3  -3   20.89    1.36
   2  -3   3   21.13    0.98
   2  -3   3   21.48    1.20
  -3   3  -3    6.33    0.89
  -3   3  -3    6.16    0.61
   3  -3   3    6.21    0.78
   3  -3   3    6.50    0.56
  -4   3  -3    0.94    0.65
  -4   3  -3    0.44    0.74
   4  -3   3    0.65    0.58
   4  -3   3    0.73    0.40
   4  -3   3    1.38    0.56
  -5   3  -3    1.07    0.57
  -5   3  -3    1.53    0.68
   5  -3   3    0.66    0.35
   5  -3   3    1.03    0.51
   5   2  -3    0.50    0.41
   5   2  -3    0.87    0.45
   5   2  -3    0.11    0.47
   5   2  -3   -0.18    0.53
   5   2  -3    0.30    0.32
   5   2  -3    0.63    0.37
   4   2  -3    2.16    0.67
   4   2  -3    2.63    0.57
   4   2  -3    2.86    0.71
   4   2  -3    1.70    0.60
   4   2  -3    1.94    0.57
   4   2  -3    2.68    0.50
   4   2  -3    2.42    0.49
   4   2  -3    1.90    0.47
   3   2  -3   26.51    1.27
   3   2  -3   28.32    1.64
   3   2  -3   28.74    1.50
   3   2  -3   25.83    1.82
   3   2  -3   26.98    1.53
  -3  -2   3   27.43    1.70
   2   2  -3    5.55    0.41
   2   2  -3    4.99    0.56
   2   2  -3    5.33    0.44
  -2  -2   3    5.49    0.61
  -2  -2   3    4.41    0.55
   1   2  -3   30.22    1.26
   1   2  -3   31.36    1.88
   1   2  -3   31.59    1.51
   1   2  -3   30.81    1.61
   1   2  -3   30.26    1.82
   1   2  -3   29.66    1.30
   0   2  -3    2.32    0.33
   0   2  -3    2.69    0.31
   0   2  -3    2.54    0.37
   0   2  -3    2.67    0.28
   0  -2   3    2.47    0.30
   0  -2   3    2.13    0.36
  -1   2  -3   73.17    4.18
  -1   2  -3   73.42    2.91
  -1   2  -3   67.47    3.67
   1  -2   3   72.09    3.34
   1  -2   3   71.96    3.98
   1  -2   3   71.93    2.78
  -2   2  -3    5.06    0.52
  -2   2  -3    5.81    0.71
  -2   2  -3    4.23    0.51
   2  -2   3    5.09    0.51
   2  -2   3    4.70    0.43
   2  -2   3    4.91    0.49
  -3   2  -3   13.32    1.15
  -3   2  -3   13.22    0.87
  -3   2  -3   13.47    1.13
   3  -2   3   12.42    0.98
   3  -2   3   12.96    0.85
   3  -2   3   12.73    0.76
  -4   2  -3    2.31    0.79
  -4   2  -3    0.57    0.71
   4  -2   3    2.16    0.44
   4  -2   3    0.54    0.49
   4  -2   3    1.35    0.41
   4  -2   3    2.66    0.61
  -5   2  -3    0.09    0.61
  -5   2  -3    1.47    0.71
   5  -2   3    0.25    0.70
   5  -2   3    0.39    0.35
   5  -2   3   -0.26    0.49
   5  -2   3    0.42    0.33
   5   1  -3    2.38    0.51
   5   1  -3    2.95    0.60
   5   1  -3    3.34    0.64
   5   1  -3    2.09    0.45
   5   1  -3    1.67    0.63
   5   1  -3    3.36    0.49
   5   1  -3    2.55    0.51
  -5  -1   3    2.36    0.73
   4   1  -3   12.65    1.17
   4   1  -3   12.97    0.95
   4   1  -3   14.01    1.03
   4   1  -3   11.89    1.11
   4   1  -3   11.87    0.91
   4   1  -3   13.57    1.07
   4   1  -3   12.63    0.93
   4   1  -3   11.38    1.03
  -4  -1   3   12.58    1.23
   3   1  -3    2.49    0.36
   3   1  -3    2.25    0.40
   3   1  -3    2.63    0.51
   3   1  -3    2.36    0.56
   3   1  -3    2.27    0.50
   3   1  -3    3.31    0.50
  -3  -1   3    2.24    0.55
   2   1  -3    9.94    0.65
   2   1  -3    9.62    0.78
   2   1  -3   10.21    0.58
  -2  -1   3    7.87    0.61
  -2  -1   3   10.61    0.76
   1   1  -3    9.51    0.59
   1   1  -3   11.01    0.69
   1   1  -3    9.99    0.50
   1   1  -3    9.91    0.71
   1   1  -3   10.25    0.49
  -1  -1   3    9.89    0.63
   0   1  -3    8.02    0.59
   0   1  -3    7.75    0.47
   0   1  -3    8.26    0.42
   0   1  -3    7.90    0.40
   0  -1   3    7.10    0.66
   0  -1   3    7.83    0.45
  -1   1  -3  125.31    6.11
  -1   1  -3  122.83    7.12
  -1   1  -3  125.98    4.94
   1  -1   3  124.79    4.71
   1  -1   3  125.58    5.66
   1  -1   3  123.23    6.90
  -2   1  -3   13.53    0.82
  -2   1  -3   13.13    0.93
  -2   1  -3   14.57    0.95
   2  -1   3   13.16    0.83
   2  -1   3   12.90    0.71
   2  -1   3   13.99    0.96
  -3   1  -3    5.74    0.77
  -3   1  -3    4.86    0.57
  -3   1  -3    5.83    0.74
   3  -1   3    4.69    0.64
   3  -1   3    4.52    0.48
   3  -1   3    5.00    0.57
  -4   1  -3   11.77    1.28
   4  -1   3   10.59    0.86
   4  -1   3    9.83    0.84
   4  -1   3   10.75    0.96
  -5   1  -3   -0.16    0.65
  -5   1  -3   -0.26    0.65
   5  -1   3   -0.08    0.52
   5  -1   3    0.29    0.33
   5  -1   3    0.22    0.36
   5  -1   3    0.42    0.68
   6   0  -3   -0.28    0.21
   6   0  -3    0.59    0.39
   6   0  -3    0.49    0.29
   6   0  -3    0.79    0.30
   5   0  -3   23.98    1.36
   5   0  -3   23.90    1.32
   5   0  -3   20.81    1.31
   5   0  -3   22.65    1.43
   5   0  -3   22.32    1.54
   5   0  -3   25.55    1.60
   5   0  -3   20.45    1.24
  -5   0   3   24.52    1.59
   4   0  -3    7.56    0.88
   4   0  -3    7.09    0.71
   4   0  -3    6.24    0.71
   4   0  -3    8.06    0.91
   3   0  -3   66.95    3.03
   3   0  -3   63.33    3.83
   3   0  -3   66.81    2.63
   3   0  -3   65.24    3.14
   3   0  -3   65.72    3.41
   3   0  -3   64.53    2.98
  -3   0   3   63.48    3.47
   2   0  -3   29.95    1.78
   2   0  -3   26.09    1.53
   2   0  -3   29.12    1.23
  -2   0   3   28.50    1.24
  -2   0   3   28.64    1.62
   1   0  -3    6.19    0.52
   1   0  -3    5.62    0.34
   1   0  -3    5.24    0.47
   1   0  -3    6.14    0.44
  -1   0   3    5.90    0.46
  -1   0   3    5.39    0.29
   0   0  -3    0.02    0.17
   0   0  -3    0.43    0.16
   0   0  -3    0.27    0.32
   0   0   3   -0.45    0.33
   0   0   3   -0.09    0.20
   0   0   3   -0.18    0.18
  -1   0  -3   17.51    0.92
  -1   0  -3   19.54    1.26
   1   0   3   18.79    1.17
   1   0   3   18.87    1.01
   1   0   3   18.76    0.87
   1   0   3   17.54    0.79
  -2   0  -3   36.07    1.64
  -2   0  -3   35.87    2.15
  -2   0  -3   33.88    1.91
   2   0   3   34.82    2.13
   2   0   3   34.79    1.46
  -3   0  -3    0.38    0.47
  -3   0  -3   -0.38    0.41
   3   0   3    0.12    0.29
   3   0   3    0.04    0.30
   3   0   3    0.05    0.39
   3   0   3   -0.01    0.38
   3   0   3   -0.18    0.41
  -4   0  -3    5.03    0.98
   4   0   3    6.94    0.92
   4   0   3    5.57    0.82
   4   0   3    8.22    1.10
   4   0   3    6.06    0.72
   4   0   3    5.77    0.78
   4   0   3    5.29    0.70
   4   0   3    5.59    0.79
  -5   0  -3    0.58    0.73
  -5   0  -3    0.87    0.74
   5   0   3    1.26    0.45
   5   0   3    1.16    0.48
   5   0   3    0.51    0.63
   5   0   3    0.90    0.37
   5   0   3    2.32    0.69
   5   0   3    1.14    0.44
   6  -1  -3    1.45    0.28
   6  -1  -3    2.17    0.33
   6  -1  -3    1.79    0.36
   6  -1  -3    1.30    0.42
   5  -1  -3    3.07    0.49
   5  -1  -3    3.08    0.57
   5  -1  -3    3.59    0.72
   5  -1  -3    3.87    0.74
   5  -1  -3    2.52    0.58
   5  -1  -3    3.12    0.48
   5  -1  -3    3.19    0.56
  -5   1   3    3.34    0.77
   4  -1  -3   31.87    1.72
   4  -1  -3   30.51    1.68
   4  -1  -3   32.40    1.61
   4  -1  -3   31.35    1.95
  -4   1   3   32.26    1.96
  -4   1   3   33.09    2.27
   3  -1  -3    4.67    0.58
   3  -1  -3    5.43    0.63
   3  -1  -3    5.11    0.46
   3  -1  -3    3.63    0.49
   3  -1  -3    5.20    0.65
   3  -1  -3    6.13    0.69
  -3   1   3    5.34    0.70
  -3   1   3    4.62    0.70
   2  -1  -3   18.97    1.26
   2  -1  -3   21.99    1.39
   2  -1  -3   21.41    0.95
  -2   1   3   21.90    0.95
  -2   1   3   22.75    1.36
   1  -1  -3   16.41    0.68
   1  -1  -3   13.48    0.91
  -1   1   3   17.51    1.05
  -1   1   3   15.21    0.67
  -1   1   3   17.52    1.02
   0  -1  -3    0.87    0.26
   0  -1  -3    1.07    0.38
   0   1   3    0.76    0.19
   0   1   3    1.11    0.36
   0   1   3    0.24    0.47
   0   1   3    1.23    0.17
  -1  -1  -3  370.31   14.41
   1   1   3  372.97   20.32
   1   1   3  358.80   17.98
   1   1   3  375.01   13.73
  -2  -1  -3    0.80    0.43
  -2  -1  -3    0.70    0.50
   2   1   3    0.56    0.39
   2   1   3    0.55    0.25
   2   1   3    0.72    0.35
  -3  -1  -3    8.44    0.83
  -3  -1  -3    8.88    0.91
   3   1   3    9.25    0.86
   3   1   3    8.94    0.88
   3   1   3   10.18    0.91
   3   1   3    9.18    0.63
   3   1   3    8.13    0.73
   4   1   3    0.57    0.68
   4   1   3    0.16    0.37
   4   1   3    0.25    0.51
   4   1   3   -0.20    0.41
   4   1   3    1.58    0.65
   4   1   3    0.71    0.44
   4   1   3    0.19    0.68
   4   1   3    0.10    0.41
  -5  -1  -3    4.38    0.82
  -5  -1  -3    6.57    0.95
   5   1   3    5.95    0.63
   5   1   3    7.33    0.74
   5   1   3    6.98    0.80
   5   1   3    7.08    0.73
   5   1   3    5.89    0.74
   5   1   3    5.28    0.79
   6  -2  -3    0.41    0.23
   6  -2  -3    0.05    0.29
  -6   2   3   -0.58    0.72
   5  -2  -3   18.02    1.37
   5  -2  -3   15.65    1.14
   5  -2  -3   16.35    1.06
   5  -2  -3   16.94    1.03
   5  -2  -3   17.47    1.16
   5  -2  -3   17.13    1.33
   5  -2  -3   18.85    1.17
  -5   2   3   16.36    1.34
   4  -2  -3    0.03    0.33
   4  -2  -3    0.58    0.49
   4  -2  -3    0.79    0.36
   4  -2  -3    0.54    0.58
  -4   2   3    0.66    0.63
   3  -2  -3    1.59    0.50
   3  -2  -3    1.79    0.32
   3  -2  -3    2.76    0.50
   3  -2  -3    2.15    0.56
   3  -2  -3    2.23    0.37
  -3   2   3    2.30    0.54
  -3   2   3    2.18    0.63
  -3   2   3    2.25    0.60
   2  -2  -3   19.64    1.30
   2  -2  -3   22.21    0.99
  -2   2   3   23.91    1.51
  -2   2   3   22.85    1.00
  -2   2   3   23.54    1.49
   1  -2  -3   38.40    1.44
   1  -2  -3   37.19    2.27
   1  -2  -3   36.19    1.86
  -1   2   3   37.93    1.50
  -1   2   3   36.48    2.08
  -1   2   3   33.47    2.24
   0  -2  -3   71.94    4.20
   0  -2  -3   70.31    3.30
   0   2   3   70.06    2.83
   0   2   3   69.70    3.62
   0   2   3   71.81    4.04
  -1  -2  -3   13.33    1.23
  -1  -2  -3   16.03    0.89
   1   2   3   16.37    0.67
   1   2   3   16.92    1.04
   1   2   3   17.01    1.13
  -2  -2  -3   39.98    1.84
   2   2   3   39.13    2.41
   2   2   3   38.65    2.16
  -3  -2  -3   13.83    1.14
  -3  -2  -3   12.45    1.08
   3   2   3   13.51    1.05
   3   2   3   13.68    1.08
   3   2   3   13.16    1.15
   3   2   3   15.08    0.95
   4   2   3   43.64    2.41
   4   2   3   44.15    2.43
   4   2   3   44.66    2.29
   4   2   3   43.50    2.16
   4   2   3   43.74    2.50
   4   2   3   45.08    2.49
   4   2   3   47.88    2.60
  -5  -2  -3   -0.08    0.65
   5   2   3    1.10    0.47
   5   2   3    0.07    0.40
   5   2   3    0.68    0.59
   5   2   3    0.00    0.41
   5   2   3   -0.39    0.31
   5   2   3   -0.50    0.44
   5  -3  -3   -0.17    0.61
   5  -3  -3    2.27    0.42
   5  -3  -3    1.53    0.52
   5  -3  -3    1.06    0.49
  -5   3   3    1.16    0.68
   4  -3  -3    6.75    0.87
   4  -3  -3    5.78    0.69
   4  -3  -3    5.09    0.71
   4  -3  -3    6.95    0.67
   4  -3  -3    7.00    0.92
  -4   3   3    5.39    0.87
   3  -3  -3    0.60    0.27
   3  -3  -3   -0.20    0.57
   3  -3  -3    0.84    0.46
   3  -3  -3    0.92    0.49
  -3   3   3    0.41    0.67
  -3   3   3   -0.16    0.54
   2  -3  -3   65.89    2.50
   2  -3  -3   64.73    3.20
  -2   3   3   63.86    2.59
  -2   3   3   59.39    3.47
   1  -3  -3   78.03    3.65
   1  -3  -3   75.66    2.87
   1  -3  -3   80.42    4.52
  -1   3   3   78.44    3.05
  -1   3   3   70.38    4.42
  -1   3   3   69.70    4.06
   0  -3  -3   16.57    1.31
   0  -3  -3   16.08    0.98
   0   3   3   16.66    0.82
   0   3   3   17.78    1.14
   0   3   3   14.83    1.18
  -1  -3  -3  202.86   12.73
   1   3   3  224.99   12.25
   1   3   3  232.13   10.93
   1   3   3  221.80    8.72
  -2  -3  -3    1.88    0.67
  -2  -3  -3    1.68    0.49
   2   3   3    1.39    0.50
   2   3   3    2.15    0.60
   2   3   3    1.95    0.47
   2   3   3    1.24    0.45
   2   3   3    2.26    0.52
  -3  -3  -3   27.06    1.66
  -3  -3  -3   26.92    1.90
   3   3   3   29.42    1.56
   3   3   3   31.20    1.73
   3   3   3   25.23    1.76
   3   3   3   27.17    1.97
   3   3   3   29.25    1.78
   4   3   3    0.30    0.54
   4   3   3    0.56    0.64
   4   3   3   -0.34    0.66
   4   3   3   -0.19    0.36
   4   3   3    0.65    0.46
   4   3   3    0.68    0.57
   4   3   3    0.59    0.44
   5   3   3    1.67    0.58
   5   3   3    1.29    0.41
   5   3   3    1.92    0.45
   5   3   3    1.86    0.44
   5  -4  -3   10.05    0.84
  -5   4   3    9.91    1.06
  -5   4   3    7.34    1.30
   4  -4  -3    2.11    0.55
   4  -4  -3    1.49    0.54
  -4   4   3    5.13    1.28
  -4   4   3    1.09    0.73
   3  -4  -3    0.24    0.51
   3  -4  -3    0.40    0.45
  -3   4   3    0.39    0.77
  -3   4   3    0.06    0.61
   2  -4  -3    1.90    0.54
   2  -4  -3    2.50    0.48
   2  -4  -3    2.19    0.80
  -2   4   3    2.52    0.75
  -2   4   3    2.42    0.62
  -2   4   3    2.51    0.34
   1  -4  -3    4.96    0.62
   1  -4  -3    4.32    0.72
  -1   4   3    6.22    0.92
  -1   4   3    5.20    0.43
   0  -4  -3   68.18    4.13
   0  -4  -3   65.17    3.24
   0   4   3   67.17    2.79
   0   4   3   67.58    3.61
  -1  -4  -3    9.78    1.12
   1   4   3   10.00    0.82
   1   4   3   10.74    0.86
   1   4   3   10.21    0.74
   1   4   3   11.05    0.93
   1   4   3   10.29    0.88
   1   4   3   10.98    0.91
  -2  -4  -3   16.64    1.10
   2   4   3   16.06    1.28
   2   4   3   15.73    1.22
   2   4   3   15.76    1.22
   2   4   3   17.44    1.24
   2   4   3   17.27    1.20
   3   4   3    3.36    0.55
   3   4   3    2.68    0.67
   3   4   3    2.98    0.67
   3   4   3    3.89    0.60
   3   4   3    0.80    0.93
   3   4   3    2.93    0.89
   3   4   3    2.68    0.87
   3   4   3    3.73    0.87
   4   4   3    0.13    0.62
   4   4   3    0.15    0.44
   4   4   3    0.64    0.69
   4   4   3   -0.37    0.49
   4   4   3    0.16    0.42
   4   4   3    0.72    0.54
   5   4   3    2.65    0.45
   5   4   3    2.09    0.37
   5  -5  -3    0.43    0.37
  -5   5   3    1.09    0.88
  -5   5   3    0.09    0.56
   4  -5  -3    2.40    0.57
   4  -5  -3    3.20    0.74
   4  -5  -3    3.06    0.80
  -4   5   3    2.69    0.77
  -4   5   3    1.66    1.17
   3  -5  -3    7.92    0.83
   3  -5  -3    6.72    0.99
  -3   5   3    6.68    0.94
  -3   5   3    8.80    1.43
   2  -5  -3    0.09    0.75
   2  -5  -3    0.75    0.50
   2  -5  -3    1.19    0.43
  -2   5   3    0.84    0.54
  -2   5   3    0.82    0.33
  -2   5   3    0.97    0.72
   1  -5  -3   49.89    2.80
   1  -5  -3   58.47    3.55
  -1   5   3   58.48    3.24
  -1   5   3   54.14    3.08
  -1   5   3   54.43    2.55
  -1   5   3   52.45    2.79
  -1   5   3   55.59    2.34
   0  -5  -3   11.27    1.16
   0  -5  -3   11.98    0.93
   0   5   3    9.63    1.08
   0   5   3   13.07    1.09
   0   5   3   11.03    0.82
   0   5   3    9.16    1.00
   0   5   3   11.07    0.94
   0   5   3   12.61    0.77
  -1  -5  -3    1.67    0.71
  -1  -5  -3    2.91    0.89
   1   5   3    2.31    0.61
   1   5   3    2.87    0.49
   1   5   3    1.83    0.54
   1   5   3    3.31    0.58
   1   5   3    3.13    0.67
   1   5   3    3.73    0.65
   2   5   3    0.10    0.54
   2   5   3    0.53    0.65
   2   5   3    1.29    0.59
   2   5   3    0.30    0.73
   3   5   3    5.45    0.98
   3   5   3    8.12    1.12
   3   5   3    9.10    1.23
   3   5   3    7.66    1.05
   3   5   3    8.84    0.82
   3   5   3    8.72    0.98
   3   5   3    8.23    0.92
   4   5   3    0.56    0.41
   4   5   3    0.04    0.55
   4   5   3    0.10    0.48
   4   5   3   -0.04    0.47
   4   5   3    1.13    0.66
   4   5   3    0.48    0.47
  -5   6   3    0.69    0.59
   4  -6  -3    3.19    0.73
   4  -6  -3    2.53    0.53
   4  -6  -3    1.23    0.63
  -4   6   3    2.55    0.68
  -4   6   3    3.32    1.08
   3  -6  -3    7.66    1.03
   3  -6  -3    9.02    1.14
   3  -6  -3   10.04    0.91
  -3   6   3    8.72    1.40
  -3   6   3   10.30    1.13
   2  -6  -3    7.10    1.17
  -2   6   3    6.38    0.75
  -2   6   3    7.14    0.93
  -2   6   3    5.75    0.75
   1  -6  -3    7.15    1.11
   1  -6  -3    6.12    0.87
   1  -6  -3    8.03    1.21
  -1   6   3    6.51    0.65
  -1   6   3    7.02    1.13
  -1   6   3    7.18    1.01
  -1   6   3    7.51    0.72
   0  -6  -3   17.81    1.75
   0  -6  -3   20.20    1.82
   0   6   3   20.48    1.64
   0   6   3   20.67    1.17
   0   6   3   20.28    1.43
   0   6   3   20.75    1.49
   0   6   3   22.49    1.28
  -1  -6  -3    4.26    1.07
   1   6   3    4.38    0.78
   1   6   3    4.75    0.96
   1   6   3    4.58    0.86
   1   6   3    3.27    0.68
   1   6   3    3.86    0.68
   1   6   3    5.46    0.85
   2   6   3   13.60    1.27
   2   6   3   14.38    1.33
   2   6   3   15.20    1.19
   2   6   3   13.80    1.35
   2   6   3   13.43    1.26
   2   6   3   15.40    1.05
   2   6   3   12.55    1.33
   2   6   3   12.87    1.39
  -3  -6  -3   -0.03    0.78
   3   6   3    0.95    0.45
   3   6   3    0.01    0.53
   3   6   3    1.07    0.75
   3   6   3    0.50    0.73
   3   6   3   -0.52    0.49
   3   6   3    1.24    0.69
   4   6   3    0.79    0.35
   4   6   3    0.06    0.41
   4   6   3    1.28    0.53
   4  -7  -3    4.23    0.64
   4  -7  -3    3.57    0.62
   4  -7  -3    3.79    0.52
  -4   7   3    4.79    0.69
  -4   7   3    3.56    0.78
   3  -7  -3   23.73    1.68
   3  -7  -3   24.50    1.72
  -3   7   3   30.21    2.00
  -3   7   3   27.98    1.69
   2  -7  -3   11.20    1.40
   2  -7  -3    8.19    1.30
  -2   7   3   10.61    1.10
  -2   7   3   10.17    1.36
   1  -7  -3   -0.94    0.84
  -1   7   3    0.76    1.03
  -1   7   3    0.99    0.64
  -1   7   3    0.53    0.49
  -1   7   3    0.72    0.54
  -1   7   3    0.74    0.58
  -1   7   3    1.01    0.61
  -1   7   3   -0.49    0.54
  -1   7   3   -0.13    0.50
   0  -7  -3    3.00    1.01
   0   7   3    3.17    0.64
   0   7   3    4.61    0.79
   0   7   3    2.48    0.63
   0   7   3    4.09    0.74
   0   7   3    2.75    1.05
   0   7   3    2.92    0.78
   1   7   3   -0.31    0.59
   1   7   3   -0.25    0.62
   1   7   3    1.36    0.65
   1   7   3   -0.03    0.80
   1   7   3    1.14    0.62
   1   7   3    0.48    0.56
   2   7   3    0.84    0.66
   2   7   3   -0.05    0.77
   2   7   3   -0.02    0.70
   2   7   3    0.40    0.57
   2   7   3    0.82    0.64
   2   7   3    0.52    0.65
   3   7   3    1.58    0.57
   3   7   3    1.63    0.68
   3   7   3    1.90    0.60
   3   7   3    2.01    0.42
   4  -8  -3    5.33    0.55
   4  -8  -3    4.51    0.55
   3  -8  -3    2.68    0.66
   3  -8  -3    2.75    0.66
  -3   8   3    2.04    0.56
  -3   8   3    2.41    0.73
   2  -8  -3    0.38    0.74
   2  -8  -3    1.19    0.73
   2  -8  -3   -0.09    0.65
  -2   8   3    0.64    0.48
  -2   8   3    0.26    0.85
  -2   8   3    0.13    0.49
   1  -8  -3   -0.63    0.75
   1  -8  -3    0.13    0.80
   1  -8  -3    1.24    0.72
  -1   8   3    0.98    0.56
  -1   8   3    0.41    0.52
  -1   8   3    0.76    0.54
  -1   8   3   -0.53    0.89
  -1   8   3   -0.26    0.53
  -1   8   3    1.57    0.61
   0  -8  -3    2.82    0.96
   0   8   3    6.90    0.84
   0   8   3    7.12    0.95
   0   8   3    7.93    0.99
   0   8   3    7.04    0.93
   0   8   3    5.78    0.82
   0   8   3    6.76    1.08
   1   8   3    2.39    0.60
   1   8   3    0.48    0.60
   1   8   3    1.17    0.86
   1   8   3    0.61    0.57
   1   8   3    1.00    0.67
   1   8   3    1.41    0.59
   2   8   3    1.22    0.61
   2   8   3    1.86    0.76
   2   8   3    1.93    0.54
   2   8   3    1.76    0.56
   2  -9  -3    3.19    0.58
   2  -9  -3    2.24    0.58
   1  -9  -3    0.14    0.57
  -1   9   3    0.05    0.48
  -1   9   3    0.39    0.43
  -1   9   3    1.20    0.51
  -1   9   3    0.76    0.44
   0   9   3    0.19    0.42
   0   9   3    0.34    0.61
   0   9   3    0.19    0.44
   0   9   3    0.02    0.49
   1   9   3    1.15    0.58
   1   9   3    0.69    0.40
   1   9   3    1.25    0.48
   1   9   3    1.16    0.42
   1   9  -4    0.79    0.38
   1   9  -4    1.15    0.52
   1   9  -4    1.83    0.58
   0   9  -4    0.57    0.50
   0   9  -4    0.96    0.41
   0   9  -4    0.45    0.58
  -1   9  -4    9.56    0.87
  -1   9  -4    9.79    0.95
  -1   9  -4    8.96    0.77
  -1   9  -4    9.37    0.82
  -1   9  -4    8.68    0.84
   1  -9   4    9.19    1.19
  -2   9  -4    1.05    0.41
  -2   9  -4    0.64    0.41
  -2   9  -4    0.95    0.45
   2   8  -4    3.16    0.68
   2   8  -4    2.41    0.65
   1   8  -4    0.58    0.47
   1   8  -4   -0.28    0.47
   1   8  -4   -0.25    0.42
   1   8  -4   -0.20    0.57
   1   8  -4   -0.36    0.69
   0   8  -4    0.76    0.59
   0   8  -4   -0.18    0.42
   0   8  -4    1.00    0.49
   0   8  -4    0.23    0.67
   0   8  -4    0.58    0.50
   0   8  -4   -0.07    0.48
   0   8  -4    0.02    0.45
  -1   8  -4    9.02    0.94
  -1   8  -4    7.70    0.92
  -1   8  -4    8.09    0.89
  -1   8  -4    8.51    0.90
  -1   8  -4    8.57    1.07
  -1   8  -4    7.11    1.02
  -1   8  -4    7.99    0.79
  -1   8  -4    7.92    0.89
  -2   8  -4    2.34    0.75
  -2   8  -4    4.78    0.66
  -2   8  -4    3.10    0.70
  -2   8  -4    3.52    0.65
  -2   8  -4    2.86    0.64
  -2   8  -4    2.42    0.56
  -2   8  -4    3.16    0.57
   2  -8   4    3.81    0.64
  -3   8  -4    2.43    0.54
  -3   8  -4    1.27    0.64
   3  -8   4    1.39    0.46
   3  -8   4    0.79    0.72
   2   7  -4    0.50    0.68
   2   7  -4    1.48    0.78
   2   7  -4    0.21    0.59
   1   7  -4    7.43    0.99
   1   7  -4    7.09    0.98
   1   7  -4    9.97    0.97
   1   7  -4    9.44    1.13
   1   7  -4    9.40    0.90
   0   7  -4   60.58    3.17
   0   7  -4   60.52    3.39
   0   7  -4   59.77    2.90
   0   7  -4   57.60    2.84
   0   7  -4   56.64    3.02
   0   7  -4   57.68    2.94
   0   7  -4   58.02    3.09
   0   7  -4   57.02    2.83
  -1   7  -4   13.50    1.35
  -1   7  -4   12.35    0.94
  -1   7  -4   12.44    1.15
  -1   7  -4   11.90    1.10
  -1   7  -4    9.27    1.04
  -1   7  -4   11.77    1.12
  -1   7  -4   11.37    1.05
  -1   7  -4   11.51    1.25
   1  -7   4   12.27    1.11
  -2   7  -4    5.76    1.06
  -2   7  -4    7.09    0.86
  -2   7  -4    6.85    0.87
  -2   7  -4    7.47    0.95
  -2   7  -4    7.20    0.81
  -2   7  -4    7.16    0.93
  -2   7  -4    6.51    0.88
   2  -7   4    6.83    0.83
  -3   7  -4    7.47    0.94
  -3   7  -4    8.26    0.97
  -3   7  -4    7.63    0.95
  -3   7  -4    5.88    1.03
   3  -7   4    7.67    0.82
  -4   7  -4    1.37    0.46
   4  -7   4    0.65    0.39
   2   6  -4    0.48    0.74
   2   6  -4   -0.23    0.52
   2   6  -4    0.33    0.70
   1   6  -4   19.69    1.39
   1   6  -4   19.66    1.25
   1   6  -4   16.24    1.28
   0   6  -4    2.00    0.65
   0   6  -4    1.58    0.48
   0   6  -4    0.98    0.46
   0   6  -4    1.53    0.47
   0  -6   4    0.70    0.64
   0  -6   4    0.88    0.48
  -1   6  -4   10.39    0.78
  -1   6  -4    8.97    1.22
  -1   6  -4   10.06    0.98
  -1   6  -4    9.38    1.01
  -1   6  -4   10.69    0.90
   1  -6   4   12.35    0.94
   1  -6   4    9.19    0.93
   1  -6   4   11.74    1.14
  -2   6  -4   37.10    1.93
  -2   6  -4   36.65    2.01
  -2   6  -4   37.43    2.02
  -2   6  -4   35.71    2.38
  -2   6  -4   37.69    2.29
  -2   6  -4   39.34    2.01
  -2   6  -4   35.08    2.12
   2  -6   4   36.36    1.98
  -3   6  -4    3.55    0.70
  -3   6  -4    2.62    0.74
  -3   6  -4    4.90    0.83
  -3   6  -4    1.96    0.91
   3  -6   4    2.99    0.63
  -4   6  -4    0.61    0.54
  -4   6  -4    0.08    0.72
   4  -6   4   -0.37    0.42
   4   5  -4    2.27    0.40
   2   5  -4    0.09    0.43
   1   5  -4    1.86    0.48
   1   5  -4    2.15    0.46
   1   5  -4    1.22    0.48
   1   5  -4    1.14    0.46
  -1  -5   4    1.42    0.63
  -1  -5   4    1.28    0.42
   0   5  -4   -0.83    0.48
   0   5  -4   -0.13    0.37
   0   5  -4    0.50    0.36
   0   5  -4   -0.03    0.35
   0   5  -4    0.63    0.34
   0   5  -4    0.66    0.39
   0  -5   4    0.65    0.36
  -1   5  -4    5.57    0.64
  -1   5  -4    6.25    0.54
  -1   5  -4    7.05    0.96
  -1   5  -4    5.07    0.66
  -1   5  -4    4.93    0.65
   1  -5   4    5.76    0.65
   1  -5   4    5.68    0.62
  -2   5  -4    0.29    0.42
  -2   5  -4    0.48    0.41
  -2   5  -4    0.58    0.81
  -2   5  -4    0.56    0.36
   2  -5   4    0.16    0.48
   2  -5   4    0.50    0.43
  -3   5  -4    0.95    0.95
  -3   5  -4    2.16    0.70
   3  -5   4    1.64    0.62
   3  -5   4    1.48    0.59
  -4   5  -4    0.58    0.79
  -4   5  -4   -0.41    0.58
   4  -5   4   -0.24    0.52
   4  -5   4   -0.29    0.48
  -5   5  -4    1.61    0.49
   5  -5   4    1.15    0.40
   5   4  -4    4.54    0.51
   5   4  -4    3.33    0.41
   5   4  -4    3.82    0.56
   4   4  -4   22.23    1.36
   4   4  -4   20.39    1.42
   4   4  -4   20.55    1.41
   4   4  -4   21.20    1.18
   3   4  -4    2.03    0.46
   3   4  -4    1.28    0.54
   2   4  -4    4.99    0.57
  -2  -4   4    3.43    0.60
   1   4  -4    2.69    0.48
   1   4  -4    2.54    0.39
   1   4  -4    2.04    0.46
   1   4  -4    2.31    0.46
  -1  -4   4    2.86    0.43
   0   4  -4    0.16    0.30
   0   4  -4    0.18    0.33
   0  -4   4   -0.07    0.27
   0  -4   4   -0.18    0.27
  -1   4  -4   40.56    2.57
  -1   4  -4   39.80    1.80
   1  -4   4   42.72    2.11
   1  -4   4   41.05    1.72
  -2   4  -4    6.73    0.61
  -2   4  -4    9.51    1.07
  -2   4  -4    6.84    0.73
  -2   4  -4    7.75    0.75
   2  -4   4    5.89    0.75
   2  -4   4    7.13    0.56
   2  -4   4    7.09    0.67
  -3   4  -4   41.82    2.40
  -3   4  -4   38.02    1.87
   3  -4   4   38.73    1.75
   3  -4   4   38.85    2.05
  -4   4  -4   42.14    2.42
  -4   4  -4   44.90    2.61
   4  -4   4   46.37    2.13
   4  -4   4   45.50    2.28
   4  -4   4   43.97    2.33
  -5   4  -4    1.06    0.67
  -5   4  -4    1.93    0.56
   5  -4   4    2.11    0.39
   5  -4   4    1.90    0.49
   5   3  -4   23.51    1.38
   5   3  -4   23.65    1.21
   5   3  -4   24.02    1.40
   5   3  -4   22.04    1.46
   4   3  -4    1.56    0.50
   4   3  -4    0.61    0.52
   4   3  -4    1.10    0.64
   4   3  -4    0.74    0.40
   4   3  -4    1.43    0.45
   3   3  -4    4.96    0.66
   3   3  -4    4.13    0.71
   3   3  -4    4.23    0.64
  -3  -3   4    3.96    0.70
   2   3  -4   59.42    3.15
   2   3  -4   61.21    2.46
   2   3  -4   64.38    3.60
  -2  -3   4   63.56    3.20
  -2  -3   4   53.31    2.65
   1   3  -4   10.81    0.79
   1   3  -4   10.54    0.71
   1   3  -4   10.75    0.71
   1   3  -4   11.03    0.88
   1   3  -4   10.86    0.63
  -1  -3   4    9.96    0.72
   0   3  -4   64.70    2.71
   0   3  -4   66.81    3.94
   0   3  -4   67.44    3.31
   0  -3   4   66.38    2.62
   0  -3   4   66.21    3.15
  -1   3  -4   13.60    1.05
  -1   3  -4   14.24    0.80
   1  -3   4   14.01    0.74
   1  -3   4   14.66    0.89
  -2   3  -4    2.35    0.39
  -2   3  -4    2.59    0.44
   2  -3   4    1.80    0.34
   2  -3   4    1.65    0.39
  -3   3  -4   12.77    0.89
  -3   3  -4   15.29    1.25
   3  -3   4   12.76    0.80
   3  -3   4   13.64    1.05
  -4   3  -4    2.42    0.78
  -4   3  -4    0.48    0.66
   4  -3   4    1.28    0.44
   4  -3   4    1.73    0.43
   4  -3   4    1.71    0.59
   4  -3   4    0.43    0.60
  -5   3  -4    1.10    0.68
  -5   3  -4    1.92    0.60
   5  -3   4    1.05    0.52
   5  -3   4    1.87    0.40
   5   2  -4    4.52    0.62
   5   2  -4    3.89    0.63
   5   2  -4    4.30    0.54
   5   2  -4    2.54    0.46
   5   2  -4    3.37    0.62
   5   2  -4    4.81    0.68
   5   2  -4    5.15    0.56
   4   2  -4    0.59    0.42
   4   2  -4    0.84    0.61
   4   2  -4    0.63    0.58
   4   2  -4    0.19    0.52
   4   2  -4   -0.03    0.37
   4   2  -4   -0.01    0.37
   4   2  -4    0.26    0.43
   3   2  -4    1.53    0.51
   3   2  -4    2.38    0.38
   3   2  -4    2.21    0.45
   3   2  -4    1.17    0.49
   3   2  -4    1.65    0.42
  -3  -2   4    1.07    0.51
   2   2  -4   20.42    1.09
   2   2  -4   20.12    1.35
   2   2  -4   20.20    0.95
  -2  -2   4   19.30    1.22
  -2  -2   4   19.75    1.04
   1   2  -4   28.01    1.46
   1   2  -4   26.39    1.67
   1   2  -4   26.52    1.16
   1   2  -4   27.06    1.39
   1   2  -4   30.26    1.75
   1   2  -4   28.00    1.19
   0   2  -4   30.73    1.50
   0   2  -4   31.50    1.30
   0   2  -4   32.52    1.87
   0   2  -4   31.07    1.52
   0  -2   4   25.45    1.80
   0  -2   4   30.90    1.29
  -1   2  -4   -0.08    0.41
  -1   2  -4    0.05    0.29
  -1   2  -4    0.30    0.30
   1  -2   4   -0.05    0.23
   1  -2   4   -0.13    0.23
   1  -2   4    0.22    0.26
  -2   2  -4    2.35    0.54
  -2   2  -4    1.43    0.41
  -2   2  -4    1.51    0.35
   2  -2   4    1.26    0.32
   2  -2   4    1.30    0.33
   2  -2   4    1.10    0.32
  -3   2  -4   14.23    1.18
  -3   2  -4   14.26    0.95
  -3   2  -4   14.24    1.31
   3  -2   4   15.19    0.95
   3  -2   4   16.43    1.09
   3  -2   4   14.77    0.82
  -4   2  -4    1.37    0.72
  -4   2  -4    0.45    0.75
   4  -2   4    0.87    0.40
   4  -2   4    1.42    0.60
   4  -2   4    0.74    0.40
  -5   2  -4    1.68    0.66
  -5   2  -4    0.67    0.67
   5  -2   4    1.93    0.41
   5  -2   4    1.40    0.55
   5  -2   4    1.90    0.43
   5   1  -4    1.44    0.60
   5   1  -4    1.42    0.45
   5   1  -4    0.94    0.50
   5   1  -4    1.33    0.39
   5   1  -4    0.84    0.38
   5   1  -4    1.08    0.55
   5   1  -4    0.95    0.45
   4   1  -4    0.70    0.45
   4   1  -4   -0.12    0.53
   4   1  -4    0.32    0.38
   4   1  -4    0.00    0.34
   4   1  -4    0.28    0.61
   4   1  -4    0.47    0.43
   4   1  -4    1.16    0.55
  -4  -1   4    0.67    0.69
   3   1  -4    1.32    0.51
   3   1  -4    1.07    0.35
   3   1  -4    1.49    0.45
   3   1  -4    0.46    0.39
   3   1  -4    0.51    0.27
   3   1  -4    1.07    0.43
  -3  -1   4    0.52    0.44
   2   1  -4   68.64    2.64
   2   1  -4   67.72    3.85
   2   1  -4   69.25    3.19
  -2  -1   4   61.81    2.71
  -2  -1   4   66.49    3.42
   1   1  -4   95.98    5.37
   1   1  -4   91.32    3.56
   1   1  -4   89.60    4.31
   1   1  -4   93.43    3.66
  -1  -1   4   98.42    5.25
  -1  -1   4   91.65    4.61
   0   1  -4  500.40   23.13
   0   1  -4  539.03   19.94
   0   1  -4  515.12   29.11
   0  -1   4  503.90   19.15
  -1   1  -4    4.37    0.45
  -1   1  -4    4.27    0.40
  -1   1  -4    3.98    0.48
   1  -1   4    3.90    0.45
   1  -1   4    4.18    0.40
   1  -1   4    4.10    0.34
  -2   1  -4    0.08    0.30
  -2   1  -4    0.21    0.40
  -2   1  -4   -0.01    0.36
   2  -1   4    0.22    0.29
   2  -1   4    0.35    0.35
  -3   1  -4    3.74    0.77
  -3   1  -4    3.69    0.56
  -3   1  -4    3.54    0.62
   3  -1   4    3.54    0.60
   3  -1   4    3.96    0.53
   3  -1   4    3.15    0.43
  -4   1  -4    4.18    0.91
  -4   1  -4    4.57    0.86
   4  -1   4    3.90    0.71
   4  -1   4    4.64    0.60
   4  -1   4    4.02    0.56
  -5   1  -4    2.42    0.74
  -5   1  -4    1.59    0.72
   5  -1   4    1.54    0.43
   5  -1   4    0.51    0.34
   5  -1   4    2.92    0.64
   5  -1   4    2.32    0.76
   5   0  -4    1.17    0.62
   5   0  -4    0.64    0.51
   5   0  -4    0.17    0.43
   5   0  -4    0.73    0.37
   5   0  -4    0.39    0.43
   5   0  -4    0.14    0.53
   5   0  -4    0.17    0.32
   4   0  -4   25.43    1.40
   4   0  -4   25.27    1.47
   4   0  -4   25.74    1.71
   4   0  -4   27.67    1.55
  -4   0   4   27.24    1.72
   3   0  -4    5.15    0.65
   3   0  -4    4.86    0.47
   3   0  -4    4.44    0.64
   3   0  -4    5.31    0.56
   3   0  -4    6.05    0.66
  -3   0   4    4.78    0.72
  -3   0   4    5.13    0.70
   2   0  -4    9.18    0.56
   2   0  -4   10.27    0.84
   2   0  -4    9.37    0.80
  -2   0   4   10.70    0.78
   1   0  -4  395.26   21.67
   1   0  -4  364.27   17.28
   1   0  -4  370.67   14.24
  -1   0   4  389.45   18.62
  -1   0   4  393.65   21.06
   0   0  -4    2.67    0.32
   0   0  -4    3.26    0.52
   0   0  -4    3.57    0.32
   0   0   4    3.23    0.35
   0   0   4    2.81    0.31
   0   0   4    1.82    0.49
  -1   0  -4   28.01    1.91
  -1   0  -4   28.03    1.36
   1   0   4   29.97    1.22
   1   0   4   30.12    1.39
   1   0   4   30.48    1.56
   1   0   4   31.34    1.81
  -2   0  -4   44.13    2.56
  -2   0  -4   40.32    2.23
  -2   0  -4   41.83    1.91
   2   0   4   40.19    1.71
   2   0   4   40.64    2.49
  -3   0  -4   26.26    1.47
  -3   0  -4   30.37    1.76
   3   0   4   28.03    1.87
   3   0   4   27.59    1.48
   3   0   4   26.98    1.65
   3   0   4   29.59    1.67
   3   0   4   27.50    1.31
  -4   0  -4    1.10    0.82
   4   0   4    0.75    0.57
   4   0   4    0.85    0.66
   4   0   4    0.34    0.44
   4   0   4   -0.53    0.35
   4   0   4    0.94    0.45
   4   0   4    1.03    0.72
   4   0   4    0.49    0.72
  -5   0  -4   -0.68    0.64
  -5   0  -4   -1.80    0.61
   5   0   4    0.02    0.38
   5   0   4    0.95    0.38
   5   0   4   -0.09    0.36
   5   0   4    0.09    0.63
   5   0   4   -0.50    0.60
   6  -1  -4    0.01    0.21
   6  -1  -4    0.70    0.38
   6  -1  -4   -0.17    0.28
   6  -1  -4    0.22    0.26
   5  -1  -4    4.38    0.64
   5  -1  -4    3.91    0.76
   5  -1  -4    4.20    0.59
   5  -1  -4    2.81    0.47
   5  -1  -4    2.84    0.48
   5  -1  -4    3.76    0.72
   5  -1  -4    2.71    0.54
   5  -1  -4    2.63    0.57
  -5   1   4    3.87    0.77
   4  -1  -4    0.26    0.35
   4  -1  -4    0.80    0.59
   4  -1  -4   -0.04    0.44
   4  -1  -4    0.32    0.34
  -4   1   4    1.27    0.65
   3  -1  -4   -0.22    0.38
   3  -1  -4    0.41    0.45
   3  -1  -4    0.56    0.29
   3  -1  -4    0.63    0.42
   3  -1  -4    0.12    0.24
  -3   1   4    0.40    0.53
  -3   1   4    0.34    0.50
  -3   1   4    0.73    0.48
   2  -1  -4    6.77    0.71
   2  -1  -4    7.74    0.51
  -2   1   4    8.30    0.79
  -2   1   4    7.61    0.76
   1  -1  -4   36.25    1.39
   1  -1  -4   33.07    2.18
   1  -1  -4   32.30    1.76
  -1   1   4   38.87    2.15
  -1   1   4   34.56    1.39
  -1   1   4   36.77    1.93
   0  -1  -4   13.61    0.81
   0  -1  -4   16.33    0.71
   0   1   4   14.66    0.94
   0   1   4   15.41    0.66
   0   1   4   14.52    1.14
  -1  -1  -4   37.63    1.67
   1   1   4   39.54    1.53
   1   1   4   36.66    2.00
   1   1   4   40.32    2.30
  -2  -1  -4   69.15    2.93
  -2  -1  -4   64.10    4.11
   2   1   4   68.67    2.67
   2   1   4   68.10    3.50
   2   1   4   68.88    3.95
  -3  -1  -4   60.32    3.09
  -3  -1  -4   67.00    3.46
  -3  -1  -4   60.02    2.84
   3   1   4   63.99    2.99
   3   1   4   61.47    3.32
   3   1   4   64.06    2.61
   3   1   4   66.54    3.18
   3   1   4   60.51    3.78
   4   1   4    9.49    0.96
   4   1   4   10.63    0.90
   4   1   4   11.15    0.89
   4   1   4    8.82    1.22
   4   1   4   13.02    1.06
   4   1   4   10.02    0.96
   4   1   4   11.99    1.30
   4   1   4   10.63    1.16
  -5  -1  -4   -0.55    0.62
  -5  -1  -4   -0.15    0.62
   5   1   4    0.07    0.48
   5   1   4    0.64    0.45
   5   1   4   -0.02    0.40
   5   1   4    0.66    0.44
   5   1   4    0.55    0.35
   5   1   4   -0.28    0.59
   6  -2  -4    0.27    0.21
   6  -2  -4    0.20    0.28
   5  -2  -4    8.58    0.73
   5  -2  -4   10.55    0.76
   5  -2  -4    9.68    0.90
   5  -2  -4    9.85    0.93
   5  -2  -4    9.21    1.02
   5  -2  -4    8.32    0.83
   5  -2  -4    8.70    1.08
  -5   2   4   10.15    1.09
   4  -2  -4   20.11    1.57
   4  -2  -4   22.05    1.19
   4  -2  -4   21.68    1.24
   4  -2  -4   20.59    1.50
   4  -2  -4   20.27    1.30
   4  -2  -4   19.37    1.26
  -4   2   4   21.30    1.51
   3  -2  -4    0.55    0.43
   3  -2  -4   -0.01    0.24
   3  -2  -4    0.16    0.51
   3  -2  -4    0.14    0.37
   3  -2  -4    0.42    0.28
  -3   2   4   -0.05    0.45
  -3   2   4    0.25    0.51
  -3   2   4   -0.02    0.58
   2  -2  -4    1.15    0.49
   2  -2  -4    1.86    0.28
  -2   2   4    1.82    0.51
  -2   2   4    2.54    0.65
   1  -2  -4    5.80    0.33
   1  -2  -4    5.38    0.66
   1  -2  -4    3.75    0.66
  -1   2   4    5.26    0.73
  -1   2   4    5.92    0.35
  -1   2   4    3.70    0.72
   0  -2  -4    3.87    0.48
   0  -2  -4    3.30    0.59
   0   2   4    3.94    0.58
   0   2   4    3.38    0.32
   0   2   4    2.81    0.61
  -1  -2  -4   19.27    1.03
   1   2   4   20.29    1.21
   1   2   4   19.22    1.34
  -2  -2  -4   67.01    2.86
   2   2   4   66.25    3.46
   2   2   4   67.97    3.89
   2   2   4   62.94    3.43
  -3  -2  -4    1.37    0.62
  -3  -2  -4    2.02    0.85
  -3  -2  -4    2.30    0.65
   3   2   4    2.88    0.59
   3   2   4    2.17    0.57
   3   2   4    2.30    0.56
   3   2   4    4.15    0.55
   4   2   4    0.51    0.40
   4   2   4   -1.74    0.65
   4   2   4    0.61    0.45
   4   2   4    0.55    0.57
   4   2   4    0.44    0.45
   4   2   4    1.21    0.71
   4   2   4   -0.02    0.58
  -5  -2  -4    0.49    0.64
   5   2   4    0.30    0.37
   5   2   4    0.23    0.56
   5   2   4   -0.14    0.38
   5   2   4    0.31    0.48
   5   2   4   -0.56    0.36
   5   2   4    0.34    0.46
   5  -3  -4   31.12    1.66
   5  -3  -4   32.41    1.54
   5  -3  -4   30.01    1.65
   5  -3  -4   30.17    1.88
   5  -3  -4   32.08    1.62
  -5   3   4   30.69    1.90
   4  -3  -4    1.72    0.56
   4  -3  -4    1.33    0.70
   4  -3  -4    1.30    0.53
   4  -3  -4    0.51    0.55
   4  -3  -4    1.28    0.41
  -4   3   4    1.51    1.22
  -4   3   4    0.99    0.66
   3  -3  -4   18.59    1.14
   3  -3  -4   18.75    0.91
   3  -3  -4   16.28    1.22
  -3   3   4   20.37    1.90
  -3   3   4   19.71    1.30
  -3   3   4   17.30    1.49
   2  -3  -4    8.32    0.81
   2  -3  -4    9.79    0.51
  -2   3   4    7.85    0.98
   1  -3  -4    1.22    0.45
   1  -3  -4    0.38    0.52
  -1   3   4    1.23    0.69
  -1   3   4    0.80    0.24
  -1   3   4    0.53    0.66
   0  -3  -4   99.52    6.44
   0  -3  -4  105.05    5.09
   0   3   4  116.29    6.21
   0   3   4  114.96    5.58
   0   3   4  110.57    4.37
  -1  -3  -4    0.85    0.40
  -1  -3  -4    0.89    0.61
   1   3   4    1.25    0.42
   1   3   4    1.29    0.43
  -2  -3  -4   18.34    1.16
   2   3   4   19.92    1.33
   2   3   4   18.27    1.39
   2   3   4   19.34    1.23
   2   3   4   17.70    1.29
   2   3   4   20.45    1.31
  -3  -3  -4   12.97    1.35
   3   3   4   11.72    1.05
   3   3   4    9.29    0.85
   3   3   4   11.97    1.03
   4   3   4    0.67    0.45
   4   3   4    1.33    0.61
   4   3   4    0.76    0.49
   4   3   4    1.17    0.74
   4   3   4    1.43    0.50
   4   3   4    1.35    0.63
   4   3   4    0.75    0.66
   5   3   4    1.18    0.43
   5   3   4    0.57    0.53
   5   3   4    1.54    0.43
   5   3   4    1.26    0.40
   5  -4  -4    0.86    0.43
   5  -4  -4    1.27    0.47
  -5   4   4    0.62    1.02
  -5   4   4    1.47    0.67
   4  -4  -4    2.09    0.71
   4  -4  -4    1.98    0.67
   4  -4  -4    1.46    0.55
  -4   4   4    2.90    1.20
  -4   4   4    2.12    0.75
   3  -4  -4    2.71    0.63
   3  -4  -4    2.23    0.53
  -3   4   4    1.84    0.83
  -3   4   4    2.86    0.72
   2  -4  -4    5.95    0.95
   2  -4  -4    6.38    0.66
   2  -4  -4    5.20    0.72
  -2   4   4    6.89    0.78
  -2   4   4    8.70    1.30
  -2   4   4    4.69    0.90
   1  -4  -4    1.16    0.55
   1  -4  -4    1.80    0.50
   1  -4  -4    4.06    0.82
  -1   4   4    1.59    0.68
  -1   4   4    1.41    0.29
   0  -4  -4   19.65    1.20
   0  -4  -4   17.83    1.56
   0   4   4   21.04    1.42
   0   4   4   20.41    1.00
  -1  -4  -4    5.95    0.62
  -1  -4  -4    4.94    0.91
   1   4   4    6.37    0.83
   1   4   4    5.52    0.75
   1   4   4    4.86    0.73
   1   4   4    5.28    0.65
   1   4   4    5.88    0.70
  -2  -4  -4   -0.47    0.66
  -2  -4  -4    0.25    0.48
   2   4   4    0.12    0.49
   2   4   4    0.01    0.53
   2   4   4    0.21    0.45
   2   4   4    1.00    0.62
   2   4   4    0.52    0.52
  -3  -4  -4   10.72    1.35
   3   4   4   10.63    1.01
   3   4   4   11.16    0.96
   3   4   4   11.59    1.35
   3   4   4   10.94    1.23
   3   4   4   11.81    1.40
   3   4   4   10.02    1.04
   3   4   4   11.08    1.08
   4   4   4    9.45    0.91
   4   4   4   10.00    0.87
   4   4   4   10.13    1.10
   4   4   4    8.39    0.95
   4   4   4    6.84    0.94
   4   4   4    9.49    1.14
   5  -5  -4    1.65    0.41
  -5   5   4    0.61    0.85
   4  -5  -4    3.06    0.72
   4  -5  -4    4.65    0.79
   4  -5  -4    4.54    0.65
  -4   5   4    5.04    1.27
  -4   5   4    2.99    0.78
   3  -5  -4    6.13    0.80
   3  -5  -4    5.98    0.93
   3  -5  -4    7.03    0.96
  -3   5   4    5.87    0.89
  -3   5   4    5.57    1.30
   2  -5  -4    6.01    0.86
   2  -5  -4    6.69    1.10
   2  -5  -4    7.40    0.76
  -2   5   4    6.94    0.98
  -2   5   4   10.21    1.17
   1  -5  -4    1.47    0.64
   1  -5  -4    1.31    0.76
   1  -5  -4    0.15    0.47
  -1   5   4    0.54    0.31
  -1   5   4   -0.62    0.49
  -1   5   4    0.64    0.39
  -1   5   4    0.68    0.65
   0  -5  -4    3.69    0.88
   0  -5  -4    4.67    0.88
   0   5   4    5.29    0.71
   0   5   4    4.10    0.79
   0   5   4    3.44    0.85
   0   5   4    4.50    0.62
   0   5   4    4.24    0.52
  -1  -5  -4   -0.34    0.61
  -1  -5  -4    0.69    0.78
  -1  -5  -4    0.95    0.46
   1   5   4    1.00    0.56
   1   5   4    0.65    0.52
   1   5   4    0.70    0.59
   1   5   4    1.00    0.51
   2   5   4    0.88    0.60
   2   5   4    0.76    0.67
   2   5   4    0.15    0.72
   2   5   4    0.88    0.77
   2   5   4    1.12    0.49
   2   5   4   -0.17    0.75
   2   5   4    0.41    0.57
  -3  -5  -4    0.28    0.87
   3   5   4   -0.54    0.56
   3   5   4   -0.01    0.79
   3   5   4   -0.88    0.77
   3   5   4   -0.01    0.43
   3   5   4    0.14    0.58
   3   5   4   -0.23    0.71
   3   5   4   -0.30    0.41
   4   5   4   10.74    0.92
   4   5   4   10.75    0.92
   4   5   4   10.44    1.09
   4   5   4   10.73    1.00
   4   5   4    9.78    0.95
   4   5   4    9.97    0.83
  -5   6   4   -0.01    0.56
   4  -6  -4    0.55    0.58
   4  -6  -4    0.31    0.41
   4  -6  -4   -0.50    0.51
  -4   6   4    0.37    0.60
   3  -6  -4    0.35    0.67
   3  -6  -4    1.65    0.76
   3  -6  -4    0.31    0.46
  -3   6   4    1.06    1.05
  -3   6   4   -0.10    0.64
   2  -6  -4    9.91    1.29
   2  -6  -4    7.21    1.24
  -2   6   4   10.81    1.11
  -2   6   4   12.52    1.58
   1  -6  -4    4.26    1.05
   1  -6  -4    2.71    0.88
   1  -6  -4    2.93    0.71
  -1   6   4    2.61    0.83
  -1   6   4    2.87    0.49
  -1   6   4    3.12    0.56
  -1   6   4    3.69    0.74
   0  -6  -4    2.24    0.83
   0  -6  -4    5.34    1.11
   0   6   4    3.96    0.88
   0   6   4    3.50    0.63
   0   6   4    4.42    0.59
   0   6   4    4.40    0.77
  -1  -6  -4    4.75    1.10
   1   6   4    5.05    0.79
   1   6   4    5.84    0.81
   1   6   4    6.38    0.98
   1   6   4    8.06    1.00
   1   6   4    6.29    1.01
   1   6   4    6.09    0.89
   1   6   4    6.11    0.74
   1   6   4    7.19    0.96
   2   6   4    1.37    0.53
   2   6   4    1.87    0.66
   2   6   4    1.76    0.74
   2   6   4    1.06    0.78
   2   6   4    2.01    0.83
   2   6   4    1.13    0.72
   2   6   4    2.42    0.77
   2   6   4    1.43    0.65
  -3  -6  -4    0.89    0.79
   3   6   4    1.83    0.76
   3   6   4    0.60    0.60
   3   6   4    1.07    0.48
   3   6   4    0.48    0.53
   3   6   4    0.99    0.76
   3   6   4    2.21    0.74
   4   6   4    0.14    0.32
   4  -7  -4    7.40    0.76
   4  -7  -4    7.69    0.82
  -4   7   4    5.35    0.80
  -4   7   4    7.99    1.00
   3  -7  -4   -1.09    0.65
   3  -7  -4    0.84    0.68
  -3   7   4   -0.23    0.83
  -3   7   4   -0.77    0.52
   2  -7  -4   -0.01    0.72
   2  -7  -4    0.55    0.79
   2  -7  -4    0.68    0.81
  -2   7   4    0.41    0.61
  -2   7   4    0.59    0.90
   1  -7  -4    0.99    0.93
   1  -7  -4    3.13    0.93
  -1   7   4    0.55    0.60
  -1   7   4    1.88    0.60
  -1   7   4    0.61    0.98
  -1   7   4    1.50    0.56
  -1   7   4    1.61    0.61
   0  -7  -4    2.32    0.95
   0   7   4    4.41    0.69
   0   7   4    3.30    0.74
   0   7   4    3.53    0.78
   0   7   4    3.67    0.69
   0   7   4    3.35    0.75
   0   7   4    1.67    0.99
   1   7   4    1.86    0.73
   1   7   4    1.56    0.64
   1   7   4    1.00    0.70
   1   7   4    3.07    0.96
   1   7   4    2.37    0.67
   1   7   4    2.87    0.71
   2   7   4    8.16    0.92
   2   7   4    6.87    0.75
   2   7   4    7.78    1.07
   2   7   4    8.01    1.07
   2   7   4    4.92    0.84
   2   7   4    6.01    0.90
   2   7   4    6.08    1.00
   3   7   4    3.45    0.62
   3   7   4    2.57    0.45
   3   7   4    3.41    0.72
   3  -8  -4    3.10    0.66
   3  -8  -4    2.18    0.61
  -3   8   4    2.11    0.52
  -3   8   4    3.32    0.75
   2  -8  -4    0.74    0.66
   2  -8  -4   -0.87    0.60
   2  -8  -4   -0.95    0.65
  -2   8   4    0.48    0.48
  -2   8   4    0.80    0.82
   1  -8  -4    2.03    0.84
   1  -8  -4    4.34    0.80
  -1   8   4    3.25    0.66
  -1   8   4    3.41    0.63
  -1   8   4    4.41    0.72
  -1   8   4    2.75    0.96
  -1   8   4    2.98    0.66
   0  -8  -4    2.78    0.91
   0   8   4    6.96    0.85
   0   8   4    7.71    1.00
   0   8   4    5.75    1.03
   0   8   4    5.21    0.77
   0   8   4    6.34    0.86
   0   8   4    6.59    0.84
   1   8   4   10.55    1.29
   1   8   4   10.75    1.11
   1   8   4   12.37    1.05
   1   8   4   12.74    1.02
   1   8   4   10.75    1.10
   1   8   4   10.61    1.07
   2   8   4    4.26    0.81
   2   8   4    4.38    0.61
   2   8   4    4.24    0.68
   2   8   4    4.12    0.64
   2  -9  -4    0.47    0.48
   2  -9  -4    0.85    0.47
  -2   9   4    1.31    0.55
  -1   9   4    0.85    0.42
  -1   9   4    0.43    0.49
  -1   9   4    1.12    0.64
   0   9   4    2.55    0.51
   0   9   4    3.51    0.59
   0   9   4    4.59    0.73
   0   9   4    2.51    0.54
   1   9   4    3.64    0.66
   1   9   4    4.51    0.62
   1   9   4    3.53    0.51
   1   9   4    4.04    0.56
   1   9  -5    7.33    0.67
   1   9  -5    6.07    0.79
   1   9  -5    7.62    0.79
   0   9  -5    0.25    0.37
   0   9  -5    0.14    0.46
   0   9  -5   -0.07    0.35
   0   9  -5    0.01    0.56
  -1   9  -5    0.79    0.56
  -1   9  -5    1.49    0.45
  -1   9  -5    0.33    0.42
  -1   9  -5    0.63    0.41
  -1   9  -5    1.34    0.50
  -2   9  -5    0.80    0.39
  -2   9  -5    0.60    0.45
  -2   9  -5    0.09    0.37
  -2   9  -5    0.72    0.40
   2   8  -5    3.26    0.66
   1   8  -5   -0.06    0.71
   1   8  -5    0.30    0.50
   1   8  -5    1.04    0.48
   1   8  -5    0.66    0.62
   1   8  -5    0.98    0.49
   0   8  -5    8.55    0.97
   0   8  -5    9.11    0.85
   0   8  -5    8.72    0.95
   0   8  -5    9.02    1.21
   0   8  -5    9.06    0.90
   0   8  -5    9.70    0.99
   0   8  -5   10.36    1.00
  -1   8  -5    0.92    0.47
  -1   8  -5    0.03    0.45
  -1   8  -5   -0.02    0.49
  -1   8  -5   -0.16    0.40
  -1   8  -5   -0.19    0.52
  -1   8  -5    0.38    0.68
  -1   8  -5   -0.13    0.47
  -2   8  -5    0.76    0.48
  -2   8  -5    0.24    0.48
  -2   8  -5   -0.68    0.50
  -2   8  -5    1.02    0.50
  -2   8  -5    0.20    0.44
  -2   8  -5    1.94    0.64
   2  -8   5    0.92    0.50
  -3   8  -5    5.20    0.65
  -3   8  -5    5.24    0.76
   3  -8   5    5.18    0.83
   2   7  -5   -0.68    0.50
   1   7  -5   -0.10    0.49
   1   7  -5   -0.16    0.42
   1   7  -5    0.99    0.53
   1   7  -5    0.28    0.73
   1   7  -5   -0.63    0.59
   0   7  -5    1.69    0.56
   0   7  -5    1.24    0.81
   0   7  -5    1.13    0.59
   0   7  -5    1.60    0.54
   0   7  -5    1.26    0.62
   0   7  -5    1.28    0.57
   0   7  -5    1.32    0.52
  -1   7  -5   12.13    1.30
  -1   7  -5   10.73    0.99
  -1   7  -5    9.77    1.09
  -1   7  -5   10.65    1.08
  -1   7  -5   10.81    0.92
  -1   7  -5   10.99    1.06
  -1   7  -5   11.43    1.04
   1  -7   5   10.73    1.04
  -2   7  -5    0.91    0.66
  -2   7  -5    0.77    0.57
  -2   7  -5    0.37    0.76
  -2   7  -5    0.55    0.54
  -2   7  -5    0.90    0.52
  -2   7  -5    1.25    0.56
  -2   7  -5    1.82    0.63
   2  -7   5    1.96    0.59
  -3   7  -5    8.09    0.97
  -3   7  -5    7.85    0.96
  -3   7  -5    8.64    1.00
  -3   7  -5    7.48    0.83
  -3   7  -5    8.07    1.16
   3  -7   5    6.91    0.82
  -4   7  -5   -0.10    0.41
   1   6  -5    0.55    0.67
   1   6  -5    0.72    0.66
   1   6  -5   -0.18    0.45
   1   6  -5   -0.54    0.52
   1   6  -5    0.28    0.46
   0   6  -5    0.89    0.46
   0   6  -5    0.80    0.48
   0   6  -5    1.21    0.47
   0   6  -5    1.36    0.48
   0   6  -5    0.01    0.30
   0  -6   5    0.97    0.50
   0  -6   5    0.92    0.65
  -1   6  -5   34.61    2.13
  -1   6  -5   34.66    2.07
  -1   6  -5   35.33    1.81
  -1   6  -5   31.46    2.33
   1  -6   5   32.11    1.95
   1  -6   5   35.04    1.83
  -2   6  -5    3.69    0.67
  -2   6  -5    4.00    0.80
  -2   6  -5    2.12    0.58
  -2   6  -5    1.73    0.64
  -2   6  -5    3.40    0.73
  -2   6  -5    1.47    0.92
  -2   6  -5    3.19    0.59
   2  -6   5    3.92    0.70
  -3   6  -5    2.33    0.76
  -3   6  -5    2.70    0.74
  -3   6  -5    2.75    0.68
  -3   6  -5    2.93    0.66
  -3   6  -5    3.51    0.95
   3  -6   5    2.48    0.63
  -4   6  -5    0.26    0.56
  -4   6  -5    1.75    0.74
   4  -6   5    0.52    0.44
   4  -6   5    0.17    0.45
   1   5  -5   12.14    1.04
   1   5  -5   14.20    1.18
   1   5  -5   11.77    0.85
   1   5  -5   12.70    0.94
  -1  -5   5   12.14    0.95
   0   5  -5   99.36    4.13
   0   5  -5  101.59    5.33
   0   5  -5   95.29    4.34
   0   5  -5   98.40    4.46
   0  -5   5  100.82    4.76
  -1   5  -5   11.15    0.85
  -1   5  -5   12.05    1.16
  -1   5  -5   11.61    1.04
  -1   5  -5   12.27    0.99
  -1   5  -5   10.37    0.86
  -1   5  -5   12.09    0.80
   1  -5   5   11.24    0.88
  -2   5  -5    7.11    0.76
  -2   5  -5    7.14    1.11
  -2   5  -5    6.21    0.77
  -2   5  -5    5.72    0.62
   2  -5   5    7.33    0.84
   2  -5   5    5.45    0.73
   2  -5   5    6.59    0.62
  -3   5  -5   -1.20    0.86
  -3   5  -5    0.78    0.65
   3  -5   5    0.80    0.55
   3  -5   5    0.06    0.56
  -4   5  -5   11.48    1.12
  -4   5  -5   13.80    1.34
   4  -5   5   10.36    1.00
   4  -5   5   11.40    0.86
   4  -5   5   11.92    1.04
  -5   5  -5    1.36    0.46
   5  -5   5    1.58    0.40
   5  -5   5    1.83    0.33
   5   4  -5    0.37    0.30
   5   4  -5    0.27    0.27
   4   4  -5    0.53    0.51
   4   4  -5    0.94    0.42
   4   4  -5    0.59    0.47
   4   4  -5    0.90    0.48
   3   4  -5   24.15    1.54
   1   4  -5    2.90    0.51
   1   4  -5    1.84    0.47
   1   4  -5    2.80    0.48
   1   4  -5    1.63    0.36
  -1  -4   5    3.10    0.44
  -1  -4   5    1.61    0.39
   0   4  -5   22.16    1.45
   0   4  -5   23.52    1.61
   0   4  -5   23.49    1.15
   0  -4   5   23.99    1.11
   0  -4   5   23.81    1.31
  -1   4  -5   65.87    3.00
  -1   4  -5   66.32    3.62
  -1   4  -5   63.34    3.03
  -1   4  -5   69.32    2.82
  -1   4  -5   66.91    4.01
   1  -4   5   66.23    3.23
   1  -4   5   66.20    2.67
  -2   4  -5    9.62    0.78
  -2   4  -5    9.38    1.28
  -2   4  -5    8.30    0.70
  -2   4  -5    9.48    0.87
   2  -4   5    8.45    0.63
   2  -4   5    8.51    0.77
   2  -4   5    8.90    0.85
  -3   4  -5   15.74    1.03
  -3   4  -5   16.91    1.50
   3  -4   5   13.93    1.15
  -4   4  -5   27.22    1.70
  -4   4  -5   24.40    1.82
   4  -4   5   25.44    1.60
   4  -4   5   26.21    1.54
   4  -4   5   25.33    1.40
  -5   4  -5    0.84    0.50
  -5   4  -5    1.17    0.66
   5  -4   5    0.69    0.44
   5  -4   5    0.14    0.31
   5   3  -5    4.30    0.59
   5   3  -5    4.20    0.66
   5   3  -5    3.44    0.57
   5   3  -5    3.94    0.50
   4   3  -5    0.91    0.40
   4   3  -5    1.08    0.45
   4   3  -5    2.06    0.49
   4   3  -5    1.82    0.53
   4   3  -5    1.37    0.55
   4   3  -5    2.00    0.66
   3   3  -5    0.40    0.37
   3   3  -5    0.78    0.49
  -3  -3   5    0.48    0.52
  -3  -3   5   -0.30    0.61
   2   3  -5    1.48    0.31
   2   3  -5    1.44    0.43
   2   3  -5    1.38    0.33
   2   3  -5    1.52    0.41
   2   3  -5    1.10    0.36
   2   3  -5    1.32    0.44
  -2  -3   5    1.58    0.41
   1   3  -5    3.87    0.46
   1   3  -5    3.12    0.52
   1   3  -5    2.93    0.36
   1   3  -5    3.38    0.36
  -1  -3   5    2.95    0.47
  -1  -3   5    2.92    0.53
   0   3  -5   54.27    3.32
   0   3  -5   54.76    2.65
   0   3  -5   54.59    2.29
   0  -3   5   55.95    2.67
   0  -3   5   55.80    2.24
  -1   3  -5   27.28    1.77
  -1   3  -5   26.56    1.28
   1  -3   5   27.86    1.25
   1  -3   5   27.48    1.44
  -2   3  -5   15.45    1.13
  -2   3  -5   14.89    0.89
  -2   3  -5   14.79    0.98
   2  -3   5   15.14    0.97
   2  -3   5   16.35    0.85
   2  -3   5   14.84    1.03
  -3   3  -5   41.91    2.40
  -3   3  -5   39.71    1.94
   3  -3   5   42.43    2.14
   3  -3   5   41.36    1.84
   3  -3   5   41.21    2.05
  -4   3  -5    7.48    1.08
  -4   3  -5   10.37    1.13
   4  -3   5    9.54    1.05
   4  -3   5    9.98    1.02
   4  -3   5    9.68    0.80
   4  -3   5   10.14    0.85
  -5   3  -5    1.34    0.67
  -5   3  -5    2.27    0.63
   5  -3   5    2.39    0.57
   5  -3   5    2.24    0.43
   5   2  -5    5.54    0.75
   5   2  -5    4.33    0.57
   5   2  -5    4.52    0.61
   5   2  -5    5.12    0.67
   5   2  -5    5.28    0.57
   5   2  -5    6.04    0.81
   5   2  -5    5.91    0.73
   4   2  -5    0.82    0.41
   4   2  -5    1.63    0.52
   4   2  -5    2.24    0.63
   4   2  -5    2.09    0.48
   4   2  -5    2.51    0.52
   4   2  -5    1.16    0.56
   4   2  -5    2.03    0.67
   3   2  -5    5.05    0.70
   3   2  -5    4.93    0.63
   3   2  -5    5.76    0.51
   3   2  -5    5.01    0.67
   3   2  -5    4.73    0.70
  -3  -2   5    4.46    0.71
   2   2  -5   28.07    1.27
   2   2  -5   28.77    1.52
   2   2  -5   29.48    1.86
  -2  -2   5   30.40    1.65
   1   2  -5   11.01    0.73
   1   2  -5   10.46    0.86
   1   2  -5   10.56    0.59
   1   2  -5   11.63    0.56
  -1  -2   5   11.36    0.71
  -1  -2   5   11.26    0.88
   0   2  -5   15.54    0.86
   0   2  -5   15.11    0.75
   0   2  -5   14.95    1.08
   0  -2   5   15.44    0.77
  -1   2  -5    1.52    0.37
  -1   2  -5    2.10    0.42
   1  -2   5    1.81    0.34
   1  -2   5    2.04    0.33
   1  -2   5    1.85    0.36
  -2   2  -5    5.23    0.58
  -2   2  -5    5.02    0.61
   2  -2   5    4.62    0.51
   2  -2   5    4.35    0.45
   2  -2   5    4.11    0.49
  -3   2  -5    0.25    0.41
  -3   2  -5    0.00    0.66
   3  -2   5    0.24    0.30
   3  -2   5   -0.22    0.50
   3  -2   5    0.44    0.34
  -4   2  -5   19.00    1.52
  -4   2  -5   21.23    1.54
   4  -2   5   18.09    1.34
   4  -2   5   18.91    1.17
   4  -2   5   18.12    1.19
  -5   2  -5    0.12    0.63
  -5   2  -5   -0.64    0.58
   5  -2   5    0.89    0.39
   5  -2   5    0.30    0.31
   5  -2   5    0.29    0.52
   5   1  -5    0.29    0.48
   5   1  -5    0.05    0.40
   5   1  -5   -0.03    0.39
   5   1  -5   -0.10    0.28
   5   1  -5    0.20    0.33
   5   1  -5    0.04    0.49
   5   1  -5    0.57    0.57
   4   1  -5   27.21    1.59
   4   1  -5   30.64    1.62
   4   1  -5   30.36    1.81
   4   1  -5   26.78    1.70
   4   1  -5   28.31    1.77
   4   1  -5   26.33    1.52
   4   1  -5   30.42    1.52
   3   1  -5   10.05    0.93
   3   1  -5   10.57    0.67
   3   1  -5   10.26    0.88
   3   1  -5    9.91    0.88
   3   1  -5   11.71    0.80
  -3  -1   5   11.47    1.06
  -3  -1   5    9.57    0.91
   2   1  -5   57.69    2.83
   2   1  -5   60.90    2.34
   2   1  -5   55.99    3.40
  -2  -1   5   58.07    3.02
   1   1  -5   11.84    0.53
   1   1  -5   12.76    0.86
   1   1  -5   11.64    0.60
   1   1  -5   12.26    0.77
  -1  -1   5   12.74    0.93
  -1  -1   5   11.59    0.71
   0   1  -5  163.08    6.20
   0   1  -5  157.90    7.20
   0   1  -5  161.98    9.07
   0  -1   5  150.28    5.99
  -1   1  -5   69.17    4.11
  -1   1  -5   72.08    2.90
  -1   1  -5   69.01    3.47
   1  -1   5   70.27    2.75
   1  -1   5   69.29    3.23
   1  -1   5   69.82    3.97
  -2   1  -5   70.50    3.56
  -2   1  -5   70.19    2.95
  -2   1  -5   67.37    4.09
   2  -1   5   68.83    3.99
   2  -1   5   70.33    2.77
  -3   1  -5   -0.47    0.40
  -3   1  -5   -0.07    0.42
  -3   1  -5    0.20    0.47
  -3   1  -5   -0.33    0.63
   3  -1   5    0.29    0.32
   3  -1   5   -0.10    0.40
   3  -1   5    0.18    0.31
  -4   1  -5    3.00    0.88
  -4   1  -5    3.74    0.88
   4  -1   5    3.67    0.58
   4  -1   5    3.39    0.55
   4  -1   5    2.81    0.70
  -5   1  -5   12.98    1.24
  -5   1  -5   14.37    1.26
   5  -1   5   14.28    0.97
   5  -1   5   14.78    0.96
   5  -1   5   15.02    1.13
   5   0  -5    4.43    0.63
   5   0  -5    4.59    0.59
   5   0  -5    5.55    0.66
   5   0  -5    5.14    0.79
   5   0  -5    4.48    0.56
   5   0  -5    4.64    0.61
   5   0  -5    4.01    0.74
   4   0  -5    5.24    0.66
   4   0  -5    5.68    0.91
   4   0  -5    5.72    0.82
   4   0  -5    5.93    0.75
   4   0  -5    5.71    0.73
   4   0  -5    5.46    0.70
   4   0  -5    7.20    1.02
   4   0  -5    6.66    0.80
   3   0  -5   27.52    1.64
   3   0  -5   27.66    1.50
   3   0  -5   28.97    1.71
   3   0  -5   29.96    1.32
   3   0  -5   29.86    1.52
  -3   0   5   31.17    2.00
  -3   0   5   27.92    1.76
   2   0  -5   22.29    0.99
   2   0  -5   20.79    1.28
  -2   0   5   21.24    1.32
  -2   0   5   22.57    1.51
   1   0  -5  961.64   43.15
   1   0  -5  922.18   35.61
   1   0  -5  936.87   54.24
  -1   0   5  980.28   46.56
  -1   0   5 1000.00   52.66
   0   0  -5   44.97    2.66
   0   0  -5   43.11    1.75
   0   0  -5   43.48    2.02
   0   0   5   45.14    2.15
   0   0   5   33.92    2.55
   0   0   5   43.84    1.71
  -1   0  -5   18.04    1.25
  -1   0  -5   16.35    0.89
  -1   0  -5   16.51    0.84
   1   0   5   15.83    0.79
   1   0   5   16.81    0.94
   1   0   5   16.67    1.17
  -2   0  -5    1.57    0.46
  -2   0  -5    1.20    0.44
  -2   0  -5    1.12    0.39
   2   0   5    1.17    0.44
   2   0   5    0.66    0.28
  -3   0  -5    3.94    0.61
  -3   0  -5    5.13    0.72
  -3   0  -5    4.13    0.68
   3   0   5    4.47    0.61
   3   0   5    3.78    0.65
   3   0   5    3.58    0.64
   3   0   5    4.51    0.51
   3   0   5    4.39    0.56
  -4   0  -5   15.11    1.43
   4   0   5   14.09    1.17
   4   0   5   14.32    1.10
   4   0   5   15.76    1.09
   4   0   5   14.82    1.28
   4   0   5   15.54    1.48
   4   0   5   14.84    1.07
   4   0   5   13.89    1.47
  -5   0  -5    4.41    0.84
  -5   0  -5    5.56    0.85
   5   0   5    4.02    0.57
   5   0   5    4.48    0.73
   5   0   5    3.97    0.77
   5   0   5    4.84    0.59
   5   0   5    5.52    0.65
   6  -1  -5    0.01    0.20
   5  -1  -5    0.53    0.47
   5  -1  -5   -0.38    0.32
   5  -1  -5   -0.16    0.30
   5  -1  -5    1.07    0.63
   5  -1  -5   -0.37    0.54
   5  -1  -5   -0.14    0.38
   5  -1  -5   -0.13    0.48
   5  -1  -5    0.37    0.46
   4  -1  -5   49.72    2.43
   4  -1  -5   52.01    2.84
   4  -1  -5   50.21    2.32
   4  -1  -5   51.05    2.37
   4  -1  -5   48.85    2.73
   4  -1  -5   50.81    2.47
   4  -1  -5   47.21    2.63
   4  -1  -5   48.68    2.42
  -4   1   5   49.96    2.65
   3  -1  -5    0.00    0.40
   3  -1  -5    0.27    0.29
   3  -1  -5   -0.18    0.43
   3  -1  -5   -0.25    0.37
   3  -1  -5   -0.08    0.24
  -3   1   5    0.07    0.49
  -3   1   5   -0.32    0.47
   2  -1  -5  105.14    5.05
   2  -1  -5  108.25    4.12
  -2   1   5  109.26    5.46
  -2   1   5  106.71    6.11
   1  -1  -5   26.68    1.12
   1  -1  -5   31.03    1.84
   1  -1  -5   27.27    1.46
  -1   1   5   29.39    1.82
  -1   1   5   24.79    1.09
  -1   1   5   30.14    1.60
   0  -1  -5    1.07    0.27
   0  -1  -5    1.29    0.25
   0  -1  -5    0.57    0.45
   0   1   5    0.81    0.24
   0   1   5    1.13    0.36
   0   1   5    1.18    0.61
  -1  -1  -5    5.13    0.51
  -1  -1  -5    4.31    0.73
   1   1   5    4.97    0.51
   1   1   5    4.88    0.70
   1   1   5    5.40    0.39
  -2  -1  -5   29.37    1.42
  -2  -1  -5   28.23    1.92
   2   1   5   27.30    1.60
   2   1   5   27.10    1.81
   2   1   5   27.30    1.22
  -3  -1  -5   10.93    1.02
  -3  -1  -5   10.07    1.15
  -3  -1  -5   10.85    0.94
   3   1   5   10.87    1.02
   3   1   5   11.25    0.83
   3   1   5   10.88    0.94
   3   1   5   11.23    1.03
   4   1   5    0.84    0.50
   4   1   5    0.50    0.44
   4   1   5   -0.22    0.43
   4   1   5    0.17    0.70
   4   1   5    0.11    0.54
   4   1   5   -1.12    0.66
   4   1   5    0.03    0.62
   4   1   5    0.63    0.41
  -5  -1  -5    0.06    0.64
  -5  -1  -5    0.69    0.61
   5   1   5    0.51    0.43
   5   1   5    0.34    0.39
   5   1   5   -0.09    0.33
   5   1   5    0.88    0.60
   5   1   5    0.36    0.41
   6  -2  -5    1.09    0.23
   5  -2  -5   -0.30    0.61
   5  -2  -5    0.14    0.32
   5  -2  -5    1.03    0.48
   5  -2  -5    0.16    0.44
   5  -2  -5    0.22    0.32
   5  -2  -5    0.91    0.49
  -5   2   5    0.70    1.07
   4  -2  -5    1.50    0.71
   4  -2  -5    1.83    0.54
   4  -2  -5    1.88    0.43
   4  -2  -5    1.21    0.50
   4  -2  -5    1.28    0.53
   4  -2  -5    1.34    0.41
   4  -2  -5    1.59    0.68
  -4   2   5    1.14    0.68
   3  -2  -5   -0.63    0.48
   3  -2  -5    0.12    0.24
   3  -2  -5    0.12    0.41
   3  -2  -5    0.42    0.29
   3  -2  -5    0.31    0.40
  -3   2   5   -0.41    0.55
  -3   2   5   -0.39    0.47
  -3   2   5    0.72    0.52
   2  -2  -5   -0.05    0.38
   2  -2  -5   -0.06    0.20
  -2   2   5    0.36    0.48
  -2   2   5    0.53    0.55
   1  -2  -5    4.64    0.59
   1  -2  -5    4.85    0.30
  -1   2   5    4.67    0.77
  -1   2   5    4.55    0.33
  -1   2   5    2.88    0.72
   0  -2  -5  141.65    7.04
   0   2   5  160.45    6.06
   0   2   5  154.01    8.69
   0   2   5  158.79    7.65
  -1  -2  -5   54.36    2.27
   1   2   5   50.94    2.77
   1   2   5   52.52    3.14
  -2  -2  -5   68.98    4.56
  -2  -2  -5   75.57    3.18
   2   2   5   76.54    3.86
   2   2   5   71.84    3.52
   2   2   5   72.48    3.58
   2   2   5   71.19    3.82
   2   2   5   79.52    4.36
  -3  -2  -5    2.84    0.85
  -3  -2  -5    3.81    0.73
  -3  -2  -5    3.49    0.67
   3   2   5    4.28    0.68
   3   2   5    3.27    0.56
   3   2   5    4.43    0.71
   3   2   5    3.19    0.66
   4   2   5   18.95    1.52
   4   2   5   18.76    1.21
   4   2   5   19.45    1.27
   4   2   5   21.78    1.38
   4   2   5   18.08    1.43
   4   2   5   23.09    1.59
   4   2   5   19.76    1.43
  -5  -2  -5    0.40    0.58
   5   2   5    0.24    0.35
   5   2   5    0.13    0.37
   5   2   5    0.25    0.54
   5   2   5    0.29    0.40
   5  -3  -5   14.56    0.99
   5  -3  -5   15.01    0.99
   5  -3  -5   13.80    1.00
   5  -3  -5   13.81    0.87
   4  -3  -5   21.04    1.30
   4  -3  -5   20.84    1.18
   4  -3  -5   20.40    1.56
   4  -3  -5   20.55    1.29
   4  -3  -5   21.04    1.34
  -4   3   5   22.70    2.12
  -4   3   5   20.36    1.53
   3  -3  -5   10.16    0.94
   3  -3  -5    9.40    0.83
   3  -3  -5   10.74    0.64
  -3   3   5    9.75    1.19
  -3   3   5   10.68    1.07
  -3   3   5    9.64    1.44
   2  -3  -5    0.07    0.41
   2  -3  -5    0.47    0.22
  -2   3   5   -0.16    0.48
  -2   3   5    0.57    0.64
   1  -3  -5   11.73    1.27
   1  -3  -5   15.15    1.09
  -1   3   5   16.37    1.35
  -1   3   5   17.13    0.77
  -1   3   5   18.55    1.45
   0  -3  -5   57.04    2.85
   0  -3  -5   47.16    3.62
   0   3   5   64.33    3.56
   0   3   5   63.21    3.17
   0   3   5   61.45    2.44
  -1  -3  -5   35.66    1.67
   1   3   5   35.68    2.23
   1   3   5   34.48    2.01
  -2  -3  -5   25.11    1.33
   2   3   5   21.50    1.49
   2   3   5   22.61    1.64
   2   3   5   22.66    1.44
   2   3   5   24.24    1.52
   2   3   5   23.39    1.49
  -3  -3  -5  100.89    4.88
   3   3   5  104.81    5.12
   3   3   5  105.64    5.41
   3   3   5  102.89    5.15
   3   3   5  105.02    5.03
   4   3   5    1.64    0.53
   4   3   5    1.88    0.53
   4   3   5    1.57    0.52
   4   3   5    1.05    0.67
   4   3   5    2.07    0.78
   4   3   5    0.91    0.60
   4   3   5    1.48    0.61
   5   3   5    1.05    0.51
   5   3   5    1.48    0.42
   5   3   5    2.02    0.40
   5  -4  -5    0.89    0.41
   5  -4  -5    1.33    0.46
  -5   4   5    0.69    0.99
   4  -4  -5    0.20    0.46
   4  -4  -5    0.67    0.63
   4  -4  -5    0.46    0.58
  -4   4   5   -0.61    1.07
  -4   4   5    1.31    0.71
   3  -4  -5    7.33    0.87
   3  -4  -5    5.94    0.73
  -3   4   5    6.85    0.98
  -3   4   5    4.40    1.31
  -3   4   5    7.43    1.14
   2  -4  -5    0.23    0.37
   2  -4  -5   -0.25    0.66
   2  -4  -5   -0.05    0.44
  -2   4   5   -0.33    0.93
  -2   4   5    1.38    0.58
  -2   4   5    0.58    0.68
   1  -4  -5    1.42    0.61
   1  -4  -5    1.72    0.76
   1  -4  -5    1.43    0.50
  -1   4   5    0.80    0.61
  -1   4   5    1.56    0.31
  -1   4   5    2.39    0.59
   0  -4  -5   43.07    2.29
   0  -4  -5   39.37    2.70
   0  -4  -5   39.30    2.95
   0   4   5   49.42    2.60
   0   4   5   47.95    2.33
   0   4   5   46.34    2.66
   0   4   5   47.60    1.96
  -1  -4  -5    2.51    0.49
  -1  -4  -5    1.70    0.72
   1   4   5    3.16    0.57
   1   4   5    3.29    0.71
   1   4   5    2.10    0.55
   1   4   5    1.81    0.52
   1   4   5    1.20    0.51
  -2  -4  -5   36.39    1.86
   2   4   5   35.29    2.44
   2   4   5   39.34    2.28
   2   4   5   36.46    2.09
   2   4   5   36.50    2.07
   2   4   5   37.70    2.21
  -3  -4  -5    1.45    0.89
   3   4   5    1.99    0.55
   3   4   5    1.38    0.50
   3   4   5    1.54    0.84
   3   4   5    0.69    0.62
   3   4   5    1.19    0.77
   3   4   5   -0.16    0.84
   3   4   5    1.40    0.59
   4   4   5    3.82    0.72
   4   4   5    4.17    0.60
   4   4   5    4.48    0.67
   4   4   5    2.62    0.63
   4   4   5    4.00    0.75
   4   4   5    3.76    0.81
   5  -5  -5    0.41    0.35
  -5   5   5   -1.71    0.76
   4  -5  -5    0.26    0.64
   4  -5  -5    0.95    0.60
   4  -5  -5    0.01    0.44
  -4   5   5    0.52    1.07
  -4   5   5   -0.09    0.64
   3  -5  -5   13.86    1.00
   3  -5  -5   13.53    1.43
   3  -5  -5   12.53    1.29
  -3   5   5   12.64    1.76
  -3   5   5   12.77    1.22
   2  -5  -5    1.13    0.57
   2  -5  -5    1.37    0.84
  -2   5   5    1.64    0.62
  -2   5   5    2.03    0.76
   1  -5  -5    1.23    0.53
   1  -5  -5    1.11    0.67
   1  -5  -5    1.23    0.80
  -1   5   5    2.14    0.70
  -1   5   5    1.10    0.35
  -1   5   5    1.86    0.58
  -1   5   5    2.22    1.05
   0  -5  -5    0.56    0.66
   0  -5  -5    1.12    0.75
   0   5   5   -0.21    0.78
   0   5   5    0.63    0.44
   0   5   5    1.48    0.56
   0   5   5    0.93    0.56
   0   5   5    0.98    0.37
  -1  -5  -5    8.84    0.80
  -1  -5  -5    6.29    1.21
   1   5   5    9.94    0.95
   1   5   5   11.07    1.04
   1   5   5   10.99    1.16
   1   5   5   11.77    1.04
   2   5   5    7.00    0.90
   2   5   5    6.49    0.99
   2   5   5    6.42    0.92
   2   5   5    6.10    0.99
   2   5   5    5.51    0.89
   2   5   5    5.92    0.85
   2   5   5    5.39    1.24
   2   5   5    6.82    0.95
  -3  -5  -5    6.17    1.03
   3   5   5    6.08    1.03
   3   5   5    7.12    0.94
   3   5   5    6.57    0.94
   3   5   5    6.26    0.79
   3   5   5    6.12    0.90
   3   5   5    5.45    0.99
   3   5   5    6.69    0.98
   4   5   5    0.67    0.63
   4   5   5    0.79    0.43
   4   5   5    0.86    0.49
   4   5   5    0.75    0.50
   4   5   5    0.28    0.52
  -5   6   5   -0.24    0.52
   4  -6  -5    9.51    0.93
   4  -6  -5   10.48    0.81
   4  -6  -5   11.16    1.03
  -4   6   5   10.56    1.38
  -4   6   5    8.63    1.02
   3  -6  -5   -0.34    0.41
   3  -6  -5    0.57    0.73
   3  -6  -5    0.01    0.66
  -3   6   5   -0.59    0.61
  -3   6   5    1.34    1.00
   2  -6  -5   11.87    1.32
   2  -6  -5    9.20    1.35
   2  -6  -5   12.58    1.22
  -2   6   5   11.13    1.52
  -2   6   5   12.72    1.14
   1  -6  -5   16.01    1.72
   1  -6  -5   14.63    1.66
   1  -6  -5   17.87    1.35
  -1   6   5   23.39    1.44
   0  -6  -5   17.66    1.80
   0   6   5   20.95    1.34
   0   6   5   21.42    1.45
   0   6   5   19.93    1.64
   1   6   5    3.73    0.79
   1   6   5    2.98    0.67
   1   6   5    2.91    0.69
   1   6   5    1.96    0.69
   1   6   5    1.62    0.84
   1   6   5    2.44    0.83
   1   6   5    2.26    0.73
   1   6   5    2.24    0.68
   2   6   5    0.48    0.81
   2   6   5   -0.37    0.46
   2   6   5    0.22    0.67
   2   6   5    1.08    0.70
   2   6   5    0.76    0.59
   2   6   5    0.08    0.70
   2   6   5   -1.00    0.67
   2   6   5    0.46    0.70
  -3  -6  -5   -0.62    0.68
   3   6   5    0.94    0.67
   3   6   5    0.76    0.76
   3   6   5    0.66    0.69
   3   6   5   -0.51    0.41
   3   6   5    0.08    0.50
   3   6   5    0.42    0.61
   4  -7  -5    6.43    0.76
   4  -7  -5    6.11    0.71
  -4   7   5    6.63    0.92
   3  -7  -5    2.92    0.75
   3  -7  -5    3.49    0.76
  -3   7   5    2.44    0.85
  -3   7   5    2.62    0.63
   2  -7  -5    7.33    1.00
   2  -7  -5    6.43    0.97
   2  -7  -5    4.20    1.00
  -2   7   5    7.58    1.09
  -2   7   5    7.60    0.98
   1  -7  -5    3.15    0.94
   1  -7  -5    5.29    0.91
   1  -7  -5    3.05    1.01
  -1   7   5    6.19    1.07
  -1   7   5    5.09    0.77
  -1   7   5    4.53    0.72
  -1   7   5    4.88    0.78
   0  -7  -5    1.17    0.84
   0   7   5    0.41    0.90
   0   7   5    0.46    0.61
   0   7   5    0.64    0.57
   0   7   5    1.21    0.66
   0   7   5    2.40    0.64
   0   7   5    0.84    0.61
   1   7   5    6.76    0.91
   1   7   5    5.39    0.90
   1   7   5    6.01    1.04
   1   7   5    5.34    0.81
   1   7   5    5.34    0.86
   1   7   5    4.24    0.81
   2   7   5   -0.47    0.42
   2   7   5   -0.42    0.61
   2   7   5    0.21    0.49
   2   7   5    0.28    0.72
   2   7   5    1.13    0.67
   2   7   5   -0.62    0.76
   2   7   5   -0.66    0.58
   3   7   5   -1.27    0.53
   3   7   5    1.22    0.39
   3   7   5    0.10    0.46
   3  -8  -5    2.99    0.59
   3  -8  -5    2.56    0.60
  -3   8   5    1.48    0.47
  -3   8   5    3.54    0.70
   2  -8  -5   16.65    1.33
   2  -8  -5   18.64    1.30
  -2   8   5   21.32    1.51
  -2   8   5   16.60    1.22
   1  -8  -5    1.54    0.76
  -1   8   5    3.53    0.65
  -1   8   5    2.51    0.59
  -1   8   5    2.74    0.87
  -1   8   5    3.18    0.62
   0  -8  -5    2.61    0.82
   0   8   5    3.52    0.68
   0   8   5    3.82    0.70
   0   8   5    3.12    0.64
   0   8   5    4.21    0.69
   0   8   5    4.32    0.90
   0   8   5    3.91    0.74
   1   8   5    1.64    0.59
   1   8   5    0.62    0.76
   1   8   5    0.31    0.56
   1   8   5    0.97    0.51
   1   8   5    0.56    0.54
   1   8   5    0.58    0.64
   2   8   5    1.13    0.45
   2   8   5    1.81    0.69
   2   8   5    1.61    0.50
   2   8   5    1.78    0.57
   2  -9  -5    0.27    0.41
   2  -9  -5    0.41    0.43
  -2   9   5    0.13    0.48
  -1   9   5    7.68    0.84
  -1   9   5    7.33    0.88
   0   9   5    1.89    0.62
   0   9   5    1.15    0.46
   0   9   5    1.60    0.51
   0   9   5    1.26    0.42
   1   9  -6    3.77    0.62
   1   9  -6    5.46    0.58
   0   9  -6    0.91    0.52
   0   9  -6    1.57    0.42
   0   9  -6    1.52    0.39
   0   9  -6    1.21    0.37
   0   9  -6    1.44    0.62
  -1   9  -6   -0.37    0.41
  -1   9  -6    0.03    0.39
  -1   9  -6   -0.41    0.52
  -1   9  -6    0.39    0.38
  -1   9  -6    0.44    0.39
  -2   9  -6    0.24    0.43
  -2   9  -6    0.00    0.34
  -2   9  -6    0.22    0.37
  -2   9  -6    0.52    0.36
   1   8  -6    4.83    0.90
   1   8  -6    4.70    0.71
   1   8  -6    5.31    0.82
   1   8  -6    4.73    0.66
   1   8  -6    3.82    0.68
   0   8  -6    3.03    0.57
   0   8  -6    2.14    0.55
   0   8  -6    3.41    0.85
   0   8  -6    2.22    0.56
   0   8  -6    1.61    0.63
   0   8  -6    2.94    0.56
   0   8  -6    2.31    0.58
  -1   8  -6    0.75    0.48
  -1   8  -6    1.02    0.56
  -1   8  -6    1.11    0.75
  -1   8  -6    0.75    0.47
  -1   8  -6    1.37    0.47
  -1   8  -6    1.21    0.52
  -1   8  -6    1.47    0.53
  -2   8  -6   10.55    0.99
  -2   8  -6   12.19    0.99
  -2   8  -6   10.80    1.02
  -2   8  -6   11.78    1.16
  -2   8  -6   12.22    0.94
  -2   8  -6   10.61    0.94
  -2   8  -6    9.99    0.85
   2  -8   6   11.33    0.94
  -3   8  -6    1.33    0.44
  -3   8  -6    0.73    0.46
  -3   8  -6    1.25    0.51
   1   7  -6   22.45    1.45
   1   7  -6   23.81    1.56
   1   7  -6   23.85    1.84
   1   7  -6   24.60    1.58
   1   7  -6   24.27    1.64
   0   7  -6    0.97    0.86
   0   7  -6    0.83    0.59
   0   7  -6    0.41    0.52
   0   7  -6   -0.35    0.53
   0   7  -6   -0.10    0.44
   0   7  -6    0.47    0.48
   0   7  -6    0.07    0.48
  -1   7  -6    0.98    0.52
  -1   7  -6    1.09    0.56
  -1   7  -6    1.35    0.60
  -1   7  -6    1.09    0.58
  -1   7  -6    1.74    0.60
  -1   7  -6    2.37    0.81
  -1   7  -6    1.32    0.52
   1  -7   6    1.44    0.62
  -2   7  -6   12.93    1.11
  -2   7  -6   10.01    1.02
  -2   7  -6   11.24    1.08
  -2   7  -6   10.28    1.19
  -2   7  -6   10.56    0.95
  -2   7  -6   11.88    1.08
  -2   7  -6   10.13    1.06
   2  -7   6   10.95    1.02
  -3   7  -6    5.52    0.82
  -3   7  -6    6.84    0.91
  -3   7  -6    7.89    0.90
  -3   7  -6    6.82    0.80
   3  -7   6    5.96    0.77
  -4   7  -6    0.33    0.41
   1   6  -6    9.50    0.92
   1   6  -6   10.16    1.06
   1   6  -6    9.62    0.97
   1   6  -6   10.07    0.99
   1   6  -6   10.09    1.07
   1   6  -6    9.71    1.07
   0   6  -6   34.24    2.16
   0   6  -6   34.52    1.77
   0   6  -6   34.83    1.84
  -1   6  -6    2.55    0.60
  -1   6  -6    2.87    0.59
   1  -6   6    3.39    0.65
  -2   6  -6   11.59    1.02
  -2   6  -6    9.81    1.05
  -2   6  -6    9.43    1.31
  -2   6  -6    9.40    1.07
  -2   6  -6   11.67    1.14
  -2   6  -6   10.81    0.92
   2  -6   6    9.52    1.02
  -3   6  -6    0.07    0.58
  -3   6  -6    1.00    0.82
  -3   6  -6    0.22    0.69
  -3   6  -6    0.99    0.65
  -3   6  -6   -0.64    0.50
   3  -6   6   -0.31    0.50
  -4   6  -6   -0.10    0.64
  -4   6  -6    0.39    0.56
   4  -6   6   -0.47    0.42
   4  -6   6    0.15    0.42
   1   5  -6   11.94    0.92
   1   5  -6   11.21    1.00
   1   5  -6   10.88    1.08
   1   5  -6   11.24    0.79
  -1  -5   6   11.06    0.92
   0   5  -6    5.73    0.59
   0   5  -6    4.42    0.60
   0   5  -6    4.29    0.65
   0   5  -6    4.59    0.57
   0   5  -6    5.24    0.72
   0  -5   6    4.03    0.59
  -1   5  -6    7.68    0.76
  -1   5  -6    7.14    0.68
  -1   5  -6    7.47    0.76
  -1   5  -6    8.07    0.83
  -1   5  -6    7.31    0.83
   1  -5   6    7.21    0.60
   1  -5   6    6.64    0.68
  -2   5  -6    8.29    0.75
  -2   5  -6    8.93    1.27
  -2   5  -6    9.16    0.89
  -2   5  -6    9.08    0.83
   2  -5   6    8.69    0.68
   2  -5   6    8.55    0.85
   2  -5   6    8.17    0.91
  -3   5  -6    8.18    0.96
  -3   5  -6    7.95    0.83
  -3   5  -6    8.42    1.00
  -3   5  -6    9.19    1.23
   3  -5   6    7.18    0.93
   3  -5   6    7.51    0.94
  -4   5  -6   13.33    1.18
  -4   5  -6   13.84    1.31
   4  -5   6   12.51    1.06
   4  -5   6   12.70    1.05
   4  -5   6   11.60    0.87
  -5   5  -6    0.99    0.43
   5  -5   6    0.96    0.27
   5  -5   6    0.90    0.35
   5   4  -6   -0.20    0.27
   5   4  -6    0.15    0.24
   4   4  -6    4.53    0.63
   4   4  -6    4.66    0.60
   4   4  -6    3.86    0.67
   1   4  -6    5.74    0.71
   1   4  -6    6.98    0.71
   1   4  -6    5.45    0.52
   1   4  -6    5.89    0.62
   1   4  -6    5.91    0.73
  -1  -4   6    6.18    0.63
  -1  -4   6    6.45    0.62
   0   4  -6    3.46    0.51
   0   4  -6    3.15    0.47
   0   4  -6    3.41    0.44
   0   4  -6    2.81    0.53
   0   4  -6    3.63    0.57
   0  -4   6    3.12    0.48
   0  -4   6    3.19    0.45
  -1   4  -6   33.83    1.95
  -1   4  -6   32.22    2.13
  -1   4  -6   32.44    1.54
  -1   4  -6   30.41    1.65
  -1   4  -6   32.22    1.65
   1  -4   6   32.91    1.46
   1  -4   6   32.13    1.74
  -2   4  -6    1.71    0.81
  -2   4  -6    1.60    0.49
  -2   4  -6    1.40    0.49
  -2   4  -6    2.00    0.45
   2  -4   6    2.60    0.54
   2  -4   6    2.14    0.42
   2  -4   6    1.10    0.41
  -3   4  -6   15.52    1.51
  -3   4  -6   17.54    1.12
   3  -4   6   18.00    1.26
   3  -4   6   15.77    1.07
  -4   4  -6    8.84    1.10
  -4   4  -6    7.72    1.07
   4  -4   6    6.19    0.84
   4  -4   6    7.51    0.77
   4  -4   6    8.27    0.96
  -5   4  -6    0.90    0.62
  -5   4  -6    1.09    0.50
   5  -4   6   -0.07    0.28
   5  -4   6    0.36    0.43
   5   3  -6   11.09    0.75
   5   3  -6   11.42    0.86
   5   3  -6   12.41    0.89
   4   3  -6    8.73    0.79
   4   3  -6    9.64    0.93
   4   3  -6    9.22    0.82
   4   3  -6    8.78    0.93
   4   3  -6    9.46    0.98
   4   3  -6    8.97    0.79
   3   3  -6   17.24    1.09
   3   3  -6   16.18    1.18
   3   3  -6   17.35    1.11
  -3  -3   6   16.26    1.53
   2   3  -6   22.23    1.24
   2   3  -6   20.12    1.04
   2   3  -6   21.72    1.24
   2   3  -6   20.87    1.22
  -2  -3   6   22.89    1.58
   1   3  -6   14.94    0.90
   1   3  -6   15.04    0.74
   1   3  -6   13.73    1.08
  -1  -3   6   14.50    0.89
  -1  -3   6   15.08    1.12
   0   3  -6   96.04    3.88
   0   3  -6   93.94    5.62
   0   3  -6   96.54    4.49
   0  -3   6   97.03    3.77
  -1   3  -6    6.71    0.59
  -1   3  -6    5.67    0.67
   1  -3   6    5.59    0.55
   1  -3   6    5.26    0.56
  -2   3  -6   25.92    1.72
  -2   3  -6   24.67    1.39
  -2   3  -6   25.93    1.31
   2  -3   6   26.13    1.23
   2  -3   6   26.05    1.40
   2  -3   6   23.83    1.40
  -3   3  -6    4.39    0.62
  -3   3  -6    6.20    0.79
  -3   3  -6    7.06    0.99
   3  -3   6    4.90    0.58
   3  -3   6    6.28    0.80
   3  -3   6    5.99    0.64
  -4   3  -6   10.20    1.23
  -4   3  -6   13.50    1.26
   4  -3   6   12.82    0.95
   4  -3   6   14.72    1.01
   4  -3   6   13.94    1.17
  -5   3  -6   -0.23    0.53
  -5   3  -6    0.69    0.63
   5  -3   6    0.18    0.33
   5  -3   6   -0.12    0.47
   5   2  -6    1.21    0.48
   5   2  -6    1.46    0.42
   5   2  -6    0.83    0.35
   5   2  -6    0.68    0.50
   5   2  -6    1.88    0.46
   5   2  -6    1.38    0.35
   5   2  -6    0.64    0.52
   4   2  -6   15.32    1.16
   4   2  -6   15.87    1.23
   4   2  -6   14.88    1.02
   4   2  -6   15.48    1.02
   4   2  -6   16.12    1.23
   4   2  -6   14.98    1.06
   4   2  -6   15.14    1.20
   3   2  -6    0.98    0.32
   3   2  -6    0.97    0.53
   3   2  -6    0.83    0.37
   3   2  -6    0.43    0.49
  -3  -2   6    0.25    0.49
  -3  -2   6    1.27    0.61
   2   2  -6   26.53    1.46
   2   2  -6   27.84    1.22
   2   2  -6   26.48    1.42
  -2  -2   6   26.93    1.54
  -2  -2   6   27.25    1.81
   1   2  -6    3.44    0.29
   1   2  -6    4.14    0.39
   1   2  -6    3.07    0.44
   1   2  -6    3.69    0.53
  -1  -2   6    3.59    0.56
  -1  -2   6    3.33    0.39
   0   2  -6   24.26    1.28
   0   2  -6   25.23    1.12
   0   2  -6   23.20    1.58
   0  -2   6   24.99    1.14
  -1   2  -6   42.35    2.67
  -1   2  -6   43.37    1.91
   1  -2   6   43.67    2.53
   1  -2   6   45.13    1.84
   1  -2   6   42.95    2.12
  -2   2  -6    4.89    0.61
  -2   2  -6    5.27    0.61
   2  -2   6    6.11    0.54
  -3   2  -6   16.48    1.10
  -3   2  -6   13.07    0.98
  -3   2  -6   15.94    1.35
   3  -2   6   14.65    0.90
   3  -2   6   16.13    0.99
   3  -2   6   15.00    1.17
  -4   2  -6    0.62    0.72
  -4   2  -6    1.70    0.78
   4  -2   6    1.24    0.46
   4  -2   6    1.68    0.63
   4  -2   6    2.04    0.49
  -5   2  -6    1.17    0.63
  -5   2  -6    1.02    0.65
   5  -2   6    2.74    0.61
   5  -2   6    2.59    0.41
   5  -2   6    2.56    0.46
   5   1  -6    9.24    0.93
   5   1  -6    9.19    1.02
   5   1  -6   10.89    0.88
   5   1  -6    9.19    0.73
   5   1  -6    7.86    0.72
   5   1  -6   10.19    0.86
   5   1  -6    9.41    0.81
   4   1  -6    3.63    0.61
   4   1  -6    3.17    0.63
   4   1  -6    2.98    0.65
   4   1  -6    4.24    0.59
   4   1  -6    3.78    0.57
   4   1  -6    2.89    0.51
   4   1  -6    3.42    0.70
   4   1  -6    1.95    0.69
   3   1  -6    1.33    0.38
   3   1  -6    0.92    0.31
   3   1  -6    1.81    0.50
   3   1  -6    0.47    0.44
  -3  -1   6    0.88    0.52
  -3  -1   6    1.32    0.58
   2   1  -6   21.35    0.99
   2   1  -6   20.50    1.24
  -2  -1   6   22.43    1.48
  -2  -1   6   21.11    1.28
   1   1  -6    3.02    0.37
   1   1  -6    2.60    0.44
   1   1  -6    3.83    0.52
  -1  -1   6    3.65    0.43
  -1  -1   6    3.19    0.57
   0   1  -6   14.33    0.68
   0   1  -6   14.23    0.79
   0   1  -6   15.03    1.06
   0  -1   6    9.64    1.10
   0  -1   6   14.02    0.73
  -1   1  -6    1.55    0.45
  -1   1  -6    1.44    0.31
  -1   1  -6    1.40    0.43
   1  -1   6    1.21    0.47
   1  -1   6    1.08    0.33
  -2   1  -6   81.80    4.77
  -2   1  -6   78.04    3.40
   2  -1   6   81.69    3.20
   2  -1   6   79.95    4.62
  -3   1  -6    3.36    0.78
  -3   1  -6    3.57    0.62
  -3   1  -6    4.71    0.65
   3  -1   6    4.01    0.62
   3  -1   6    2.85    0.47
   3  -1   6    4.32    0.57
  -4   1  -6   13.10    1.29
  -4   1  -6   11.14    1.35
   4  -1   6   13.41    1.01
   4  -1   6   11.98    1.20
   4  -1   6   12.22    0.98
  -5   1  -6    0.94    0.65
  -5   1  -6    1.52    0.66
   5  -1   6    1.07    0.58
   5  -1   6    0.63    0.36
   5  -1   6    1.04    0.41
   5   0  -6    0.84    0.61
   5   0  -6    0.42    0.32
   5   0  -6    1.33    0.46
   5   0  -6    0.92    0.44
   5   0  -6    0.32    0.45
   5   0  -6    0.32    0.56
   5   0  -6    0.87    0.38
   4   0  -6    1.08    0.55
   4   0  -6    0.10    0.47
   4   0  -6    0.76    0.45
   4   0  -6    0.63    0.58
   4   0  -6    0.83    0.38
   4   0  -6    0.38    0.63
   4   0  -6    1.25    0.51
   4   0  -6    1.03    0.40
   3   0  -6    6.35    0.74
   3   0  -6    7.88    0.70
   3   0  -6    5.38    0.70
   3   0  -6    7.35    0.64
   3   0  -6    7.18    0.57
  -3   0   6    7.59    0.90
  -3   0   6    6.67    0.83
   2   0  -6    2.62    0.34
   2   0  -6    1.75    0.44
  -2   0   6    2.78    0.48
  -2   0   6    2.79    0.57
   1   0  -6  155.31    9.00
   1   0  -6  148.46    5.89
   1   0  -6  158.27    7.18
  -1   0   6  162.11    8.78
  -1   0   6  157.49    7.71
   0   0  -6   15.79    1.26
   0   0  -6   16.96    0.89
   0   0  -6   15.51    0.77
   0   0   6   16.72    0.80
   0   0   6   15.81    0.88
   0   0   6   13.54    1.24
  -1   0  -6   22.62    1.16
  -1   0  -6   21.90    1.14
  -1   0  -6   23.59    1.63
   1   0   6   23.34    1.54
   1   0   6   23.39    1.06
   1   0   6   23.30    1.26
  -2   0  -6   57.19    3.42
  -2   0  -6   56.19    2.46
  -2   0  -6   55.06    2.91
   2   0   6   55.08    3.30
   2   0   6   53.78    2.27
  -3   0  -6    3.42    0.63
  -3   0  -6    2.85    0.66
  -3   0  -6    2.35    0.54
   3   0   6    3.61    0.65
   3   0   6    2.52    0.44
   3   0   6    2.89    0.48
   3   0   6    3.12    0.67
  -4   0  -6    5.86    1.00
   4   0   6    5.02    0.90
   4   0   6    4.32    0.65
   4   0   6    5.49    0.89
   4   0   6    5.84    0.77
   4   0   6    4.56    0.67
  -5   0  -6    4.06    0.80
  -5   0  -6    5.81    0.83
   5   0   6    5.69    0.66
   5   0   6    5.56    0.63
   5   0   6    6.05    0.66
   5  -1  -6    0.51    0.42
   5  -1  -6   -0.06    0.32
   5  -1  -6    0.59    0.35
   5  -1  -6    0.20    0.56
   5  -1  -6    0.11    0.45
   5  -1  -6   -0.28    0.42
   5  -1  -6   -0.40    0.42
   5  -1  -6    0.61    0.61
   4  -1  -6   25.05    1.67
   4  -1  -6   23.94    1.62
   4  -1  -6   24.05    1.33
   4  -1  -6   23.85    1.51
   4  -1  -6   23.52    1.44
   4  -1  -6   22.62    1.39
   4  -1  -6   26.72    1.41
   4  -1  -6   23.66    1.38
   3  -1  -6   36.12    1.83
   3  -1  -6   37.35    1.61
   3  -1  -6   35.38    2.11
   3  -1  -6   36.26    1.85
   3  -1  -6   40.39    2.06
  -3   1   6   36.64    2.23
  -3   1   6   37.14    2.43
   2  -1  -6   -0.17    0.36
   2  -1  -6    0.07    0.24
  -2   1   6    0.74    0.50
  -2   1   6   -0.55    0.48
   1  -1  -6   53.03    2.08
   1  -1  -6   61.35    3.31
   1  -1  -6   54.83    2.60
  -1   1   6   49.37    2.84
  -1   1   6   48.69    3.24
   0  -1  -6   75.84    3.02
   0  -1  -6   70.36    4.52
   0  -1  -6   77.54    3.52
   0   1   6   75.05    3.82
   0   1   6   72.90    4.46
   0   1   6   80.41    2.93
  -1  -1  -6    0.09    0.56
  -1  -1  -6    0.55    0.40
   1   1   6   -0.25    0.27
   1   1   6   -0.18    0.31
   1   1   6    0.42    0.51
  -2  -1  -6    8.63    0.77
  -2  -1  -6    8.65    0.95
   2   1   6    8.34    0.87
   2   1   6    8.48    0.57
   2   1   6    8.06    0.73
  -3  -1  -6    3.74    0.77
  -3  -1  -6    5.03    0.77
  -3  -1  -6    3.67    0.66
   3   1   6    3.71    0.55
   3   1   6    4.67    0.67
   3   1   6    3.41    0.70
   3   1   6    4.16    0.73
   4   1   6   -0.44    0.71
   4   1   6    0.47    0.47
   4   1   6    0.55    0.45
   4   1   6   -0.13    0.39
   4   1   6    0.68    0.67
   4   1   6   -0.48    0.58
   4   1   6    0.75    0.71
   4   1   6   -0.47    0.48
  -5  -1  -6    1.16    0.62
  -5  -1  -6    0.13    0.57
   5   1   6    0.87    0.60
   5   1   6    0.35    0.36
   5   1   6    0.58    0.42
   5  -2  -6    1.23    0.39
   5  -2  -6    1.94    0.40
   5  -2  -6    2.47    0.67
   5  -2  -6    1.34    0.48
   5  -2  -6    1.45    0.47
   5  -2  -6    1.47    0.50
  -5   2   6    1.21    1.08
   4  -2  -6    7.80    0.72
   4  -2  -6    9.84    0.94
   4  -2  -6    8.71    0.74
   4  -2  -6    8.61    1.04
   4  -2  -6    7.99    0.90
   4  -2  -6    8.84    1.15
   4  -2  -6    8.30    0.86
   3  -2  -6   43.00    2.37
   3  -2  -6   40.98    2.20
   3  -2  -6   42.10    2.01
   3  -2  -6   40.14    1.99
   3  -2  -6   40.49    1.73
  -3   2   6   42.22    2.67
  -3   2   6   36.18    2.44
   2  -2  -6   35.32    1.99
   2  -2  -6   38.21    1.56
  -2   2   6   38.63    2.45
  -2   2   6   39.27    2.27
   1  -2  -6   48.11    1.81
   1  -2  -6   47.23    2.35
  -1   2   6   42.21    2.58
   0  -2  -6   54.91    2.18
   0  -2  -6   48.95    2.51
   0   2   6   50.78    3.25
   0   2   6   53.02    2.77
  -1  -2  -6   12.68    0.80
   1   2   6   14.66    1.16
   1   2   6   12.91    0.94
  -2  -2  -6   18.73    1.07
  -2  -2  -6   14.56    1.29
  -2  -2  -6   17.15    1.52
   2   2   6   16.83    1.24
   2   2   6   16.90    1.16
   2   2   6   17.63    1.06
   2   2   6   16.87    1.30
   2   2   6   17.13    1.19
  -3  -2  -6   18.46    1.40
  -3  -2  -6   16.99    1.23
  -3  -2  -6   17.42    1.47
   3   2   6   16.98    1.44
   3   2   6   16.37    1.32
   3   2   6   18.76    1.30
   3   2   6   17.83    1.19
   4   2   6   16.48    1.17
   4   2   6   16.62    1.45
   4   2   6   17.35    1.43
   4   2   6   14.45    1.30
   4   2   6   16.47    1.10
   4   2   6   17.09    1.32
   4   2   6   16.38    1.23
  -5  -2  -6    0.38    0.51
   5   2   6    0.74    0.42
   5   2   6    0.45    0.37
   5   2   6    0.82    0.55
   5  -3  -6    0.42    0.44
   5  -3  -6    0.89    0.42
   5  -3  -6    0.39    0.32
   5  -3  -6    0.44    0.41
  -5   3   6    0.73    1.02
  -5   3   6   -0.90    1.00
   4  -3  -6   43.20    2.18
   4  -3  -6   44.34    2.49
   4  -3  -6   44.29    2.29
   4  -3  -6   42.67    2.18
   4  -3  -6   43.62    2.31
   4  -3  -6   44.96    2.17
  -4   3   6   42.15    3.04
   3  -3  -6    9.99    0.83
   3  -3  -6   10.50    0.64
   3  -3  -6   10.35    0.93
  -3   3   6    8.45    1.43
  -3   3   6   10.03    1.07
  -3   3   6    9.81    1.22
   2  -3  -6   10.66    1.16
   2  -3  -6   12.74    0.97
   2  -3  -6   13.79    0.82
  -2   3   6    9.74    1.33
  -2   3   6    8.06    1.06
  -2   3   6   10.77    1.10
   1  -3  -6    0.42    0.54
   1  -3  -6    0.38    0.44
  -1   3   6    0.88    0.25
  -1   3   6    1.16    0.75
  -1   3   6    0.54    0.63
   0  -3  -6  137.57    6.91
   0   3   6  157.77    7.54
   0   3   6  154.31    8.55
   0   3   6  148.81    5.94
  -1  -3  -6    0.28    0.59
  -1  -3  -6    1.46    0.40
   1   3   6    1.60    0.60
   1   3   6    0.69    0.51
   1   3   6    1.25    0.55
   1   3   6    0.67    0.45
  -2  -3  -6   -0.08    0.68
  -2  -3  -6    0.71    0.47
   2   3   6    0.09    0.44
   2   3   6   -0.56    0.61
   2   3   6    0.79    0.49
   2   3   6   -0.16    0.49
   2   3   6    0.66    0.50
  -3  -3  -6   49.12    2.74
   3   3   6   52.17    2.46
   3   3   6   52.20    2.83
   3   3   6   51.51    2.89
   3   3   6   48.78    2.71
   3   3   6   54.41    2.90
   3   3   6   46.58    2.78
   3   3   6   50.75    2.74
   4   3   6   -0.64    0.54
   4   3   6    1.35    0.52
   4   3   6    1.42    0.68
   4   3   6    0.57    0.47
   4   3   6    1.31    0.59
   4   3   6    1.08    0.73
   5   3   6    0.21    0.34
   5   3   6    0.07    0.44
   5   3   6    0.14    0.30
   5  -4  -6    0.76    0.38
   5  -4  -6    0.73    0.40
  -5   4   6   -1.58    0.88
   4  -4  -6    9.45    0.89
   4  -4  -6   11.45    0.99
   4  -4  -6    9.65    0.94
   4  -4  -6   11.78    1.08
  -4   4   6    9.19    1.44
  -4   4   6    8.46    1.11
  -4   4   6    4.95    1.47
   3  -4  -6    0.56    0.51
   3  -4  -6    0.69    0.46
  -3   4   6    0.40    1.16
  -3   4   6    0.16    0.62
  -3   4   6    0.58    0.79
   2  -4  -6    0.56    0.66
   2  -4  -6    0.78    0.39
   2  -4  -6    0.66    0.48
  -2   4   6    0.02    0.52
  -2   4   6    0.33    0.96
  -2   4   6    1.51    0.70
   1  -4  -6   17.92    1.69
   1  -4  -6   15.85    1.65
   1  -4  -6   22.83    1.38
  -1   4   6   28.34    1.64
  -1   4   6   23.32    1.39
  -1   4   6   30.45    1.94
   0  -4  -6   12.46    1.42
   0  -4  -6   11.46    1.40
   0  -4  -6   16.07    1.06
   0   4   6   16.96    1.04
   0   4   6   17.24    1.26
   0   4   6   17.00    1.13
   0   4   6   14.06    1.51
   0   4   6   16.80    0.86
  -1  -4  -6   28.72    1.50
   1   4   6   27.87    1.88
   1   4   6   29.94    2.00
   1   4   6   26.44    1.62
   1   4   6   30.51    1.86
   1   4   6   29.59    1.69
  -2  -4  -6   -0.90    0.43
  -2  -4  -6    0.09    0.76
   2   4   6   -0.41    0.52
   2   4   6    0.67    0.61
   2   4   6    0.82    0.71
   2   4   6   -0.19    0.50
   2   4   6    0.18    0.54
  -3  -4  -6    7.26    1.04
   3   4   6    5.42    0.70
   3   4   6    5.59    1.03
   3   4   6    4.13    0.78
   3   4   6    6.32    1.03
   3   4   6    7.80    0.87
   3   4   6    6.21    0.99
   3   4   6    7.59    0.95
   4   4   6    2.75    0.63
   4   4   6    2.66    0.53
   4   4   6    3.20    0.70
   4   4   6    3.10    0.77
   4   4   6    2.82    0.69
   4   4   6    3.63    0.62
  -5   5   6    4.31    0.90
   4  -5  -6    9.49    0.82
   4  -5  -6    9.25    0.94
   4  -5  -6   11.88    1.05
  -4   5   6   11.24    1.09
  -4   5   6    7.35    1.29
   3  -5  -6    2.25    0.52
   3  -5  -6    3.77    0.82
   3  -5  -6    1.05    0.68
  -3   5   6    1.69    0.66
  -3   5   6   -0.09    1.05
   2  -5  -6    1.22    0.76
   2  -5  -6    1.67    0.59
  -2   5   6    3.61    1.12
  -2   5   6    3.30    0.70
  -2   5   6    3.30    0.83
   1  -5  -6    0.41    0.63
   1  -5  -6    0.17    0.49
   1  -5  -6    1.38    0.78
  -1   5   6    1.22    0.61
  -1   5   6    1.81    0.56
  -1   5   6    1.75    1.01
   0  -5  -6    0.15    0.75
   0  -5  -6    0.60    0.65
   0   5   6    1.61    0.41
   0   5   6    0.92    0.52
   0   5   6    1.12    0.52
   0   5   6    0.88    0.63
   0   5   6    1.25    0.92
  -1  -5  -6   26.34    1.47
   1   5   6   24.92    1.83
   1   5   6   26.53    1.84
   1   5   6   25.92    1.65
   1   5   6   27.74    1.61
   2   5   6    2.80    0.86
   2   5   6    4.26    0.86
   2   5   6    3.37    0.87
   2   5   6    4.17    0.91
   2   5   6    4.16    0.88
   2   5   6    3.50    0.72
   2   5   6    3.77    0.83
   2   5   6    4.19    0.69
  -3  -5  -6    6.14    0.96
   3   5   6    5.25    0.95
   3   5   6    4.92    0.76
   3   5   6    4.70    0.85
   3   5   6    6.47    1.03
   3   5   6    8.11    1.14
   3   5   6    7.15    0.82
   3   5   6    5.35    0.80
   4   5   6    2.92    0.60
   4   5   6    4.73    0.59
   4   5   6    4.20    0.64
   4   5   6    3.88    0.70
  -5   6   6    2.22    0.57
   4  -6  -6   10.56    0.94
   4  -6  -6   11.23    0.84
   4  -6  -6   12.77    1.03
  -4   6   6   10.80    1.04
  -4   6   6   10.29    1.35
   3  -6  -6    4.27    0.78
   3  -6  -6    4.95    0.84
  -3   6   6    4.54    0.78
  -3   6   6    3.40    1.03
   2  -6  -6    0.43    0.70
   2  -6  -6    0.62    0.79
   2  -6  -6   -0.17    0.72
  -2   6   6    0.49    0.85
  -2   6   6   -0.50    0.54
  -1   6   6   51.68    2.70
  -1   6   6   49.51    2.88
   0  -6  -6    6.99    1.24
   0   6   6   10.18    1.00
   0   6   6    7.78    1.07
   0   6   6   10.79    1.07
   0   6   6    7.86    1.05
   0   6   6   10.44    1.39
   0   6   6   10.22    1.44
   0   6   6    8.52    1.01
   0   6   6   11.28    1.02
   1   6   6    0.23    0.59
   1   6   6    0.57    0.58
   1   6   6    0.54    0.66
   1   6   6    0.60    0.65
   1   6   6    0.42    0.59
   1   6   6    0.78    0.81
   1   6   6   -0.09    0.78
   1   6   6    0.42    0.68
   2   6   6   -1.67    0.72
   2   6   6    0.33    0.70
   2   6   6   -0.42    0.50
   2   6   6    0.65    0.76
   2   6   6    0.59    0.72
   2   6   6    0.13    0.67
   2   6   6   -0.21    0.53
   2   6   6    1.13    0.73
  -3  -6  -6    2.15    0.72
   3   6   6    2.06    0.78
   3   6   6    1.78    0.56
   3   6   6    2.33    0.69
   3   6   6    2.62    0.71
   3   6   6    3.14    0.55
   3   6   6    2.09    0.68
   4  -7  -6    0.80    0.44
   4  -7  -6    1.44    0.45
  -4   7   6   -0.43    0.56
   3  -7  -6    0.49    0.60
   3  -7  -6    1.12    0.60
  -3   7   6    1.38    0.56
  -3   7   6    1.54    0.77
   2  -7  -6   24.56    1.58
   2  -7  -6   15.89    1.71
   2  -7  -6   22.98    1.68
  -2   7   6   25.59    1.75
  -2   7   6   24.62    1.51
   1  -7  -6    5.51    1.13
  -1   7   6    9.60    0.95
  -1   7   6    8.63    1.14
  -1   7   6    7.46    1.07
   0  -7  -6    0.08    0.76
   0   7   6    0.87    0.58
   0   7   6    0.16    0.84
   0   7   6    0.74    0.61
   0   7   6    0.76    0.66
   0   7   6    0.34    0.59
   0   7   6    0.50    0.57
   1   7   6    2.47    0.69
   1   7   6    3.07    0.68
   1   7   6    4.09    0.69
   1   7   6    3.59    0.92
   1   7   6    2.37    0.78
   1   7   6    4.49    0.78
   1   7   6    2.26    0.71
   1   7   6    3.47    0.86
   2   7   6    0.23    0.63
   2   7   6    0.97    0.75
   2   7   6    0.57    0.63
   2   7   6    0.72    0.50
   2   7   6    0.27    0.46
   2   7   6   -0.49    0.64
   2   7   6    0.61    0.61
   2   7   6    0.43    0.71
   3   7   6    7.98    0.82
   3   7   6    6.60    0.61
   3   7   6    7.12    0.74
   3  -8  -6   -0.08    0.44
   3  -8  -6    0.38    0.47
  -3   8   6   -1.10    0.51
   2  -8  -6    4.42    0.67
   2  -8  -6    4.12    0.72
   2  -8  -6    2.78    0.75
  -2   8   6    5.12    0.69
  -2   8   6    5.29    0.82
   1  -8  -6    0.94    0.67
  -1   8   6    0.88    0.59
  -1   8   6    0.72    0.72
  -1   8   6    0.76    0.49
   0  -8  -6    3.21    0.78
   0   8   6    2.94    0.61
   0   8   6    2.95    0.70
   0   8   6    3.34    0.82
   0   8   6    2.75    0.66
   0   8   6    3.72    0.65
   0   8   6    3.02    0.68
   1   8   6    0.88    0.54
   1   8   6    0.45    0.46
   1   8   6    0.71    0.69
   1   8   6    0.06    0.55
   1   8   6    0.08    0.59
   1   8   6    0.17    0.51
   2   8   6    0.30    0.40
   2   8   6    0.05    0.45
   2   8   6    1.53    0.62
   2  -9  -6    0.88    0.37
   2  -9  -6    1.52    0.40
  -2   9   6    1.65    0.50
  -1   9   6    4.85    0.66
  -1   9   6    4.51    0.61
   0   9   6   13.59    0.97
   0   9   6   13.11    0.94
   0   9   6   12.59    0.88
   0   9   6   13.91    1.02
   0   9  -7    0.35    0.35
   0   9  -7    0.94    0.36
   0   9  -7    0.23    0.47
   0   9  -7    0.40    0.36
   0   9  -7   -0.87    0.47
  -1   9  -7    1.06    0.42
  -1   9  -7    0.79    0.38
  -1   9  -7    2.22    0.50
  -1   9  -7    1.00    0.41
  -1   9  -7    1.07    0.55
  -2   9  -7    0.87    0.36
  -2   9  -7    1.02    0.38
  -2   9  -7    1.01    0.46
  -2   9  -7    1.59    0.37
   1   8  -7    0.34    0.63
   1   8  -7    0.53    0.44
   1   8  -7   -0.17    0.53
   1   8  -7    0.10    0.43
   0   8  -7    3.70    0.65
   0   8  -7    3.18    0.57
   0   8  -7    3.98    0.62
   0   8  -7    3.26    0.57
   0   8  -7    3.53    0.72
   0   8  -7    2.90    0.57
   0   8  -7    4.39    0.88
  -1   8  -7    0.54    0.50
  -1   8  -7    0.18    0.74
  -1   8  -7    0.23    0.49
  -1   8  -7   -0.18    0.43
  -1   8  -7   -0.69    0.49
  -1   8  -7    0.29    0.44
  -1   8  -7    0.29    0.44
  -2   8  -7    1.46    0.52
  -2   8  -7    2.83    0.60
  -2   8  -7    1.92    0.55
  -2   8  -7    0.56    0.47
  -2   8  -7    1.88    0.48
  -2   8  -7    2.46    0.73
  -2   8  -7    2.82    0.52
   2  -8   7    1.16    0.51
  -3   8  -7    0.04    0.45
  -3   8  -7    0.45    0.42
  -3   8  -7    0.17    0.36
   1   7  -7    6.60    0.94
   1   7  -7    5.59    0.77
   1   7  -7    5.69    0.83
   1   7  -7    7.17    0.99
   1   7  -7    6.32    0.84
   1   7  -7    7.44    0.92
   0   7  -7    2.20    0.92
   0   7  -7    1.40    0.54
   0   7  -7    1.26    0.58
   0   7  -7    0.54    0.48
   0   7  -7    0.78    0.59
   0   7  -7    1.11    0.52
   0   7  -7    0.42    0.50
  -1   7  -7    6.58    0.95
  -1   7  -7    6.92    0.82
  -1   7  -7    7.60    0.99
  -1   7  -7    8.62    0.93
  -1   7  -7    8.63    1.11
  -1   7  -7    7.88    0.89
  -1   7  -7    7.68    0.95
   1  -7   7    7.35    0.90
  -2   7  -7    0.29    0.57
  -2   7  -7    0.28    0.73
  -2   7  -7    1.41    0.56
  -2   7  -7    1.55    0.62
  -2   7  -7    0.84    0.55
  -2   7  -7    2.16    0.65
  -2   7  -7    2.50    0.59
   2  -7   7    0.86    0.57
  -3   7  -7    8.78    0.95
  -3   7  -7    9.76    0.98
  -3   7  -7   10.37    0.91
  -3   7  -7   10.96    1.10
   3  -7   7    8.24    0.85
  -4   7  -7    0.85    0.42
   1   6  -7    6.23    0.81
   1   6  -7    8.19    0.90
   1   6  -7    7.89    0.84
   1   6  -7    7.75    0.96
   1   6  -7    8.33    1.05
   1   6  -7    7.37    0.82
   0   6  -7   -0.35    0.45
   0   6  -7    0.27    0.49
   0   6  -7    0.18    0.50
   0   6  -7   -0.03    0.44
   0   6  -7    0.47    0.56
   0   6  -7   -0.25    0.55
   0   6  -7    0.49    0.81
   0   6  -7   -0.30    0.42
  -1   6  -7    0.43    0.46
  -1   6  -7   -0.13    0.51
  -1   6  -7   -0.55    0.48
  -1   6  -7   -0.06    0.53
  -1   6  -7   -0.03    0.55
  -1   6  -7    0.68    0.82
  -1   6  -7    1.19    0.52
   1  -6   7    0.02    0.54
  -2   6  -7   13.35    1.17
  -2   6  -7   12.94    1.03
  -2   6  -7   13.32    1.13
  -2   6  -7   14.00    1.18
  -2   6  -7   14.63    1.47
  -2   6  -7   13.54    1.17
   2  -6   7   13.65    1.14
  -3   6  -7    3.30    0.71
  -3   6  -7    4.24    0.65
  -3   6  -7    5.40    0.89
  -3   6  -7    3.57    0.68
  -3   6  -7    4.11    0.85
   3  -6   7    4.91    0.70
   3  -6   7    3.49    0.68
  -4   6  -7    0.01    0.54
   4  -6   7    0.71    0.48
   4  -6   7    0.40    0.42
   1   5  -7    2.38    0.59
   1   5  -7    2.77    0.63
   1   5  -7    2.79    0.57
   1   5  -7    1.80    0.49
  -1  -5   7    2.34    0.54
   0   5  -7    1.19    0.49
   0   5  -7    1.90    0.53
   0   5  -7    1.09    0.41
   0   5  -7    1.09    0.44
   0   5  -7    1.09    0.46
   0  -5   7    1.42    0.43
  -1   5  -7    1.52    0.50
  -1   5  -7    1.65    0.49
  -1   5  -7    1.73    0.48
  -1   5  -7    1.54    0.48
  -1   5  -7    1.14    0.50
   1  -5   7    1.66    0.46
   1  -5   7    1.69    0.43
  -2   5  -7   38.77    1.94
  -2   5  -7   39.39    2.04
   2  -5   7   38.50    1.79
   2  -5   7   41.16    2.09
  -3   5  -7   13.35    1.33
  -3   5  -7   12.41    1.01
  -3   5  -7   13.50    1.16
   3  -5   7   13.46    1.12
   3  -5   7   14.33    1.17
   3  -5   7   14.03    0.98
  -4   5  -7    0.92    0.61
  -4   5  -7    0.84    0.72
   4  -5   7    0.20    0.33
   4  -5   7    1.34    0.54
   4  -5   7    0.54    0.53
  -5   5  -7    0.34    0.38
   5  -5   7    0.14    0.23
   5  -5   7   -0.15    0.29
   4   4  -7    0.11    0.40
   2   4  -7    1.55    0.45
   1   4  -7   15.03    1.00
   1   4  -7   17.38    1.27
   1   4  -7   16.63    1.16
   1   4  -7   14.38    1.02
  -1  -4   7   13.31    0.94
  -1  -4   7   15.34    1.04
   0   4  -7    3.77    0.55
   0   4  -7    3.75    0.58
   0   4  -7    3.23    0.60
   0   4  -7    3.66    0.51
   0   4  -7    3.70    0.46
   0  -4   7    3.40    0.49
   0  -4   7    2.64    0.47
  -1   4  -7   40.43    2.58
  -1   4  -7   40.27    2.34
  -1   4  -7   37.51    1.86
  -1   4  -7   40.44    1.98
  -1   4  -7   38.53    1.99
   1  -4   7   40.46    1.77
   1  -4   7   42.41    2.11
  -2   4  -7   14.37    0.98
  -2   4  -7   12.85    1.10
  -2   4  -7   12.32    0.89
   2  -4   7   12.41    0.82
   2  -4   7   11.31    0.92
   2  -4   7   12.05    0.99
  -3   4  -7   22.41    1.75
  -3   4  -7   22.83    1.51
  -3   4  -7   24.24    1.43
  -3   4  -7   26.84    1.82
   3  -4   7   23.96    1.54
   3  -4   7   23.95    1.36
   3  -4   7   22.67    1.52
  -4   4  -7   -0.04    0.73
  -4   4  -7    0.29    0.62
   4  -4   7    0.47    0.41
   4  -4   7    1.20    0.61
   4  -4   7    0.25    0.57
  -5   4  -7   10.23    0.88
   5  -4   7    9.37    0.68
   5  -4   7   10.28    0.80
   5   3  -7    2.79    0.45
   5   3  -7    2.21    0.37
   5   3  -7    2.68    0.37
   4   3  -7    6.58    0.70
   4   3  -7    5.78    0.79
   4   3  -7    5.50    0.79
   4   3  -7    4.63    0.73
   4   3  -7    4.95    0.63
   4   3  -7    5.18    0.69
   3   3  -7    0.23    0.49
   3   3  -7    0.49    0.41
   3   3  -7    0.70    0.41
   2   3  -7   10.17    0.79
   2   3  -7    8.73    0.83
   2   3  -7   10.64    0.68
   2   3  -7   10.29    0.81
  -2  -3   7   12.16    1.10
   1   3  -7    6.05    0.59
   1   3  -7    5.89    0.68
  -1  -3   7    5.40    0.62
  -1  -3   7    7.07    0.81
   0   3  -7   56.76    3.41
   0   3  -7   55.90    2.73
   0   3  -7   54.55    2.34
   0  -3   7   55.43    2.32
  -1   3  -7   42.99    2.00
  -1   3  -7   45.47    2.79
   1  -3   7   45.22    1.91
   1  -3   7   43.99    2.23
  -2   3  -7   62.13    3.81
  -2   3  -7   60.91    2.75
  -2   3  -7   62.53    2.94
   2  -3   7   63.97    2.60
   2  -3   7   61.55    2.91
   2  -3   7   61.95    2.95
   2  -3   7   62.52    3.08
  -3   3  -7    2.27    0.55
  -3   3  -7    2.86    0.85
  -3   3  -7    3.82    0.66
   3  -3   7    2.38    0.49
   3  -3   7    2.83    0.56
   3  -3   7    2.89    0.70
   3  -3   7    3.08    0.50
  -4   3  -7    1.69    0.72
  -4   3  -7    1.20    0.70
   4  -3   7    1.04    0.62
   4  -3   7    0.20    0.38
   4  -3   7    0.30    0.41
  -5   3  -7    1.24    0.62
  -5   3  -7    1.48    0.56
   5  -3   7    1.20    0.51
   5  -3   7    1.90    0.39
   5   2  -7   -0.14    0.41
   5   2  -7    0.27    0.28
   5   2  -7    0.09    0.27
   5   2  -7   -0.10    0.48
   5   2  -7    0.69    0.39
   5   2  -7    0.34    0.35
   5   2  -7   -0.38    0.47
   4   2  -7    0.41    0.48
   4   2  -7    0.88    0.54
   4   2  -7   -0.10    0.61
   4   2  -7   -0.17    0.36
   4   2  -7   -0.48    0.52
   4   2  -7    0.39    0.42
   4   2  -7    0.19    0.39
   3   2  -7   -0.88    0.47
   3   2  -7    0.17    0.29
   3   2  -7   -0.14    0.33
   3   2  -7    0.55    0.47
  -3  -2   7    0.09    0.57
   2   2  -7    2.66    0.48
   2   2  -7    2.75    0.37
   2   2  -7    2.48    0.45
   2   2  -7    3.61    0.46
  -2  -2   7    2.45    0.59
   1   2  -7   37.32    2.36
   1   2  -7   38.05    1.93
  -1  -2   7   38.53    2.37
  -1  -2   7   37.16    1.73
   0   2  -7    7.97    0.79
   0   2  -7    8.41    0.53
   0   2  -7    8.24    0.62
   0  -2   7    7.74    0.60
   0  -2   7    5.73    0.93
  -1   2  -7    0.73    0.37
  -1   2  -7    0.82    0.42
   1  -2   7    0.55    0.33
   1  -2   7    0.96    0.31
   1  -2   7    1.00    0.39
  -2   2  -7   -0.07    0.41
  -2   2  -7    0.25    0.50
  -2   2  -7   -0.04    0.36
   2  -2   7    0.27    0.34
   2  -2   7    0.26    0.35
  -3   2  -7   13.77    1.06
  -3   2  -7   11.36    1.28
   3  -2   7   12.93    0.85
   3  -2   7   11.42    0.89
  -4   2  -7   -1.14    0.66
  -4   2  -7   -0.06    0.71
   4  -2   7   -0.21    0.42
   4  -2   7   -0.09    0.61
   4  -2   7    0.74    0.44
  -5   2  -7   -0.30    0.57
  -5   2  -7    1.50    0.60
   5  -2   7   -0.18    0.48
   5  -2   7    0.82    0.34
   5  -2   7    0.72    0.36
   5   1  -7    0.93    0.48
   5   1  -7    0.46    0.32
   5   1  -7    1.00    0.41
   5   1  -7    0.61    0.33
   5   1  -7    0.25    0.43
   5   1  -7    0.46    0.53
   5   1  -7    1.01    0.58
   4   1  -7    8.15    0.93
   4   1  -7    7.63    0.78
   4   1  -7    7.09    0.87
   4   1  -7    7.87    0.87
   4   1  -7    6.29    0.91
   4   1  -7    6.84    0.74
   4   1  -7    7.41    1.00
   4   1  -7    8.27    0.77
   3   1  -7   -0.31    0.27
   3   1  -7    0.65    0.42
   3   1  -7    0.46    0.46
   3   1  -7    0.07    0.31
  -3  -1   7    1.05    0.57
  -3  -1   7    0.03    0.49
   2   1  -7    0.32    0.23
   2   1  -7    0.36    0.39
  -2  -1   7   -0.22    0.43
  -2  -1   7    0.45    0.38
   1   1  -7    4.48    0.61
   1   1  -7    4.15    0.40
   1   1  -7    4.50    0.53
  -1  -1   7    3.70    0.52
  -1  -1   7    3.97    0.68
   0   1  -7    4.17    0.49
   0   1  -7    3.67    0.64
   0   1  -7    4.38    0.38
   0  -1   7    4.21    0.46
   0  -1   7    3.28    0.73
  -1   1  -7   33.51    2.17
  -1   1  -7   35.71    1.68
  -1   1  -7   31.20    1.54
   1  -1   7   32.44    1.49
   1  -1   7   32.91    2.09
  -2   1  -7   20.72    1.43
  -2   1  -7   20.82    1.15
  -2   1  -7   18.34    1.24
   2  -1   7   19.00    1.00
   2  -1   7   19.86    1.19
   2  -1   7   19.22    1.36
  -3   1  -7    5.42    0.71
  -3   1  -7    2.71    0.57
  -3   1  -7    4.27    0.81
   3  -1   7    3.94    0.55
   3  -1   7    3.71    0.53
   3  -1   7    3.69    0.66
  -4   1  -7    0.26    0.72
  -4   1  -7    1.39    0.78
   4  -1   7    0.59    0.44
   4  -1   7    1.83    0.75
   4  -1   7    0.67    0.47
  -5   1  -7   -0.04    0.59
  -5   1  -7    0.25    0.60
   5  -1   7    0.32    0.34
   5  -1   7    0.82    0.38
   5  -1   7    0.62    0.53
   5   0  -7    2.36    0.51
   5   0  -7    2.22    0.43
   5   0  -7    1.32    0.39
   5   0  -7    2.12    0.63
   5   0  -7    2.00    0.53
   5   0  -7    2.06    0.65
   5   0  -7    1.51    0.48
   5   0  -7    1.44    0.49
   4   0  -7   23.86    1.64
   4   0  -7   21.32    1.59
   4   0  -7   24.00    1.53
   4   0  -7   23.42    1.36
   4   0  -7   26.41    1.34
   4   0  -7   22.89    1.43
   4   0  -7   23.44    1.36
   4   0  -7   24.87    1.40
   3   0  -7   24.09    1.39
   3   0  -7   26.57    1.23
   3   0  -7   23.35    1.54
   3   0  -7   25.71    1.38
   3   0  -7   27.42    1.60
  -3   0   7   26.53    1.70
  -3   0   7   26.83    1.88
   2   0  -7   62.26    2.48
   2   0  -7   63.49    3.07
  -2   0   7   61.66    3.70
  -2   0   7   60.44    3.25
   1   0  -7  105.34    6.30
   1   0  -7  105.33    4.10
   1   0  -7  116.63    5.02
  -1   0   7  103.89    5.37
  -1   0   7  105.78    6.16
   0   0  -7   19.16    1.43
   0   0  -7   17.61    1.01
   0   0  -7   19.70    0.89
   0   0   7   17.74    1.52
   0   0   7   18.34    0.91
   0   0   7   19.23    1.04
  -1   0  -7   15.31    1.25
  -1   0  -7   14.46    0.83
  -1   0  -7   16.65    0.91
   1   0   7   15.02    1.24
   1   0   7   15.03    0.84
   1   0   7   15.34    0.91
  -2   0  -7    5.16    0.55
  -2   0  -7    6.55    0.69
  -2   0  -7    6.90    0.78
  -2   0  -7    6.92    0.82
   2   0   7    6.05    0.56
   2   0   7    6.40    0.70
   2   0   7    6.36    0.76
  -3   0  -7   -0.10    0.56
  -3   0  -7   -0.08    0.46
   3   0   7   -0.29    0.36
   3   0   7   -0.55    0.34
   3   0   7   -0.04    0.48
   3   0   7    0.85    0.60
  -4   0  -7    1.79    0.79
   4   0   7    2.71    0.59
   4   0   7    3.91    0.62
   4   0   7    2.08    0.52
   4   0   7    2.18    0.80
  -5   0  -7   -0.43    0.55
  -5   0  -7   -0.46    0.56
   5   0   7    0.33    0.37
   5   0   7    0.22    0.36
   5   0   7   -0.44    0.31
   5  -1  -7   13.19    1.12
   5  -1  -7   11.29    0.93
   5  -1  -7   11.86    0.89
   5  -1  -7   11.70    0.85
   5  -1  -7   13.97    0.95
   5  -1  -7   11.38    0.94
   5  -1  -7   12.49    0.84
   5  -1  -7   12.10    1.10
   4  -1  -7    5.92    0.66
   4  -1  -7    6.46    0.71
   4  -1  -7    5.40    0.70
   4  -1  -7    7.05    0.87
   4  -1  -7    5.93    0.67
   4  -1  -7    5.25    0.79
   4  -1  -7    7.53    0.84
   4  -1  -7    5.62    0.85
   3  -1  -7    1.01    0.43
   3  -1  -7   -0.34    0.27
   3  -1  -7    0.08    0.49
   3  -1  -7    0.10    0.27
   3  -1  -7   -0.09    0.37
  -3   1   7   -0.37    0.54
  -3   1   7   -0.89    0.54
   2  -1  -7   39.31    1.62
   2  -1  -7   41.08    2.04
  -2   1   7   38.38    2.50
  -2   1   7   36.71    2.21
   1  -1  -7  107.53    4.76
   1  -1  -7  110.71    6.01
   1  -1  -7   96.84    3.86
  -1   1   7   90.73    5.15
   0  -1  -7   20.34    0.96
   0  -1  -7   19.55    1.58
   0  -1  -7   20.05    1.11
   0   1   7   21.77    1.24
   0   1   7   22.52    0.98
   0   1   7   19.90    1.61
  -1  -1  -7    4.94    0.59
  -1  -1  -7    5.58    0.88
   1   1   7    3.64    0.44
   1   1   7    4.90    0.83
   1   1   7    4.24    0.50
  -2  -1  -7    8.31    0.93
  -2  -1  -7    6.78    0.67
  -2  -1  -7    7.29    0.95
   2   1   7    6.80    0.74
   2   1   7    6.94    0.78
   2   1   7    7.13    0.69
   2   1   7    5.22    0.81
  -3  -1  -7   20.52    1.48
  -3  -1  -7   21.41    1.33
   3   1   7   22.44    1.52
   3   1   7   22.13    1.47
   3   1   7   24.03    1.75
   3   1   7   22.90    1.36
   4   1   7    4.50    0.83
   4   1   7    3.76    0.64
   4   1   7    4.28    0.80
   4   1   7    4.59    0.69
   4   1   7    4.68    0.80
   4   1   7    4.89    0.64
  -5  -1  -7    0.33    0.57
  -5  -1  -7    0.88    0.56
   5   1   7    1.17    0.39
   5   1   7    2.27    0.48
   5  -2  -7    0.89    0.33
   5  -2  -7    1.28    0.61
   5  -2  -7    1.60    0.47
   5  -2  -7    0.73    0.42
   5  -2  -7    0.76    0.44
   5  -2  -7    0.65    0.44
  -5   2   7    1.77    1.08
   4  -2  -7    0.03    0.45
   4  -2  -7    0.13    0.47
   4  -2  -7    0.15    0.46
   4  -2  -7    1.11    0.65
   4  -2  -7   -0.28    0.31
   4  -2  -7    0.37    0.48
   4  -2  -7    0.33    0.65
   4  -2  -7    0.42    0.34
   3  -2  -7   26.24    1.56
   3  -2  -7   26.90    1.41
   3  -2  -7   24.87    1.42
   3  -2  -7   27.51    1.71
   3  -2  -7   29.44    1.25
  -3   2   7   24.43    1.83
  -3   2   7   23.11    1.91
   2  -2  -7   13.70    0.68
   2  -2  -7   13.48    0.96
  -2   2   7   12.40    1.52
  -2   2   7   13.42    1.19
  -2   2   7   11.37    1.22
   1  -2  -7   27.57    1.05
   1  -2  -7   24.12    1.75
   1  -2  -7   26.66    1.44
  -1   2   7   19.73    1.81
  -1   2   7   23.95    1.64
   0  -2  -7   10.19    1.31
   0  -2  -7   16.48    0.82
   0  -2  -7   16.17    0.91
   0   2   7   14.72    1.07
   0   2   7   16.84    1.46
  -1  -2  -7    0.72    0.62
  -1  -2  -7    0.54    0.37
   1   2   7   -0.03    0.54
   1   2   7   -0.09    0.36
  -2  -2  -7    2.33    0.71
  -2  -2  -7    1.19    0.49
  -2  -2  -7    2.90    0.75
   2   2   7    1.44    0.48
   2   2   7    1.73    0.54
   2   2   7    1.71    0.58
   2   2   7    1.28    0.55
   2   2   7    1.74    0.49
  -3  -2  -7   38.62    2.19
  -3  -2  -7   37.22    2.33
   3   2   7   35.83    2.22
   3   2   7   38.82    2.16
   3   2   7   38.72    2.07
   4   2   7   11.06    1.07
   4   2   7    8.55    1.19
   4   2   7    9.75    0.86
   4   2   7    8.43    1.04
   4   2   7    7.94    0.89
   4   2   7    8.76    0.97
   4   2   7    9.60    1.20
  -5  -2  -7    3.76    0.59
   5   2   7    5.25    0.53
   5   2   7    5.02    0.71
   5   2   7    4.55    0.60
   5  -3  -7    0.37    0.41
   5  -3  -7    0.22    0.30
   5  -3  -7   -0.39    0.38
   5  -3  -7    0.10    0.38
  -5   3   7   -0.25    0.97
  -5   3   7    0.56    1.01
   4  -3  -7    1.52    0.60
   4  -3  -7    0.98    0.56
   4  -3  -7    0.91    0.52
   4  -3  -7    0.71    0.50
   4  -3  -7    0.76    0.68
   4  -3  -7    0.68    0.49
  -4   3   7   -0.34    1.10
   3  -3  -7    1.38    0.48
   3  -3  -7    0.88    0.45
  -3   3   7    1.12    1.07
  -3   3   7    1.53    0.81
   2  -3  -7    4.92    0.71
   2  -3  -7    6.28    0.86
   2  -3  -7    5.29    0.58
  -2   3   7    6.22    0.97
  -2   3   7    2.73    0.77
  -2   3   7    2.31    1.06
   1  -3  -7    1.73    0.63
   1  -3  -7    2.70    0.53
  -1   3   7    3.05    0.85
  -1   3   7    4.38    0.78
   0  -3  -7   14.52    0.96
   0  -3  -7   15.82    0.84
   0   3   7   14.06    1.43
   0   3   7   15.12    1.15
  -1  -3  -7   28.50    1.40
   1   3   7   29.83    1.72
   1   3   7   26.90    1.57
   1   3   7   25.55    1.62
   1   3   7   29.85    2.01
   1   3   7   27.01    1.81
  -2  -3  -7   11.84    0.92
  -2  -3  -7    8.47    1.24
   2   3   7    9.81    1.13
   2   3   7    9.46    1.03
   2   3   7    9.45    0.94
   2   3   7   10.50    0.95
   2   3   7   10.71    1.10
  -3  -3  -7    1.91    0.81
   3   3   7    2.22    0.84
   3   3   7    0.16    0.75
   3   3   7    0.22    0.56
   3   3   7    0.71    0.57
   3   3   7    0.86    0.64
   3   3   7    0.92    0.51
   4   3   7    0.60    0.64
   4   3   7   -0.32    0.55
   4   3   7    0.55    0.57
   4   3   7    0.26    0.45
   4   3   7    0.03    0.68
   4   3   7   -0.70    0.41
   5   3   7    1.49    0.37
   5  -4  -7    0.91    0.37
   5  -4  -7    1.14    0.38
  -5   4   7   -0.25    0.88
   4  -4  -7   -0.41    0.44
   4  -4  -7    0.32    0.53
   4  -4  -7    0.22    0.58
   4  -4  -7    1.03    0.49
  -4   4   7    0.57    1.11
  -4   4   7    1.02    1.11
   3  -4  -7    1.69    0.48
  -3   4   7    1.13    1.10
   2  -4  -7   22.66    1.20
   2  -4  -7   19.67    1.40
   2  -4  -7   19.08    1.62
  -2   4   7   22.67    1.41
  -2   4   7   27.13    1.99
  -2   4   7   20.54    1.67
   1  -4  -7    6.75    0.77
   1  -4  -7    4.86    0.89
   1  -4  -7    2.92    0.78
  -1   4   7    6.62    0.82
  -1   4   7    8.19    0.90
  -1   4   7    9.48    1.18
   0  -4  -7    3.47    0.89
   0  -4  -7    4.85    0.92
   0  -4  -7    8.79    0.63
   0   4   7    7.31    0.88
   0   4   7    7.95    1.08
   0   4   7    8.01    1.06
   0   4   7    5.28    0.75
   0   4   7    7.72    0.78
  -1  -4  -7    0.02    0.65
  -1  -4  -7   -0.26    0.39
   1   4   7   -0.66    0.52
   1   4   7   -0.42    0.47
   1   4   7   -0.75    0.52
   1   4   7   -0.76    0.62
   1   4   7   -0.11    0.45
  -2  -4  -7    0.09    0.80
   2   4   7    0.58    0.72
   2   4   7    0.12    0.53
   2   4   7   -0.27    0.68
  -3  -4  -7   10.91    1.24
   3   4   7    9.36    1.02
   3   4   7    9.61    1.27
   3   4   7    8.76    1.10
   3   4   7    9.37    1.23
   3   4   7    9.72    1.09
   3   4   7    8.97    0.95
   3   4   7   10.34    1.28
   4   4   7   13.92    1.12
   4   4   7   14.56    1.10
   4   4   7   13.26    1.14
   4   4   7   13.52    1.17
   4   4   7   14.14    1.21
   4   4   7   14.84    0.99
  -5   5   7   -0.12    0.68
   4  -5  -7    0.37    0.51
   4  -5  -7    0.12    0.41
   4  -5  -7   -0.28    0.53
  -4   5   7    0.48    0.98
   3  -5  -7    1.90    0.66
   3  -5  -7    2.13    0.51
   3  -5  -7    3.96    0.76
  -3   5   7    2.02    1.05
  -3   5   7    2.30    0.69
  -3   5   7    0.09    0.96
   2  -5  -7    0.07    0.53
   2  -5  -7   -0.03    0.70
  -2   5   7    0.88    1.00
  -2   5   7   -0.31    0.55
   1  -5  -7   27.57    1.81
  -1   5   7   33.75    2.31
  -1   5   7   31.42    1.80
   0  -5  -7    7.33    0.67
   0  -5  -7    4.80    1.03
   0  -5  -7    2.83    0.91
   0   5   7    8.06    1.20
   0   5   7    7.31    0.87
   0   5   7    7.18    0.83
   0   5   7    7.03    0.97
   1   5   7   21.36    1.73
   1   5   7   24.49    1.49
   1   5   7   20.51    1.46
   2   5   7   -0.25    0.54
   2   5   7    0.70    0.71
   2   5   7    0.52    0.74
   2   5   7    0.23    0.77
   2   5   7   -0.77    0.63
   2   5   7    0.87    0.75
   2   5   7    0.35    0.78
   2   5   7   -0.51    0.48
  -3  -5  -7   13.33    1.28
   3   5   7   14.63    1.34
   3   5   7   14.68    1.40
   3   5   7   13.47    1.15
   3   5   7   12.81    1.25
   3   5   7   14.36    1.08
   3   5   7   15.77    1.24
   4   5   7    0.45    0.45
   4   5   7    0.53    0.45
   4   5   7    1.38    0.38
   4   5   7    1.06    0.55
   4  -6  -7    3.83    0.61
   4  -6  -7    3.81    0.62
   4  -6  -7    5.38    0.63
  -4   6   7    5.23    0.95
   3  -6  -7    4.36    0.77
   3  -6  -7    3.78    0.79
  -3   6   7    3.32    0.98
  -3   6   7    4.07    0.73
   2  -6  -7   15.25    1.33
   2  -6  -7   12.77    1.45
   2  -6  -7   15.63    1.45
  -2   6   7   16.24    1.53
  -2   6   7   17.49    1.23
   1  -6  -7    2.81    0.97
  -1   6   7    5.61    1.20
  -1   6   7    4.65    0.77
  -1   6   7    3.55    0.95
  -1   6   7    4.91    0.75
   0  -6  -7    0.32    0.80
   0   6   7    0.35    0.70
   0   6   7   -0.39    0.96
   0   6   7    0.68    0.59
   0   6   7    1.51    0.71
   0   6   7    1.40    0.61
   0   6   7    0.83    0.84
   0   6   7    0.62    0.59
   1   6   7    0.50    0.66
   1   6   7    0.62    0.77
   1   6   7   -0.67    0.56
   1   6   7    0.16    0.58
   1   6   7   -0.34    0.66
   1   6   7    0.83    0.64
   1   6   7    0.13    0.54
   1   6   7    0.02    0.79
   2   6   7    3.86    0.81
   2   6   7    3.30    0.65
   2   6   7    3.55    0.89
   2   6   7    3.54    0.87
   2   6   7    2.92    0.66
   2   6   7    3.48    0.82
   2   6   7    4.69    0.97
   2   6   7    3.27    0.83
  -3  -6  -7    3.10    0.70
   3   6   7    3.29    0.56
   3   6   7    3.56    0.76
   3   6   7    2.86    0.68
   3   6   7    3.09    0.60
   3   6   7    4.36    0.73
   4  -7  -7    0.17    0.36
   4  -7  -7    0.53    0.39
  -4   7   7    0.42    0.54
   3  -7  -7    6.67    0.84
   3  -7  -7    7.30    0.82
  -3   7   7    9.64    1.11
  -3   7   7    6.52    0.84
   2  -7  -7    8.15    1.15
   2  -7  -7    9.40    1.05
   2  -7  -7    9.96    1.14
  -2   7   7    9.88    0.93
  -2   7   7   10.30    1.19
   1  -7  -7    1.76    0.86
  -1   7   7    4.88    0.90
  -1   7   7    3.77    0.68
  -1   7   7    4.49    0.76
   0  -7  -7    1.10    0.75
   0   7   7    2.27    0.70
   0   7   7    2.08    0.73
   0   7   7    2.17    0.66
   0   7   7    1.49    0.86
   0   7   7    0.59    0.64
   0   7   7    2.96    0.68
   0   7   7    2.74    0.71
   1   7   7   -0.35    0.68
   1   7   7   -0.34    0.61
   1   7   7    0.35    0.50
   1   7   7    0.33    0.57
   1   7   7   -0.68    0.69
   1   7   7   -0.42    0.54
   1   7   7    0.19    0.53
   1   7   7   -1.42    0.74
  -2  -7  -7    1.41    0.75
   2   7   7    1.68    0.61
   2   7   7    1.74    0.72
   2   7   7    2.37    0.54
   2   7   7    1.63    0.72
   2   7   7    2.29    0.75
   2   7   7    2.55    0.67
   2   7   7    1.88    0.53
   3  -8  -7    3.21    0.51
   3  -8  -7    2.22    0.48
  -3   8   7    2.36    0.58
   2  -8  -7    1.17    0.57
   2  -8  -7    1.31    0.51
   2  -8  -7    1.02    0.56
  -2   8   7    0.78    0.46
  -2   8   7    0.72    0.59
   1  -8  -7    2.49    0.71
  -1   8   7    3.57    0.75
  -1   8   7    2.36    0.64
  -1   8   7    3.38    0.60
   0  -8  -7    6.32    0.99
   0   8   7    8.18    0.96
   0   8   7    8.93    0.84
   0   8   7    8.49    0.99
   0   8   7    7.93    1.05
   0   8   7    7.96    0.86
   0   8   7    8.73    1.02
   1   8   7   -0.08    0.45
   1   8   7    0.29    0.63
   1   8   7   -0.53    0.49
   1   8   7    0.56    0.58
  -1   9   7   14.09    1.02
  -1   9   7   15.48    1.04
   0   9   7    3.52    0.54
   0   9   7    2.96    0.49
   0   9  -8    0.10    0.34
   0   9  -8    0.30    0.34
   0   9  -8    0.71    0.35
   0   9  -8    0.12    0.41
   0   9  -8    0.67    0.48
  -1   9  -8    2.19    0.42
  -1   9  -8    2.22    0.56
  -1   9  -8    2.77    0.52
  -1   9  -8    2.91    0.47
  -1   9  -8    2.53    0.45
   1   8  -8    1.02    0.47
   1   8  -8    0.29    0.45
   1   8  -8    1.11    0.62
   1   8  -8   -0.01    0.53
   0   8  -8   22.38    1.31
   0   8  -8   22.03    1.34
   0   8  -8   22.13    1.57
   0   8  -8   20.07    1.44
   0   8  -8   18.60    1.45
   0   8  -8   21.62    1.38
  -1   8  -8    1.03    0.50
  -1   8  -8    0.51    0.55
  -1   8  -8    0.44    0.50
  -1   8  -8    0.44    0.45
  -1   8  -8    1.41    0.79
  -1   8  -8    0.40    0.52
  -1   8  -8    0.69    0.45
   1  -8   8    1.53    0.57
  -2   8  -8    2.79    0.71
  -2   8  -8    3.14    0.51
  -2   8  -8    3.37    0.55
  -2   8  -8    3.85    0.63
  -2   8  -8    2.43    0.50
  -2   8  -8    2.09    0.55
   2  -8   8    2.58    0.56
  -3   8  -8   -0.13    0.33
  -3   8  -8   -0.45    0.41
   1   7  -8   34.00    1.99
   1   7  -8   32.05    2.13
   1   7  -8   34.69    1.86
   1   7  -8   33.70    1.91
   1   7  -8   36.69    2.04
   1   7  -8   34.24    1.88
   0   7  -8    0.45    0.47
   0   7  -8    0.49    0.50
   0   7  -8    0.70    0.55
   0   7  -8    0.92    0.88
   0   7  -8   -0.29    0.49
   0   7  -8    1.30    0.55
   0   7  -8    0.34    0.64
   0  -7   8   -0.71    0.54
  -1   7  -8   21.97    1.62
  -1   7  -8   23.25    1.53
  -1   7  -8   21.69    1.80
  -1   7  -8   24.56    1.51
  -1   7  -8   22.32    1.44
  -1   7  -8   24.88    1.49
  -1   7  -8   24.26    1.51
   1  -7   8   22.38    1.48
  -2   7  -8    1.14    0.60
  -2   7  -8    1.43    0.56
  -2   7  -8    1.22    0.54
  -2   7  -8    1.54    0.82
  -2   7  -8    1.97    0.63
  -2   7  -8    0.14    0.59
  -2   7  -8    1.98    0.57
   2  -7   8    2.64    0.65
  -3   7  -8    4.81    0.68
  -3   7  -8    5.07    0.75
  -3   7  -8    6.16    0.82
  -3   7  -8    5.32    0.72
  -3   7  -8    4.96    0.81
   3  -7   8    6.06    0.75
  -4   7  -8    2.17    0.44
   1   6  -8    0.13    0.48
   1   6  -8   -0.11    0.51
   1   6  -8    0.56    0.57
   1   6  -8    0.23    0.54
   1   6  -8    0.60    0.48
   1   6  -8   -0.32    0.66
   0   6  -8    7.51    0.99
   0   6  -8    8.53    0.91
   0   6  -8    7.19    0.95
   0   6  -8    6.98    0.93
   0   6  -8    8.55    0.86
   0   6  -8    7.11    0.92
   0   6  -8    7.11    0.83
  -1   6  -8    1.93    0.61
  -1   6  -8    2.32    0.61
  -1   6  -8    1.90    0.56
  -1   6  -8    1.60    0.63
  -1   6  -8    1.98    0.64
  -1   6  -8    1.08    0.89
  -1   6  -8    2.25    0.60
   1  -6   8    1.79    0.64
  -2   6  -8    7.12    1.08
  -2   6  -8    8.41    0.93
  -2   6  -8    6.07    0.86
  -2   6  -8    6.52    0.79
  -2   6  -8    5.67    0.82
  -2   6  -8    6.88    0.94
  -2   6  -8    6.79    0.85
   2  -6   8    6.02    0.84
  -3   6  -8    2.75    0.60
  -3   6  -8    1.49    0.76
  -3   6  -8    2.35    0.62
   3  -6   8    0.93    0.54
   3  -6   8    2.67    0.64
  -4   6  -8   10.07    0.99
   4  -6   8    8.94    0.85
   4  -6   8   10.23    0.79
   1   5  -8   35.89    2.36
   1   5  -8   33.35    1.81
   1   5  -8   33.07    1.73
   1   5  -8   31.33    2.08
  -1  -5   8   32.22    1.91
   0   5  -8    1.43    0.53
   0   5  -8    0.89    0.47
   0   5  -8    0.45    0.38
   0   5  -8    1.34    0.53
   0   5  -8    0.76    0.47
   0  -5   8    0.60    0.42
  -1   5  -8    6.41    0.78
  -1   5  -8    6.47    0.82
  -1   5  -8    5.06    0.80
  -1   5  -8    5.67    0.71
  -1   5  -8    8.51    0.81
   1  -5   8    6.83    0.70
   1  -5   8    5.14    0.66
  -2   5  -8    3.94    0.73
  -2   5  -8    3.32    0.89
  -2   5  -8    3.00    0.67
   2  -5   8    3.69    0.72
  -3   5  -8    1.29    0.62
  -3   5  -8    0.67    0.74
  -3   5  -8    1.91    0.59
   3  -5   8    1.86    0.60
   3  -5   8    2.17    0.49
   3  -5   8    2.03    0.65
  -4   5  -8    1.19    0.63
   4  -5   8    1.32    0.57
   4  -5   8    2.10    0.55
   4  -5   8    2.03    0.42
  -5   5  -8    0.46    0.37
   5  -5   8    0.33    0.30
   4   4  -8   12.05    0.92
   2   4  -8   30.90    1.69
   2   4  -8   31.71    1.78
   1   4  -8    1.14    0.47
   1   4  -8    0.91    0.41
   1   4  -8    0.91    0.37
   1   4  -8    1.30    0.48
   1   4  -8    1.55    0.48
  -1  -4   8    1.85    0.51
  -1  -4   8    0.76    0.37
   0   4  -8   15.75    1.24
   0   4  -8   16.48    1.05
   0   4  -8   13.87    0.99
   0   4  -8   15.10    1.13
   0   4  -8   15.22    0.87
   0  -4   8   15.99    1.06
   0  -4   8   15.82    0.96
  -1   4  -8    8.07    0.68
  -1   4  -8    7.91    0.81
  -1   4  -8    8.80    0.86
  -1   4  -8    8.97    0.80
  -1   4  -8    8.09    0.88
   1  -4   8    8.06    0.73
   1  -4   8    7.92    0.68
  -2   4  -8    0.34    0.53
  -2   4  -8    0.55    0.46
  -2   4  -8   -0.06    0.46
   2  -4   8    0.15    0.51
   2  -4   8    0.84    0.39
   2  -4   8   -0.10    0.37
  -3   4  -8    7.80    1.08
  -3   4  -8    9.43    0.93
  -3   4  -8    7.91    0.95
   3  -4   8    8.53    0.96
   3  -4   8    8.90    1.00
   3  -4   8    9.58    0.87
  -4   4  -8    0.47    0.64
   4  -4   8    0.95    0.59
   4  -4   8    1.54    0.60
   4  -4   8   -0.44    0.35
  -5   4  -8    3.21    0.54
   5  -4   8    3.76    0.44
   5  -4   8    3.58    0.49
   5   3  -8    2.61    0.37
   5   3  -8    3.20    0.39
   5   3  -8    3.67    0.52
   4   3  -8    0.42    0.44
   4   3  -8    0.88    0.41
   4   3  -8    0.53    0.55
   4   3  -8    0.15    0.33
   4   3  -8   -0.24    0.51
   4   3  -8    0.17    0.35
   3   3  -8    5.59    0.76
   3   3  -8    5.93    0.65
   3   3  -8    5.70    0.71
   3   3  -8    4.79    0.76
   3   3  -8    5.05    0.72
   2   3  -8    0.92    0.38
   2   3  -8    0.83    0.40
   2   3  -8    0.29    0.44
  -2  -3   8    0.67    0.51
  -2  -3   8    0.43    0.63
   1   3  -8   55.20    3.31
   1   3  -8   49.17    2.95
   1   3  -8   50.13    2.47
   1   3  -8   55.86    2.68
  -1  -3   8   55.98    2.34
   0   3  -8    1.76    0.43
   0   3  -8    2.49    0.49
   0   3  -8    1.58    0.31
   0   3  -8    2.61    0.44
   0   3  -8    1.96    0.46
   0  -3   8    1.53    0.41
  -1   3  -8    1.62    0.46
  -1   3  -8    2.63    0.53
  -1   3  -8    1.58    0.46
  -1   3  -8    1.25    0.42
  -1   3  -8    0.91    0.44
   1  -3   8    1.20    0.35
   1  -3   8    0.74    0.39
  -2   3  -8   20.65    1.33
  -2   3  -8   21.47    1.56
  -2   3  -8   18.93    1.21
   2  -3   8   22.23    1.27
   2  -3   8   20.95    1.31
   2  -3   8   22.80    1.15
  -3   3  -8    1.33    0.61
   3  -3   8    1.04    0.49
   3  -3   8    1.71    0.67
   3  -3   8    1.40    0.44
  -4   3  -8    1.26    0.70
  -4   3  -8    0.83    0.68
   4  -3   8    1.34    0.47
   4  -3   8    0.12    0.61
   4  -3   8    1.43    0.45
  -5   3  -8    0.27    0.49
   5  -3   8    0.19    0.46
   5  -3   8    0.80    0.34
   5   2  -8    0.76    0.30
   5   2  -8    0.88    0.40
   5   2  -8    1.05    0.41
   5   2  -8    0.62    0.35
   5   2  -8    0.68    0.30
   5   2  -8    0.32    0.50
   4   2  -8    5.16    0.66
   4   2  -8    3.29    0.51
   4   2  -8    0.25    0.48
   4   2  -8    2.96    0.58
   4   2  -8    2.76    0.66
   4   2  -8    3.60    0.65
   4   2  -8    3.00    0.54
   3   2  -8    0.03    0.35
   3   2  -8   -0.24    0.51
   3   2  -8    0.02    0.36
   3   2  -8    0.64    0.51
   3   2  -8   -0.21    0.28
  -3  -2   8    0.72    0.65
   2   2  -8   14.67    0.77
   2   2  -8   13.29    0.90
   2   2  -8   12.17    0.91
   2   2  -8   13.04    0.97
   2   2  -8   14.20    1.03
  -2  -2   8   11.95    1.16
   1   2  -8   11.77    0.95
   1   2  -8   11.72    0.82
  -1  -2   8    9.83    1.09
  -1  -2   8   10.10    0.78
   0   2  -8    5.67    0.43
   0   2  -8    6.18    0.74
   0   2  -8    6.21    0.56
   0  -2   8    5.23    0.90
   0  -2   8    5.41    0.60
  -1   2  -8   13.46    1.11
  -1   2  -8   13.89    0.86
   1  -2   8   13.84    0.85
   1  -2   8   13.79    1.06
   1  -2   8   14.43    0.86
  -2   2  -8    6.30    0.68
  -2   2  -8    7.76    0.86
  -2   2  -8    6.56    0.79
   2  -2   8    6.38    0.81
   2  -2   8    7.08    0.61
   2  -2   8    8.45    0.78
  -3   2  -8   20.43    1.51
  -3   2  -8   21.05    1.35
  -3   2  -8   19.60    1.26
   3  -2   8   21.16    1.30
   3  -2   8   21.50    1.29
  -4   2  -8    0.38    0.68
  -4   2  -8    0.06    0.65
   4  -2   8    0.36    0.41
   4  -2   8   -0.45    0.40
   4  -2   8   -0.98    0.60
  -5   2  -8    6.20    0.83
  -5   2  -8    4.96    0.71
   5  -2   8    4.27    0.56
   5  -2   8    4.25    0.61
   5  -2   8    4.91    0.54
   5   1  -8    3.07    0.53
   5   1  -8    2.40    0.60
   5   1  -8    1.84    0.48
   5   1  -8    1.57    0.37
   5   1  -8    2.45    0.43
   5   1  -8    2.83    0.59
   5   1  -8    2.11    0.49
   4   1  -8   11.62    1.03
   4   1  -8   11.86    0.92
   4   1  -8   11.65    0.90
   4   1  -8   10.36    1.15
   4   1  -8   11.85    1.01
   4   1  -8   11.99    0.98
   4   1  -8   11.06    0.90
   4   1  -8   10.57    1.06
   3   1  -8   14.03    0.81
   3   1  -8   13.95    1.09
   3   1  -8   11.53    1.07
   3   1  -8   13.47    0.94
   3   1  -8   13.13    0.94
  -3  -1   8   13.80    1.31
   2   1  -8    9.83    0.60
   2   1  -8    9.49    0.72
   2   1  -8    9.04    0.73
   2   1  -8    9.76    0.84
  -2  -1   8   10.35    1.02
   1   1  -8    1.36    0.39
   1   1  -8    1.29    0.46
   1   1  -8    0.78    0.29
  -1  -1   8    0.56    0.58
   0   1  -8   75.39    3.53
   0   1  -8   74.32    2.99
   0   1  -8   78.15    4.51
   0  -1   8   67.64    4.42
   0  -1   8   75.51    2.99
  -1   1  -8   10.88    0.76
  -1   1  -8   10.63    0.71
  -1   1  -8   11.92    1.06
   1  -1   8   11.18    0.99
   1  -1   8   10.28    0.74
  -2   1  -8   -0.09    0.38
  -2   1  -8    0.73    0.48
  -2   1  -8    0.73    0.55
   2  -1   8    0.58    0.41
   2  -1   8    0.07    0.36
   2  -1   8    0.12    0.43
  -3   1  -8    1.54    0.59
  -3   1  -8   -0.25    0.66
  -3   1  -8   -0.27    0.44
   3  -1   8    1.28    0.46
   3  -1   8    0.22    0.41
  -4   1  -8   -0.25    0.68
  -4   1  -8    1.38    0.71
   4  -1   8    0.08    0.46
   4  -1   8    0.79    0.45
   4  -1   8    0.16    0.71
  -5   1  -8    1.32    0.57
  -5   1  -8    0.59    0.55
   5  -1   8   -0.01    0.46
   5  -1   8    0.19    0.35
   5  -1   8    0.59    0.35
   5   0  -8    0.05    0.54
   5   0  -8    0.04    0.45
   5   0  -8   -0.55    0.29
   5   0  -8    0.31    0.53
   5   0  -8   -0.64    0.38
   5   0  -8    0.45    0.32
   5   0  -8    0.36    0.42
   5   0  -8    0.21    0.43
   4   0  -8    8.62    1.04
   4   0  -8   10.29    0.96
   4   0  -8   10.22    0.88
   4   0  -8   10.07    1.16
   4   0  -8    8.22    0.91
   4   0  -8   10.16    0.82
   4   0  -8    7.55    0.82
   4   0  -8    8.31    0.79
   3   0  -8    6.04    0.76
   3   0  -8    6.78    0.56
   3   0  -8    5.92    0.62
   3   0  -8    6.44    0.77
   3   0  -8    5.27    0.65
  -3   0   8    5.71    0.89
  -3   0   8    6.02    0.93
   2   0  -8    2.72    0.34
   2   0  -8    3.53    0.52
   2   0  -8    2.27    0.38
   2   0  -8    2.25    0.40
  -2   0   8    2.41    0.61
  -2   0   8    3.32    0.61
   1   0  -8   27.80    1.91
   1   0  -8   30.65    1.50
   1   0  -8   28.06    1.17
  -1   0   8   26.06    1.60
  -1   0   8   21.94    1.92
   0   0  -8   30.51    1.27
   0   0  -8   28.49    2.01
   0   0  -8   29.51    1.51
   0   0   8   28.25    2.09
   0   0   8   27.13    1.31
  -1   0  -8    9.46    1.01
  -1   0  -8    9.57    0.69
   1   0   8    8.45    0.67
   1   0   8    8.77    1.00
  -2   0  -8    0.06    0.53
  -2   0  -8    0.48    0.50
  -2   0  -8    0.29    0.38
   2   0   8   -0.16    0.44
   2   0   8   -0.63    0.33
   2   0   8    0.16    0.41
  -3   0  -8   46.76    2.33
  -3   0  -8   44.53    2.15
   3   0   8   44.44    2.88
   3   0   8   40.44    2.03
   3   0   8   47.12    2.31
   3   0   8   44.47    2.47
  -4   0  -8    1.86    0.74
   4   0   8    1.50    0.55
   4   0   8    1.40    0.53
   4   0   8    1.55    0.52
   4   0   8    1.97    0.77
  -5   0  -8    2.01    0.61
  -5   0  -8    2.04    0.60
   5   0   8    1.86    0.43
   5   0   8    2.51    0.45
   5   0   8    1.99    0.42
   5  -1  -8    2.54    0.50
   5  -1  -8    2.76    0.51
   5  -1  -8    2.48    0.44
   5  -1  -8    2.61    0.63
   5  -1  -8    2.73    0.45
   5  -1  -8    3.68    0.54
   5  -1  -8    2.76    0.54
  -5   1   8    2.45    1.08
   4  -1  -8    1.18    0.67
   4  -1  -8    2.43    0.47
   4  -1  -8    1.97    0.55
   4  -1  -8    2.43    0.73
   4  -1  -8    2.16    0.53
   4  -1  -8    1.67    0.50
   4  -1  -8    2.56    0.47
   4  -1  -8    2.01    0.56
   3  -1  -8    4.81    0.73
   3  -1  -8    5.57    0.53
   3  -1  -8    5.78    0.68
   3  -1  -8    6.29    0.61
   3  -1  -8    5.30    0.60
  -3   1   8    5.89    0.96
  -3   1   8    3.57    0.82
   2  -1  -8    5.36    0.43
   2  -1  -8    4.13    0.50
   2  -1  -8    4.74    0.68
   2  -1  -8    4.93    0.60
  -2   1   8    5.64    0.82
  -2   1   8    4.49    0.79
   1  -1  -8   13.25    1.09
   1  -1  -8   13.36    0.84
   1  -1  -8   11.61    0.60
  -1   1   8    6.35    1.18
  -1   1   8   10.82    1.02
   0  -1  -8    9.53    0.64
   0  -1  -8    8.25    0.96
   0  -1  -8    9.37    0.58
   0   1   8    8.30    1.19
   0   1   8    8.51    0.75
   0   1   8   10.44    0.61
  -1  -1  -8    0.98    0.39
  -1  -1  -8    0.87    0.54
   1   1   8    0.79    0.61
   1   1   8    0.75    0.33
   1   1   8    1.19    0.37
  -2  -1  -8   22.44    1.23
  -2  -1  -8   23.61    1.70
  -2  -1  -8   22.22    1.42
   2   1   8   23.55    1.37
   2   1   8   19.56    1.40
   2   1   8   21.20    1.38
   2   1   8   21.64    1.63
   2   1   8   21.35    1.40
  -3  -1  -8    0.08    0.65
   3   1   8    0.34    0.59
   3   1   8   -0.08    0.55
   3   1   8   -0.06    0.53
   3   1   8    0.62    0.45
  -4  -1  -8    9.51    1.09
   4   1   8    6.99    0.90
   4   1   8    6.93    0.94
   4   1   8    7.60    0.89
  -5  -1  -8   -0.60    0.46
   5   1   8    0.21    0.36
   5  -2  -8    3.16    0.49
   5  -2  -8    2.63    0.51
   5  -2  -8    2.96    0.44
   5  -2  -8    4.25    0.54
   5  -2  -8    2.92    0.53
  -5   2   8    2.40    1.09
   4  -2  -8    1.13    0.49
   4  -2  -8    2.29    0.44
   4  -2  -8    2.50    0.62
   4  -2  -8    3.02    0.59
   4  -2  -8    1.61    0.67
   4  -2  -8    2.69    0.57
   4  -2  -8    1.53    0.53
   4  -2  -8    1.90    0.45
   4  -2  -8    2.00    0.64
  -4   2   8    2.35    1.17
   3  -2  -8   59.60    2.76
   3  -2  -8   59.49    2.39
   3  -2  -8   60.33    2.70
  -3   2   8   51.86    3.31
  -3   2   8   58.93    3.55
  -3   2   8   53.76    3.67
   2  -2  -8    2.14    0.31
   2  -2  -8    2.16    0.44
   2  -2  -8    3.03    0.64
   2  -2  -8    1.89    0.45
  -2   2   8    1.27    0.74
  -2   2   8    1.87    0.68
  -2   2   8    2.68    1.00
   1  -2  -8   35.48    1.36
   1  -2  -8   32.20    2.22
   1  -2  -8   35.46    1.76
  -1   2   8   28.56    2.28
  -1   2   8   30.60    1.99
   0  -2  -8   44.21    2.09
   0  -2  -8   43.46    1.81
   0  -2  -8   37.75    2.78
   0   2   8   42.42    2.33
   0   2   8   42.09    2.81
  -1  -2  -8   30.72    2.28
  -1  -2  -8   34.71    1.55
  -1  -2  -8   29.71    1.79
   1   2   8   33.91    2.22
   1   2   8   29.66    1.97
   1   2   8   34.14    1.87
  -2  -2  -8   10.01    1.09
  -2  -2  -8   10.94    1.17
  -2  -2  -8    9.76    0.87
   2   2   8   10.65    0.93
   2   2   8   10.35    0.97
   2   2   8   10.30    1.02
   2   2   8    9.12    0.89
   2   2   8   10.06    1.08
  -3  -2  -8   42.52    2.23
   3   2   8   38.40    2.35
   3   2   8   37.68    2.40
   3   2   8   37.78    2.21
   3   2   8   42.52    2.28
   3   2   8   40.29    2.18
   3   2   8   38.06    1.98
   4   2   8    2.07    0.59
   4   2   8    0.70    0.62
   4   2   8    0.90    0.71
   4   2   8    0.93    0.68
   4   2   8    1.42    0.55
   4   2   8    0.32    0.60
   4   2   8    0.26    0.44
  -5  -2  -8    3.07    0.49
   5   2   8    2.07    0.43
   5  -3  -8    0.39    0.41
   5  -3  -8   -0.38    0.32
   5  -3  -8    0.63    0.39
  -5   3   8    1.03    0.98
  -5   3   8    0.59    0.97
   4  -3  -8    5.24    0.72
   4  -3  -8    3.51    0.68
   4  -3  -8    5.12    0.66
   4  -3  -8    4.78    0.62
   4  -3  -8    4.51    0.63
  -4   3   8    4.13    1.27
  -4   3   8    6.61    1.31
   3  -3  -8    0.35    0.45
   3  -3  -8    0.30    0.43
  -3   3   8    0.03    0.77
  -3   3   8   -0.58    1.00
   2  -3  -8   52.55    2.82
   2  -3  -8   49.74    2.19
   2  -3  -8   49.92    2.49
  -2   3   8   40.84    2.71
  -2   3   8   34.19    2.85
   1  -3  -8   24.09    1.37
   1  -3  -8   17.11    1.63
   1  -3  -8   17.90    1.66
  -1   3   8   25.75    1.87
  -1   3   8   24.57    1.80
  -1   3   8   25.05    1.60
   0  -3  -8   40.79    2.96
   0  -3  -8   54.29    2.52
   0  -3  -8   49.69    2.18
   0   3   8   52.74    3.32
   0   3   8   52.48    2.81
   0   3   8   52.95    2.93
  -1  -3  -8    0.44    0.40
  -1  -3  -8    0.38    0.65
   1   3   8   -0.05    0.63
   1   3   8   -0.11    0.61
   1   3   8    0.98    0.64
   1   3   8    0.69    0.45
   1   3   8    1.20    0.48
  -2  -3  -8   28.51    2.30
  -2  -3  -8   32.52    1.64
  -2  -3  -8   31.99    1.87
   2   3   8   27.80    1.87
   2   3   8   31.05    1.97
   2   3   8   28.08    2.15
   2   3   8   30.51    1.76
  -3  -3  -8   14.83    1.27
   3   3   8   13.56    1.34
   3   3   8   13.47    1.19
   3   3   8   12.02    1.19
   3   3   8   11.64    1.41
   3   3   8   10.81    1.02
   3   3   8   13.69    1.26
   4   3   8    0.06    0.42
   4   3   8    0.99    0.60
   4   3   8    0.33    0.48
   4   3   8    0.72    0.56
   4   3   8   -0.62    0.64
   4   3   8   -0.01    0.60
   5  -4  -8    0.94    0.34
  -5   4   8    0.62    0.85
   4  -4  -8    1.18    0.53
   4  -4  -8   -0.48    0.40
   4  -4  -8    0.11    0.44
   4  -4  -8    0.94    0.58
  -4   4   8   -1.91    0.99
  -4   4   8    0.05    1.05
   3  -4  -8   38.75    1.96
   3  -4  -8   41.18    2.14
   3  -4  -8   39.49    2.16
   3  -4  -8   41.58    2.01
  -3   4   8   34.29    2.58
  -3   4   8   39.77    2.84
   2  -4  -8    0.64    0.47
   2  -4  -8   -0.16    0.65
  -2   4   8    0.57    0.73
  -2   4   8   -0.08    0.91
   1  -4  -8   11.84    1.47
   1  -4  -8   18.62    1.25
  -1   4   8   22.36    1.69
  -1   4   8   22.06    1.45
   0  -4  -8   -0.08    0.61
   0  -4  -8    0.35    0.61
   0   4   8    0.38    0.55
   0   4   8   -0.40    0.48
   0   4   8   -0.07    0.66
   0   4   8   -0.07    0.45
   0   4   8    0.08    0.76
  -1  -4  -8   10.10    1.49
  -1  -4  -8   15.95    1.02
   1   4   8   17.39    1.30
   1   4   8   15.44    1.42
   1   4   8   18.21    1.28
   1   4   8   17.15    1.15
   1   4   8   15.36    1.48
  -2  -4  -8    9.93    1.24
   2   4   8    8.80    1.26
   2   4   8    8.62    1.14
   2   4   8    7.81    1.12
   2   4   8    9.14    1.00
   2   4   8    8.43    1.18
   2   4   8    8.72    1.13
   2   4   8   10.10    1.24
   2   4   8   10.98    1.00
  -3  -4  -8    9.46    1.15
   3   4   8    8.67    1.10
   3   4   8    6.79    1.04
   3   4   8    7.13    0.93
   3   4   8    7.88    1.07
   3   4   8    8.50    1.21
   3   4   8    8.42    0.93
   4   4   8    6.19    0.77
   4   4   8    5.36    0.77
   4   4   8    5.45    0.79
   4   4   8    5.43    0.78
   4   4   8    4.51    0.68
   4   4   8    5.53    0.66
   5  -5  -8    0.72    0.34
  -5   5   8    1.11    0.66
   4  -5  -8    0.74    0.50
   4  -5  -8    1.87    0.56
   4  -5  -8    1.44    0.44
  -4   5   8    0.36    0.97
   3  -5  -8    7.46    0.89
   3  -5  -8    7.29    1.02
   3  -5  -8    7.57    0.75
  -3   5   8    8.16    1.23
  -3   5   8    7.10    1.24
   2  -5  -8   14.57    1.24
   2  -5  -8   14.45    1.45
  -2   5   8   16.20    1.64
  -2   5   8   15.53    1.54
   1  -5  -8    2.89    0.86
   1  -5  -8    0.99    0.71
   1  -5  -8    3.79    0.68
  -1   5   8    3.74    0.79
  -1   5   8    3.33    1.03
  -1   5   8    3.36    0.64
   0  -5  -8    1.42    0.76
   0  -5  -8    0.89    0.75
   0   5   8    2.48    0.97
   0   5   8    1.19    0.60
   0   5   8    2.08    0.59
   0   5   8    0.36    0.64
   1   5   8   12.28    1.22
   1   5   8   10.14    1.24
   1   5   8   11.13    1.18
   1   5   8   10.50    1.00
   1   5   8   10.09    1.20
   1   5   8   13.28    1.17
   1   5   8   11.47    1.31
   1   5   8   11.40    1.42
  -2  -5  -8    1.76    0.86
   2   5   8    1.89    0.62
   2   5   8    1.74    0.61
   2   5   8    1.44    0.75
   2   5   8    1.27    0.74
   2   5   8    0.46    0.78
   2   5   8    2.04    0.83
   2   5   8    2.11    0.84
  -3  -5  -8    8.27    1.03
   3   5   8    8.04    0.90
   3   5   8    7.16    0.99
   3   5   8    7.89    1.10
   3   5   8    8.20    0.97
   3   5   8   10.22    1.18
   3   5   8    8.56    0.88
   4   5   8    0.76    0.32
   4   5   8    0.01    0.37
   4   5   8    0.42    0.39
   4   5   8    0.26    0.46
   4  -6  -8    2.94    0.54
   4  -6  -8    2.23    0.52
  -4   6   8    2.78    0.79
   3  -6  -8    3.41    0.70
   3  -6  -8    2.76    0.68
   3  -6  -8    3.90    0.69
  -3   6   8    4.70    0.97
   2  -6  -8    1.43    0.67
   2  -6  -8    0.93    0.73
   2  -6  -8    0.45    0.71
  -2   6   8    1.31    0.81
  -2   6   8    0.32    0.77
  -2   6   8    1.49    0.61
   1  -6  -8    1.68    0.87
  -1   6   8    1.50    0.81
  -1   6   8    1.82    1.01
  -1   6   8    1.60    0.66
  -1   6   8    2.03    0.58
   0  -6  -8    1.24    0.76
   0   6   8    1.35    0.56
   0   6   8    0.88    0.99
   0   6   8    0.44    0.63
   0   6   8    0.46    0.62
   0   6   8    1.06    0.71
   0   6   8    1.03    0.69
   0   6   8   -0.11    0.77
   1   6   8    5.37    0.94
   1   6   8    3.94    1.00
   1   6   8    4.05    0.76
   1   6   8    4.88    0.79
   1   6   8    3.64    0.69
   1   6   8    4.57    0.80
   1   6   8    3.22    0.79
   1   6   8    4.56    0.88
  -2  -6  -8    9.87    1.20
   2   6   8   11.51    1.25
   2   6   8   12.47    1.28
   2   6   8   12.86    1.05
   2   6   8   11.88    1.06
   2   6   8   12.65    1.24
   2   6   8   11.61    1.27
   2   6   8   10.88    1.18
   3   6   8    3.07    0.51
   3   6   8    3.49    0.72
   3   6   8    3.82    0.65
   4  -7  -8    5.03    0.54
   4  -7  -8    5.12    0.55
  -4   7   8    4.21    0.63
   3  -7  -8    3.76    0.63
   3  -7  -8    3.83    0.65
  -3   7   8    3.25    0.78
   2  -7  -8   -0.25    0.60
   2  -7  -8    0.43    0.62
   2  -7  -8    1.01    0.59
  -2   7   8   -0.54    0.64
  -2   7   8   -0.12    0.46
   1  -7  -8    8.36    1.19
  -1   7   8    9.54    1.19
  -1   7   8    8.99    1.16
  -1   7   8   10.12    0.94
   0  -7  -8    1.82    0.75
   0   7   8   -0.21    0.57
   0   7   8   -0.19    0.70
   0   7   8    0.67    0.61
   0   7   8    1.23    0.74
   0   7   8    0.41    0.64
   0   7   8    0.34    0.54
   0   7   8    0.95    0.89
   1   7   8   10.76    1.00
   1   7   8   10.75    1.15
   1   7   8   11.71    1.21
   1   7   8   10.29    0.98
   1   7   8   12.05    1.19
   1   7   8    9.79    1.25
   1   7   8    9.97    1.08
   1   7   8   11.18    1.06
  -2  -7  -8   -0.62    0.59
   2   7   8   -0.45    0.37
   2   7   8    0.09    0.43
   2   7   8    0.19    0.60
   2   7   8    0.10    0.51
   2   7   8   -0.83    0.62
   3  -8  -8    1.71    0.40
   3  -8  -8    1.28    0.40
  -3   8   8    2.19    0.51
   2  -8  -8    1.12    0.50
   2  -8  -8    1.56    0.53
   2  -8  -8    0.99    0.46
  -2   8   8    0.45    0.54
   1  -8  -8    0.15    0.51
  -1   8   8   -0.12    0.51
  -1   8   8    0.48    0.58
  -1   8   8   -0.31    0.44
   0  -8  -8    2.25    0.62
   0   8   8    3.18    0.63
   0   8   8    2.50    0.66
   0   8   8    1.70    0.48
   0   8   8    2.24    0.64
   1   8   8    2.80    0.53
   1   8   8    3.06    0.57
   1   8   8    3.21    0.64
   1   8   8    1.81    0.58
   1   8   8    1.63    0.39
   0   9  -9    3.95    0.53
   0   9  -9    3.73    0.53
  -1   9  -9   -0.11    0.30
  -1   9  -9   -0.17    0.33
  -1   9  -9    0.12    0.34
  -1   9  -9   -0.19    0.38
  -1   9  -9    0.34    0.41
   1   8  -9    3.95    0.52
   1   8  -9    3.22    0.56
   1   8  -9    3.21    0.50
   1   8  -9    4.52    0.70
   0   8  -9    0.16    0.40
   0   8  -9    0.46    0.46
   0   8  -9   -0.56    0.56
   0   8  -9   -0.15    0.46
   0   8  -9    0.08    0.47
   0   8  -9   -0.09    0.48
   0   8  -9    0.14    0.40
  -1   8  -9    0.43    0.46
  -1   8  -9    0.25    0.42
  -1   8  -9    0.47    0.55
  -1   8  -9    0.46    0.49
  -1   8  -9    0.18    0.48
  -1   8  -9    1.78    0.73
  -1   8  -9    0.54    0.49
   1  -8   9    0.02    0.52
  -2   8  -9   -0.12    0.38
  -2   8  -9    0.67    0.60
  -2   8  -9    0.33    0.47
  -2   8  -9    1.29    0.52
  -2   8  -9   -0.63    0.38
  -2   8  -9    0.19    0.41
  -3   8  -9    0.49    0.33
  -3   8  -9    0.38    0.40
   3  -8   9   -0.13    0.50
   1   7  -9   28.94    1.64
   1   7  -9   27.82    1.69
   1   7  -9   28.70    1.78
   1   7  -9   28.11    1.65
   1   7  -9   28.73    1.77
   0   7  -9   -0.03    0.65
   0   7  -9    0.18    0.44
   0   7  -9    0.11    0.53
   0   7  -9   -0.01    0.47
   0   7  -9    0.43    0.53
   0   7  -9    0.83    0.56
   0  -7   9    0.20    0.55
  -1   7  -9    1.72    0.67
  -1   7  -9    1.17    0.55
  -1   7  -9    1.75    0.89
  -1   7  -9    1.93    0.60
  -1   7  -9    2.09    0.60
  -1   7  -9    1.35    0.53
  -1   7  -9    1.80    0.57
   1  -7   9    3.06    0.69
  -2   7  -9    4.72    0.69
  -2   7  -9    4.62    0.68
  -2   7  -9    4.32    0.90
  -2   7  -9    4.96    0.75
  -2   7  -9    3.59    0.73
  -2   7  -9    4.12    0.66
   2  -7   9    3.41    0.68
  -3   7  -9    0.72    0.49
  -3   7  -9    1.04    0.50
  -3   7  -9    0.90    0.61
  -3   7  -9    0.63    0.53
  -3   7  -9    0.72    0.48
   3  -7   9    1.18    0.49
   1   6  -9    0.30    0.49
   1   6  -9    0.35    0.47
   1   6  -9    1.00    0.60
   1   6  -9    0.83    0.55
   1   6  -9    0.63    0.54
   1   6  -9    1.65    0.61
   0   6  -9    4.88    0.72
   0   6  -9    6.15    0.76
   0   6  -9    2.99    0.69
   0   6  -9    4.05    0.74
   0   6  -9    4.74    0.70
   0   6  -9    4.94    0.87
   0   6  -9    3.14    0.61
  -1   6  -9    7.30    0.98
  -1   6  -9    3.94    0.71
  -1   6  -9    4.14    1.03
  -1   6  -9    5.09    0.82
  -1   6  -9    4.06    0.72
  -1   6  -9    4.05    0.73
  -1   6  -9    5.50    0.75
   1  -6   9    3.94    0.76
  -2   6  -9    4.88    0.81
  -2   6  -9    6.09    0.76
  -2   6  -9    5.54    0.77
  -2   6  -9    4.65    0.82
  -2   6  -9    4.99    1.03
  -2   6  -9    4.82    0.82
   2  -6   9    5.59    0.82
   2  -6   9    3.47    0.82
  -3   6  -9    5.08    0.74
  -3   6  -9    5.96    0.77
  -3   6  -9    4.57    0.88
   3  -6   9    3.68    0.68
   3  -6   9    4.69    0.69
  -4   6  -9    2.10    0.59
   4  -6   9    3.38    0.48
   1   5  -9    2.77    0.60
   1   5  -9    3.77    0.67
   1   5  -9    3.89    0.72
   0   5  -9    5.46    0.74
   0   5  -9    6.78    0.83
   0   5  -9    6.97    0.86
   0   5  -9    4.46    0.77
   0  -5   9    3.93    0.65
   0  -5   9    4.32    0.67
  -1   5  -9   13.98    1.04
  -1   5  -9   10.89    0.92
  -1   5  -9   11.28    1.13
  -1   5  -9   12.96    1.01
  -1   5  -9   12.14    1.09
   1  -5   9   12.04    0.89
   1  -5   9   10.03    0.94
  -2   5  -9    2.37    0.72
  -2   5  -9    2.19    0.87
  -2   5  -9    0.85    0.68
  -2   5  -9    1.31    0.65
  -2   5  -9    0.71    0.66
   2  -5   9    1.11    0.61
   2  -5   9    1.08    0.71
  -3   5  -9   17.84    1.27
  -3   5  -9   19.08    1.43
  -3   5  -9   18.82    1.53
   3  -5   9   17.62    1.34
   3  -5   9   22.23    1.21
   3  -5   9   19.15    1.34
  -4   5  -9    7.46    0.99
  -4   5  -9    7.37    0.84
   4  -5   9    8.01    0.70
   4  -5   9    7.71    0.87
   4  -5   9    8.85    0.86
   4   4  -9    4.06    0.59
   3   4  -9    1.43    0.47
   3   4  -9    0.13    0.28
   2   4  -9   -0.09    0.46
   2   4  -9    0.36    0.45
   2   4  -9    0.22    0.44
   1   4  -9    3.83    0.63
   1   4  -9    3.26    0.54
   1   4  -9    3.04    0.63
   1   4  -9    3.08    0.55
  -1  -4   9    3.59    0.62
   0   4  -9   17.39    1.42
   0   4  -9   19.89    1.22
   0   4  -9   18.61    1.12
   0   4  -9   18.43    1.34
   0  -4   9   19.10    1.21
   0  -4   9   18.32    1.11
  -1   4  -9    3.18    0.57
  -1   4  -9    2.39    0.48
  -1   4  -9    4.51    0.72
  -1   4  -9    3.20    0.66
  -1   4  -9    3.09    0.64
   1  -4   9    2.99    0.52
   1  -4   9    2.70    0.51
  -2   4  -9   32.32    1.71
  -2   4  -9   26.14    1.55
  -2   4  -9   29.28    2.09
   2  -4   9   29.61    1.68
   2  -4   9   28.53    1.46
  -3   4  -9  107.58    5.37
  -3   4  -9  109.92    5.01
  -3   4  -9  111.61    5.16
   3  -4   9  111.14    5.01
   3  -4   9  107.28    4.93
   3  -4   9  110.21    4.76
  -4   4  -9   15.61    1.19
  -4   4  -9   16.51    1.31
   4  -4   9   15.90    1.04
   4  -4   9   15.39    1.20
  -5   4  -9    0.44    0.38
   5  -4   9    0.59    0.26
   5  -4   9    1.08    0.38
   5   3  -9    1.53    0.38
   5   3  -9    1.30    0.28
   5   3  -9    0.95    0.27
   4   3  -9    1.77    0.59
   4   3  -9    0.91    0.51
   4   3  -9    1.45    0.49
   4   3  -9    1.30    0.40
   4   3  -9    0.83    0.37
   4   3  -9    0.72    0.38
   3   3  -9    1.62    0.46
   3   3  -9    2.20    0.49
   3   3  -9    1.02    0.53
   3   3  -9    1.28    0.59
   3   3  -9    1.04    0.56
   2   3  -9   11.24    0.95
   2   3  -9   13.16    1.01
   2   3  -9   13.97    1.08
   2   3  -9   12.09    0.90
  -2  -3   9   11.63    1.01
  -2  -3   9   11.80    1.32
   1   3  -9   80.97    3.88
   1   3  -9   80.71    3.71
   1   3  -9   74.00    3.57
   1   3  -9   80.90    4.83
   1   3  -9   79.48    4.34
  -1  -3   9   81.64    3.34
   0   3  -9    0.19    0.33
   0   3  -9    0.50    0.39
   0   3  -9    0.67    0.55
   0   3  -9    0.34    0.39
   0   3  -9    0.08    0.34
   0  -3   9    0.26    0.39
  -1   3  -9    0.71    0.43
  -1   3  -9    0.36    0.42
  -1   3  -9    0.42    0.41
  -1   3  -9    0.83    0.38
  -1   3  -9    0.03    0.54
   1  -3   9   -0.59    0.34
   1  -3   9   -0.12    0.29
   1  -3   9   -0.05    0.41
  -2   3  -9   19.41    1.21
  -2   3  -9   12.72    0.97
  -2   3  -9   13.77    1.23
   2  -3   9   14.86    1.12
   2  -3   9   14.81    1.05
   2  -3   9   14.58    0.95
  -3   3  -9   11.67    1.04
  -3   3  -9   10.08    1.39
   3  -3   9   10.41    0.98
   3  -3   9   10.77    1.15
   3  -3   9   12.85    1.11
   3  -3   9   11.37    0.90
  -4   3  -9    0.99    0.68
  -4   3  -9    0.83    0.68
   4  -3   9    2.23    0.67
   4  -3   9    1.10    0.43
   4  -3   9    1.41    0.49
  -5   3  -9    0.70    0.44
   5  -3   9    1.53    0.33
   5  -3   9    2.20    0.48
   5   2  -9   -0.28    0.24
   5   2  -9    0.32    0.32
   5   2  -9   -0.22    0.35
   5   2  -9    0.25    0.36
   4   2  -9    7.47    0.91
   4   2  -9    7.21    0.87
   4   2  -9    6.89    0.85
   4   2  -9    6.86    0.75
   4   2  -9    8.16    0.77
   4   2  -9    9.55    0.89
   4   2  -9    7.90    0.74
   3   2  -9    1.69    0.61
   3   2  -9    1.25    0.43
   3   2  -9    1.17    0.42
   3   2  -9    1.17    0.51
   2   2  -9    0.58    0.49
   2   2  -9    0.12    0.32
   2   2  -9    0.13    0.38
   2   2  -9    0.33    0.29
   2   2  -9   -0.44    0.39
  -2  -2   9    0.14    0.57
   1   2  -9    0.49    0.42
   1   2  -9   -0.05    0.39
   1   2  -9   -0.36    0.33
   1   2  -9    0.10    0.36
   1   2  -9    0.03    0.30
  -1  -2   9   -0.09    0.37
  -1  -2   9    0.08    0.59
   0   2  -9   10.31    0.95
   0   2  -9    9.68    0.74
   0  -2   9    9.83    1.12
   0  -2   9   10.04    0.70
  -1   2  -9    6.07    0.82
  -1   2  -9    6.94    0.61
  -1   2  -9    6.62    0.87
   1  -2   9    6.80    0.57
   1  -2   9    6.90    0.62
  -2   2  -9   26.09    1.60
  -2   2  -9   27.46    1.45
  -2   2  -9   26.44    1.93
   2  -2   9   27.93    1.57
   2  -2   9   28.69    1.39
   2  -2   9   28.63    1.58
  -3   2  -9   -0.99    0.57
   3  -2   9    1.02    0.52
   3  -2   9    0.44    0.43
  -4   2  -9   -0.12    0.68
   4  -2   9    1.74    0.72
   4  -2   9    0.90    0.45
   4  -2   9    0.43    0.48
  -5   2  -9    1.72    0.53
   5  -2   9    1.80    0.49
   5  -2   9    1.59    0.39
   5   1  -9    1.25    0.44
   5   1  -9    0.71    0.51
   5   1  -9    1.14    0.35
   5   1  -9    1.07    0.43
   5   1  -9    1.04    0.33
   5   1  -9    0.89    0.38
   4   1  -9    0.81    0.52
   4   1  -9    1.66    0.50
   4   1  -9    1.34    0.63
   4   1  -9    0.91    0.48
   4   1  -9    1.88    0.53
   4   1  -9    1.80    0.44
   4   1  -9    1.40    0.43
   3   1  -9    1.97    0.44
   3   1  -9    1.51    0.57
   3   1  -9    0.96    0.45
   3   1  -9    2.32    0.46
   3   1  -9    1.55    0.60
   3   1  -9    2.71    0.39
  -3  -1   9    2.31    0.79
   2   1  -9    9.19    0.74
   2   1  -9    9.37    0.60
   2   1  -9    9.03    0.82
   2   1  -9    8.58    0.72
   2   1  -9   10.23    1.03
   2   1  -9    9.87    0.85
  -2  -1   9    9.14    1.05
   1   1  -9  252.72   14.50
   1   1  -9  255.31   11.54
  -1  -1   9  247.24    9.60
   0   1  -9    0.51    0.51
   0   1  -9    0.67    0.37
   0  -1   9    0.45    0.72
   0  -1   9    1.06    0.38
  -1   1  -9    2.30    0.42
  -1   1  -9    2.51    0.60
  -1   1  -9    1.58    0.37
   1  -1   9    1.19    0.42
   1  -1   9    1.61    0.57
  -2   1  -9   -0.75    0.52
  -2   1  -9   -0.48    0.36
  -2   1  -9   -0.04    0.45
   2  -1   9   -0.26    0.40
   2  -1   9   -0.58    0.35
   2  -1   9    0.06    0.45
  -3   1  -9    0.29    0.57
   3  -1   9    0.10    0.46
   3  -1   9   -0.02    0.45
   3  -1   9    0.02    0.44
  -4   1  -9    6.47    0.95
  -4   1  -9    6.87    0.92
   4  -1   9    6.62    0.83
   4  -1   9    6.30    0.80
   4  -1   9    7.75    0.95
  -5   1  -9   -0.26    0.48
   5  -1   9    0.06    0.40
   5  -1   9    0.26    0.32
   5   0  -9    7.59    0.74
   5   0  -9    8.20    0.88
   5   0  -9    8.65    0.67
   5   0  -9    8.57    0.69
   5   0  -9    8.14    0.75
   5   0  -9    9.17    0.81
   5   0  -9   10.24    0.84
  -5   0   9    5.31    1.18
   4   0  -9   10.39    0.84
   4   0  -9    9.98    0.90
   4   0  -9   10.88    1.10
   4   0  -9    9.60    0.83
   4   0  -9    9.79    1.06
   4   0  -9    9.79    0.86
   4   0  -9    9.21    0.95
   4   0  -9    9.89    0.96
   3   0  -9    6.48    0.78
   3   0  -9    4.97    0.62
   3   0  -9    5.98    0.65
   3   0  -9    4.84    0.53
   3   0  -9    5.12    0.82
  -3   0   9    6.05    0.99
   2   0  -9   83.35    3.24
   2   0  -9   80.35    4.21
   2   0  -9   82.08    3.77
   2   0  -9   78.34    4.51
   2   0  -9   81.97    3.60
   2   0  -9   86.97    3.98
  -2   0   9   78.46    4.88
   1   0  -9    5.44    0.84
   1   0  -9    6.16    0.61
   1   0  -9    5.49    0.45
  -1   0   9    6.02    0.60
  -1   0   9    2.82    0.84
   0   0  -9   19.99    1.52
   0   0  -9   18.79    1.10
   0   0   9   19.77    1.01
   0   0   9   19.09    1.64
  -1   0  -9    1.20    0.59
  -1   0  -9    0.58    0.34
   1   0   9    0.85    0.39
   1   0   9    0.69    0.59
  -2   0  -9   28.63    1.62
  -2   0  -9   29.66    1.45
  -2   0  -9   29.08    2.04
   2   0   9   27.62    1.39
   2   0   9   28.88    1.63
   2   0   9   26.89    1.95
  -3   0  -9   13.62    1.19
   3   0   9   14.19    1.07
   3   0   9   12.89    1.20
   3   0   9   15.25    1.14
  -4   0  -9   -0.46    0.59
  -4   0  -9   -0.18    0.62
   4   0   9    0.24    0.49
   4   0   9   -0.48    0.46
   4   0   9    0.58    0.47
  -5   0  -9   -0.23    0.46
   5   0   9    0.06    0.36
   5   0   9   -0.13    0.29
   5  -1  -9    0.82    0.42
   5  -1  -9    1.60    0.57
   5  -1  -9    1.29    0.45
   5  -1  -9    0.71    0.39
   5  -1  -9    1.86    0.48
   5  -1  -9    1.53    0.36
   5  -1  -9    1.01    0.36
  -5   1   9    1.44    1.01
   4  -1  -9    0.27    0.46
   4  -1  -9    0.55    0.45
   4  -1  -9   -0.24    0.58
   4  -1  -9    0.21    0.37
   4  -1  -9   -0.23    0.46
   4  -1  -9   -0.18    0.32
   4  -1  -9    0.46    0.43
   4  -1  -9    0.79    0.64
   3  -1  -9   18.48    1.10
   3  -1  -9   18.78    0.95
   3  -1  -9   17.56    1.18
   3  -1  -9   18.55    1.10
   3  -1  -9   16.36    1.29
  -3   1   9   15.56    1.44
  -3   1   9   17.45    1.59
   2  -1  -9    4.28    0.52
   2  -1  -9    4.14    0.54
   2  -1  -9    5.10    0.44
   2  -1  -9    5.89    0.83
   2  -1  -9    4.59    0.55
  -2   1   9    3.23    0.80
  -2   1   9    5.23    0.83
  -2   1   9    4.49    1.06
   1  -1  -9    8.33    0.90
   1  -1  -9    7.83    0.50
   1  -1  -9    8.87    0.69
  -1   1   9    6.93    0.85
  -1   1   9    8.57    0.63
  -1   1   9    6.16    1.08
   0  -1  -9   -0.04    0.27
   0  -1  -9   -0.44    0.49
   0   1   9    0.28    0.32
   0   1   9   -0.08    0.35
   0   1   9    0.02    0.70
  -1  -1  -9    0.38    0.34
  -1  -1  -9   -0.09    0.56
  -1  -1  -9    0.33    0.52
   1   1   9   -0.09    0.23
   1   1   9   -0.62    0.57
  -2  -1  -9    6.71    0.92
  -2  -1  -9    6.51    0.69
  -2  -1  -9    6.43    0.80
   2   1   9    5.30    0.80
   2   1   9    6.78    0.92
   2   1   9    6.78    0.85
  -3  -1  -9    1.09    0.65
   3   1   9    0.11    0.62
   3   1   9    0.08    0.49
   3   1   9    0.78    0.59
   3   1   9   -0.08    0.52
   3   1   9    2.65    0.83
  -4  -1  -9    1.13    0.68
  -4  -1  -9    0.83    0.63
   4   1   9    0.85    0.53
   4   1   9    0.73    0.52
   4   1   9    1.06    0.68
  -5  -1  -9    0.29    0.44
   5   1   9    1.34    0.39
   5  -2  -9   15.58    1.04
   5  -2  -9   14.28    0.95
   5  -2  -9   15.08    0.87
   5  -2  -9   15.03    0.95
  -5   2   9   12.02    1.55
   4  -2  -9    2.63    0.61
   4  -2  -9    2.99    0.56
   4  -2  -9    2.59    0.62
   4  -2  -9    2.47    0.53
   4  -2  -9    2.05    0.68
   4  -2  -9    3.25    0.50
   4  -2  -9    2.14    0.54
   4  -2  -9    2.43    0.47
   4  -2  -9    2.65    0.59
  -4   2   9    1.98    1.15
   3  -2  -9    3.43    0.59
   3  -2  -9    3.49    0.43
   3  -2  -9    2.82    0.47
   3  -2  -9    3.43    0.54
  -3   2   9    2.83    0.88
  -3   2   9    1.78    1.14
  -3   2   9    1.06    0.86
   2  -2  -9   -0.26    0.35
   2  -2  -9    0.26    0.48
   2  -2  -9   -0.13    0.38
   2  -2  -9    0.68    0.25
  -2   2   9   -0.45    0.61
  -2   2   9   -0.31    0.65
  -2   2   9    0.39    0.94
   1  -2  -9    4.49    0.57
   1  -2  -9    3.93    0.68
   1  -2  -9    4.48    0.73
  -1   2   9    3.67    0.99
  -1   2   9    3.35    0.70
  -1   2   9    3.60    0.91
   0  -2  -9    1.56    0.64
   0  -2  -9    1.38    0.34
   0   2   9    1.30    0.47
   0   2   9    2.22    0.81
  -1  -2  -9    0.35    0.39
  -1  -2  -9    2.36    0.69
  -1  -2  -9    0.22    0.61
   1   2   9    0.29    0.54
   1   2   9    0.43    0.61
   1   2   9    0.45    0.66
   1   2   9    0.52    0.40
  -2  -2  -9    4.27    0.81
  -2  -2  -9    4.44    0.84
  -2  -2  -9    3.04    0.60
   2   2   9    3.82    0.81
   2   2   9    4.28    0.76
   2   2   9    3.39    0.69
  -3  -2  -9   14.11    1.26
   3   2   9   14.02    1.15
   3   2   9   13.72    1.19
   3   2   9   11.24    1.17
   3   2   9   13.05    1.22
   3   2   9   11.92    1.37
   3   2   9   12.22    1.01
  -4  -2  -9    3.54    0.68
   4   2   9    2.61    0.62
   4   2   9    2.99    0.70
   4   2   9    1.81    0.57
   4   2   9    1.75    0.63
   4   2   9    3.75    0.56
   4   2   9    1.96    0.69
   5   2   9    0.44    0.31
   5  -3  -9    1.82    0.44
   5  -3  -9    2.12    0.40
   5  -3  -9    2.07    0.41
  -5   3   9    1.92    1.00
  -5   3   9    2.68    0.94
   4  -3  -9    2.70    0.55
   4  -3  -9    3.20    0.60
   4  -3  -9    1.80    0.56
   4  -3  -9    2.66    0.53
  -4   3   9    0.07    1.09
  -4   3   9    3.93    1.23
   3  -3  -9    0.61    0.46
  -3   3   9    0.67    1.11
   2  -3  -9    1.63    0.50
   2  -3  -9    1.81    0.60
   2  -3  -9    1.03    0.39
  -2   3   9    1.14    0.77
  -2   3   9    2.11    0.78
  -2   3   9    2.15    1.00
   1  -3  -9   30.05    1.61
   1  -3  -9   27.58    1.93
   1  -3  -9   23.98    2.03
  -1   3   9   32.83    1.89
  -1   3   9   29.11    2.05
  -1   3   9   26.94    2.11
   0  -3  -9    0.35    0.64
   0  -3  -9   -0.16    0.57
   0   3   9   -0.18    0.73
   0   3   9    0.06    0.45
   0   3   9    0.84    0.74
   0   3   9    1.02    0.60
  -1  -3  -9    0.27    0.68
  -1  -3  -9    0.86    0.43
  -1  -3  -9    1.83    0.72
   1   3   9    0.70    0.68
   1   3   9    1.94    0.72
   1   3   9    0.09    0.47
   1   3   9    0.27    0.67
  -2  -3  -9    0.51    0.55
  -2  -3  -9   -0.96    0.72
  -2  -3  -9    0.26    0.72
   2   3   9   -0.17    0.50
   2   3   9    0.26    0.54
   2   3   9    0.81    0.71
   2   3   9    0.14    0.68
  -3  -3  -9    1.36    0.72
   3   3   9    1.84    0.82
   3   3   9    2.03    0.56
   3   3   9    1.52    0.63
   3   3   9    2.58    0.78
   3   3   9    3.29    0.83
   3   3   9    1.66    0.63
  -4  -3  -9   11.45    0.93
   4   3   9   10.34    1.07
   4   3   9   10.79    1.00
   4   3   9   11.40    0.85
   4   3   9   11.23    0.99
   4   3   9    9.35    1.01
   4   3   9   10.68    1.09
  -5   4   9    0.02    0.72
   4  -4  -9    3.26    0.60
   4  -4  -9    2.89    0.54
   4  -4  -9    3.30    0.60
   4  -4  -9    3.81    0.55
  -4   4   9    3.95    1.17
  -4   4   9    2.34    1.12
   3  -4  -9   13.85    1.03
   3  -4  -9   11.95    1.06
   3  -4  -9   11.21    0.88
   3  -4  -9   11.99    1.20
  -3   4   9   13.01    1.74
  -3   4   9   10.73    1.45
   2  -4  -9    0.65    0.63
   2  -4  -9    0.19    0.47
  -2   4   9    0.25    0.73
  -2   4   9   -0.17    0.91
   1  -4  -9    9.83    0.88
   1  -4  -9    9.43    1.12
   1  -4  -9    7.40    1.13
  -1   4   9   10.42    1.07
  -1   4   9   11.22    1.33
   0  -4  -9    0.21    0.63
   0  -4  -9    0.79    0.65
   0   4   9   -1.48    0.70
   0   4   9    0.46    0.57
   0   4   9   -0.26    0.74
   0   4   9    0.61    0.57
  -1  -4  -9   11.05    0.88
  -1  -4  -9   10.18    1.40
   1   4   9   11.62    1.16
   1   4   9   10.91    1.29
   1   4   9   11.31    1.10
   1   4   9   11.30    0.97
   1   4   9   10.48    1.34
  -2  -4  -9   11.22    1.27
   2   4   9   12.18    1.39
   2   4   9   11.56    1.33
   2   4   9   12.21    1.28
   2   4   9   13.30    1.32
   2   4   9   13.48    1.40
   2   4   9   11.58    1.24
   2   4   9   13.01    1.10
   2   4   9   12.31    1.08
  -3  -4  -9    7.71    1.06
   3   4   9    8.84    1.23
   3   4   9    8.83    1.08
   3   4   9    9.21    1.19
   3   4   9    9.11    0.95
   3   4   9   10.19    0.93
   3   4   9    8.67    1.08
   4   4   9    5.11    0.73
   4   4   9    4.42    0.68
   4   4   9    3.82    0.61
   4   4   9    4.88    0.59
   5  -5  -9   -0.15    0.28
   5  -5  -9    0.23    0.26
  -5   5   9    0.10    0.54
   4  -5  -9   -0.03    0.38
   4  -5  -9    0.43    0.47
   4  -5  -9    0.51    0.46
  -4   5   9   -0.71    0.84
  -4   5   9   -0.51    0.80
   3  -5  -9    7.00    0.88
   3  -5  -9    7.30    0.97
  -3   5   9    9.29    1.37
  -3   5   9    7.54    1.20
   2  -5  -9    0.93    0.70
   2  -5  -9    1.24    0.63
   2  -5  -9    0.89    0.70
  -2   5   9    0.18    0.85
  -2   5   9    2.06    0.92
   1  -5  -9    6.54    1.13
   1  -5  -9    6.41    1.07
  -1   5   9   10.05    1.31
   0  -5  -9    5.73    1.00
   0   5   9    6.33    1.17
   0   5   9    6.62    0.80
   0   5   9    5.51    0.82
   1   5   9   -1.11    0.59
   1   5   9    0.47    0.71
   1   5   9    0.32    0.55
   1   5   9    0.42    0.78
   1   5   9    0.27    0.86
   1   5   9   -0.50    0.61
   1   5   9    0.67    0.52
   1   5   9    0.42    0.76
  -2  -5  -9    0.02    0.74
   2   5   9   -0.81    0.73
   2   5   9    0.41    0.66
   2   5   9    0.61    0.53
   2   5   9   -0.75    0.74
   2   5   9   -0.02    0.50
   2   5   9   -0.51    0.64
   2   5   9    1.06    0.71
   2   5   9   -0.24    0.73
  -3  -5  -9    4.39    0.73
   3   5   9    4.78    0.84
   3   5   9    3.76    0.62
   3   5   9    4.82    0.78
   3   5   9    3.46    0.74
   3   5   9    4.22    0.75
   3   5   9    3.83    0.59
   4  -6  -9    2.36    0.47
   4  -6  -9    2.03    0.47
  -4   6   9    1.22    0.69
   3  -6  -9    1.97    0.62
   3  -6  -9    1.95    0.61
   3  -6  -9    0.74    0.52
  -3   6   9    2.76    0.86
   2  -6  -9   -0.62    0.64
   2  -6  -9    0.40    0.58
   2  -6  -9   -0.64    0.62
  -2   6   9    0.06    0.74
  -2   6   9    0.66    0.80
   1  -6  -9    0.39    0.76
  -1   6   9    0.12    0.61
  -1   6   9    0.44    0.76
  -1   6   9    0.31    0.89
  -1   6   9    0.07    0.49
   0  -6  -9    9.46    1.21
   0   6   9    9.93    1.19
   0   6   9   10.08    1.39
   0   6   9    9.53    1.10
   0   6   9    9.12    1.27
   0   6   9   10.18    0.99
   0   6   9    9.90    1.10
   1   6   9   -0.22    0.82
   1   6   9    1.19    0.67
   1   6   9    0.26    0.51
   1   6   9    0.46    0.68
   1   6   9    0.77    0.77
   1   6   9    0.00    0.75
   1   6   9    0.30    0.60
   1   6   9    0.25    0.60
  -2  -6  -9    1.09    0.71
   2   6   9    0.12    0.49
   2   6   9   -0.06    0.58
   2   6   9    0.41    0.49
   2   6   9    1.08    0.73
   2   6   9    1.36    0.72
   2   6   9   -0.36    0.66
   3   6   9    0.07    0.44
   3   6   9    0.58    0.37
   3   6   9   -0.23    0.54
   4  -7  -9   -0.21    0.27
   4  -7  -9   -0.23    0.30
  -4   7   9    0.34    0.45
   3  -7  -9    5.12    0.72
   3  -7  -9    5.13    0.67
   3  -7  -9    4.54    0.61
  -3   7   9    5.31    0.77
   2  -7  -9    0.93    0.53
   2  -7  -9    1.62    0.61
   2  -7  -9   -0.04    0.54
  -2   7   9    0.40    0.65
   1  -7  -9    2.18    0.75
  -1   7   9    1.85    0.72
  -1   7   9    2.32    0.62
  -1   7   9    3.00    0.70
  -1   7   9    3.88    0.64
   0  -7  -9   -0.31    0.58
   0   7   9    0.01    0.53
   0   7   9    0.10    0.59
   0   7   9   -0.40    0.47
   0   7   9   -0.43    0.67
   0   7   9    0.06    0.80
   0   7   9   -0.42    0.64
   0   7   9    0.24    0.65
  -1  -7  -9    0.16    0.71
   1   7   9    0.09    0.64
   1   7   9    0.58    0.50
   1   7   9    1.03    0.70
   1   7   9    0.73    0.59
   1   7   9    0.58    0.50
   1   7   9    0.09    0.54
   1   7   9    0.45    0.74
  -2  -7  -9    1.29    0.49
   2   7   9    1.34    0.50
   2   7   9    0.78    0.41
   2   7   9    1.06    0.61
   3  -8  -9    0.13    0.30
   3  -8  -9    0.26    0.31
  -3   8   9    1.01    0.43
   2  -8  -9    2.93    0.46
   2  -8  -9    3.17    0.47
  -2   8   9    1.94    0.55
   1  -8  -9    5.25    0.77
  -1   8   9    7.26    0.89
  -1   8   9    4.84    0.70
   0   8   9    7.17    0.89
   1   8   9    0.42    0.40
   1   8   9    0.73    0.31
   1   8   9    1.15    0.52
   1   8   9    0.56    0.48
   1   8 -10    0.66    0.40
   1   8 -10    0.21    0.42
   1   8 -10    0.77    0.41
   0   8 -10    1.77    0.51
   0   8 -10    1.26    0.51
   0   8 -10    1.17    0.48
   0   8 -10    1.21    0.46
   0   8 -10    1.64    0.54
   0   8 -10    1.41    0.62
  -1   8 -10    2.04    0.53
  -1   8 -10    1.97    0.63
  -1   8 -10    2.91    0.57
  -1   8 -10    1.90    0.52
  -1   8 -10    3.21    0.57
  -1   8 -10    1.38    0.59
  -1   8 -10    1.53    0.50
  -2   8 -10   12.46    1.00
  -2   8 -10    9.55    0.87
  -2   8 -10   12.47    0.89
  -2   8 -10   11.47    0.92
   1   7 -10    4.53    0.74
   1   7 -10    4.11    0.65
   1   7 -10    4.08    0.64
   1   7 -10    4.53    0.75
   0   7 -10    2.48    0.63
   0   7 -10    3.67    0.64
   0   7 -10    3.92    0.68
   0   7 -10    4.45    0.70
   0   7 -10    2.69    0.62
   0   7 -10    2.52    0.76
   0  -7  10    4.19    0.71
  -1   7 -10    3.83    0.91
  -1   7 -10    3.99    0.77
  -1   7 -10    3.33    0.65
  -1   7 -10    2.96    0.65
  -1   7 -10    3.51    0.67
  -1   7 -10    2.85    0.62
  -1   7 -10    5.28    0.73
   1  -7  10    3.50    0.71
  -2   7 -10    1.21    0.73
  -2   7 -10    1.18    0.52
  -2   7 -10    0.57    0.62
  -2   7 -10    1.14    0.54
  -2   7 -10    0.89    0.53
  -2   7 -10    1.06    0.58
   2  -7  10    1.17    0.56
  -3   7 -10    0.82    0.48
  -3   7 -10    0.50    0.58
   3  -7  10    0.16    0.42
   1   6 -10    6.30    0.78
   1   6 -10    6.33    0.89
   1   6 -10    5.34    0.76
   1   6 -10    5.97    0.83
   1   6 -10    6.26    0.81
   0   6 -10    4.21    0.73
   0   6 -10    5.35    0.92
   0   6 -10    4.55    0.68
   0   6 -10    5.14    0.79
   0   6 -10    4.95    0.72
   0   6 -10    3.82    0.72
   0   6 -10    5.05    0.74
  -1   6 -10    0.72    0.59
  -1   6 -10    1.98    0.66
  -1   6 -10    1.89    0.88
  -1   6 -10    1.87    0.74
  -1   6 -10    1.07    0.52
  -1   6 -10    2.15    0.67
  -1   6 -10    3.08    0.69
   1  -6  10   -0.09    0.59
  -2   6 -10   13.72    1.11
  -2   6 -10   11.29    1.16
  -2   6 -10   11.72    1.16
  -2   6 -10   12.97    1.13
  -2   6 -10   13.83    1.23
  -2   6 -10   12.63    1.37
   2  -6  10   12.74    1.20
   2  -6  10   11.87    1.16
  -3   6 -10    1.08    0.58
  -3   6 -10    1.88    0.74
  -3   6 -10    1.10    0.54
   3  -6  10    1.24    0.54
   3  -6  10    2.02    0.58
  -4   6 -10    0.09    0.44
   4  -6  10    0.71    0.37
   2   5 -10   28.68    1.74
   2   5 -10   29.18    1.66
   2   5 -10   29.55    1.79
   1   5 -10   25.42    1.66
   1   5 -10   25.68    1.73
   1   5 -10   27.59    1.84
   1   5 -10   26.01    1.53
   1   5 -10   29.40    1.70
   0   5 -10    3.07    0.59
   0   5 -10    1.05    0.58
   0   5 -10    0.64    0.57
  -1   5 -10    6.20    0.84
  -1   5 -10    4.63    0.80
  -1   5 -10    4.19    0.71
  -1   5 -10    3.87    0.68
  -1   5 -10    4.80    0.90
  -1   5 -10    3.81    0.72
  -1   5 -10    4.34    0.77
  -2   5 -10    1.45    0.86
  -2   5 -10    0.50    0.67
  -2   5 -10    0.95    0.69
  -2   5 -10    0.39    0.66
  -2   5 -10    0.84    0.59
  -2   5 -10    1.00    0.70
   2  -5  10    0.34    0.58
   2  -5  10   -0.21    0.66
  -3   5 -10   -0.29    0.71
  -3   5 -10    0.28    0.55
  -3   5 -10    1.97    0.70
   3  -5  10    0.46    0.64
   3  -5  10    1.59    0.63
   3  -5  10    1.14    0.45
  -4   5 -10    1.19    0.52
  -4   5 -10    2.42    0.60
   4  -5  10    1.57    0.39
   4  -5  10    1.34    0.50
   4   4 -10    4.97    0.53
   3   4 -10   10.72    1.05
   3   4 -10    5.80    0.67
   3   4 -10    9.65    0.82
   2   4 -10    2.73    0.68
   2   4 -10    2.26    0.59
   2   4 -10    3.03    0.69
   2   4 -10    2.67    0.72
   2   4 -10    3.07    0.76
   2   4 -10    4.86    0.62
   1   4 -10    0.12    0.43
   1   4 -10    0.37    0.49
   1   4 -10    0.39    0.44
   1   4 -10   -0.34    0.45
  -1  -4  10    0.37    0.52
   0   4 -10   28.79    1.54
   0   4 -10   27.56    1.99
   0   4 -10   25.67    1.75
   0   4 -10   29.92    1.63
   0  -4  10   25.67    1.43
   0  -4  10   26.58    1.62
  -1   4 -10    0.19    0.39
  -1   4 -10    0.15    0.48
  -1   4 -10    0.26    0.50
  -1   4 -10   -0.20    0.45
  -1   4 -10    0.46    0.63
   1  -4  10   -0.50    0.38
   1  -4  10   -0.15    0.38
  -2   4 -10    4.28    0.77
   2  -4  10    3.11    0.69
  -3   4 -10    1.37    0.78
  -3   4 -10    1.51    0.73
  -3   4 -10    2.16    0.65
   3  -4  10    0.99    0.50
   3  -4  10    1.38    0.65
   3  -4  10    2.00    0.74
  -4   4 -10    0.09    0.57
  -4   4 -10    0.39    0.57
   4  -4  10    1.06    0.41
   4  -4  10   -0.33    0.53
   5   3 -10    2.46    0.39
   5   3 -10    2.02    0.29
   4   3 -10    1.39    0.52
   4   3 -10    0.89    0.35
   4   3 -10    1.13    0.47
   4   3 -10    0.83    0.36
   3   3 -10    3.70    0.68
   3   3 -10    3.01    0.54
   3   3 -10    2.48    0.50
   3   3 -10    2.74    0.65
   3   3 -10    3.55    0.63
   2   3 -10    1.63    0.53
   2   3 -10    0.95    0.53
   2   3 -10    1.83    0.60
   2   3 -10    1.81    0.45
  -2  -3  10    2.39    0.63
   1   3 -10    2.03    0.48
   1   3 -10    2.27    0.46
   1   3 -10    2.34    0.60
   1   3 -10    3.30    0.64
   1   3 -10    3.04    0.54
  -1  -3  10    3.31    0.55
   0   3 -10    5.65    0.76
   0   3 -10    5.38    0.77
   0   3 -10    5.14    0.69
   0   3 -10    4.94    0.60
   0   3 -10    5.24    0.60
   0   3 -10    5.06    0.78
   0  -3  10    4.95    0.63
  -1   3 -10    0.54    0.47
  -1   3 -10    0.68    0.47
  -1   3 -10    2.81    0.67
  -1   3 -10    1.01    0.38
  -1   3 -10    0.77    0.47
   1  -3  10    1.10    0.50
   1  -3  10    0.68    0.37
   1  -3  10    1.03    0.41
  -2   3 -10    3.59    0.60
  -2   3 -10    2.03    0.62
  -2   3 -10    4.57    0.81
   2  -3  10    3.43    0.69
   2  -3  10    3.07    0.54
   2  -3  10    3.84    0.60
  -3   3 -10    1.45    0.81
  -3   3 -10    1.52    0.68
   3  -3  10    3.23    0.83
   3  -3  10    1.64    0.54
   3  -3  10    1.76    0.48
  -4   3 -10    3.93    0.76
  -4   3 -10    4.29    0.77
   4  -3  10    4.67    0.63
   4  -3  10    4.91    0.76
   4  -3  10    4.85    0.62
  -5   3 -10    0.35    0.37
   5  -3  10    0.17    0.25
   5  -3  10   -0.13    0.35
   5   2 -10    1.15    0.29
   5   2 -10    1.24    0.39
   5   2 -10    0.66    0.30
   5   2 -10    1.32    0.37
   4   2 -10    2.23    0.65
   4   2 -10    2.24    0.56
   4   2 -10    2.11    0.44
   4   2 -10    2.26    0.50
   4   2 -10    2.78    0.55
   4   2 -10    2.14    0.58
   4   2 -10    2.10    0.45
   3   2 -10    4.90    0.70
   3   2 -10    5.33    0.69
   3   2 -10    4.49    0.62
   3   2 -10    4.58    0.66
   3   2 -10    5.34    0.80
   3   2 -10    3.27    0.55
   2   2 -10    1.96    0.60
   2   2 -10    2.36    0.47
   2   2 -10    2.23    0.44
   2   2 -10    1.47    0.52
  -2  -2  10    2.21    0.58
  -2  -2  10    2.34    0.77
   1   2 -10    2.05    0.45
   1   2 -10    1.70    0.40
   1   2 -10    1.40    0.53
   1   2 -10    1.40    0.54
   1   2 -10    1.87    0.45
  -1  -2  10    1.28    0.48
  -1  -2  10    0.55    0.71
   0   2 -10   19.22    1.48
   0   2 -10   17.71    1.28
   0   2 -10   16.87    1.09
   0   2 -10   17.20    1.10
   0   2 -10   17.90    1.08
   0  -2  10   17.79    1.48
   0  -2  10   17.34    1.02
  -1   2 -10   29.86    2.08
  -1   2 -10   26.75    1.68
  -1   2 -10   30.49    1.82
  -1   2 -10   28.54    1.54
  -1   2 -10   30.35    1.41
   1  -2  10   28.71    1.70
   1  -2  10   29.69    1.44
   1  -2  10   28.98    1.58
  -2   2 -10   23.38    1.52
  -2   2 -10   23.96    1.82
  -2   2 -10   24.29    1.31
   2  -2  10   23.36    1.29
   2  -2  10   27.05    1.51
  -3   2 -10   42.89    2.31
  -3   2 -10   40.77    2.49
   3  -2  10   45.13    2.32
   3  -2  10   44.59    2.23
   3  -2  10   46.58    2.42
  -4   2 -10    4.39    0.79
   4  -2  10    4.21    0.62
   4  -2  10    5.15    0.82
   4  -2  10    3.91    0.62
  -5   2 -10    1.37    0.47
   5  -2  10    0.78    0.40
   5  -2  10    0.86    0.31
   5   1 -10    4.52    0.64
   5   1 -10    4.07    0.47
   5   1 -10    3.28    0.45
   5   1 -10    5.17    0.60
   5   1 -10    5.16    0.53
  -5  -1  10    3.40    1.01
   4   1 -10    2.10    0.65
   4   1 -10    1.34    0.45
   4   1 -10    1.26    0.43
   4   1 -10    0.95    0.52
   4   1 -10    2.07    0.51
   4   1 -10    1.47    0.49
   4   1 -10    0.68    0.48
   3   1 -10    0.10    0.40
   3   1 -10    1.10    0.42
   3   1 -10    0.25    0.57
   3   1 -10   -0.78    0.49
   3   1 -10   -0.18    0.36
   2   1 -10    0.84    0.35
   2   1 -10   -0.14    0.48
   2   1 -10    0.30    0.36
   2   1 -10    0.90    0.59
   2   1 -10    0.46    0.44
   2   1 -10    0.30    0.30
  -2  -1  10    0.58    0.66
   1   1 -10   36.39    1.89
   1   1 -10   36.73    1.80
   1   1 -10   35.73    2.51
   1   1 -10   38.42    2.30
   1   1 -10   40.11    2.00
  -1  -1  10   40.26    1.75
   0   1 -10   32.62    1.67
   0   1 -10   29.24    2.19
   0  -1  10   31.77    1.46
   0  -1  10   30.41    2.24
  -1   1 -10    2.77    0.68
  -1   1 -10    4.18    0.67
  -1   1 -10    2.94    0.42
   1  -1  10    3.97    0.73
   1  -1  10    3.82    0.64
   1  -1  10    3.01    0.51
  -2   1 -10    2.50    0.64
  -2   1 -10    3.45    0.71
  -2   1 -10    4.05    0.58
   2  -1  10    4.75    0.67
   2  -1  10    2.87    0.64
   2  -1  10    2.53    0.52
  -3   1 -10    4.61    0.79
  -3   1 -10    6.58    0.90
   3  -1  10    7.59    1.00
   3  -1  10    6.36    0.78
   3  -1  10    5.98    0.82
  -4   1 -10   35.08    2.06
  -4   1 -10   36.63    1.95
   4  -1  10   33.06    1.96
   4  -1  10   33.67    1.83
   4  -1  10   34.67    1.92
  -5   1 -10    1.03    0.46
   5  -1  10    0.93    0.32
   5   0 -10    0.46    0.41
   5   0 -10    0.65    0.29
   5   0 -10    0.18    0.35
   5   0 -10    0.38    0.41
   5   0 -10    1.01    0.44
   5   0 -10    0.27    0.37
   5   0 -10    0.52    0.29
  -5   0  10    1.25    0.92
   4   0 -10   -0.16    0.44
   4   0 -10    0.78    0.45
   4   0 -10    0.05    0.42
   4   0 -10    0.49    0.52
   4   0 -10    0.20    0.35
   4   0 -10    0.53    0.61
   4   0 -10    0.45    0.37
   3   0 -10    9.48    0.71
   3   0 -10    9.97    0.85
   3   0 -10   10.45    1.03
   3   0 -10   10.71    0.86
   3   0 -10   10.61    0.96
   3   0 -10   12.08    0.86
   2   0 -10  189.82    8.22
   2   0 -10  193.73    7.38
   2   0 -10  190.96    8.59
   2   0 -10  196.12   10.17
  -2   0  10  196.83    9.86
   1   0 -10    0.23    0.50
   1   0 -10   -0.92    0.44
   1   0 -10   -0.25    0.32
   1   0 -10    0.13    0.30
  -1   0  10   -0.19    0.68
  -1   0  10    0.17    0.37
   0   0 -10    3.27    0.46
   0   0 -10    3.63    0.72
   0   0  10    2.93    0.84
   0   0  10    3.39    0.47
  -1   0 -10    0.36    0.31
  -1   0 -10    0.47    0.52
  -1   0 -10    0.76    0.53
   1   0  10    1.54    0.54
   1   0  10    0.44    0.61
   1   0  10    0.82    0.40
  -2   0 -10    0.46    0.52
  -2   0 -10    0.37    0.53
  -2   0 -10    0.13    0.37
   2   0  10    0.24    0.55
   2   0  10    0.31    0.40
   2   0  10    0.23    0.48
  -3   0 -10   10.49    1.05
   3   0  10   11.50    1.08
   3   0  10    9.45    1.01
   3   0  10   11.13    0.99
   3   0  10   11.64    1.27
  -4   0 -10    1.30    0.63
  -4   0 -10    0.87    0.61
   4   0  10   -0.26    0.44
   4   0  10    0.66    0.48
   4   0  10    0.44    0.46
  -5   0 -10   -0.01    0.40
   5  -1 -10    4.07    0.51
   5  -1 -10    3.58    0.52
   5  -1 -10    3.07    0.53
   5  -1 -10    4.79    0.58
   5  -1 -10    4.32    0.55
   5  -1 -10    4.02    0.46
  -5   1  10    2.30    0.98
  -5   1  10    2.46    0.96
   4  -1 -10    0.67    0.60
   4  -1 -10    0.67    0.38
   4  -1 -10    2.16    0.50
   4  -1 -10    2.29    0.65
   4  -1 -10    0.86    0.51
   4  -1 -10    0.78    0.51
   4  -1 -10    1.49    0.47
   4  -1 -10    1.52    0.42
   4  -1 -10    1.30    0.62
  -4   1  10    2.11    1.19
   3  -1 -10    0.78    0.37
   3  -1 -10    0.77    0.39
   3  -1 -10    0.98    0.35
   3  -1 -10    0.63    0.42
   3  -1 -10    0.01    0.40
  -3   1  10    0.52    1.12
  -3   1  10    0.74    0.80
   2  -1 -10   12.79    0.90
   2  -1 -10   15.04    1.17
   2  -1 -10   13.10    0.90
   2  -1 -10   14.11    0.73
   2  -1 -10   13.56    0.86
  -2   1  10   10.32    1.55
  -2   1  10   10.22    1.34
   1  -1 -10   12.00    1.07
   1  -1 -10   12.11    0.98
   1  -1 -10   11.34    0.78
  -1   1  10    8.00    1.25
  -1   1  10    9.89    0.71
   0  -1 -10   41.52    2.08
   0  -1 -10   42.60    2.76
   0   1  10   40.71    2.81
   0   1  10   42.51    1.80
  -1  -1 -10   34.69    2.39
  -1  -1 -10   34.60    1.84
  -1  -1 -10   35.37    1.60
   1   1  10   35.58    1.93
   1   1  10   32.94    2.07
   1   1  10   34.84    2.40
  -2  -1 -10    3.13    0.55
  -2  -1 -10    3.78    0.70
  -2  -1 -10    2.14    0.70
   2   1  10    3.41    0.67
   2   1  10    2.59    0.75
   2   1  10    3.33    0.66
  -3  -1 -10   -0.44    0.58
   3   1  10   -0.22    0.76
   3   1  10   -0.05    0.49
   3   1  10   -0.43    0.53
  -4  -1 -10    1.75    0.60
   4   1  10    0.79    0.53
   4   1  10    1.47    0.68
   4   1  10    0.58    0.49
  -5  -1 -10    0.54    0.39
   5   1  10    0.00    0.31
   5  -2 -10    0.89    0.41
   5  -2 -10    0.95    0.41
   5  -2 -10    0.88    0.39
   5  -2 -10    0.35    0.33
   5  -2 -10    0.85    0.29
  -5   2  10   -0.91    0.86
  -5   2  10    0.41    0.88
   4  -2 -10    7.26    0.73
   4  -2 -10    5.62    0.74
   4  -2 -10    6.56    0.77
   4  -2 -10    5.54    0.79
   4  -2 -10    6.14    0.82
   4  -2 -10    6.50    0.65
   4  -2 -10    6.04    0.83
  -4   2  10    4.29    1.28
  -4   2  10    5.95    1.24
   3  -2 -10   11.14    0.81
   3  -2 -10    9.86    0.83
  -3   2  10    6.83    1.39
  -3   2  10   10.14    1.24
   2  -2 -10    3.29    0.52
   2  -2 -10    3.21    0.61
   2  -2 -10    3.01    0.47
  -2   2  10    1.89    1.06
  -2   2  10    1.27    0.80
  -2   2  10    2.71    0.75
   1  -2 -10  111.67    5.19
   1  -2 -10  113.80    5.89
  -1   2  10  107.64    5.79
  -1   2  10  103.39    6.49
  -1   2  10  110.17    5.65
   0  -2 -10  112.96    6.01
   0  -2 -10  109.85    6.75
   0   2  10  112.76    6.65
   0   2  10  115.48    5.73
   0   2  10  110.80    5.83
  -1  -2 -10    5.07    0.59
  -1  -2 -10    5.58    0.80
  -1  -2 -10    5.61    0.87
   1   2  10    5.29    0.75
   1   2  10    5.93    0.93
   1   2  10    5.71    0.97
  -2  -2 -10    5.65    0.83
  -2  -2 -10    4.35    0.66
  -2  -2 -10    5.92    0.96
   2   2  10    5.29    0.83
   2   2  10    4.76    0.82
   2   2  10    4.03    0.85
  -3  -2 -10   21.78    1.46
   3   2  10   21.43    1.53
   3   2  10   19.44    1.24
   3   2  10   17.95    1.56
   3   2  10   19.32    1.45
   3   2  10   20.27    1.49
   3   2  10   18.46    1.39
  -4  -2 -10    1.58    0.57
   4   2  10    0.62    0.52
   4   2  10    0.17    0.43
   4   2  10    0.69    0.61
   5  -3 -10   -0.47    0.28
   5  -3 -10   -0.11    0.31
   5  -3 -10    0.12    0.34
  -5   3  10   -0.38    0.79
   4  -3 -10    9.13    0.86
   4  -3 -10    7.55    0.86
   4  -3 -10    9.66    0.86
   4  -3 -10    8.05    0.78
  -4   3  10    7.20    1.31
  -4   3  10    5.67    1.36
   3  -3 -10   -0.32    0.50
   3  -3 -10   -0.74    0.55
   3  -3 -10    0.24    0.44
   3  -3 -10    0.50    0.41
  -3   3  10   -1.57    1.02
  -3   3  10    1.42    1.17
   2  -3 -10   41.88    2.42
   2  -3 -10   37.37    1.84
   2  -3 -10   39.20    2.12
  -2   3  10   34.98    2.70
  -2   3  10   40.86    2.65
  -2   3  10   35.47    2.41
   1  -3 -10   75.40    4.17
   1  -3 -10   68.04    4.60
   1  -3 -10   76.22    3.64
  -1   3  10   71.65    4.10
  -1   3  10   77.43    4.02
   0  -3 -10   35.83    2.21
   0  -3 -10   31.32    1.91
   0  -3 -10   34.40    2.54
   0   3  10   35.51    2.54
   0   3  10   34.14    2.22
   0   3  10   37.19    2.11
  -1  -3 -10   -0.12    0.65
  -1  -3 -10    0.37    0.70
   1   3  10    1.83    0.57
   1   3  10   -0.13    0.70
   1   3  10    0.10    0.68
  -2  -3 -10   75.21    3.70
   2   3  10   71.19    3.84
   2   3  10   76.27    3.46
   2   3  10   76.74    3.99
   2   3  10   79.10    4.14
  -3  -3 -10    2.26    0.70
   3   3  10    1.61    0.66
   3   3  10    1.49    0.78
   3   3  10    1.34    0.73
   3   3  10    1.50    0.52
   3   3  10    2.19    0.64
   4   3  10   -0.49    0.49
   4   3  10   -0.75    0.40
   4   3  10    0.25    0.50
   4   3  10   -0.08    0.37
   5  -4 -10    4.79    0.50
  -5   4  10    3.74    0.75
   4  -4 -10   -0.09    0.46
   4  -4 -10    0.69    0.39
   4  -4 -10    0.15    0.46
  -4   4  10   -0.06    0.99
  -4   4  10    0.89    0.97
   3  -4 -10    0.42    0.42
   3  -4 -10   -0.30    0.58
   3  -4 -10    0.87    0.53
   3  -4 -10    0.65    0.41
  -3   4  10    0.45    1.01
  -3   4  10    0.17    1.02
   2  -4 -10    4.20    0.83
  -2   4  10    3.81    1.10
   1  -4 -10   41.74    2.69
   1  -4 -10   47.43    2.35
   1  -4 -10   37.74    2.98
  -1   4  10   43.85    2.61
  -1   4  10   46.11    2.76
   0  -4 -10    0.61    0.72
   0  -4 -10    0.79    0.66
   0   4  10    0.84    0.70
   0   4  10    0.50    0.85
   0   4  10    0.56    0.60
   0   4  10    0.04    0.78
  -1  -4 -10    1.54    0.81
   1   4  10    0.25    0.79
  -2  -4 -10    0.18    0.66
  -2  -4 -10    0.81    0.77
   2   4  10   -0.19    0.64
   2   4  10    0.51    0.51
   2   4  10   -0.71    0.72
   2   4  10    0.93    0.72
   2   4  10    0.95    0.78
   2   4  10    0.67    0.54
   2   4  10   -0.40    0.74
  -3  -4 -10    0.19    0.60
   3   4  10    0.24    0.64
   3   4  10    0.65    0.74
   3   4  10    0.21    0.61
   3   4  10    0.78    0.48
   3   4  10    0.98    0.62
   3   4  10    0.86    0.51
   4   4  10    5.92    0.57
   4   4  10    6.74    0.70
   4   4  10    6.69    0.69
   4  -5 -10    8.00    0.78
   4  -5 -10   10.40    0.84
   4  -5 -10    9.02    0.73
  -4   5  10   10.82    1.21
  -4   5  10    8.32    1.25
   3  -5 -10    2.53    0.64
   3  -5 -10    2.47    0.65
   3  -5 -10    2.67    0.63
  -3   5  10    1.68    0.96
  -3   5  10    3.28    0.95
   2  -5 -10    8.15    1.12
   2  -5 -10    8.72    0.95
   2  -5 -10   11.29    1.22
  -2   5  10   11.30    1.41
  -2   5  10    9.43    1.36
   1  -5 -10    0.93    0.72
  -1   5  10    0.78    0.83
  -1   5  10    2.08    0.91
  -1   5  10    1.15    0.70
   0  -5 -10    0.26    0.62
   0   5  10    1.34    0.82
   0   5  10    0.12    0.62
   0   5  10   -0.16    0.84
   0   5  10    0.55    0.68
  -1  -5 -10   -0.35    0.79
   1   5  10   -0.33    0.76
   1   5  10   -0.36    0.60
   1   5  10    0.32    0.83
   1   5  10    0.00    0.50
   1   5  10    0.15    0.76
  -2  -5 -10    2.05    0.67
  -2  -5 -10    1.94    0.75
   2   5  10    2.54    0.80
   2   5  10    3.27    0.85
   2   5  10    0.65    0.69
   2   5  10    1.24    0.78
   2   5  10    1.27    0.56
   2   5  10    1.52    0.67
   2   5  10    1.33    0.54
  -3  -5 -10    6.89    0.83
   3   5  10    8.39    0.93
   3   5  10    8.09    0.90
   3   5  10    8.55    0.77
   3   5  10    7.45    0.88
   3   5  10    8.08    1.01
   4  -6 -10   -0.34    0.34
   4  -6 -10    0.62    0.39
  -4   6  10   -0.51    0.56
   3  -6 -10    2.10    0.59
   3  -6 -10    1.97    0.54
   3  -6 -10    1.67    0.57
  -3   6  10    1.26    0.75
  -3   6  10    1.48    0.77
   2  -6 -10   32.99    2.13
   2  -6 -10   31.44    1.75
   2  -6 -10   30.43    1.78
  -2   6  10   30.97    2.10
  -2   6  10   29.61    2.00
   1  -6 -10    9.59    1.24
  -1   6  10   10.20    1.25
  -1   6  10    9.80    1.13
  -1   6  10   10.45    1.29
   0  -6 -10    2.45    0.74
   0   6  10    1.13    0.74
   0   6  10    1.79    0.70
   0   6  10    4.21    0.86
   0   6  10    2.04    0.92
   0   6  10    0.92    0.59
  -1  -6 -10    1.99    0.80
   1   6  10    0.63    0.72
   1   6  10    1.79    0.59
   1   6  10    1.18    0.66
   1   6  10    3.25    0.90
   1   6  10    1.60    0.68
   1   6  10    2.28    0.80
   1   6  10    1.60    0.58
  -2  -6 -10    3.29    0.67
  -2  -6 -10    3.66    0.74
   2   6  10    3.57    0.60
   2   6  10    4.66    0.63
   2   6  10    4.80    0.82
   2   6  10    3.69    0.79
   2   6  10    4.10    0.69
   3   6  10    4.21    0.59
   3   6  10    5.06    0.51
   3   6  10    4.98    0.69
   3  -7 -10    0.20    0.42
   3  -7 -10    0.12    0.42
  -3   7  10    0.22    0.56
   2  -7 -10    1.58    0.56
   2  -7 -10    0.99    0.49
   2  -7 -10    0.26    0.51
  -2   7  10    1.13    0.65
   1  -7 -10   -0.54    0.51
  -1   7  10    0.27    0.64
  -1   7  10    0.03    0.57
  -1   7  10    0.26    0.48
  -1   7  10    0.83    0.76
   0  -7 -10    0.63    0.54
   0   7  10    0.09    0.46
   0   7  10   -0.06    0.59
   0   7  10    1.14    0.74
   0   7  10    0.59    0.64
  -1  -7 -10   -0.16    0.64
   1   7  10   -0.26    0.53
   1   7  10    0.68    0.68
   1   7  10   -0.25    0.39
   1   7  10    1.25    0.65
   1   7  10    0.33    0.61
  -2  -7 -10    0.28    0.40
   2   7  10    0.25    0.40
   2   7  10    0.36    0.53
   2   7  10    0.40    0.33
  -2   8  10   -0.01    0.44
  -1   8  10    0.05    0.48
   0   8  10   10.52    0.90
   0   8  10   10.34    0.95
  -1  -8 -10    0.57    0.37
   1   8  10    0.31    0.25
   1   8  10    0.21    0.43
   1   8 -11   -0.51    0.37
   1   8 -11    0.33    0.40
   1   8 -11    0.40    0.38
   0   8 -11    0.63    0.46
   0   8 -11    0.85    0.49
   0   8 -11   -0.09    0.43
   0   8 -11    0.26    0.54
  -1   8 -11    1.84    0.49
  -1   8 -11    1.34    0.47
  -1   8 -11    2.27    0.52
  -1   8 -11    2.18    0.60
  -2   8 -11   -0.06    0.33
  -2   8 -11    0.32    0.42
  -2   8 -11    0.10    0.36
  -2   8 -11   -0.34    0.37
  -2   8 -11    0.75    0.44
   1   7 -11   -0.68    0.46
   1   7 -11   -0.08    0.44
   1   7 -11    0.00    0.57
   1   7 -11    0.25    0.53
   0   7 -11    3.58    0.73
   0   7 -11    6.02    0.78
   0   7 -11    4.99    0.79
   0   7 -11    5.94    0.74
   0   7 -11    4.77    0.85
   0   7 -11    4.85    0.72
   0  -7  11    4.99    0.76
  -1   7 -11   -0.34    0.50
  -1   7 -11   -1.18    0.55
  -1   7 -11   -0.11    0.55
  -1   7 -11    0.40    0.44
  -1   7 -11    0.13    0.50
  -1   7 -11    0.13    0.55
  -1   7 -11   -0.48    0.53
   1  -7  11   -0.37    0.55
  -2   7 -11    0.31    0.47
  -2   7 -11   -1.04    0.55
  -2   7 -11   -1.05    0.58
  -2   7 -11    0.24    0.53
  -2   7 -11   -0.08    0.52
  -2   7 -11   -0.22    0.48
   2  -7  11    0.48    0.53
  -3   7 -11    2.77    0.53
  -3   7 -11    3.98    0.59
   2   6 -11    2.44    0.56
   2   6 -11    4.01    0.61
   1   6 -11   16.95    1.40
   1   6 -11   17.07    1.39
   1   6 -11   17.08    1.21
   1   6 -11   17.47    1.33
   1   6 -11   16.45    1.36
   0   6 -11    7.15    0.82
   0   6 -11    5.64    0.88
   0   6 -11    5.85    0.80
   0   6 -11    5.34    0.95
   0   6 -11    5.40    0.84
   0   6 -11    5.17    0.78
   0   6 -11    6.61    0.81
  -1   6 -11    2.42    0.65
  -1   6 -11    2.40    0.67
  -1   6 -11    2.42    0.70
  -1   6 -11    1.26    0.72
  -1   6 -11    2.72    0.69
  -1   6 -11    2.85    0.72
  -1   6 -11    2.67    0.63
   1  -6  11    2.22    0.71
  -2   6 -11   14.53    1.12
  -2   6 -11   12.57    1.08
  -2   6 -11   11.44    1.15
  -2   6 -11   12.39    1.12
  -2   6 -11   13.74    1.25
  -2   6 -11   14.22    1.36
   2  -6  11   10.95    1.12
   2  -6  11   11.82    1.19
  -3   6 -11   -0.67    0.46
  -3   6 -11   -0.52    0.60
  -3   6 -11    0.62    0.55
   3  -6  11    0.10    0.50
   3  -6  11   -0.47    0.46
  -4   6 -11    1.05    0.37
  -4   6 -11   -0.49    0.35
   4  -6  11    0.69    0.34
   2   5 -11    3.20    0.72
   2   5 -11    1.63    0.61
   2   5 -11    2.52    0.67
   2   5 -11    3.28    0.73
   1   5 -11    1.48    0.64
   1   5 -11    1.45    0.55
   1   5 -11    0.74    0.64
   1   5 -11    4.15    0.77
   1   5 -11    1.91    0.68
   1   5 -11    2.90    0.70
   0   5 -11    8.58    1.08
   0   5 -11    8.56    0.94
   0   5 -11    7.35    0.99
   0   5 -11    7.22    0.97
   0   5 -11    9.13    1.10
   0   5 -11    7.85    0.89
   0   5 -11    8.21    1.02
   0   5 -11    7.73    0.89
  -1   5 -11    0.68    0.56
  -1   5 -11    0.57    0.78
  -1   5 -11    0.34    0.52
  -1   5 -11    1.65    0.71
  -1   5 -11    1.13    0.70
  -1   5 -11    0.48    0.59
  -1   5 -11    0.58    0.65
  -1   5 -11    1.34    0.65
  -2   5 -11   -0.32    0.56
  -2   5 -11    0.20    0.70
  -2   5 -11    0.48    0.66
  -2   5 -11    0.55    0.76
   2  -5  11   -0.18    0.67
   2  -5  11   -0.01    0.58
  -3   5 -11    4.16    0.81
  -3   5 -11    4.82    0.80
  -3   5 -11    4.20    0.72
   3  -5  11    4.01    0.70
   3  -5  11    5.50    0.78
   3  -5  11    3.91    0.57
  -4   5 -11   -0.68    0.41
  -4   5 -11    0.10    0.49
   4  -5  11    0.79    0.33
   4  -5  11    0.19    0.44
   4   4 -11    1.93    0.35
   3   4 -11    0.85    0.56
   3   4 -11    0.13    0.40
   3   4 -11    0.16    0.37
   3   4 -11    0.88    0.59
   2   4 -11    6.20    0.84
   2   4 -11    6.21    0.82
   2   4 -11    7.62    0.94
   2   4 -11    5.66    0.85
   2   4 -11    8.03    0.83
   2   4 -11    7.06    0.96
   1   4 -11    1.95    0.63
   1   4 -11    1.46    0.52
   1   4 -11    1.42    0.64
   1   4 -11    0.38    0.49
   1   4 -11    1.39    0.49
  -1  -4  11    1.03    0.60
   0   4 -11   37.02    2.64
   0   4 -11   36.97    2.35
   0   4 -11   39.91    2.10
   0   4 -11   39.35    1.97
   0  -4  11   35.57    1.87
   0  -4  11   38.01    2.14
  -1   4 -11    4.43    0.70
  -1   4 -11    4.41    0.83
  -1   4 -11    5.07    0.81
  -1   4 -11    4.39    0.82
   1  -4  11    4.61    0.67
   1  -4  11    4.24    0.66
  -2   4 -11   46.23    2.46
  -2   4 -11   46.46    2.58
  -2   4 -11   45.75    2.62
  -2   4 -11   44.76    2.53
  -2   4 -11   45.61    2.46
   2  -4  11   48.19    2.41
  -3   4 -11    9.92    1.19
  -3   4 -11   11.53    1.07
  -3   4 -11   14.07    1.28
   3  -4  11    9.25    1.20
   3  -4  11   10.13    1.11
   3  -4  11   12.82    0.98
  -4   4 -11    6.12    0.84
  -4   4 -11    4.91    0.73
   4  -4  11    5.19    0.70
   4  -4  11    5.62    0.65
   4   3 -11    0.80    0.44
   4   3 -11    0.47    0.33
   4   3 -11    0.77    0.35
   4   3 -11    0.98    0.48
   3   3 -11   29.16    1.64
   3   3 -11   27.17    1.60
   3   3 -11   27.97    1.73
   3   3 -11   27.93    1.62
   3   3 -11   29.24    1.52
   2   3 -11    9.10    0.87
   2   3 -11   10.81    0.88
   2   3 -11   11.32    1.09
   2   3 -11    9.98    0.90
   1   3 -11   42.22    2.93
   1   3 -11   42.53    2.35
   1   3 -11   45.52    2.22
   1   3 -11   43.17    2.14
   1   3 -11   44.77    2.64
  -1  -3  11   43.21    2.07
   0   3 -11    0.84    0.64
   0   3 -11    1.15    0.50
   0   3 -11    0.85    0.52
   0   3 -11    0.76    0.42
   0   3 -11    0.87    0.45
   0  -3  11    0.67    0.44
   0  -3  11    0.72    0.60
  -1   3 -11   19.13    1.37
  -1   3 -11   17.25    1.50
  -1   3 -11   19.53    1.40
  -1   3 -11   17.93    1.19
   1  -3  11   18.70    1.12
   1  -3  11   18.99    1.29
   1  -3  11   17.04    1.17
  -2   3 -11    1.77    0.76
  -2   3 -11    1.13    0.61
  -2   3 -11    0.74    0.45
   2  -3  11    2.20    0.54
   2  -3  11    2.03    0.66
  -3   3 -11    5.09    0.90
  -3   3 -11    5.81    0.86
  -3   3 -11    7.34    0.95
   3  -3  11    7.07    0.76
   3  -3  11    6.28    0.96
  -4   3 -11    5.53    0.78
  -4   3 -11    4.36    0.75
   4  -3  11    4.95    0.63
   4  -3  11    5.36    0.64
   4  -3  11    5.84    0.78
   5   2 -11    0.16    0.31
   5   2 -11    0.09    0.22
   5   2 -11    0.49    0.33
   5   2 -11    0.17    0.23
   4   2 -11    3.22    0.56
   4   2 -11    2.55    0.50
   4   2 -11    3.84    0.55
   4   2 -11    2.62    0.46
   4   2 -11    4.53    0.62
   4   2 -11    3.26    0.67
   4   2 -11    3.98    0.61
   3   2 -11   -0.85    0.45
   3   2 -11   -0.34    0.69
   3   2 -11    0.59    0.70
   3   2 -11   -0.16    0.45
   3   2 -11   -0.18    0.38
   3   2 -11   -0.11    0.35
   3   2 -11   -0.82    0.42
   2   2 -11   10.43    0.85
   2   2 -11   10.33    0.98
   2   2 -11    9.60    0.84
   2   2 -11   12.48    1.18
  -2  -2  11    8.61    1.35
  -2  -2  11   10.48    0.97
   1   2 -11   -0.61    0.37
   1   2 -11    0.18    0.31
   1   2 -11   -0.07    0.37
   1   2 -11    0.38    0.53
   1   2 -11    0.32    0.49
  -1  -2  11    0.56    0.42
  -1  -2  11    0.44    0.72
   0   2 -11   74.43    3.55
   0   2 -11   69.79    4.51
   0   2 -11   71.53    3.98
   0   2 -11   71.90    3.26
   0   2 -11   73.62    3.40
   0   2 -11   67.36    3.40
   0  -2  11   69.57    3.01
   0  -2  11   76.81    4.43
  -1   2 -11    0.24    0.45
  -1   2 -11   -0.17    0.39
  -1   2 -11   -0.61    0.57
  -1   2 -11    0.33    0.50
   1  -2  11    0.73    0.33
   1  -2  11   -0.11    0.48
   1  -2  11   -1.14    0.37
  -2   2 -11    7.16    0.70
  -2   2 -11    7.05    0.98
  -2   2 -11    6.64    0.96
   2  -2  11    7.10    0.74
   2  -2  11    7.40    0.90
  -3   2 -11   -0.33    0.69
  -3   2 -11   -0.45    0.63
   3  -2  11   -0.16    0.46
   3  -2  11    1.57    0.82
   3  -2  11    1.10    0.53
  -4   2 -11    4.92    0.75
  -4   2 -11    6.33    0.87
   4  -2  11    3.54    0.60
   4  -2  11    4.56    0.76
   4  -2  11    5.34    0.66
  -5   2 -11    0.80    0.39
   5  -2  11    1.37    0.35
   5  -2  11    1.46    0.31
   5   1 -11    0.10    0.27
   5   1 -11    0.17    0.36
   5   1 -11    0.04    0.33
   5   1 -11    0.02    0.24
   4   1 -11    4.30    0.54
   4   1 -11    3.64    0.62
   4   1 -11    3.63    0.62
   4   1 -11    1.48    0.63
   4   1 -11    3.38    0.54
   4   1 -11    4.30    0.57
   4   1 -11    2.50    0.53
   3   1 -11   15.38    1.29
   3   1 -11   14.07    1.00
   3   1 -11   15.39    1.04
   3   1 -11   14.01    1.23
   3   1 -11   13.99    1.11
   3   1 -11   15.01    0.99
   3   1 -11   13.65    1.02
   3   1 -11   13.29    1.19
   3   1 -11   13.07    1.15
   2   1 -11    9.46    1.12
   2   1 -11    9.26    0.67
   2   1 -11    9.25    0.77
   2   1 -11    9.71    0.79
   2   1 -11   10.80    0.90
  -2  -1  11   11.17    0.89
  -2  -1  11    9.96    1.36
  -2  -1  11    7.39    1.20
   1   1 -11    0.31    0.34
   1   1 -11   -0.02    0.35
   1   1 -11   -0.20    0.49
   1   1 -11    0.13    0.50
   1   1 -11    0.28    0.32
  -1  -1  11    0.75    0.72
  -1  -1  11    0.13    0.39
   0   1 -11    0.93    0.36
   0   1 -11    0.42    0.49
   0   1 -11    0.22    0.51
   0   1 -11    0.31    0.36
   0   1 -11    0.88    0.39
   0  -1  11    1.31    0.44
   0  -1  11    0.64    0.73
  -1   1 -11    9.27    0.91
  -1   1 -11   10.67    1.13
  -1   1 -11   11.78    0.97
   1  -1  11   10.21    1.11
   1  -1  11   11.20    1.02
   1  -1  11    9.79    0.79
  -2   1 -11    1.87    0.63
  -2   1 -11    1.26    0.43
  -2   1 -11    1.49    0.60
   2  -1  11    0.77    0.46
   2  -1  11    2.63    0.61
   2  -1  11    0.58    0.59
  -3   1 -11    4.69    0.84
  -3   1 -11    5.77    0.80
   3  -1  11    5.80    0.95
   3  -1  11    4.39    0.73
   3  -1  11    4.82    0.72
  -4   1 -11    1.00    0.63
  -4   1 -11    0.27    0.60
   4  -1  11   -0.20    0.41
   4  -1  11    0.26    0.42
   4  -1  11   -0.73    0.58
  -5   1 -11   -0.47    0.34
   5  -1  11    0.42    0.25
   5   0 -11    2.79    0.42
   5   0 -11    3.04    0.47
   5   0 -11    4.10    0.61
   5   0 -11    3.05    0.40
   4   0 -11    3.84    0.53
   4   0 -11    4.19    0.58
   4   0 -11    5.49    0.63
   4   0 -11    3.71    0.65
   4   0 -11    3.52    0.57
   4   0 -11    4.99    0.66
  -4   0  11    4.37    1.30
   3   0 -11    0.36    0.52
   3   0 -11    0.86    0.50
   3   0 -11    0.62    0.43
   3   0 -11    1.18    0.40
   3   0 -11   -0.08    0.35
   3   0 -11    0.22    0.51
  -3   0  11   -0.90    1.09
   2   0 -11    3.59    0.74
   2   0 -11    2.13    0.38
   2   0 -11    2.04    0.49
   2   0 -11    3.22    0.49
   2   0 -11    2.95    0.47
  -2   0  11    1.45    1.00
  -2   0  11    1.64    0.82
   1   0 -11    1.31    0.37
   1   0 -11    1.60    0.36
   1   0 -11    0.51    0.37
   1   0 -11    1.66    0.60
   1   0 -11    0.61    0.54
  -1   0  11    1.70    0.44
  -1   0  11    0.26    0.74
  -1   0  11    1.17    0.98
   0   0 -11   30.94    2.11
   0   0 -11   27.50    1.83
   0   0 -11   29.08    1.57
   0   0  11   29.17    1.40
   0   0  11   28.61    2.18
   0   0  11   29.22    1.72
  -1   0 -11   42.77    2.12
  -1   0 -11   42.77    2.83
   1   0  11   40.85    2.78
   1   0  11   41.96    2.24
   1   0  11   42.57    1.90
  -2   0 -11    5.04    0.62
  -2   0 -11    5.97    0.76
  -2   0 -11    4.98    0.90
   2   0  11    4.48    0.87
   2   0  11    5.86    0.77
  -3   0 -11   -0.38    0.58
   3   0  11    0.50    0.52
   3   0  11    0.08    0.74
   3   0  11   -0.27    0.49
   3   0  11    0.18    0.53
  -4   0 -11    0.57    0.56
  -4   0 -11    0.53    0.56
   4   0  11    0.35    0.45
   4   0  11   -0.50    0.42
   4   0  11   -0.30    0.42
  -5   0 -11    1.59    0.41
   5  -1 -11    3.09    0.47
   5  -1 -11    3.76    0.50
   5  -1 -11    3.97    0.52
   5  -1 -11    2.84    0.43
   5  -1 -11    3.43    0.41
  -5   1  11    2.15    0.84
  -5   1  11    3.18    0.98
   4  -1 -11    9.47    0.95
   4  -1 -11   10.34    0.96
   4  -1 -11    9.93    0.78
   4  -1 -11    7.18    0.92
   4  -1 -11    9.02    0.74
   4  -1 -11    9.17    0.83
   4  -1 -11    9.86    0.83
   4  -1 -11    7.79    0.90
  -4   1  11    6.12    1.39
   3  -1 -11    1.97    0.60
   3  -1 -11    3.21    0.61
   3  -1 -11    1.89    0.45
   3  -1 -11    1.98    0.58
   3  -1 -11    2.89    0.48
   3  -1 -11    2.79    0.52
  -3   1  11    1.92    1.16
   2  -1 -11    0.66    0.30
   2  -1 -11    0.37    0.38
   2  -1 -11    0.52    0.35
   2  -1 -11   -0.21    0.50
   2  -1 -11    0.29    0.34
  -2   1  11    0.58    0.97
  -2   1  11    0.44    0.73
   1  -1 -11   16.37    1.03
   1  -1 -11   15.63    1.23
   1  -1 -11   16.38    1.01
   1  -1 -11   14.97    0.94
   1  -1 -11   17.26    1.34
  -1   1  11   16.29    0.93
  -1   1  11   17.18    1.56
  -1   1  11   12.98    1.52
   0  -1 -11    0.65    0.49
   0  -1 -11    0.31    0.48
   0  -1 -11   -0.02    0.33
   0   1  11    0.10    0.71
   0   1  11    0.66    0.70
   0   1  11    0.62    0.55
  -1  -1 -11    6.26    0.82
  -1  -1 -11    7.01    0.90
   1   1  11    6.91    1.06
   1   1  11    6.77    0.90
   1   1  11    9.00    1.00
  -2  -1 -11    2.76    0.75
  -2  -1 -11    1.42    0.49
  -2  -1 -11    1.74    0.64
   2   1  11    1.95    0.65
   2   1  11    1.82    0.78
  -3  -1 -11    1.30    0.65
   3   1  11    2.51    0.69
   3   1  11    0.83    0.55
   3   1  11    0.85    0.76
  -4  -1 -11   15.95    1.10
  -4  -1 -11   16.41    1.14
   4   1  11   15.49    1.14
   4   1  11   13.24    1.09
   5  -2 -11   -0.43    0.30
   5  -2 -11   -0.27    0.27
   5  -2 -11   -0.05    0.23
   5  -2 -11    0.28    0.35
   5  -2 -11   -0.29    0.33
  -5   2  11    0.16    0.83
  -5   2  11    0.07    0.76
   4  -2 -11    9.04    0.71
   4  -2 -11    9.11    0.89
   4  -2 -11   10.04    0.83
   4  -2 -11    9.38    0.90
   4  -2 -11    9.44    0.87
   4  -2 -11    9.37    0.81
   4  -2 -11    8.50    0.92
  -4   2  11    4.96    1.34
  -4   2  11    9.86    1.38
   3  -2 -11    3.02    0.61
   3  -2 -11    2.55    0.62
   3  -2 -11    2.39    0.51
   3  -2 -11    2.89    0.60
   3  -2 -11    3.80    0.53
   3  -2 -11    3.42    0.55
  -3   2  11    0.79    1.12
   2  -2 -11   39.22    1.84
   2  -2 -11   37.40    2.06
   2  -2 -11   41.92    2.36
  -2   2  11   30.91    2.57
   1  -2 -11    4.13    0.57
   1  -2 -11    5.54    0.82
   1  -2 -11    4.22    0.76
  -1   2  11    4.68    1.07
  -1   2  11    3.60    0.94
   0  -2 -11    2.03    0.67
   0  -2 -11    1.79    0.58
   0   2  11    2.40    0.89
   0   2  11    1.79    0.59
   0   2  11    2.75    0.84
  -1  -2 -11    3.62    0.75
  -1  -2 -11    2.99    0.78
   1   2  11    4.41    0.92
   1   2  11    3.68    0.79
   1   2  11    2.72    0.69
  -2  -2 -11   -0.59    0.61
  -2  -2 -11   -0.77    0.44
   2   2  11   -0.53    0.62
   2   2  11   -0.16    0.59
  -3  -2 -11    4.17    0.75
   3   2  11    3.39    0.74
   3   2  11    3.20    0.71
   3   2  11    3.89    0.88
   3   2  11    4.16    0.62
   3   2  11    3.76    0.83
  -4  -2 -11    0.32    0.49
   4   2  11   -0.60    0.42
   4   2  11    1.16    0.47
   4   2  11    0.79    0.57
  -5   3  11    2.00    0.71
   4  -3 -11    2.92    0.51
   4  -3 -11    3.46    0.50
   4  -3 -11    2.98    0.56
   4  -3 -11    2.94    0.57
  -4   3  11    1.41    1.11
  -4   3  11    3.26    1.07
   3  -3 -11    1.52    0.57
   3  -3 -11    1.82    0.58
   3  -3 -11    1.87    0.51
   3  -3 -11    1.55    0.46
   3  -3 -11    1.90    0.60
  -3   3  11    1.57    1.13
  -3   3  11    2.32    1.17
   2  -3 -11   11.20    1.13
  -2   3  11    9.53    1.39
  -2   3  11   12.98    1.32
  -2   3  11   11.49    1.57
   1  -3 -11   11.97    1.26
   1  -3 -11   13.85    0.98
   1  -3 -11   12.29    1.20
  -1   3  11   12.21    1.12
  -1   3  11   11.19    1.47
  -1   3  11   13.38    1.42
   0  -3 -11    1.31    0.60
   0  -3 -11    1.19    0.64
   0  -3 -11    0.78    0.67
   0   3  11    0.26    0.53
   0   3  11    0.10    0.75
   0   3  11   -0.46    0.69
  -1  -3 -11    9.08    1.08
  -1  -3 -11   10.46    1.24
   1   3  11    8.97    1.22
   1   3  11    5.64    1.11
  -2  -3 -11    9.84    1.22
  -2  -3 -11   13.46    1.23
   2   3  11   11.43    1.29
   2   3  11   10.44    1.29
   2   3  11   15.14    1.33
   2   3  11   13.03    1.07
  -3  -3 -11    0.50    0.61
   3   3  11   -0.49    0.42
   3   3  11    0.47    0.66
   3   3  11    1.23    0.71
   3   3  11    0.70    0.60
   4   3  11    2.27    0.50
   4   3  11    2.93    0.44
   4   3  11    1.64    0.50
   5  -4 -11    0.14    0.28
   5  -4 -11   -0.23    0.24
  -5   4  11    0.15    0.53
   4  -4 -11    0.11    0.43
   4  -4 -11    0.53    0.36
   4  -4 -11   -0.22    0.42
  -4   4  11    0.23    0.90
  -4   4  11   -0.99    0.84
   3  -4 -11    0.26    0.47
   3  -4 -11    3.27    0.62
   3  -4 -11    3.00    0.51
   3  -4 -11    2.56    0.62
  -3   4  11    3.44    1.04
  -3   4  11    2.65    1.06
   2  -4 -11    0.94    0.65
   2  -4 -11    1.46    0.59
   2  -4 -11    1.37    0.63
  -2   4  11    0.77    0.90
  -2   4  11    2.38    0.97
   1  -4 -11   21.76    1.67
   1  -4 -11   20.28    1.82
  -1   4  11   22.74    1.77
  -1   4  11   20.38    1.59
   0  -4 -11   25.43    1.85
   0   4  11   25.53    2.17
   0   4  11   25.78    1.91
   0   4  11   26.90    1.81
  -1  -4 -11    0.18    0.73
   1   4  11    0.77    0.78
   1   4  11    0.35    0.70
   1   4  11   -0.13    0.51
   1   4  11    0.31    0.79
   1   4  11   -1.96    0.78
   1   4  11   -0.32    0.74
  -2  -4 -11    0.20    0.71
  -2  -4 -11    2.07    0.70
   2   4  11    0.18    0.48
   2   4  11    0.21    0.71
   2   4  11    0.19    0.65
   2   4  11    0.94    0.70
   2   4  11    0.18    0.80
  -3  -4 -11   10.69    0.97
   3   4  11   13.27    1.13
   3   4  11   11.20    1.10
   3   4  11   10.22    1.06
   3   4  11   11.30    0.89
   4   4  11    0.81    0.35
   4   4  11    1.27    0.31
   4   4  11    0.51    0.35
   4  -5 -11    1.73    0.47
   4  -5 -11    2.12    0.46
  -4   5  11    2.00    0.75
  -4   5  11    1.27    0.75
   3  -5 -11    3.99    0.64
   3  -5 -11    4.86    0.78
   3  -5 -11    4.11    0.66
  -3   5  11    5.65    1.03
  -3   5  11    5.81    1.00
   2  -5 -11   25.52    1.50
   2  -5 -11   24.17    1.55
   2  -5 -11   25.73    1.80
  -2   5  11   23.38    1.88
  -2   5  11   25.01    1.80
   1  -5 -11    0.46    0.64
  -1   5  11    0.96    0.85
  -1   5  11   -0.28    0.77
  -1   5  11    0.13    0.65
   0  -5 -11   17.70    1.51
   0   5  11   17.11    1.51
   0   5  11   21.36    1.72
   0   5  11   19.50    1.57
  -1  -5 -11    0.03    0.72
   1   5  11    0.70    0.67
   1   5  11   -0.33    0.75
   1   5  11    0.42    0.77
   1   5  11    1.00    0.78
   1   5  11    0.90    0.53
  -2  -5 -11   14.49    1.27
  -2  -5 -11   17.11    1.28
   2   5  11   16.16    1.29
   2   5  11   18.46    1.21
   2   5  11   16.77    1.43
   2   5  11   16.08    1.35
   2   5  11   20.07    1.45
   3   5  11    6.12    0.76
   3   5  11    5.53    0.62
   3   5  11    4.15    0.62
   3   5  11    5.29    0.73
   4  -6 -11    0.77    0.34
   4  -6 -11    0.46    0.34
  -4   6  11    0.24    0.48
   3  -6 -11    2.11    0.52
   3  -6 -11    3.24    0.55
   3  -6 -11    2.64    0.57
  -3   6  11    1.16    0.71
  -3   6  11    1.85    0.73
   2  -6 -11    1.76    0.63
   2  -6 -11    2.27    0.58
   2  -6 -11    2.56    0.63
  -2   6  11    3.02    0.81
  -2   6  11    3.37    0.84
   1  -6 -11    8.89    1.12
  -1   6  11    6.98    0.98
  -1   6  11    8.54    1.16
  -1   6  11    8.78    1.20
   0  -6 -11    2.20    0.68
   0   6  11    0.45    0.65
   0   6  11    2.26    0.61
   0   6  11    0.45    0.73
   0   6  11    1.19    0.83
  -1  -6 -11    1.25    0.70
   1   6  11    0.34    0.61
   1   6  11    1.13    0.77
   1   6  11    0.60    0.51
   1   6  11   -0.09    0.69
   1   6  11    1.84    0.73
  -2  -6 -11    0.14    0.55
  -2  -6 -11    0.63    0.49
   2   6  11    0.58    0.52
   2   6  11    1.31    0.66
   2   6  11    1.14    0.44
   2   6  11   -0.16    0.53
   3  -7 -11    5.32    0.58
   3  -7 -11    6.58    0.60
  -3   7  11    5.38    0.77
   2  -7 -11   -0.47    0.40
   2  -7 -11   -0.09    0.45
   2  -7 -11    0.53    0.42
  -2   7  11    0.21    0.54
   1  -7 -11    0.98    0.53
  -1   7  11   -0.02    0.65
  -1   7  11    0.59    0.45
  -1   7  11    0.81    0.62
   0  -7 -11    2.92    0.62
   0   7  11    3.20    0.69
   0   7  11    1.95    0.72
   0   7  11    3.27    0.54
   0   7  11    2.94    0.69
  -1  -7 -11   -0.10    0.47
   1   7  11    0.74    0.40
   1   7  11    1.20    0.59
  -2  -7 -11    5.14    0.53
   2   7  11    4.45    0.46
  -2   8  11    4.93    0.62
   1  -8 -11    4.68    0.55
  -1   8  11    6.01    0.69
   0  -8 -11    0.38    0.37
   0   8  11    0.48    0.43
   0   8  11    0.01    0.24
   1   8 -12    4.43    0.60
   1   8 -12    5.54    0.64
   1   8 -12    5.46    0.59
   0   8 -12    1.26    0.45
   0   8 -12    1.78    0.48
   0   8 -12    1.30    0.46
   0   8 -12    1.87    0.49
  -1   8 -12    4.57    0.62
  -1   8 -12    3.35    0.60
  -1   8 -12    4.63    0.57
  -1   8 -12    5.19    0.62
  -2   8 -12    2.30    0.41
   1   7 -12   -0.61    0.51
   1   7 -12   -0.52    0.42
   1   7 -12   -0.15    0.51
   1   7 -12   -0.01    0.47
   0   7 -12    0.47    0.51
   0   7 -12    1.24    0.63
   0   7 -12    2.37    0.63
   0   7 -12    1.02    0.50
   0   7 -12    0.89    0.55
   0   7 -12    1.79    0.60
   0  -7  12    0.00    0.54
  -1   7 -12    0.93    0.63
  -1   7 -12    2.12    0.59
  -1   7 -12    1.02    0.52
  -1   7 -12    1.04    0.56
  -1   7 -12    0.28    0.55
  -1   7 -12    1.08    0.48
   1  -7  12    0.23    0.56
  -2   7 -12    9.73    0.87
  -2   7 -12    6.82    0.94
  -2   7 -12    8.96    0.85
  -2   7 -12    7.29    0.81
  -2   7 -12    6.24    0.79
  -2   7 -12    8.32    0.86
   2  -7  12    8.10    0.89
  -3   7 -12    2.14    0.44
  -3   7 -12    2.19    0.44
   2   6 -12    0.88    0.58
   2   6 -12    0.46    0.54
   1   6 -12    3.85    0.78
   1   6 -12    3.56    0.69
   1   6 -12    3.27    0.70
   1   6 -12    3.55    0.72
   1   6 -12    4.53    0.70
   0   6 -12    1.61    0.66
   0   6 -12    0.76    0.56
   0   6 -12    2.77    0.71
   0   6 -12    0.95    0.59
   0   6 -12    1.05    0.76
   0   6 -12    2.03    0.60
   0   6 -12    1.30    0.66
  -1   6 -12    3.97    0.75
  -1   6 -12    3.08    0.72
  -1   6 -12    2.44    0.68
  -1   6 -12    1.05    0.77
  -1   6 -12    2.98    0.73
  -1   6 -12    3.23    0.67
  -1   6 -12    3.18    0.69
   1  -6  12    1.75    0.71
  -2   6 -12   -0.56    0.56
  -2   6 -12   -0.30    0.57
  -2   6 -12   -0.40    0.53
  -2   6 -12    0.48    0.77
  -2   6 -12    0.33    0.65
  -2   6 -12    0.59    0.52
   2  -6  12   -0.07    0.56
   2  -6  12   -0.25    0.63
  -3   6 -12    0.51    0.50
  -3   6 -12    0.30    0.50
  -3   6 -12    1.04    0.54
   3  -6  12    0.20    0.47
   3  -6  12    0.58    0.37
   3  -6  12   -0.05    0.48
   2   5 -12    7.06    0.89
   2   5 -12    6.32    0.78
   2   5 -12    5.94    0.85
   2   5 -12    5.90    0.96
   2   5 -12    6.68    0.83
   1   5 -12    2.70    0.76
   1   5 -12    0.98    0.56
   1   5 -12    1.76    0.65
   1   5 -12    3.06    0.71
   1   5 -12    3.31    0.80
   1   5 -12    1.57    0.65
   0   5 -12   -0.59    0.73
   0   5 -12    0.67    0.62
   0   5 -12    1.61    0.70
   0   5 -12    0.74    0.56
   0   5 -12    1.84    0.70
   0   5 -12    1.34    0.63
   0   5 -12    1.19    0.67
   0   5 -12    1.29    0.65
  -1   5 -12    0.86    0.58
  -1   5 -12    0.88    0.56
  -1   5 -12    1.28    0.63
  -1   5 -12    1.35    0.71
  -1   5 -12    1.07    0.82
  -1   5 -12    1.32    0.70
  -1   5 -12    0.96    0.61
  -1   5 -12    1.42    0.69
  -2   5 -12    0.26    0.69
  -2   5 -12    1.03    0.69
  -2   5 -12    2.10    0.66
  -2   5 -12    0.71    0.74
   2  -5  12    0.58    0.62
   2  -5  12   -0.23    0.71
  -3   5 -12    1.58    0.63
  -3   5 -12    1.20    0.65
  -3   5 -12    0.95    0.54
   3  -5  12    1.05    0.43
   3  -5  12    0.87    0.55
   3  -5  12    1.00    0.61
  -4   5 -12    4.56    0.63
  -4   5 -12    2.87    0.50
   4  -5  12    4.36    0.48
   4  -5  12    3.69    0.51
   4   4 -12    2.38    0.36
   4   4 -12    3.36    0.46
   3   4 -12   -0.15    0.31
   3   4 -12   -0.18    0.47
   3   4 -12   -0.34    0.50
   3   4 -12    0.20    0.36
   2   4 -12   25.88    1.56
   2   4 -12   25.16    1.66
   2   4 -12   25.55    1.44
   2   4 -12   25.46    1.83
   2   4 -12   25.27    1.70
   2   4 -12   24.74    1.46
   2   4 -12   24.79    1.51
   1   4 -12   25.08    1.50
   1   4 -12   29.42    1.93
   1   4 -12   25.92    1.51
   1   4 -12   26.52    1.63
   1   4 -12   25.16    1.63
   1   4 -12   24.34    1.70
   1   4 -12   28.48    1.80
   0   4 -12   12.43    1.24
   0   4 -12   13.27    1.22
   0   4 -12   13.85    1.04
  -1   4 -12    0.89    0.56
  -1   4 -12    0.51    0.54
  -1   4 -12    1.00    0.82
  -1   4 -12    1.51    0.66
  -1   4 -12    0.83    0.76
  -1   4 -12    1.21    0.60
  -2   4 -12    2.08    0.86
  -2   4 -12    4.03    0.79
  -2   4 -12    5.80    0.82
  -2   4 -12    5.16    0.86
  -2   4 -12    5.13    0.88
   2  -4  12    3.77    0.76
  -3   4 -12   -0.52    0.57
  -3   4 -12   -0.95    0.61
  -3   4 -12    0.66    0.61
   3  -4  12   -0.14    0.65
   3  -4  12    0.21    0.44
   3  -4  12   -0.74    0.51
  -4   4 -12    0.22    0.45
  -4   4 -12    0.01    0.48
   4  -4  12    0.13    0.32
   4  -4  12    0.41    0.50
   4   3 -12    0.38    0.39
   4   3 -12   -0.23    0.41
   4   3 -12    0.37    0.31
   4   3 -12    0.31    0.31
   3   3 -12    0.94    0.70
   3   3 -12    0.69    0.52
   3   3 -12    0.30    0.65
   3   3 -12    0.32    0.37
   3   3 -12    1.18    0.54
   3   3 -12    0.49    0.49
   3   3 -12    0.20    0.38
   2   3 -12    7.44    0.81
   2   3 -12    8.39    1.05
   2   3 -12    7.34    0.90
   2   3 -12    7.97    1.02
   2   3 -12    8.43    0.89
   2   3 -12    8.15    0.79
   2   3 -12    7.55    1.06
   1   3 -12   27.02    1.53
   1   3 -12   28.26    1.50
   1   3 -12   24.79    2.04
   1   3 -12   24.20    1.61
   1   3 -12   29.14    1.91
  -1  -3  12   24.55    1.46
   0   3 -12    5.30    0.83
   0   3 -12    3.14    0.77
   0   3 -12    5.49    0.87
   0   3 -12    4.56    0.61
   0   3 -12    3.27    0.63
   0  -3  12    3.87    0.66
   0  -3  12    5.52    0.87
  -1   3 -12   29.07    1.58
  -1   3 -12   28.30    1.84
  -1   3 -12   25.99    1.72
  -1   3 -12   26.34    2.11
   1  -3  12   28.80    1.70
   1  -3  12   28.10    1.49
   1  -3  12   27.71    1.65
  -2   3 -12    0.03    0.72
  -2   3 -12   -0.57    0.73
  -2   3 -12    0.45    0.62
  -2   3 -12   -0.14    0.70
  -2   3 -12    0.12    0.59
   2  -3  12    0.46    0.50
   2  -3  12    0.89    0.65
  -3   3 -12    1.44    0.68
  -3   3 -12    1.43    0.70
  -3   3 -12    2.45    0.73
   3  -3  12    1.49    0.48
   3  -3  12    0.18    0.73
   3  -3  12    0.31    0.47
  -4   3 -12    2.00    0.63
  -4   3 -12    4.03    0.65
  -4   3 -12    2.75    0.62
   4  -3  12    3.83    0.53
   4  -3  12    3.51    0.52
   4  -3  12    3.65    0.66
   4   2 -12    0.53    0.44
   4   2 -12   -0.13    0.41
   4   2 -12    0.18    0.32
   4   2 -12    0.06    0.30
   4   2 -12   -0.49    0.42
   3   2 -12    0.17    0.68
   3   2 -12   -0.17    0.43
   3   2 -12    0.09    0.50
   3   2 -12    0.29    0.37
   3   2 -12   -0.04    0.63
   3   2 -12   -0.14    0.36
   3   2 -12    0.24    0.50
   2   2 -12    8.26    0.93
   2   2 -12    9.64    0.84
   2   2 -12   10.42    0.86
   2   2 -12   10.60    1.16
   2   2 -12   10.80    0.85
  -2  -2  12    6.28    1.26
   1   2 -12    1.23    0.45
   1   2 -12    0.71    0.45
   1   2 -12    1.81    0.66
   1   2 -12    1.02    0.38
   1   2 -12    1.10    0.65
  -1  -2  12    0.43    0.82
  -1  -2  12    0.56    0.44
   0   2 -12   21.37    1.17
   0   2 -12   17.02    1.61
   0   2 -12   17.35    1.38
   0   2 -12   20.74    1.35
   0   2 -12   19.77    1.25
   0  -2  12   20.08    1.44
   0  -2  12   18.22    1.15
  -1   2 -12   -0.52    0.59
  -1   2 -12    0.52    0.57
  -1   2 -12    0.21    0.42
  -1   2 -12   -0.25    0.45
   1  -2  12   -0.14    0.40
   1  -2  12   -0.51    0.50
  -2   2 -12    0.73    0.67
  -2   2 -12    0.88    0.65
   2  -2  12    2.24    0.61
  -3   2 -12    0.79    0.68
  -3   2 -12    0.75    0.66
   3  -2  12    0.77    0.53
   3  -2  12   -0.44    0.73
   3  -2  12    0.84    0.51
  -4   2 -12    3.01    0.65
  -4   2 -12    3.31    0.66
  -4   2 -12    3.67    0.69
   4  -2  12    3.01    0.53
   4  -2  12    3.68    0.68
   4  -2  12    2.37    0.50
   5   1 -12    0.04    0.30
   5   1 -12    0.18    0.25
   5   1 -12    0.88    0.25
   5   1 -12    0.58    0.33
   4   1 -12   -0.18    0.38
   4   1 -12    0.13    0.34
   4   1 -12   -0.04    0.30
   4   1 -12   -0.24    0.37
   4   1 -12    0.21    0.44
   4   1 -12   -0.10    0.45
  -4  -1  12    0.19    0.99
   3   1 -12    2.73    0.53
   3   1 -12    2.73    0.64
   3   1 -12    2.60    0.53
   3   1 -12    2.70    0.48
   3   1 -12    3.37    0.61
   3   1 -12    3.50    0.73
   3   1 -12    3.74    0.66
  -3  -1  12    3.20    1.20
   2   1 -12   -0.08    0.34
   2   1 -12   -1.03    0.55
   2   1 -12    0.18    0.39
   2   1 -12   -0.68    0.39
  -2  -1  12    1.32    0.51
  -2  -1  12    0.09    0.79
   1   1 -12    1.19    0.58
   1   1 -12    0.86    0.37
   1   1 -12    1.30    0.44
   1   1 -12    1.37    0.40
   1   1 -12    1.19    0.62
  -1  -1  12    1.07    0.81
  -1  -1  12    1.24    0.45
   0   1 -12    0.04    0.57
   0   1 -12    0.85    0.53
   0   1 -12    0.36    0.37
   0   1 -12   -0.22    0.47
   0   1 -12    0.01    0.37
   0  -1  12    0.06    0.72
   0  -1  12   -0.10    0.38
   0  -1  12    0.01    0.55
  -1   1 -12   26.23    1.49
  -1   1 -12   23.91    1.65
   1  -1  12   25.17    1.87
   1  -1  12   25.34    1.58
   1  -1  12   24.33    1.33
  -2   1 -12   11.30    1.21
  -2   1 -12   12.39    1.05
   2  -1  12   11.41    1.08
   2  -1  12    9.46    0.87
  -3   1 -12   17.61    1.29
  -3   1 -12   15.23    1.37
   3  -1  12   16.45    1.21
   3  -1  12   16.29    1.24
   3  -1  12   18.55    1.38
  -4   1 -12    6.56    0.84
  -4   1 -12    7.77    0.94
   4  -1  12    5.11    0.70
   4  -1  12    5.13    0.67
   5   0 -12    4.61    0.53
   5   0 -12    4.42    0.57
   5   0 -12    3.93    0.42
   5   0 -12    4.54    0.46
   4   0 -12    2.25    0.48
   4   0 -12    3.04    0.58
   4   0 -12    3.86    0.53
   4   0 -12    2.46    0.57
   4   0 -12    1.47    0.41
   4   0 -12    2.77    0.61
   4   0 -12    2.53    0.45
   4   0 -12    2.46    0.65
  -4   0  12    0.92    1.07
   3   0 -12   15.16    1.01
   3   0 -12   14.80    1.06
   3   0 -12   16.38    1.16
   3   0 -12   14.72    1.13
   3   0 -12   17.01    1.09
   3   0 -12   15.58    1.14
   3   0 -12   14.58    1.21
   3   0 -12   16.37    1.09
  -3   0  12   12.61    1.81
   2   0 -12   -0.41    0.37
   2   0 -12   -0.02    0.31
   2   0 -12   -0.21    0.39
   2   0 -12   -0.40    0.53
  -2   0  12    0.29    0.43
  -2   0  12    1.33    0.83
  -2   0  12   -0.98    0.91
   1   0 -12    3.64    0.66
   1   0 -12    2.37    0.66
   1   0 -12    2.85    0.49
   1   0 -12    2.27    0.44
   1   0 -12    2.76    0.43
  -1   0  12    2.07    0.82
  -1   0  12    3.11    0.50
   0   0 -12    0.32    0.50
   0   0 -12    0.92    0.39
   0   0 -12    0.22    0.48
   0   0  12    0.29    0.41
   0   0  12    0.79    0.57
   0   0  12    1.11    0.80
  -1   0 -12    1.74    0.63
  -1   0 -12    3.19    0.58
   1   0  12    2.80    0.51
   1   0  12    2.57    0.62
   1   0  12    2.14    0.77
  -2   0 -12    1.33    0.65
  -2   0 -12    2.02    0.62
   2   0  12    3.02    0.66
   2   0  12    1.32    0.75
  -3   0 -12    9.58    1.04
  -3   0 -12    8.63    0.99
   3   0  12    8.76    0.98
   3   0  12    8.25    0.92
   3   0  12    6.95    0.89
  -4   0 -12    2.50    0.62
  -4   0 -12    3.52    0.66
   4   0  12    2.88    0.47
   4   0  12    1.95    0.52
   4   0  12    2.04    0.54
   5  -1 -12    1.86    0.41
   5  -1 -12    2.57    0.39
   5  -1 -12    1.63    0.29
   5  -1 -12    1.75    0.36
   4  -1 -12   -0.01    0.37
   4  -1 -12    0.60    0.47
   4  -1 -12    0.06    0.37
   4  -1 -12    0.08    0.48
   4  -1 -12   -0.75    0.43
   4  -1 -12    0.38    0.32
   4  -1 -12    0.33    0.47
   4  -1 -12    0.34    0.35
  -4   1  12   -0.21    1.01
   3  -1 -12   -0.07    0.50
   3  -1 -12    0.23    0.40
   3  -1 -12   -0.33    0.45
   3  -1 -12    0.36    0.43
   3  -1 -12    0.14    0.36
   3  -1 -12    0.11    0.48
   3  -1 -12   -0.46    0.48
   3  -1 -12    0.59    0.38
  -3   1  12   -0.36    1.11
   2  -1 -12   -0.27    0.36
   2  -1 -12    0.00    0.34
   2  -1 -12    0.05    0.38
   2  -1 -12   -0.18    0.50
  -2   1  12   -0.75    1.04
  -2   1  12    0.46    0.41
  -2   1  12    0.20    0.76
   1  -1 -12    7.78    0.91
   1  -1 -12    7.49    0.70
   1  -1 -12    6.40    0.69
   1  -1 -12    7.64    0.88
  -1   1  12    6.80    1.21
  -1   1  12    7.81    0.64
  -1   1  12    7.71    1.15
   0  -1 -12    3.31    0.70
   0  -1 -12    2.87    0.63
   0   1  12    3.70    0.84
   0   1  12    2.69    0.89
   0   1  12    3.51    0.68
  -1  -1 -12    3.37    0.76
  -1  -1 -12    5.72    0.76
   1   1  12    3.12    0.86
   1   1  12    3.68    0.68
  -2  -1 -12   12.99    1.14
   2   1  12   13.10    1.17
  -3  -1 -12   12.21    1.09
   3   1  12   12.17    1.26
   3   1  12   10.80    1.02
   3   1  12   11.38    1.14
  -4  -1 -12    0.98    0.49
  -4  -1 -12    0.29    0.50
   4   1  12   -0.08    0.43
   4   1  12    0.19    0.43
   5  -2 -12   -0.13    0.29
   5  -2 -12    0.58    0.33
   5  -2 -12    0.11    0.28
   5  -2 -12    0.06    0.21
   4  -2 -12    0.07    0.44
   4  -2 -12    0.01    0.38
   4  -2 -12    0.60    0.40
   4  -2 -12   -0.45    0.44
   4  -2 -12    0.44    0.32
   4  -2 -12    0.59    0.49
   4  -2 -12    1.03    0.47
  -4   2  12    0.72    1.05
   3  -2 -12    2.04    0.59
   3  -2 -12    1.36    0.53
   3  -2 -12    1.66    0.46
   3  -2 -12    1.41    0.53
   3  -2 -12    1.31    0.46
  -3   2  12    0.54    1.07
   2  -2 -12    7.06    0.91
   2  -2 -12    9.34    0.71
   2  -2 -12    7.53    0.77
  -2   2  12    5.47    1.19
  -2   2  12    8.75    1.35
   1  -2 -12   13.11    1.13
   1  -2 -12   12.75    1.17
   1  -2 -12   11.22    0.88
  -1   2  12   11.22    1.43
  -1   2  12   12.31    1.40
   0  -2 -12    2.58    0.72
   0  -2 -12    3.69    0.71
   0   2  12    3.40    0.64
   0   2  12    3.29    0.91
   0   2  12    3.55    0.85
  -1  -2 -12    8.45    1.11
  -1  -2 -12   10.03    0.99
   1   2  12    8.42    1.20
   1   2  12    8.23    0.99
   1   2  12    8.61    1.16
  -2  -2 -12   13.83    1.28
  -2  -2 -12   16.94    1.26
   2   2  12   15.88    1.37
   2   2  12   17.07    1.29
   2   2  12   13.49    1.38
  -3  -2 -12    1.14    0.62
   3   2  12    0.43    0.53
   3   2  12    0.88    0.61
   3   2  12    0.98    0.70
  -4  -2 -12    2.43    0.47
   4   2  12    1.62    0.49
  -5   3  12    0.59    0.56
   4  -3 -12    0.68    0.40
   4  -3 -12    1.53    0.50
   4  -3 -12    0.76    0.47
   4  -3 -12    0.08    0.42
   4  -3 -12    1.58    0.41
  -4   3  12    0.63    0.92
  -4   3  12    0.70    0.95
   3  -3 -12    3.11    0.62
   3  -3 -12    3.88    0.65
   3  -3 -12    4.64    0.66
   3  -3 -12    3.80    0.53
   3  -3 -12    3.48    0.54
  -3   3  12    3.48    1.14
  -3   3  12    2.94    1.08
   2  -3 -12    4.34    0.78
   2  -3 -12    5.38    0.71
   2  -3 -12    4.52    0.69
  -2   3  12    3.70    1.10
   1  -3 -12    8.52    1.09
   1  -3 -12    8.40    0.79
   1  -3 -12    9.40    1.07
  -1   3  12    9.51    1.32
  -1   3  12   10.39    1.42
   0  -3 -12   36.02    2.26
   0  -3 -12   33.51    2.55
   0   3  12   38.54    2.35
   0   3  12   33.30    2.60
  -1  -3 -12   47.15    2.45
   1   3  12   46.49    2.83
  -2  -3 -12    5.03    0.81
  -2  -3 -12    4.23    0.82
   2   3  12    5.72    0.97
   2   3  12    4.51    0.85
   2   3  12    6.69    0.96
   2   3  12    5.53    0.69
  -3  -3 -12    0.78    0.56
   3   3  12    0.60    0.62
   3   3  12    0.14    0.57
   3   3  12    0.17    0.62
   3   3  12    0.01    0.41
   4   3  12   -0.30    0.34
   4  -4 -12    5.51    0.68
   4  -4 -12    5.37    0.70
   4  -4 -12    6.18    0.60
  -4   4  12    5.97    1.02
  -4   4  12    5.11    0.93
   3  -4 -12   12.07    1.02
   3  -4 -12   11.16    1.05
   3  -4 -12   12.44    1.00
  -3   4  12   10.52    1.45
  -3   4  12   13.04    1.55
   2  -4 -12    4.89    0.71
   2  -4 -12    6.66    0.94
   2  -4 -12    6.17    0.77
  -2   4  12    5.65    1.12
  -2   4  12    5.55    1.01
   1  -4 -12   20.01    1.42
   1  -4 -12   17.62    1.52
  -1   4  12   19.99    1.68
   0  -4 -12    7.60    0.97
   0   4  12    7.58    1.19
   0   4  12    6.25    0.98
   0   4  12    4.26    0.86
  -1  -4 -12    3.23    0.74
  -1  -4 -12    1.50    0.75
   1   4  12    1.92    0.58
   1   4  12    1.72    0.78
   1   4  12    1.86    0.87
  -2  -4 -12    0.18    0.64
  -2  -4 -12   -0.03    0.58
   2   4  12    0.75    0.68
   2   4  12    0.66    0.70
   2   4  12    0.32    0.49
   2   4  12   -1.08    0.65
  -3  -4 -12    3.71    0.59
   3   4  12    1.54    0.57
   3   4  12    1.93    0.61
   3   4  12    3.31    0.50
   3   4  12    2.64    0.62
   4  -5 -12    3.90    0.52
   4  -5 -12    3.17    0.47
  -4   5  12    3.56    0.70
   3  -5 -12   -0.29    0.45
   3  -5 -12    0.08    0.46
   3  -5 -12    0.67    0.49
  -3   5  12    0.00    0.71
  -3   5  12   -0.43    0.72
   2  -5 -12    3.39    0.73
   2  -5 -12    4.07    0.64
   2  -5 -12    4.32    0.67
  -2   5  12    5.27    0.91
  -2   5  12    3.00    0.91
   1  -5 -12    7.36    1.06
   1  -5 -12    7.34    0.87
  -1   5  12    7.35    1.15
  -1   5  12    7.06    0.99
   0  -5 -12   24.24    1.76
   0   5  12   24.91    1.72
   0   5  12   24.95    1.87
   0   5  12   22.89    1.74
  -1  -5 -12    4.69    0.78
  -1  -5 -12    2.89    0.75
   1   5  12    3.63    0.67
   1   5  12    3.24    0.90
   1   5  12    3.94    0.83
   1   5  12    2.74    0.74
  -2  -5 -12    0.39    0.60
  -2  -5 -12    0.77    0.53
   2   5  12    0.47    0.45
   2   5  12    0.51    0.56
   2   5  12   -0.05    0.58
   2   5  12   -0.09    0.70
   2   5  12   -0.88    0.53
   3   5  12   -0.36    0.37
   3   5  12    1.17    0.35
   3   5  12    1.22    0.42
   4  -6 -12    4.20    0.45
   4  -6 -12    3.80    0.45
  -4   6  12    2.95    0.51
   3  -6 -12   11.61    0.96
   3  -6 -12   10.88    0.84
   3  -6 -12   10.71    0.84
  -3   6  12   10.84    1.05
   2  -6 -12   12.35    1.15
   2  -6 -12   14.67    0.99
   2  -6 -12   15.32    1.02
  -2   6  12   12.94    1.23
  -2   6  12   12.58    1.25
   1  -6 -12    1.22    0.58
   1  -6 -12    0.93    0.59
  -1   6  12    3.02    0.83
  -1   6  12    2.03    0.75
   0  -6 -12   -0.26    0.49
   0   6  12    0.10    0.69
   0   6  12    0.07    0.71
   0   6  12    0.25    0.46
   0   6  12    0.67    0.65
  -1  -6 -12   -0.80    0.53
  -1  -6 -12    0.08    0.58
   1   6  12   -0.45    0.61
   1   6  12    0.76    0.66
   1   6  12   -1.00    0.40
  -2  -6 -12   -0.17    0.42
   2   6  12   -0.26    0.34
   2   6  12   -1.40    0.56
   3  -7 -12    7.80    0.60
   3  -7 -12    7.85    0.59
  -3   7  12    7.67    0.74
   2  -7 -12    0.20    0.41
  -2   7  12   -0.23    0.51
   1  -7 -12    0.85    0.49
   1  -7 -12    1.02    0.48
  -1   7  12    0.69    0.40
  -1   7  12    1.23    0.58
  -1   7  12    1.29    0.67
   0  -7 -12    0.00    0.43
   0  -7 -12    0.55    0.48
   0   7  12    0.34    0.59
   0   7  12    0.82    0.38
   0   7  12    0.43    0.54
  -1  -7 -12    7.40    0.72
   1   7  12    6.42    0.81
   1   7  12    6.18    0.60
   1  -8 -12    0.30    0.27
  -1   8  12    0.46    0.25
  -1   8  12    0.69    0.37
   0   8 -13    0.37    0.37
   0   8 -13    0.87    0.35
   0   8 -13    1.13    0.40
   0   8 -13    0.98    0.41
  -1   8 -13    0.50    0.38
  -1   8 -13    0.21    0.40
  -1   8 -13    0.70    0.33
  -1   8 -13    0.73    0.36
   1   7 -13    0.17    0.49
   1   7 -13    0.67    0.52
   1   7 -13   -0.03    0.45
   1   7 -13    0.39    0.46
   0   7 -13    0.93    0.47
   0   7 -13    0.46    0.51
   0   7 -13    1.93    0.57
   0   7 -13    1.50    0.56
   0   7 -13    2.65    0.65
   0   7 -13    1.15    0.51
   0  -7  13    1.07    0.56
  -1   7 -13    1.84    0.53
  -1   7 -13    0.72    0.52
  -1   7 -13    0.89    0.58
  -1   7 -13    1.79    0.57
  -1   7 -13    1.75    0.55
  -1   7 -13    1.22    0.48
   1  -7  13    1.50    0.58
  -2   7 -13    0.87    0.45
  -2   7 -13    0.76    0.45
  -2   7 -13    0.69    0.41
  -2   7 -13    0.35    0.50
   2   6 -13    0.42    0.55
   2   6 -13   -0.01    0.51
   1   6 -13    0.53    0.54
   1   6 -13    0.78    0.55
   1   6 -13    1.07    0.62
   1   6 -13    0.81    0.57
   1   6 -13    0.80    0.66
   0   6 -13    7.03    0.85
   0   6 -13    7.63    1.00
   0   6 -13    6.21    0.80
   0   6 -13    7.25    1.06
   0   6 -13    4.57    0.78
   0   6 -13    5.93    0.82
   0   6 -13    6.61    0.92
   0   6 -13    6.89    0.96
  -1   6 -13    4.94    0.79
  -1   6 -13    4.54    0.86
  -1   6 -13    6.15    0.83
  -1   6 -13    5.86    0.78
  -1   6 -13    3.07    0.77
  -1   6 -13    5.63    0.75
  -1   6 -13    5.18    0.75
   1  -6  13    5.74    0.84
  -2   6 -13    0.38    0.56
  -2   6 -13    0.83    0.50
  -2   6 -13   -0.27    0.59
  -2   6 -13    1.11    0.52
  -2   6 -13    0.33    0.53
  -2   6 -13    0.52    0.53
   2  -6  13    0.93    0.59
   2  -6  13    0.63    0.65
  -3   6 -13    0.35    0.44
  -3   6 -13    0.21    0.45
   3  -6  13    0.64    0.35
   3  -6  13    0.61    0.46
   2   5 -13    2.20    0.68
   2   5 -13    1.48    0.56
   2   5 -13    2.09    0.70
   2   5 -13    1.87    0.60
   2   5 -13    0.42    0.62
   1   5 -13    1.29    0.63
   1   5 -13    2.30    0.75
   1   5 -13    2.31    0.70
   1   5 -13    2.31    0.81
   1   5 -13    1.56    0.58
   1   5 -13    1.28    0.60
   0   5 -13    1.13    0.56
   0   5 -13    0.68    0.63
   0   5 -13    0.94    0.73
   0   5 -13    0.39    0.59
   0   5 -13   -0.91    0.59
   0   5 -13    0.18    0.60
   0   5 -13    0.32    0.60
   0   5 -13   -0.27    0.64
  -1   5 -13   -0.43    0.59
  -1   5 -13    0.53    0.58
  -1   5 -13    0.00    0.49
  -1   5 -13    1.19    0.65
  -1   5 -13    1.34    0.77
  -1   5 -13    0.07    0.67
  -1   5 -13    1.72    0.70
  -1   5 -13   -0.10    0.52
  -2   5 -13    4.61    0.88
  -2   5 -13    8.83    1.01
  -2   5 -13    5.73    0.88
   2  -5  13    7.21    0.93
   2  -5  13    4.52    0.80
  -3   5 -13   20.52    1.34
  -3   5 -13   22.69    1.40
  -3   5 -13   21.72    1.45
   3  -5  13   23.03    1.39
   3  -5  13   22.45    1.39
   3  -5  13   22.74    1.24
  -4   5 -13    0.55    0.36
  -4   5 -13   -0.02    0.32
   4  -5  13   -0.51    0.34
   4  -5  13   -0.46    0.22
   4   4 -13    0.11    0.30
   4   4 -13    0.11    0.24
   3   4 -13   14.11    1.00
   3   4 -13   13.72    1.03
   3   4 -13   13.92    0.90
   3   4 -13   12.16    0.90
   2   4 -13    5.16    0.68
   2   4 -13    6.09    0.76
   2   4 -13    6.15    1.00
   2   4 -13    6.73    0.70
   2   4 -13    4.96    0.69
   2   4 -13    3.53    0.79
   2   4 -13    6.25    0.93
   1   4 -13   22.11    1.39
   1   4 -13   20.69    1.47
   1   4 -13   18.94    1.55
   1   4 -13   22.90    1.34
   1   4 -13   23.34    1.38
   1   4 -13   24.35    1.77
   1   4 -13   22.80    1.46
   1   4 -13   23.63    1.70
   0   4 -13    4.71    0.89
   0   4 -13    4.81    0.72
   0   4 -13    3.46    0.75
   0   4 -13    4.87    0.89
   0   4 -13    5.07    0.87
   0   4 -13    4.79    0.76
   0   4 -13    5.65    0.78
   0  -4  13    5.11    0.88
  -1   4 -13    0.95    0.74
  -1   4 -13    0.42    0.51
  -1   4 -13    0.13    0.56
  -1   4 -13    1.02    0.68
  -1   4 -13   -0.11    0.79
  -1   4 -13    0.14    0.67
  -1   4 -13   -0.18    0.64
  -1   4 -13    0.10    0.56
  -2   4 -13   17.46    1.37
  -2   4 -13   14.15    1.41
  -2   4 -13   15.58    1.36
  -2   4 -13   16.94    1.35
   2  -4  13   17.77    1.28
  -3   4 -13    1.01    0.61
  -3   4 -13    2.96    0.62
  -3   4 -13    0.42    0.61
   3  -4  13    1.09    0.74
   3  -4  13    1.83    0.51
  -4   4 -13    1.63    0.48
  -4   4 -13    1.08    0.43
   4  -4  13    0.00    0.29
   4  -4  13    1.45    0.46
   4   3 -13    0.46    0.38
   4   3 -13   -0.59    0.23
   4   3 -13    0.09    0.28
   4   3 -13    0.77    0.41
   3   3 -13    0.49    0.50
   3   3 -13   -0.24    0.36
   3   3 -13    0.37    0.37
   3   3 -13   -0.94    0.69
   3   3 -13    0.14    0.49
   3   3 -13   -0.52    0.42
   3   3 -13    1.16    0.69
   2   3 -13    4.20    0.83
   2   3 -13    5.95    0.85
   2   3 -13    5.81    0.76
   2   3 -13    6.46    0.74
   2   3 -13    5.57    0.70
   2   3 -13    5.94    0.78
   2   3 -13    4.88    0.92
   1   3 -13    4.96    0.67
   1   3 -13    6.16    0.72
   1   3 -13    6.56    1.05
   1   3 -13    6.63    0.71
   0   3 -13   -0.04    0.61
   0   3 -13    0.93    0.72
   0   3 -13    0.93    0.52
   0   3 -13    0.32    0.57
   0   3 -13    0.25    0.46
   0  -3  13    1.41    0.68
   0  -3  13    1.68    0.61
  -1   3 -13   19.95    1.50
  -1   3 -13   19.36    1.26
  -1   3 -13   17.91    1.45
   1  -3  13   19.84    1.40
  -2   3 -13    1.92    0.77
  -2   3 -13    2.49    0.75
  -2   3 -13    2.23    0.67
  -2   3 -13    0.64    0.62
   2  -3  13    1.93    0.59
   2  -3  13   -0.28    0.46
  -3   3 -13    3.70    0.72
  -3   3 -13    4.07    0.74
  -3   3 -13    3.48    0.74
   3  -3  13    3.21    0.60
   3  -3  13    4.91    0.85
   3  -3  13    2.23    0.54
  -4   3 -13    5.22    0.73
  -4   3 -13    6.18    0.73
   4  -3  13    4.29    0.54
   4  -3  13    4.45    0.64
   4   2 -13    0.63    0.43
   4   2 -13    1.55    0.44
   4   2 -13    2.02    0.49
   4   2 -13    1.08    0.36
   4   2 -13    1.03    0.35
   3   2 -13   -0.18    0.38
   3   2 -13    0.13    0.47
   3   2 -13    0.34    0.64
   3   2 -13   -0.24    0.35
   3   2 -13    0.70    0.62
   3   2 -13   -0.03    0.44
   3   2 -13   -0.59    0.46
   2   2 -13   42.33    2.19
   2   2 -13   41.86    2.37
   2   2 -13   44.95    2.24
   2   2 -13   43.18    2.29
   2   2 -13   42.98    2.30
   2   2 -13   43.15    2.08
   2   2 -13   42.72    2.15
   2   2 -13   41.50    2.74
   1   2 -13   26.14    1.55
   1   2 -13   24.60    1.82
   1   2 -13   26.54    1.46
   1   2 -13   27.39    1.42
   1   2 -13   21.04    1.96
  -1  -2  13   21.71    2.07
  -1  -2  13   24.21    1.39
   0   2 -13    4.58    0.93
   0   2 -13    5.16    0.69
   0   2 -13    5.48    0.86
   0   2 -13    6.20    0.82
   0   2 -13    5.05    0.67
   0  -2  13    5.92    0.88
   0  -2  13    3.95    0.65
  -1   2 -13   -0.15    0.58
  -1   2 -13   -0.59    0.58
  -1   2 -13    0.42    0.52
  -1   2 -13    0.14    0.47
   1  -2  13   -0.30    0.47
   1  -2  13    0.70    0.59
  -2   2 -13    9.14    1.13
  -2   2 -13    6.79    0.84
  -2   2 -13    8.84    1.07
   2  -2  13    8.98    0.99
  -3   2 -13    0.46    0.61
  -3   2 -13   -0.68    0.59
   3  -2  13   -0.49    0.71
   3  -2  13    0.30    0.48
   3  -2  13    0.25    0.49
  -4   2 -13    0.29    0.53
  -4   2 -13   -0.23    0.45
  -4   2 -13    0.06    0.49
   4  -2  13    0.36    0.39
   4  -2  13   -0.06    0.35
   4  -2  13    0.15    0.50
   5   1 -13    3.31    0.33
   5   1 -13    3.37    0.44
   5   1 -13    3.45    0.43
   5   1 -13    3.26    0.35
   4   1 -13    0.32    0.38
   4   1 -13    0.36    0.33
   4   1 -13    0.20    0.44
   4   1 -13    0.14    0.46
   4   1 -13    0.06    0.29
   4   1 -13   -0.04    0.40
   4   1 -13   -0.46    0.33
   4   1 -13   -0.19    0.44
  -4  -1  13    0.30    0.98
   3   1 -13    9.32    0.96
   3   1 -13   11.29    1.04
   3   1 -13   10.89    0.87
   3   1 -13   10.04    1.02
   3   1 -13   10.66    0.91
   3   1 -13   11.53    0.86
   3   1 -13   10.52    1.07
  -3  -1  13    9.90    1.59
   2   1 -13   19.03    1.55
   2   1 -13   18.59    1.21
   2   1 -13   18.81    1.14
   2   1 -13   18.75    1.13
   1   1 -13   48.60    2.39
   1   1 -13   50.19    2.52
   1   1 -13   50.46    2.28
   1   1 -13   51.21    2.90
  -1  -1  13   39.80    3.22
  -1  -1  13   44.89    2.16
   0   1 -13    0.10    0.54
   0   1 -13    1.35    0.45
   0   1 -13    0.89    0.42
   0   1 -13    1.35    0.50
   0  -1  13    0.89    0.64
   0  -1  13    0.22    0.82
   0  -1  13    1.26    0.50
  -1   1 -13   16.65    1.60
  -1   1 -13   21.50    1.42
  -1   1 -13   20.06    1.27
   1  -1  13   20.18    1.40
   1  -1  13   17.70    1.16
   1  -1  13   19.01    1.66
  -2   1 -13   -0.20    0.55
  -2   1 -13   -0.09    0.60
  -2   1 -13   -0.25    0.56
   2  -1  13    0.53    0.57
  -3   1 -13    2.42    0.70
  -3   1 -13    1.58    0.65
   3  -1  13    0.70    0.53
   3  -1  13    2.97    0.79
   3  -1  13    1.65    0.56
  -4   1 -13    2.18    0.59
  -4   1 -13    1.69    0.54
   4  -1  13    1.08    0.45
   4  -1  13    0.81    0.39
   5   0 -13    1.77    0.28
   5   0 -13    2.16    0.38
   5   0 -13    2.22    0.35
   5   0 -13    1.55    0.29
   4   0 -13    4.85    0.59
   4   0 -13    5.04    0.62
   4   0 -13    5.62    0.79
   4   0 -13    7.88    0.81
   4   0 -13    5.28    0.61
   4   0 -13    5.22    0.58
   4   0 -13    6.32    0.80
  -4   0  13    2.99    1.11
   3   0 -13    6.41    0.85
   3   0 -13    5.16    0.69
   3   0 -13    8.00    0.84
   3   0 -13    6.30    0.73
   3   0 -13    6.06    0.73
   3   0 -13    5.21    0.74
   3   0 -13    7.27    0.70
   3   0 -13    7.20    0.78
  -3   0  13    3.85    1.26
   2   0 -13    8.07    0.76
   2   0 -13    8.45    0.81
   2   0 -13    8.61    1.01
   2   0 -13    9.53    0.76
   2   0 -13    7.46    0.72
  -2   0  13    6.15    1.30
  -2   0  13    3.58    1.11
  -2   0  13    7.47    0.77
   1   0 -13   -0.27    0.36
   1   0 -13    0.25    0.39
   1   0 -13    0.12    0.50
   1   0 -13   -0.09    0.33
   1   0 -13   -0.57    0.47
  -1   0  13   -0.50    0.38
  -1   0  13    0.87    0.88
   0   0 -13    1.97    0.63
   0   0 -13    2.54    0.50
   0   0 -13    2.89    0.62
   0   0  13    2.64    0.92
   0   0  13    2.38    0.68
   0   0  13    2.64    0.53
  -1   0 -13    1.63    0.56
  -1   0 -13    1.94    0.66
   1   0  13    2.69    0.67
   1   0  13    2.14    0.84
  -2   0 -13   12.18    1.21
  -2   0 -13   12.75    1.12
   2   0  13   12.60    1.27
   2   0  13   14.93    1.19
  -3   0 -13    0.26    0.57
  -3   0 -13    0.25    0.60
   3   0  13    0.26    0.50
   3   0  13    0.31    0.52
   3   0  13   -0.40    0.45
  -4   0 -13   -0.25    0.50
  -4   0 -13   -0.63    0.44
   4   0  13   -0.48    0.39
   4   0  13    0.21    0.39
   5  -1 -13    5.07    0.48
   5  -1 -13    4.47    0.50
   5  -1 -13    4.07    0.42
   5  -1 -13    4.75    0.40
   4  -1 -13    0.35    0.43
   4  -1 -13   -0.44    0.27
   4  -1 -13    0.08    0.37
   4  -1 -13    0.26    0.46
   4  -1 -13    0.13    0.43
   4  -1 -13   -0.06    0.41
   4  -1 -13   -0.11    0.35
   4  -1 -13    0.24    0.35
  -4   1  13    0.06    1.00
   3  -1 -13    0.35    0.48
   3  -1 -13    0.32    0.42
   3  -1 -13   -0.23    0.33
   3  -1 -13    0.13    0.45
   3  -1 -13   -0.31    0.45
   3  -1 -13   -0.21    0.33
   3  -1 -13   -0.41    0.39
   3  -1 -13   -0.28    0.44
  -3   1  13    0.49    1.08
   2  -1 -13    2.18    0.53
   2  -1 -13    2.06    0.47
   2  -1 -13    0.79    0.58
   2  -1 -13    1.82    0.45
  -2   1  13    1.35    1.05
   1  -1 -13   25.18    1.46
   1  -1 -13   24.11    1.68
   1  -1 -13   26.08    1.42
   1  -1 -13   24.80    1.84
  -1   1  13   21.28    2.05
  -1   1  13   25.58    1.85
   0  -1 -13    0.71    0.56
   0  -1 -13    2.12    0.56
   0   1  13    1.17    0.84
   0   1  13    3.56    0.83
  -1  -1 -13   10.76    0.94
  -1  -1 -13   10.92    1.17
   1   1  13   10.49    1.06
   1   1  13   10.73    1.32
  -2  -1 -13    1.73    0.64
  -2  -1 -13    2.72    0.68
   2   1  13    3.15    0.78
   2   1  13    2.35    0.68
  -3  -1 -13    0.54    0.58
   3   1  13    0.65    0.52
   3   1  13   -0.99    0.51
   3   1  13    1.07    0.70
  -4  -1 -13    2.05    0.49
   4   1  13    1.57    0.46
   4   1  13    1.12    0.43
   5  -2 -13    6.11    0.50
   5  -2 -13    6.39    0.54
   4  -2 -13   13.85    1.00
   4  -2 -13   13.45    0.96
   4  -2 -13   12.81    0.87
   4  -2 -13   12.67    0.88
   4  -2 -13   13.17    0.94
   4  -2 -13   13.89    0.91
  -4   2  13    7.41    1.34
   3  -2 -13    0.13    0.46
   3  -2 -13   -0.15    0.39
   3  -2 -13   -0.06    0.38
   3  -2 -13    0.07    0.51
   3  -2 -13    0.03    0.50
  -3   2  13    0.60    1.03
   2  -2 -13    2.50    0.60
   2  -2 -13    1.56    0.56
   2  -2 -13    2.71    0.47
   2  -2 -13    2.67    0.66
  -2   2  13    2.17    1.08
   1  -2 -13    9.25    0.85
   1  -2 -13   10.58    1.05
   1  -2 -13    9.51    1.07
  -1   2  13    8.18    1.35
  -1   2  13   10.09    1.30
   0  -2 -13    2.23    0.67
   0  -2 -13    3.78    0.71
   0   2  13    2.37    0.61
   0   2  13    4.68    0.91
   0   2  13    4.10    1.01
  -1  -2 -13    0.47    0.58
   1   2  13   -0.05    0.54
   1   2  13    0.48    0.76
  -2  -2 -13   23.32    1.53
  -2  -2 -13   24.69    1.49
   2   2  13   20.73    1.65
   2   2  13   25.09    1.69
   2   2  13   20.24    1.49
  -3  -2 -13    9.32    0.92
   3   2  13    7.24    0.84
   3   2  13    8.30    0.99
   3   2  13    9.08    1.02
  -4  -2 -13    0.20    0.37
   4   2  13    0.12    0.36
   4  -3 -13    1.76    0.49
   4  -3 -13    1.58    0.45
   4  -3 -13    2.07    0.48
   4  -3 -13    1.13    0.39
  -4   3  13    3.02    0.93
  -4   3  13    1.16    0.83
   3  -3 -13    5.15    0.76
   3  -3 -13    6.07    0.66
   3  -3 -13    6.19    0.84
   3  -3 -13    5.85    0.71
   3  -3 -13    6.42    0.80
  -3   3  13    4.14    1.14
   2  -3 -13    0.47    0.56
   2  -3 -13   -0.44    0.49
   2  -3 -13   -0.15    0.53
   2  -3 -13    0.83    0.55
  -2   3  13    1.38    0.96
   1  -3 -13   35.50    2.30
  -1   3  13   35.86    2.42
   0  -3 -13    7.26    0.95
   0   3  13    6.56    1.07
  -1  -3 -13    4.22    0.80
  -1  -3 -13    3.96    0.79
   1   3  13    5.86    1.01
   1   3  13    3.93    0.86
   1   3  13    5.06    0.73
  -2  -3 -13    4.81    0.79
  -2  -3 -13    5.70    0.77
   2   3  13    6.44    0.95
   2   3  13    4.60    0.84
   2   3  13    5.16    0.68
  -3  -3 -13    0.90    0.52
   3   3  13    0.84    0.57
   3   3  13    1.37    0.44
   3   3  13    1.05    0.55
   3   3  13    1.57    0.63
   4   3  13    0.07    0.30
   4  -4 -13    1.27    0.43
   4  -4 -13    1.45    0.42
  -4   4  13    2.39    0.79
  -4   4  13    1.00    0.69
   3  -4 -13    1.27    0.51
   3  -4 -13    1.14    0.52
   3  -4 -13    0.72    0.48
  -3   4  13    1.62    0.82
  -3   4  13    1.19    0.84
   2  -4 -13    3.71    0.64
   2  -4 -13    4.02    0.66
   2  -4 -13    5.26    0.85
  -2   4  13    3.18    0.95
   1  -4 -13    8.81    1.06
   1  -4 -13    9.15    1.09
  -1   4  13   10.43    1.29
  -1   4  13    7.58    1.15
   0  -4 -13   -0.38    0.60
   0  -4 -13    1.09    0.61
   0   4  13    0.09    0.69
   0   4  13    0.27    0.81
  -1  -4 -13    8.27    1.03
  -1  -4 -13    8.35    1.08
   1   4  13   10.76    1.24
   1   4  13    9.09    1.17
   1   4  13    9.01    0.99
  -2  -4 -13    0.88    0.59
  -2  -4 -13    0.42    0.53
   2   4  13    0.86    0.66
   2   4  13   -0.05    0.47
   2   4  13    0.42    0.58
  -3  -4 -13    9.24    0.79
   3   4  13    9.97    0.74
   3   4  13   10.11    0.85
   3   4  13    9.71    0.89
   4  -5 -13    1.41    0.37
   4  -5 -13    1.30    0.35
  -4   5  13    1.14    0.51
   3  -5 -13    1.59    0.48
   3  -5 -13    2.18    0.51
   3  -5 -13    1.68    0.54
  -3   5  13    1.63    0.68
  -3   5  13    2.54    0.79
   2  -5 -13   -0.21    0.49
   2  -5 -13   -0.13    0.52
   2  -5 -13    0.59    0.50
  -2   5  13    0.33    0.70
  -2   5  13    1.16    0.77
   1  -5 -13    6.32    0.81
   1  -5 -13    7.43    1.00
  -1   5  13    6.08    1.03
  -1   5  13    8.23    1.09
   0  -5 -13   25.76    1.76
   0  -5 -13   24.52    1.63
   0   5  13   26.09    1.55
   0   5  13   25.22    1.86
   0   5  13   25.86    1.74
  -1  -5 -13    0.14    0.60
  -1  -5 -13    0.81    0.60
   1   5  13    0.73    0.59
   1   5  13    0.09    0.69
   1   5  13    0.68    0.70
   1   5  13    0.43    0.50
  -2  -5 -13    2.17    0.56
  -2  -5 -13    2.26    0.52
   2   5  13    2.23    0.50
   2   5  13    1.55    0.61
   2   5  13    1.64    0.54
   3   5  13    0.53    0.31
   3   5  13    0.53    0.34
   3   5  13    0.23    0.28
   3  -6 -13   -0.21    0.36
   3  -6 -13    0.22    0.36
  -3   6  13    0.38    0.52
   2  -6 -13   -0.04    0.45
   2  -6 -13    0.78    0.45
   2  -6 -13    0.15    0.43
  -2   6  13    0.83    0.67
  -2   6  13    0.63    0.62
   1  -6 -13   11.91    1.05
   1  -6 -13   12.90    1.15
  -1   6  13   16.25    1.31
  -1   6  13   11.77    1.15
   0  -6 -13    0.31    0.50
   0  -6 -13    0.22    0.53
   0   6  13    1.01    0.64
   0   6  13   -0.08    0.43
   0   6  13    0.04    0.64
  -1  -6 -13   10.57    0.94
  -1  -6 -13   10.95    0.91
   1   6  13    9.92    1.05
   1   6  13    7.45    0.95
   1   6  13    9.91    0.82
  -2  -6 -13    1.26    0.39
   2   6  13    1.87    0.37
   2   6  13    2.66    0.57
  -2   7  13    7.12    0.76
  -2   7  13    7.01    0.61
   1  -7 -13    6.35    0.65
  -1   7  13    4.86    0.68
  -1   7  13    6.00    0.60
   0  -7 -13   11.98    0.89
   0   7  13   11.34    0.96
   0   7  13   11.64    0.79
  -1  -7 -13   -0.11    0.33
   1   7  13    0.75    0.47
   1   7  13    0.64    0.28
   1   7 -14   -0.28    0.46
   1   7 -14    0.63    0.45
   1   7 -14    0.49    0.44
   0   7 -14    2.06    0.47
   0   7 -14    0.65    0.55
   0   7 -14    1.26    0.52
   0   7 -14    0.86    0.47
   0   7 -14    0.58    0.46
  -1   7 -14   -1.03    0.43
  -1   7 -14   -0.43    0.43
  -1   7 -14   -0.18    0.45
  -1   7 -14   -0.52    0.39
  -2   7 -14    1.02    0.38
  -2   7 -14    1.21    0.43
  -2   7 -14    0.70    0.33
  -2   7 -14    1.91    0.43
   2   6 -14    1.85    0.57
   2   6 -14    2.00    0.55
   1   6 -14    5.61    0.75
   1   6 -14    6.29    0.78
   1   6 -14    2.75    0.69
   1   6 -14    3.91    0.77
   1   6 -14    5.38    0.74
   0   6 -14    1.35    0.54
   0   6 -14    0.86    0.53
   0   6 -14    0.52    0.47
   0   6 -14    0.23    0.53
   0   6 -14    1.11    0.47
   0   6 -14    1.07    0.59
   0   6 -14    1.07    0.56
   0   6 -14    0.09    0.61
  -1   6 -14    0.82    0.61
  -1   6 -14    1.89    0.57
  -1   6 -14    1.02    0.51
  -1   6 -14    1.17    0.59
  -1   6 -14    1.46    0.65
  -1   6 -14    1.40    0.64
  -1   6 -14    0.13    0.54
   1  -6  14    0.49    0.57
  -2   6 -14    0.01    0.46
  -2   6 -14   -0.36    0.50
  -2   6 -14   -0.86    0.49
   2  -6  14   -0.32    0.61
   2  -6  14   -0.12    0.52
  -3   6 -14    1.38    0.36
  -3   6 -14    1.58    0.43
   3  -6  14    1.98    0.36
   3  -6  14    1.48    0.44
   2   5 -14    0.35    0.58
   2   5 -14    0.05    0.47
   2   5 -14    0.82    0.52
   2   5 -14    0.62    0.57
   2   5 -14    1.30    0.64
   1   5 -14    2.26    0.65
   1   5 -14    3.70    0.65
   1   5 -14    2.69    0.62
   1   5 -14    2.47    0.80
   1   5 -14    4.44    0.89
   1   5 -14    2.51    0.70
   0   5 -14   11.99    1.18
   0   5 -14   11.67    1.24
   0   5 -14    9.94    1.29
   0   5 -14   10.45    1.05
   0   5 -14   12.84    1.06
   0   5 -14   12.57    1.12
   0   5 -14   13.04    1.14
  -1   5 -14    0.40    0.48
  -1   5 -14   -0.64    0.60
  -1   5 -14   -0.77    0.63
  -1   5 -14    0.30    0.66
  -1   5 -14   -0.47    0.52
  -1   5 -14    0.11    0.55
  -1   5 -14    0.42    0.66
  -1   5 -14   -0.93    0.53
  -2   5 -14    4.38    0.81
  -2   5 -14    6.74    0.92
  -2   5 -14    3.84    0.75
   2  -5  14    5.87    0.86
   2  -5  14    4.66    0.77
  -3   5 -14    0.59    0.50
  -3   5 -14    0.84    0.46
  -3   5 -14   -0.15    0.47
   3  -5  14    0.49    0.53
   3  -5  14    0.61    0.35
   3   4 -14    2.42    0.54
   3   4 -14    1.51    0.64
   3   4 -14    2.77    0.62
   3   4 -14    2.33    0.42
   3   4 -14    2.93    0.48
   3   4 -14    2.41    0.51
   2   4 -14    0.31    0.44
   2   4 -14   -0.59    0.37
   2   4 -14   -0.29    0.56
   2   4 -14    0.71    0.69
   2   4 -14    0.29    0.43
   2   4 -14    1.09    0.71
   2   4 -14    0.30    0.52
   1   4 -14   17.04    1.19
   1   4 -14   16.95    1.53
   1   4 -14   18.74    1.40
   1   4 -14   18.11    1.33
   1   4 -14   16.60    1.54
   1   4 -14   16.33    1.12
   1   4 -14   19.31    1.29
  -1  -4  14   13.49    1.43
   0   4 -14    0.76    0.66
   0   4 -14    0.46    0.52
   0   4 -14    0.16    0.63
   0   4 -14    1.52    0.63
   0   4 -14    0.40    0.64
   0   4 -14   -0.35    0.53
   0   4 -14   -0.15    0.70
   0  -4  14    0.25    0.67
  -1   4 -14   31.14    1.98
  -1   4 -14   31.57    1.91
  -1   4 -14   31.56    1.74
  -1   4 -14   30.69    1.84
  -1   4 -14   29.72    1.82
  -1   4 -14   31.44    1.77
  -1   4 -14   30.35    1.95
  -1   4 -14   31.29    2.07
   1  -4  14   31.10    1.86
  -2   4 -14   30.58    1.80
  -2   4 -14   29.57    1.89
  -2   4 -14   30.46    1.86
  -2   4 -14   32.79    1.93
   2  -4  14   30.98    1.82
  -3   4 -14    2.17    0.61
  -3   4 -14    2.76    0.66
  -3   4 -14    1.68    0.54
   3  -4  14    2.71    0.70
   3  -4  14    2.49    0.51
  -4   4 -14    0.04    0.33
  -4   4 -14    0.86    0.38
   4  -4  14    0.56    0.26
   4  -4  14    0.34    0.38
   4   3 -14    0.07    0.34
   4   3 -14    0.17    0.33
   4   3 -14    1.01    0.29
   3   3 -14    0.14    0.48
   3   3 -14    1.05    0.44
   3   3 -14    0.89    0.39
   3   3 -14    0.20    0.35
   3   3 -14    0.11    0.63
   3   3 -14   -0.01    0.38
   3   3 -14    0.03    0.56
   2   3 -14    2.62    0.76
   2   3 -14    2.66    0.69
   2   3 -14    2.78    0.64
   2   3 -14    3.61    0.58
   2   3 -14    1.90    0.66
   2   3 -14    3.12    0.56
   2   3 -14    2.98    0.56
   1   3 -14    3.87    0.90
   1   3 -14    5.01    0.67
   1   3 -14    2.72    0.78
   1   3 -14    4.46    0.63
   1   3 -14    4.07    0.61
   1   3 -14    3.27    0.86
   1   3 -14    5.97    0.75
   1   3 -14    4.75    0.83
   0   3 -14   14.83    1.34
   0   3 -14   13.43    1.26
   0   3 -14   12.97    1.16
   0   3 -14   13.81    1.06
   0   3 -14   11.48    1.34
   0   3 -14   15.64    1.20
   0  -3  14   14.59    1.32
  -1   3 -14    3.10    0.66
  -1   3 -14    3.08    0.76
  -1   3 -14    3.49    0.62
  -1   3 -14    1.66    0.80
  -1   3 -14    3.46    0.78
  -1   3 -14    2.87    0.70
   1  -3  14    2.96    0.71
  -2   3 -14    1.21    0.62
  -2   3 -14    0.03    0.66
  -2   3 -14    0.95    0.65
  -2   3 -14   -0.22    0.60
   2  -3  14    0.00    0.49
  -3   3 -14    2.86    0.62
  -3   3 -14    1.90    0.62
  -3   3 -14    2.69    0.65
   3  -3  14    2.04    0.53
   3  -3  14    2.88    0.76
   3  -3  14    2.71    0.52
  -4   3 -14    0.26    0.42
  -4   3 -14    0.30    0.37
   4  -3  14    1.08    0.44
   4  -3  14    0.22    0.30
   4   2 -14    0.89    0.32
   4   2 -14    0.78    0.42
   4   2 -14    0.20    0.39
   4   2 -14    0.97    0.33
   4   2 -14    0.59    0.37
   3   2 -14   -0.19    0.46
   3   2 -14    0.31    0.55
   3   2 -14    0.53    0.39
   3   2 -14   -0.36    0.57
   3   2 -14    0.10    0.36
   3   2 -14   -0.42    0.41
   3   2 -14   -0.82    0.47
   2   2 -14    7.13    0.82
   2   2 -14    5.77    0.76
   2   2 -14    7.00    0.94
   2   2 -14    6.81    0.82
   2   2 -14    6.45    0.75
   2   2 -14    4.24    0.93
   2   2 -14    6.40    0.75
   2   2 -14    5.49    0.74
   1   2 -14    2.12    0.50
   1   2 -14    2.36    0.51
   1   2 -14    2.20    0.53
   1   2 -14    2.87    0.78
   0   2 -14   -0.32    0.61
   0   2 -14    1.14    0.63
   0   2 -14   -0.26    0.44
   0   2 -14    0.08    0.41
   0  -2  14    0.73    0.65
   0  -2  14    0.36    0.53
  -1   2 -14    5.30    0.80
  -1   2 -14    5.70    0.90
  -1   2 -14    5.70    0.85
   1  -2  14    6.12    0.89
  -2   2 -14    1.06    0.64
  -2   2 -14    0.71    0.65
  -2   2 -14    1.59    0.64
   2  -2  14    1.08    0.58
  -3   2 -14    4.37    0.73
  -3   2 -14    3.89    0.70
   3  -2  14    3.61    0.78
   3  -2  14    4.21    0.62
   3  -2  14    4.26    0.63
  -4   2 -14    5.46    0.69
  -4   2 -14    7.61    0.74
   4  -2  14    6.88    0.62
   4  -2  14    5.97    0.72
   4   1 -14    0.43    0.28
   4   1 -14    0.94    0.33
   4   1 -14    1.40    0.47
   4   1 -14    0.20    0.47
   4   1 -14    0.67    0.42
   4   1 -14    0.37    0.32
   4   1 -14    0.16    0.36
   4   1 -14    0.17    0.43
   3   1 -14    0.37    0.50
   3   1 -14    0.23    0.43
   3   1 -14    0.55    0.38
   3   1 -14   -0.15    0.52
   3   1 -14   -0.02    0.47
   3   1 -14    0.78    0.50
   3   1 -14    0.13    0.36
   2   1 -14   37.66    2.00
   2   1 -14   37.26    1.86
   2   1 -14   36.57    2.13
   2   1 -14   36.64    2.00
   2   1 -14   39.76    2.45
   2   1 -14   38.38    2.01
   2   1 -14   36.37    1.97
   2   1 -14   38.84    1.92
   1   1 -14    0.46    0.42
   1   1 -14   -0.18    0.53
   1   1 -14    0.00    0.42
   1   1 -14    0.19    0.60
   1   1 -14   -0.52    0.38
   1   1 -14    0.28    0.38
  -1  -1  14   -0.04    0.90
  -1  -1  14    0.44    0.47
   0   1 -14    4.54    0.84
   0   1 -14    4.08    0.57
   0   1 -14    2.54    0.56
   0   1 -14    4.69    0.76
   0  -1  14    3.80    1.04
   0  -1  14    4.29    0.82
   0  -1  14    3.44    0.63
  -1   1 -14   14.08    1.08
  -1   1 -14   14.29    1.22
   1  -1  14   15.06    1.26
   1  -1  14   14.62    1.05
  -2   1 -14    0.01    0.57
  -2   1 -14   -0.85    0.56
   2  -1  14   -1.63    0.74
   2  -1  14   -0.26    0.55
  -3   1 -14   12.56    1.08
  -3   1 -14   14.98    1.21
   3  -1  14   13.66    1.07
   3  -1  14   13.25    1.02
  -4   1 -14   -0.31    0.41
   4  -1  14   -0.44    0.35
   4  -1  14   -0.18    0.29
   4   0 -14   -0.25    0.28
   4   0 -14   -0.14    0.29
   4   0 -14    0.21    0.34
   4   0 -14   -0.18    0.34
   4   0 -14   -0.11    0.47
   4   0 -14   -0.41    0.41
   4   0 -14   -0.21    0.40
   4   0 -14    0.09    0.42
  -4   0  14    0.56    0.95
   3   0 -14    9.10    0.82
   3   0 -14   11.57    0.90
   3   0 -14   11.68    1.03
   3   0 -14   10.71    0.94
   3   0 -14   11.08    0.94
   3   0 -14   10.92    0.82
   3   0 -14    9.71    0.87
   3   0 -14   11.85    0.98
  -3   0  14    7.54    1.42
   2   0 -14    1.71    0.57
   2   0 -14    1.28    0.55
   2   0 -14    2.06    0.47
   2   0 -14    1.70    0.54
   2   0 -14    2.70    0.48
   2   0 -14    1.83    0.48
   2   0 -14    1.99    0.67
   2   0 -14    1.10    0.52
  -2   0  14    0.46    1.02
   1   0 -14    0.59    0.45
   1   0 -14    0.02    0.39
   1   0 -14    0.06    0.36
   1   0 -14    0.19    0.53
   1   0 -14   -1.00    0.46
  -1   0  14    0.16    0.92
  -1   0  14    0.26    0.46
   0   0 -14   -0.27    0.49
   0   0 -14    0.79    0.54
   0   0  14    0.80    0.86
   0   0  14    0.35    0.62
  -1   0 -14    1.15    0.57
   1   0  14    2.14    0.89
   1   0  14    1.94    0.66
  -2   0 -14    4.72    0.74
  -2   0 -14    6.98    1.00
   2   0  14    5.41    0.82
   2   0  14    6.48    0.91
  -3   0 -14    0.08    0.58
  -3   0 -14   -0.64    0.51
   3   0  14   -0.18    0.46
   3   0  14    0.56    0.52
   3   0  14   -0.41    0.33
  -4   0 -14    1.26    0.45
   4  -1 -14    1.11    0.43
   4  -1 -14    1.01    0.38
   4  -1 -14    0.37    0.44
   4  -1 -14   -0.26    0.43
   4  -1 -14    0.76    0.32
   4  -1 -14    0.85    0.43
   4  -1 -14    0.01    0.34
   4  -1 -14    0.34    0.32
  -4   1  14    1.81    0.99
   3  -1 -14   -0.49    0.30
   3  -1 -14    0.03    0.46
   3  -1 -14    0.30    0.40
   3  -1 -14   -0.18    0.45
   3  -1 -14    0.80    0.51
   3  -1 -14   -0.01    0.46
   3  -1 -14   -0.06    0.34
   3  -1 -14    0.04    0.39
  -3   1  14    0.05    1.04
   2  -1 -14    2.37    0.63
   2  -1 -14    2.54    0.59
   2  -1 -14    2.31    0.47
   2  -1 -14    2.21    0.56
   2  -1 -14    1.97    0.58
   2  -1 -14    1.82    0.45
  -2   1  14    1.64    1.03
   1  -1 -14   31.26    1.78
   1  -1 -14   33.09    2.05
   1  -1 -14   31.67    1.71
  -1   1  14   33.17    2.20
  -1   1  14   28.35    2.47
   0  -1 -14    1.27    0.63
   0  -1 -14    1.89    0.62
   0   1  14    2.20    0.94
   0   1  14    1.43    0.64
  -1  -1 -14    2.41    0.63
  -1  -1 -14    2.01    0.62
   1   1  14    2.81    0.69
   1   1  14    2.05    0.79
  -2  -1 -14   -0.02    0.56
  -2  -1 -14   -0.50    0.55
   2   1  14    0.37    0.64
   2   1  14    0.20    0.52
  -3  -1 -14    1.35    0.57
  -3  -1 -14   -0.11    0.50
   3   1  14   -0.46    0.44
   3   1  14    0.28    0.51
  -4  -1 -14    0.28    0.39
   4   1  14    0.56    0.36
   4  -2 -14    0.13    0.36
   4  -2 -14   -0.02    0.39
   4  -2 -14    0.70    0.41
   4  -2 -14    0.32    0.41
   4  -2 -14    0.74    0.35
  -4   2  14    1.27    0.88
   3  -2 -14    0.19    0.39
   3  -2 -14    0.17    0.39
   3  -2 -14   -0.37    0.37
   3  -2 -14    0.13    0.49
   3  -2 -14   -0.36    0.42
   3  -2 -14    0.55    0.51
  -3   2  14    0.92    1.01
   2  -2 -14    1.12    0.57
   2  -2 -14    1.58    0.59
   2  -2 -14    1.81    0.58
   2  -2 -14    1.81    0.56
  -2   2  14    3.18    1.00
   1  -2 -14   16.59    1.36
  -1   2  14   16.25    1.57
   0  -2 -14    2.11    0.65
   0   2  14    1.01    0.47
   0   2  14    1.90    0.77
  -1  -2 -14    7.24    1.00
  -1  -2 -14   10.07    0.97
   1   2  14   10.04    1.22
   1   2  14    9.15    1.24
   1   2  14    8.08    0.92
  -2  -2 -14   19.88    1.32
  -2  -2 -14   18.47    1.35
   2   2  14   18.24    1.30
   2   2  14   18.53    1.47
  -3  -2 -14    1.71    0.55
   3   2  14    0.91    0.55
   3   2  14    1.84    0.51
   3   2  14    2.05    0.64
  -4  -2 -14    0.38    0.34
   4   2  14    0.18    0.32
   4  -3 -14    0.68    0.40
   4  -3 -14    0.20    0.38
   4  -3 -14   -0.18    0.37
   4  -3 -14    0.08    0.35
  -4   3  14    0.51    0.74
   3  -3 -14   -0.53    0.41
   3  -3 -14    0.25    0.48
   3  -3 -14    0.91    0.51
   3  -3 -14    0.62    0.50
  -3   3  14   -0.71    0.80
   2  -3 -14    6.74    0.89
   2  -3 -14    7.86    0.95
   2  -3 -14    8.48    0.87
   2  -3 -14    7.84    0.88
  -2   3  14    5.45    1.12
   1  -3 -14   18.26    1.28
   1  -3 -14   17.25    1.41
  -1   3  14   18.54    1.64
  -1   3  14   13.94    1.44
   0  -3 -14    2.37    0.67
   0  -3 -14    1.18    0.63
   0   3  14    1.72    0.78
   0   3  14    2.17    0.83
  -1  -3 -14    2.47    0.68
  -1  -3 -14    2.89    0.66
   1   3  14    1.61    0.85
   1   3  14    2.65    0.80
   1   3  14    1.64    0.58
  -2  -3 -14    5.29    0.70
  -2  -3 -14    3.13    0.67
   2   3  14    3.63    0.84
   2   3  14    5.20    0.65
   2   3  14    4.08    0.77
  -3  -3 -14    2.30    0.53
   3   3  14    2.63    0.58
   3   3  14    1.85    0.53
   4  -4 -14    0.90    0.37
   4  -4 -14    1.31    0.38
   3  -4 -14    0.63    0.47
   3  -4 -14    0.46    0.46
   3  -4 -14    0.16    0.45
  -3   4  14    1.43    0.77
   2  -4 -14   -1.23    0.43
   2  -4 -14   -0.06    0.50
   2  -4 -14    0.06    0.55
  -2   4  14   -0.61    0.78
   1  -4 -14    0.23    0.57
   1  -4 -14   -0.74    0.53
  -1   4  14    1.16    0.83
  -1   4  14   -1.05    0.60
   0  -4 -14    4.43    0.74
   0  -4 -14    3.82    0.75
   0   4  14    5.26    0.86
   0   4  14    3.20    0.95
  -1  -4 -14    9.38    0.97
  -1  -4 -14    8.80    1.05
   1   4  14    8.97    1.10
   1   4  14   10.37    1.17
   1   4  14    8.92    0.97
  -2  -4 -14   12.48    0.99
  -2  -4 -14   13.42    1.01
   2   4  14   12.16    1.13
   2   4  14   13.87    1.10
   2   4  14   11.14    0.92
   3   4  14    0.24    0.38
   3   4  14    0.40    0.32
   3   4  14   -0.15    0.35
   4  -5 -14   -0.32    0.26
   4  -5 -14    0.22    0.29
  -4   5  14   -0.39    0.39
   3  -5 -14    5.15    0.68
   3  -5 -14    6.17    0.68
   3  -5 -14    5.84    0.65
  -3   5  14    4.37    0.81
  -3   5  14    6.12    0.86
   2  -5 -14    7.15    0.86
   2  -5 -14    7.88    0.76
   2  -5 -14    6.36    0.80
  -2   5  14    6.95    0.97
  -2   5  14    5.27    0.93
   1  -5 -14    2.33    0.63
   1  -5 -14    2.28    0.62
  -1   5  14    3.71    0.85
   0  -5 -14    0.36    0.53
   0  -5 -14    0.39    0.56
   0   5  14    0.34    0.50
   0   5  14    1.12    0.75
  -1  -5 -14    0.23    0.54
  -1  -5 -14    0.28    0.53
   1   5  14   -0.59    0.58
   1   5  14    0.08    0.44
   1   5  14    0.19    0.52
  -2  -5 -14    2.41    0.50
  -2  -5 -14    3.87    0.51
   2   5  14    2.29    0.49
   2   5  14    2.58    0.46
   2   5  14    2.02    0.58
   3  -6 -14    0.58    0.33
   3  -6 -14    0.86    0.34
  -3   6  14    0.06    0.44
   2  -6 -14    0.96    0.47
  -2   6  14    0.21    0.54
  -2   6  14    0.74    0.63
   1  -6 -14   -0.15    0.44
   1  -6 -14   -0.01    0.44
  -1   6  14    0.59    0.58
  -1   6  14   -0.20    0.60
   0  -6 -14    0.78    0.49
   0  -6 -14    0.75    0.48
   0   6  14    0.15    0.57
   0   6  14    0.00    0.39
   0   6  14    1.01    0.59
  -1  -6 -14    0.80    0.46
   1   6  14    0.66    0.49
   1   6  14    0.34    0.36
  -2   7  14    0.58    0.39
  -2   7  14    0.46    0.30
   1  -7 -14    4.28    0.48
  -1   7  14    5.19    0.64
  -1   7  14    4.65    0.51
   0  -7 -14    0.35    0.34
   0   7  14    0.34    0.29
   0   7  14    0.37    0.46
   1   7 -15    4.21    0.60
   1   7 -15    4.98    0.66
   1   7 -15    5.80    0.57
   0   7 -15    3.17    0.50
   0   7 -15    2.48    0.50
   0   7 -15    3.41    0.56
  -1   7 -15    0.67    0.39
  -1   7 -15    1.36    0.39
  -1   7 -15    1.57    0.41
  -1   7 -15    1.00    0.43
   2   6 -15    1.14    0.43
   2   6 -15    1.10    0.48
   1   6 -15    0.48    0.54
   1   6 -15    1.45    0.57
   1   6 -15    2.16    0.60
   1   6 -15    2.53    0.47
   1   6 -15    2.16    0.56
   1   6 -15    1.67    0.51
   0   6 -15    1.11    0.62
   0   6 -15    1.29    0.54
   0   6 -15    1.07    0.57
   0   6 -15    0.27    0.48
   0   6 -15    2.19    0.49
   0   6 -15    1.44    0.48
  -1   6 -15    0.27    0.46
  -1   6 -15    0.52    0.49
  -1   6 -15   -0.38    0.52
  -1   6 -15   -0.81    0.47
  -1   6 -15   -0.18    0.47
  -1   6 -15    0.02    0.42
  -1   6 -15    0.49    0.52
   1  -6  15   -0.77    0.49
  -2   6 -15   -0.33    0.44
  -2   6 -15   -0.58    0.39
   2  -6  15   -0.13    0.56
   2  -6  15   -0.43    0.34
   3   5 -15    1.97    0.34
   2   5 -15    6.69    0.73
   2   5 -15    5.73    0.94
   2   5 -15    6.92    0.75
   2   5 -15    8.46    0.96
   2   5 -15    6.38    0.88
   1   5 -15    0.22    0.48
   1   5 -15    0.33    0.54
   1   5 -15   -0.61    0.59
   1   5 -15    0.73    0.59
   1   5 -15    0.36    0.50
   1   5 -15    0.01    0.66
   0   5 -15   -0.45    0.42
   0   5 -15    0.13    0.52
   0   5 -15    0.26    0.58
   0   5 -15   -0.46    0.65
   0   5 -15    0.17    0.55
   0   5 -15   -0.14    0.57
  -1   5 -15    8.50    0.92
  -1   5 -15    8.54    0.90
  -1   5 -15    6.75    0.94
  -1   5 -15    9.29    0.97
  -1   5 -15    8.21    1.12
  -1   5 -15   10.03    1.02
  -1   5 -15   10.39    0.99
   1  -5  15    8.37    1.00
  -2   5 -15    0.28    0.55
  -2   5 -15    0.08    0.52
  -2   5 -15    1.20    0.56
   2  -5  15    1.33    0.69
   2  -5  15   -0.19    0.54
  -3   5 -15    0.46    0.41
   3  -5  15    1.05    0.34
   3  -5  15   -0.20    0.44
   3   4 -15    0.04    0.45
   3   4 -15    0.14    0.30
   3   4 -15    0.21    0.55
   3   4 -15    0.27    0.39
   3   4 -15   -0.35    0.39
   2   4 -15    0.34    0.64
   2   4 -15   -0.05    0.51
   2   4 -15   -0.01    0.62
   2   4 -15    0.77    0.45
   2   4 -15    1.35    0.51
   2   4 -15    0.81    0.42
   2   4 -15    0.65    0.38
   1   4 -15   -0.51    0.52
   1   4 -15   -0.22    0.51
   1   4 -15   -1.07    0.61
   1   4 -15    0.30    0.73
   1   4 -15    0.22    0.62
   1   4 -15   -0.19    0.48
  -1  -4  15    0.41    0.71
   0   4 -15    2.72    0.60
   0   4 -15    2.47    0.62
   0   4 -15    2.26    0.80
   0   4 -15    2.08    0.63
   0   4 -15    2.34    0.73
   0   4 -15    2.67    0.70
   0  -4  15    3.53    0.78
  -1   4 -15    4.10    0.65
  -1   4 -15    3.57    0.76
  -1   4 -15    5.94    0.92
  -1   4 -15    3.99    0.78
  -1   4 -15    4.60    0.70
  -1   4 -15    5.99    0.78
  -1   4 -15    3.68    0.76
  -1   4 -15    5.34    0.86
   1  -4  15    4.82    0.80
  -2   4 -15    6.08    0.84
  -2   4 -15    7.78    0.97
  -2   4 -15    7.14    0.99
   2  -4  15    5.35    0.81
   2  -4  15    7.27    0.92
  -3   4 -15    0.75    0.52
  -3   4 -15    0.39    0.50
  -3   4 -15    0.61    0.40
   3  -4  15    0.73    0.56
   3  -4  15    1.32    0.41
   4   3 -15    0.32    0.23
   4   3 -15   -0.06    0.30
   4   3 -15    0.19    0.26
   3   3 -15   -0.04    0.49
   3   3 -15    0.64    0.37
   3   3 -15    0.81    0.41
   3   3 -15    1.71    0.51
   3   3 -15    0.72    0.37
   3   3 -15    1.11    0.61
   2   3 -15    1.95    0.65
   2   3 -15    1.00    0.46
   2   3 -15    0.79    0.57
   2   3 -15    0.76    0.66
   2   3 -15    1.55    0.49
   2   3 -15    1.77    0.49
   2   3 -15    1.49    0.58
   1   3 -15   20.13    1.43
   1   3 -15   23.19    1.32
   1   3 -15   21.80    1.39
   1   3 -15   19.82    1.71
   1   3 -15   22.33    1.27
   1   3 -15   19.85    1.39
   1   3 -15   18.91    1.62
  -1  -3  15   22.68    1.63
   0   3 -15   23.19    1.48
   0   3 -15   21.62    1.52
   0   3 -15   21.76    1.71
   0   3 -15   23.46    1.68
   0   3 -15   22.50    1.34
   0   3 -15   22.64    1.46
   0  -3  15   24.37    1.64
  -1   3 -15   -0.87    0.57
  -1   3 -15    0.38    0.52
  -1   3 -15   -0.21    0.61
  -1   3 -15   -0.32    0.56
  -1   3 -15    0.57    0.49
  -1   3 -15    0.34    0.68
   1  -3  15   -0.26    0.54
  -2   3 -15   -0.27    0.57
  -2   3 -15    0.76    0.64
  -2   3 -15   -0.44    0.56
  -2   3 -15   -0.43    0.57
   2  -3  15    0.20    0.51
  -3   3 -15    2.44    0.58
  -3   3 -15    1.78    0.58
  -3   3 -15    1.18    0.43
   3  -3  15    2.52    0.50
   3  -3  15    1.94    0.65
   3  -3  15    1.77    0.46
  -4   3 -15    1.23    0.37
  -4   3 -15    0.51    0.33
   4  -3  15    0.88    0.28
   4  -3  15    0.75    0.37
   4   2 -15    2.98    0.40
   4   2 -15    3.03    0.47
   4   2 -15    2.91    0.46
   3   2 -15    1.18    0.53
   3   2 -15    0.59    0.54
   3   2 -15   -0.02    0.34
   3   2 -15    1.48    0.50
   3   2 -15    1.34    0.45
   3   2 -15    0.79    0.41
   3   2 -15    0.65    0.50
   2   2 -15    0.93    0.58
   2   2 -15    0.67    0.54
   2   2 -15    0.96    0.67
   2   2 -15    0.55    0.41
   2   2 -15    0.76    0.49
   2   2 -15    1.29    0.45
   2   2 -15    1.11    0.51
   2   2 -15    1.36    0.56
   1   2 -15    8.66    0.84
   1   2 -15    8.58    0.84
   1   2 -15    7.87    1.15
   1   2 -15    9.28    0.92
   1   2 -15    8.87    0.99
   1   2 -15    7.03    0.78
   1   2 -15    9.21    1.11
   1   2 -15    6.77    0.95
   0   2 -15   30.50    1.68
   0   2 -15   28.09    1.56
   0   2 -15   28.69    1.95
   0   2 -15   27.76    1.83
   0   2 -15   28.22    1.65
   0   2 -15   27.88    1.67
   0  -2  15   26.76    1.84
  -1   2 -15   10.24    1.10
  -1   2 -15   10.70    1.07
  -1   2 -15   10.91    1.04
  -1   2 -15   11.20    1.02
  -1   2 -15   10.98    1.16
   1  -2  15   10.33    1.12
  -2   2 -15   22.44    1.44
  -2   2 -15   21.57    1.51
   2  -2  15   20.68    1.44
   2  -2  15   22.35    1.53
  -3   2 -15    1.88    0.60
  -3   2 -15    0.31    0.43
   3  -2  15    2.60    0.68
   3  -2  15    2.26    0.53
   3  -2  15    2.34    0.50
  -4   2 -15    1.88    0.40
  -4   2 -15    2.56    0.45
   4  -2  15    1.87    0.37
   4  -2  15    2.52    0.36
   4   1 -15   -0.11    0.26
   4   1 -15    0.59    0.30
   4   1 -15    0.27    0.41
   4   1 -15   -0.03    0.37
   4   1 -15    0.05    0.31
   4   1 -15   -0.53    0.36
   4   1 -15    0.21    0.38
   3   1 -15    5.19    0.68
   3   1 -15    2.59    0.58
   3   1 -15    4.12    0.64
   3   1 -15    3.82    0.52
   3   1 -15    4.26    0.66
   3   1 -15    3.69    0.60
   3   1 -15    3.20    0.51
   2   1 -15    4.98    0.85
   2   1 -15    5.45    0.71
   2   1 -15    6.27    0.84
   2   1 -15    4.46    0.60
   2   1 -15    5.58    0.71
   2   1 -15    4.17    0.62
   2   1 -15    4.46    0.70
   2   1 -15    5.11    0.70
   1   1 -15   48.52    2.44
   1   1 -15   48.40    2.49
   1   1 -15   49.64    2.69
   1   1 -15   51.62    2.49
   1   1 -15   48.00    2.64
   1   1 -15   52.91    2.39
   1   1 -15   50.46    2.99
   1   1 -15   50.53    2.51
   1   1 -15   47.65    2.33
   0   1 -15    6.54    0.96
   0   1 -15    6.78    0.91
   0  -1  15    7.31    0.99
  -1   1 -15    0.46    0.57
  -1   1 -15    0.92    0.57
  -1   1 -15   -0.48    0.54
  -1   1 -15   -0.05    0.48
   1  -1  15    0.76    0.62
  -2   1 -15    2.40    0.67
  -2   1 -15    1.34    0.61
   2  -1  15    2.33    0.84
   2  -1  15    2.27    0.67
  -3   1 -15   16.50    1.15
   3  -1  15   15.97    1.13
   3  -1  15   16.38    1.06
  -4   1 -15    0.74    0.39
  -4   1 -15   -0.18    0.34
   4  -1  15    0.68    0.26
   4   0 -15    4.02    0.47
   4   0 -15    4.13    0.50
   4   0 -15    4.24    0.53
   4   0 -15    4.55    0.55
   4   0 -15    4.84    0.64
   4   0 -15    4.19    0.47
   4   0 -15    5.48    0.66
   4   0 -15    3.50    0.53
  -4   0  15    2.68    0.93
   3   0 -15   21.38    1.19
   3   0 -15   19.36    1.25
   3   0 -15   21.42    1.29
   3   0 -15   21.08    1.41
   3   0 -15   20.55    1.30
   3   0 -15   22.73    1.24
   3   0 -15   22.39    1.31
  -3   0  15   16.81    1.88
   2   0 -15    0.17    0.46
   2   0 -15    0.15    0.38
   2   0 -15   -0.08    0.51
   2   0 -15   -0.06    0.50
   2   0 -15    0.25    0.43
   2   0 -15    0.42    0.47
   2   0 -15    0.24    0.51
   2   0 -15    0.67    0.40
   1   0 -15    4.04    0.57
   1   0 -15    3.40    0.55
   1   0 -15    3.24    0.54
   1   0 -15    4.09    0.75
   1   0 -15    3.14    0.62
   0   0 -15    6.36    0.86
   0   0  15    6.29    0.90
  -1   0 -15    1.06    0.58
  -1   0 -15    1.58    0.57
   1   0  15    2.05    0.77
   1   0  15    2.10    0.68
  -2   0 -15   11.38    1.13
  -2   0 -15   12.99    1.03
   2   0  15   13.89    1.21
   2   0  15   11.39    1.10
  -3   0 -15    3.42    0.63
   3   0  15    2.77    0.56
   3   0  15    3.13    0.61
  -4   0 -15    1.42    0.38
   4  -1 -15    0.54    0.38
   4  -1 -15    0.39    0.34
   4  -1 -15   -0.22    0.38
   4  -1 -15    0.29    0.30
   4  -1 -15    0.35    0.29
   4  -1 -15    0.04    0.39
   4  -1 -15    0.48    0.37
   4  -1 -15    0.77    0.35
  -4   1  15   -0.65    0.79
   3  -1 -15    6.90    0.84
   3  -1 -15    7.42    0.73
   3  -1 -15    6.20    0.69
   3  -1 -15    7.57    0.67
   3  -1 -15    7.54    0.70
   3  -1 -15    7.75    0.83
   3  -1 -15    7.39    0.80
   3  -1 -15    7.21    0.82
  -3   1  15    8.07    1.31
   2  -1 -15   10.09    0.95
   2  -1 -15   10.73    1.02
   2  -1 -15    8.46    0.81
   2  -1 -15   10.75    0.98
   2  -1 -15    9.58    0.99
   2  -1 -15   11.35    0.81
  -2   1  15    8.77    1.30
   1  -1 -15    5.59    0.83
   1  -1 -15    7.64    0.91
   1  -1 -15    8.43    0.95
   1  -1 -15    9.02    0.93
   1  -1 -15    7.20    0.84
  -1   1  15    5.71    0.88
  -1   1  15    6.04    1.06
   0  -1 -15    2.88    0.64
   0  -1 -15    2.73    0.66
   0   1  15    3.53    0.89
   0   1  15    1.19    0.64
  -1  -1 -15    0.03    0.55
  -1  -1 -15    0.57    0.57
   1   1  15    1.49    0.74
   1   1  15    1.04    0.60
  -2  -1 -15   -0.02    0.54
  -2  -1 -15    0.37    0.55
   2   1  15   -0.26    0.59
   2   1  15    0.28    0.51
  -3  -1 -15   -0.19    0.48
   3   1  15    0.77    0.50
   3   1  15   -0.43    0.40
  -4  -1 -15    3.73    0.47
   4   1  15    3.66    0.47
   4  -2 -15    7.28    0.69
   4  -2 -15    7.21    0.62
   4  -2 -15    6.35    0.67
   4  -2 -15    7.00    0.66
  -4   2  15    7.75    1.14
   3  -2 -15    0.53    0.43
   3  -2 -15   -0.15    0.43
   3  -2 -15    0.32    0.38
   3  -2 -15   -0.36    0.43
   3  -2 -15   -0.32    0.44
  -3   2  15    0.08    0.89
   2  -2 -15   11.32    1.01
   2  -2 -15   11.07    1.03
   2  -2 -15   11.45    1.00
   2  -2 -15   11.93    1.08
  -2   2  15   10.01    1.40
   1  -2 -15   11.06    1.03
   1  -2 -15   11.59    1.15
   1  -2 -15   12.74    1.04
  -1   2  15   11.18    1.34
   0  -2 -15    5.56    0.86
   0  -2 -15    6.07    0.90
   0   2  15    6.08    0.98
   0   2  15    6.20    0.96
  -1  -2 -15    0.07    0.55
  -1  -2 -15    0.00    0.53
   1   2  15   -0.70    0.59
   1   2  15    0.48    0.77
   1   2  15   -0.49    0.41
  -2  -2 -15   14.12    1.12
  -2  -2 -15   15.50    1.18
   2   2  15   16.65    1.31
   2   2  15   13.87    1.10
  -3  -2 -15    1.32    0.48
   3   2  15    1.81    0.54
   4  -3 -15    1.24    0.39
   4  -3 -15    1.26    0.39
   4  -3 -15    1.69    0.36
   3  -3 -15    3.79    0.60
   3  -3 -15    4.08    0.68
   3  -3 -15    4.02    0.57
   3  -3 -15    5.84    0.75
  -3   3  15    3.79    0.93
   2  -3 -15   14.88    1.09
   2  -3 -15   13.82    1.07
   2  -3 -15   13.77    1.19
   2  -3 -15   14.08    1.09
  -2   3  15   13.76    1.46
   1  -3 -15   -0.37    0.52
   1  -3 -15    0.40    0.58
  -1   3  15   -0.59    0.76
  -1   3  15   -1.39    0.59
   0  -3 -15    1.55    0.62
   0  -3 -15    1.18    0.59
   0   3  15    0.87    0.69
   0   3  15    1.03    0.79
  -1  -3 -15   21.12    1.48
  -1  -3 -15   21.40    1.36
   1   3  15   22.30    1.62
   1   3  15   23.48    1.39
   1   3  15   23.63    1.68
  -2  -3 -15    0.17    0.47
  -2  -3 -15    0.30    0.51
   2   3  15   -0.32    0.41
   2   3  15   -0.17    0.56
   2   3  15    0.03    0.61
   3   3  15   -0.22    0.39
   4  -4 -15    0.71    0.30
   4  -4 -15    1.20    0.34
   3  -4 -15    0.47    0.43
   3  -4 -15    0.58    0.42
   3  -4 -15    0.45    0.42
  -3   4  15    0.48    0.68
   2  -4 -15    1.64    0.50
   2  -4 -15    3.00    0.55
   2  -4 -15    2.22    0.59
  -2   4  15    2.96    0.82
  -2   4  15    2.03    0.66
   1  -4 -15    3.56    0.63
   1  -4 -15    1.97    0.65
  -1   4  15    2.67    0.72
  -1   4  15    3.24    0.86
   0  -4 -15   -0.54    0.53
   0  -4 -15   -0.04    0.52
   0   4  15    0.50    0.59
   0   4  15   -0.93    0.70
  -1  -4 -15    6.65    0.79
  -1  -4 -15    5.78    0.75
   1   4  15    5.20    0.86
   1   4  15    4.28    0.63
   1   4  15    5.12    0.78
  -2  -4 -15    3.57    0.54
  -2  -4 -15    3.28    0.55
   2   4  15    3.32    0.51
   2   4  15    4.19    0.71
   3   4  15    2.85    0.43
   3  -5 -15    0.10    0.36
   3  -5 -15   -0.01    0.35
  -3   5  15    0.02    0.54
   2  -5 -15   -0.26    0.40
   2  -5 -15    0.02    0.46
   2  -5 -15    0.60    0.44
  -2   5  15   -0.07    0.61
   1  -5 -15    0.02    0.45
   1  -5 -15    0.40    0.50
  -1   5  15    1.10    0.70
   0  -5 -15    4.18    0.64
   0  -5 -15    4.74    0.75
   0   5  15    4.01    0.79
   0   5  15    3.79    0.61
  -1  -5 -15    1.31    0.52
   1   5  15    0.59    0.46
   1   5  15    1.90    0.47
   1   5  15    1.12    0.59
  -2  -5 -15   11.30    0.76
   2   5  15   11.34    0.73
   2   5  15   10.64    0.80
   3  -6 -15    3.50    0.41
   3  -6 -15    4.16    0.44
  -2   6  15    0.95    0.48
   1  -6 -15    1.83    0.50
   1  -6 -15    1.94    0.43
  -1   6  15    1.48    0.59
  -1   6  15    1.64    0.44
   0  -6 -15    9.68    0.80
   0   6  15    8.73    0.74
   0   6  15    8.15    0.88
  -1  -6 -15   10.31    0.74
   1   6  15    9.24    0.68
  -1   7  15    0.23    0.26
   0   7 -16    0.45    0.35
   0   7 -16    0.74    0.32
   0   7 -16    0.39    0.34
   2   6 -16    2.12    0.40
   1   6 -16    0.06    0.45
   1   6 -16    1.26    0.38
   1   6 -16   -0.20    0.38
   1   6 -16   -0.14    0.43
   0   6 -16    0.12    0.37
   0   6 -16   -0.59    0.46
   0   6 -16   -0.30    0.45
   0   6 -16   -0.07    0.40
   0   6 -16    0.15    0.41
   0   6 -16   -0.27    0.39
  -1   6 -16    1.87    0.50
  -1   6 -16    2.12    0.47
  -1   6 -16    3.29    0.51
  -1   6 -16    2.78    0.59
   1  -6  16    3.47    0.63
   1  -6  16    1.92    0.64
  -2   6 -16    1.54    0.42
  -2   6 -16    1.75    0.42
   2  -6  16    0.88    0.49
   2  -6  16    0.97    0.35
   2   5 -16    6.73    0.68
   2   5 -16    7.32    0.85
   2   5 -16    7.42    0.81
   1   5 -16   -0.44    0.55
   1   5 -16   -0.15    0.54
   1   5 -16    0.42    0.44
   1   5 -16    0.01    0.49
   1   5 -16    0.37    0.59
   1   5 -16    0.40    0.47
   0   5 -16    0.90    0.50
   0   5 -16    0.97    0.57
   0   5 -16    0.57    0.49
   0   5 -16    1.41    0.68
   0   5 -16    0.99    0.46
   0   5 -16    1.00    0.58
  -1   5 -16    0.44    0.60
  -1   5 -16    0.63    0.50
  -1   5 -16    1.19    0.55
  -1   5 -16    1.08    0.49
  -1   5 -16    0.37    0.48
  -1   5 -16    1.52    0.54
  -1   5 -16    0.51    0.53
   1  -5  16    0.87    0.60
  -2   5 -16    8.71    0.82
  -2   5 -16    8.48    0.87
  -2   5 -16   10.24    0.86
   2  -5  16    9.86    0.94
   2  -5  16   12.05    1.05
  -3   5 -16    1.34    0.37
   3  -5  16    2.26    0.44
   3  -5  16    2.23    0.34
   3   4 -16    4.17    0.56
   3   4 -16    5.22    0.69
   3   4 -16    6.41    0.67
   3   4 -16    5.46    0.49
   2   4 -16    1.11    0.50
   2   4 -16    1.35    0.68
   2   4 -16    3.02    0.65
   2   4 -16    2.30    0.42
   2   4 -16    1.77    0.47
   2   4 -16    2.20    0.53
  -2  -4  16    1.19    0.69
   1   4 -16   12.44    0.92
   1   4 -16   10.88    1.23
   1   4 -16    9.79    1.19
   1   4 -16   12.43    1.01
   1   4 -16   10.54    1.11
   1   4 -16   13.30    1.04
  -1  -4  16   11.91    1.19
   0   4 -16    3.45    0.65
   0   4 -16    3.22    0.74
   0   4 -16    4.33    0.71
   0   4 -16    3.44    0.69
   0   4 -16    1.88    0.74
   0   4 -16    4.02    0.62
   0  -4  16    3.20    0.74
  -1   4 -16   29.96    2.00
  -1   4 -16   31.52    1.91
  -1   4 -16   29.79    1.72
  -1   4 -16   31.69    1.67
  -1   4 -16   30.48    1.64
  -1   4 -16   29.86    1.73
   1  -4  16   27.78    1.77
  -2   4 -16    0.87    0.55
  -2   4 -16    0.29    0.55
  -2   4 -16    0.74    0.56
   2  -4  16    0.19    0.64
  -3   4 -16    1.60    0.46
   3  -4  16    0.96    0.35
   3  -4  16    1.46    0.51
   3   3 -16    3.43    0.47
   3   3 -16    1.95    0.49
   3   3 -16    1.99    0.42
   3   3 -16    1.82    0.42
   3   3 -16    2.26    0.57
   3   3 -16    3.04    0.51
   2   3 -16   33.26    1.84
   2   3 -16   35.00    1.82
   2   3 -16   35.08    1.89
   2   3 -16   34.85    1.73
   2   3 -16   33.32    1.76
   2   3 -16   34.32    1.89
   1   3 -16    0.80    0.54
   1   3 -16   -0.20    0.57
   1   3 -16    2.25    0.53
   1   3 -16    1.10    0.70
   1   3 -16    0.92    0.55
   1   3 -16    1.89    0.72
  -1  -3  16    0.83    0.71
   0   3 -16    6.20    0.75
   0   3 -16    7.13    0.97
   0   3 -16    7.06    0.86
   0   3 -16    6.36    0.89
   0   3 -16    6.99    0.96
   0   3 -16    4.71    0.68
   0  -3  16    6.67    0.92
  -1   3 -16   -0.33    0.51
  -1   3 -16    0.06    0.43
  -1   3 -16    0.51    0.63
  -1   3 -16    0.62    0.61
  -1   3 -16   -0.67    0.52
  -1   3 -16    0.19    0.54
   1  -3  16    1.19    0.60
  -2   3 -16   16.68    1.24
  -2   3 -16   15.51    1.18
  -2   3 -16   15.69    1.15
   2  -3  16   15.03    1.26
   2  -3  16   16.09    1.16
  -3   3 -16   -0.23    0.43
  -3   3 -16   -1.00    0.42
   3  -3  16    0.53    0.37
   3  -3  16    0.16    0.36
   3  -3  16    0.03    0.50
   4   2 -16    0.51    0.30
   4   2 -16    0.37    0.32
   4   2 -16    0.92    0.29
   4   2 -16    0.31    0.24
   3   2 -16    3.21    0.56
   3   2 -16    2.57    0.52
   3   2 -16    3.62    0.51
   3   2 -16    1.37    0.40
   3   2 -16    3.05    0.56
   3   2 -16    2.13    0.44
   3   2 -16    3.10    0.58
   2   2 -16    0.94    0.43
   2   2 -16   -0.42    0.45
   2   2 -16   -0.33    0.50
   2   2 -16    0.97    0.61
   2   2 -16    0.60    0.44
   2   2 -16   -0.16    0.52
   2   2 -16    0.57    0.41
   2   2 -16    0.33    0.49
   1   2 -16    0.00    0.42
   1   2 -16   -0.16    0.37
   1   2 -16    0.48    0.52
   1   2 -16    0.22    0.59
   1   2 -16   -0.03    0.57
   1   2 -16    0.03    0.53
   1   2 -16   -0.42    0.49
  -1  -2  16   -0.84    0.64
   0   2 -16    1.23    0.55
   0   2 -16   -0.50    0.42
   0   2 -16   -0.45    0.50
   0   2 -16    0.12    0.57
   0   2 -16   -0.08    0.58
   0   2 -16    0.87    0.61
   0  -2  16   -0.26    0.62
  -1   2 -16   15.33    1.13
  -1   2 -16   14.79    1.16
  -1   2 -16   14.37    1.27
  -1   2 -16   15.90    1.17
  -1   2 -16   15.30    1.28
   1  -2  16   15.21    1.27
  -2   2 -16    1.24    0.56
  -2   2 -16    1.08    0.61
  -2   2 -16    0.87    0.58
   2  -2  16    1.72    0.77
   2  -2  16    0.55    0.54
  -3   2 -16    0.28    0.49
  -3   2 -16    0.68    0.51
   3  -2  16    1.10    0.54
   3  -2  16    0.51    0.39
   3  -2  16    0.59    0.40
   4   1 -16    6.66    0.54
   4   1 -16    7.50    0.61
   4   1 -16    7.61    0.64
   4   1 -16    6.69    0.63
   4   1 -16    8.19    0.66
   3   1 -16    2.93    0.54
   3   1 -16    2.05    0.44
   3   1 -16    2.68    0.49
   3   1 -16    3.84    0.61
   3   1 -16    3.59    0.57
   3   1 -16    3.38    0.48
   3   1 -16    3.13    0.58
   2   1 -16    0.48    0.48
   2   1 -16    0.05    0.45
   2   1 -16    1.60    0.57
   2   1 -16    0.39    0.40
   2   1 -16    0.09    0.39
   2   1 -16   -0.16    0.51
   2   1 -16    0.04    0.47
   2   1 -16   -0.43    0.51
   1   1 -16   12.11    1.09
   1   1 -16   14.67    1.08
   1   1 -16   15.58    1.29
   1   1 -16   14.26    0.98
   1   1 -16   14.87    1.13
   1   1 -16   14.86    1.16
   1   1 -16   14.37    1.22
   1   1 -16   13.91    0.98
  -1  -1  16   15.31    1.33
   0   1 -16    2.07    0.64
   0   1 -16    1.27    0.55
   0   1 -16    1.38    0.58
   0  -1  16    2.03    0.81
   0  -1  16    2.16    0.77
  -1   1 -16    0.70    0.56
  -1   1 -16    0.05    0.54
  -1   1 -16    0.65    0.52
   1  -1  16    1.10    0.64
  -2   1 -16   -0.54    0.54
  -2   1 -16    0.22    0.54
   2  -1  16    0.19    0.53
  -3   1 -16    0.92    0.52
   3  -1  16    1.53    0.42
   3  -1  16    1.03    0.43
   4   0 -16    2.20    0.41
   4   0 -16    1.77    0.41
   4   0 -16    2.04    0.43
   4   0 -16    1.75    0.39
   4   0 -16    2.04    0.35
   3   0 -16   -0.04    0.40
   3   0 -16   -0.14    0.39
   3   0 -16    0.04    0.33
   3   0 -16    0.27    0.42
   3   0 -16   -0.54    0.45
   3   0 -16   -0.15    0.46
   3   0 -16   -0.51    0.29
   2   0 -16    0.40    0.43
   2   0 -16   -0.37    0.46
   2   0 -16    0.34    0.50
   2   0 -16    0.71    0.39
   2   0 -16    0.33    0.39
   2   0 -16    0.49    0.49
   2   0 -16    0.14    0.44
   2   0 -16    0.24    0.54
   1   0 -16    0.14    0.43
   1   0 -16    0.13    0.54
   1   0 -16    0.22    0.51
   1   0 -16    0.75    0.55
   1   0 -16    0.32    0.39
   1   0 -16    0.36    0.49
  -1   0  16    0.35    0.64
   0   0 -16   23.62    1.68
   0   0 -16   23.52    1.54
   0   0  16   25.55    1.81
   0   0  16   24.67    1.63
  -1   0 -16    1.03    0.56
  -1   0 -16    1.67    0.57
   1   0  16    0.52    0.60
   1   0  16    2.21    0.76
  -2   0 -16   12.41    1.07
  -2   0 -16   14.94    1.16
   2   0  16   12.02    1.11
   2   0  16   15.60    1.22
  -3   0 -16   -0.19    0.46
   3   0  16    0.17    0.41
   3   0  16    0.52    0.44
   4  -1 -16    2.67    0.45
   4  -1 -16    3.99    0.42
   4  -1 -16    4.27    0.55
   4  -1 -16    4.23    0.55
   4  -1 -16    2.90    0.46
   3  -1 -16   -0.42    0.45
   3  -1 -16   -0.07    0.35
   3  -1 -16    0.61    0.40
   3  -1 -16    0.03    0.32
   3  -1 -16   -0.23    0.49
   3  -1 -16    0.12    0.48
   3  -1 -16    0.78    0.43
  -3   1  16   -0.20    0.86
   2  -1 -16   -0.54    0.39
   2  -1 -16   -0.46    0.45
   2  -1 -16   -0.56    0.48
   2  -1 -16   -0.02    0.37
   2  -1 -16    0.21    0.50
   2  -1 -16    0.91    0.44
  -2   1  16    0.32    0.89
   1  -1 -16    8.96    0.97
   1  -1 -16    9.04    0.86
   1  -1 -16    7.27    0.86
   1  -1 -16    7.79    0.97
   1  -1 -16    7.70    0.92
  -1   1  16    8.49    1.01
   0  -1 -16    0.13    0.52
   0  -1 -16   -0.33    0.48
   0   1  16    0.37    0.72
   0   1  16   -0.50    0.55
  -1  -1 -16    4.17    0.67
  -1  -1 -16    4.44    0.70
   1   1  16    4.61    0.85
   1   1  16    4.05    0.70
  -2  -1 -16    8.69    0.90
  -2  -1 -16    8.35    0.96
   2   1  16    8.08    0.88
   2   1  16    8.13    1.00
  -3  -1 -16   10.02    0.83
   3   1  16   10.37    0.87
   3   1  16    8.47    0.78
   4  -2 -16    0.10    0.34
   4  -2 -16    1.26    0.37
   4  -2 -16    0.53    0.32
   3  -2 -16    1.55    0.49
   3  -2 -16    0.67    0.39
   3  -2 -16    1.32    0.46
   3  -2 -16    1.58    0.47
   3  -2 -16    1.29    0.47
  -3   2  16    1.52    0.84
   2  -2 -16    0.11    0.48
   2  -2 -16    0.37    0.53
   2  -2 -16    0.33    0.45
   2  -2 -16   -0.63    0.48
  -2   2  16    0.48    0.82
   1  -2 -16   -0.05    0.56
   1  -2 -16    0.98    0.52
  -1   2  16   -0.71    0.63
  -1   2  16    0.01    0.75
   0  -2 -16   28.10    1.73
   0  -2 -16   31.15    1.97
   0   2  16   28.54    1.98
   0   2  16   30.27    1.99
  -1  -2 -16    2.07    0.59
  -1  -2 -16    1.00    0.55
   1   2  16   -0.60    0.33
   1   2  16    1.54    0.69
  -2  -2 -16   -0.62    0.50
  -2  -2 -16   -0.24    0.49
   2   2  16   -0.29    0.57
   3   2  16   -0.22    0.41
   4  -3 -16    1.99    0.37
   4  -3 -16    2.69    0.37
   3  -3 -16    7.24    0.67
   3  -3 -16    6.45    0.75
   3  -3 -16    6.36    0.73
   3  -3 -16    5.18    0.68
  -3   3  16    5.18    0.92
   2  -3 -16    0.14    0.50
   2  -3 -16    0.62    0.48
   2  -3 -16    0.07    0.48
  -2   3  16    0.49    0.61
  -2   3  16    0.07    0.72
   1  -3 -16    2.50    0.58
   1  -3 -16    2.03    0.64
  -1   3  16    2.87    0.82
  -1   3  16    1.00    0.66
   0  -3 -16    1.08    0.59
   0  -3 -16    1.08    0.57
   0   3  16    1.83    0.68
   0   3  16    1.03    0.79
  -1  -3 -16    4.30    0.65
  -1  -3 -16    4.09    0.69
   1   3  16    3.46    0.75
   1   3  16    3.50    0.60
   1   3  16    5.01    0.85
  -2  -3 -16    0.68    0.47
  -2  -3 -16    0.41    0.47
   2   3  16    0.06    0.51
   3   3  16    1.68    0.40
   3  -4 -16   -0.29    0.36
   3  -4 -16    0.20    0.37
  -3   4  16    0.07    0.59
   2  -4 -16    9.90    0.92
   2  -4 -16    8.40    0.83
   2  -4 -16    9.27    0.77
  -2   4  16    8.53    1.05
  -2   4  16    7.35    0.93
   1  -4 -16    6.18    0.78
   1  -4 -16    6.58    0.84
  -1   4  16    6.14    0.92
  -1   4  16    5.14    0.89
   0  -4 -16    7.58    0.86
   0  -4 -16    5.97    0.86
   0   4  16    7.49    0.85
   0   4  16    7.09    0.92
   0   4  16    8.17    1.03
  -1  -4 -16    0.54    0.50
   1   4  16    0.22    0.51
   1   4  16    0.17    0.42
   1   4  16   -0.79    0.55
  -2  -4 -16    5.80    0.63
   2   4  16    5.55    0.68
   2   4  16    6.13    0.59
   3  -5 -16    6.49    0.55
   3  -5 -16    5.34    0.52
   2  -5 -16    0.52    0.42
  -2   5  16    0.36    0.56
   1  -5 -16    8.95    0.76
   1  -5 -16    8.24    0.86
  -1   5  16    8.22    0.97
   0  -5 -16    0.47    0.46
   0  -5 -16   -0.24    0.42
   0   5  16    0.57    0.43
   0   5  16    0.70    0.45
   0   5  16    0.43    0.57
  -1  -5 -16    4.83    0.66
   1   5  16    5.17    0.61
   1   5  16    5.21    0.62
   1  -6 -16   -0.16    0.28
  -1   6  16   -0.04    0.32
   0  -6 -16    0.39    0.33
   0   6  16    0.38    0.32
   1   6 -17    0.37    0.28
   1   6 -17   -0.07    0.29
   1   6 -17    0.21    0.33
   1   6 -17   -0.19    0.35
   0   6 -17    0.73    0.36
   0   6 -17    0.77    0.36
   0   6 -17    0.77    0.42
   0   6 -17    1.39    0.41
  -1   6 -17    0.23    0.32
  -1   6 -17   -0.31    0.35
  -1   6 -17   -0.05    0.27
  -1   6 -17   -0.07    0.34
   1  -6  17    0.37    0.50
   2   5 -17   -0.01    0.37
   2   5 -17   -0.03    0.40
   2   5 -17   -0.01    0.32
   1   5 -17    2.00    0.53
   1   5 -17    1.32    0.56
   1   5 -17    1.56    0.52
   1   5 -17    1.70    0.44
   1   5 -17    1.66    0.45
   1   5 -17    1.57    0.48
   0   5 -17   -0.13    0.47
   0   5 -17    0.31    0.41
   0   5 -17    0.85    0.52
   0   5 -17   -0.06    0.56
   0   5 -17   -0.12    0.40
   0   5 -17   -0.15    0.37
  -1   5 -17   -0.32    0.42
  -1   5 -17   -0.11    0.43
  -1   5 -17    0.50    0.41
  -1   5 -17    0.63    0.40
  -1   5 -17    0.23    0.41
  -1   5 -17    1.17    0.49
  -1   5 -17    0.31    0.50
   1  -5  17   -0.10    0.51
  -2   5 -17    2.74    0.49
  -2   5 -17    2.47    0.45
   2  -5  17    2.21    0.58
   3   4 -17    1.89    0.35
   3   4 -17    1.71    0.39
   3   4 -17    2.05    0.36
   2   4 -17    0.36    0.43
   2   4 -17    1.08    0.58
   2   4 -17    1.43    0.46
   2   4 -17    0.87    0.39
   2   4 -17    1.09    0.50
  -2  -4  17    0.23    0.57
   1   4 -17    1.94    0.55
   1   4 -17    2.19    0.55
   1   4 -17    1.46    0.62
   1   4 -17    2.87    0.62
   1   4 -17    2.29    0.68
   1   4 -17    2.02    0.49
  -1  -4  17    2.25    0.68
   0   4 -17    0.57    0.50
   0   4 -17    1.00    0.47
   0   4 -17   -0.56    0.50
   0   4 -17    0.33    0.60
   0   4 -17    0.67    0.48
   0   4 -17    0.27    0.53
   0  -4  17    0.63    0.55
  -1   4 -17    0.12    0.57
  -1   4 -17   -0.35    0.43
  -1   4 -17   -0.35    0.42
  -1   4 -17   -0.20    0.48
  -1   4 -17   -0.81    0.45
   1  -4  17    0.16    0.49
   1  -4  17    1.07    0.57
  -2   4 -17    3.84    0.59
  -2   4 -17    2.47    0.54
  -2   4 -17    5.87    0.74
   2  -4  17    3.84    0.72
  -3   4 -17    0.75    0.34
   3  -4  17    0.52    0.29
   3  -4  17   -0.12    0.39
   3   3 -17   -0.09    0.42
   3   3 -17    0.44    0.36
   3   3 -17    0.50    0.29
   3   3 -17    0.37    0.38
   2   3 -17   -0.40    0.50
   2   3 -17    0.38    0.43
   2   3 -17   -0.38    0.50
   2   3 -17    0.07    0.34
   2   3 -17    0.27    0.47
   2   3 -17    0.61    0.40
  -2  -3  17   -0.44    0.58
   1   3 -17    0.46    0.52
   1   3 -17    0.72    0.57
   1   3 -17    0.36    0.48
   1   3 -17   -0.35    0.52
   1   3 -17    0.18    0.60
   1   3 -17    0.26    0.44
  -1  -3  17   -0.31    0.59
   0   3 -17   -0.34    0.56
   0   3 -17   -0.59    0.52
   0   3 -17    0.39    0.49
   0   3 -17    0.56    0.51
   0   3 -17   -0.12    0.55
   0   3 -17   -0.42    0.51
   0  -3  17   -0.29    0.57
  -1   3 -17   -0.57    0.47
  -1   3 -17    0.11    0.49
  -1   3 -17   -0.12    0.53
  -1   3 -17    1.65    0.59
  -1   3 -17   -0.06    0.54
   1  -3  17   -0.61    0.47
  -2   3 -17    8.95    0.86
  -2   3 -17    8.09    0.90
  -2   3 -17    8.40    0.84
   2  -3  17    7.49    0.81
   2  -3  17    8.82    1.01
  -3   3 -17    0.16    0.38
   3  -3  17   -0.25    0.41
   3  -3  17   -0.27    0.29
   3   2 -17    0.12    0.30
   3   2 -17   -0.11    0.41
   3   2 -17   -0.16    0.36
   3   2 -17    0.75    0.44
   3   2 -17   -0.06    0.35
   3   2 -17    0.35    0.34
   3   2 -17    0.48    0.33
   2   2 -17    3.59    0.52
   2   2 -17    3.50    0.60
   2   2 -17    2.84    0.64
   2   2 -17    2.67    0.56
   2   2 -17    2.55    0.55
   2   2 -17    3.60    0.60
   2   2 -17    2.74    0.50
   2   2 -17    2.30    0.50
   1   2 -17    5.12    0.69
   1   2 -17    3.98    0.59
   1   2 -17    4.91    0.68
   1   2 -17    4.07    0.76
   1   2 -17    5.09    0.73
   1   2 -17    3.29    0.63
  -1  -2  17    4.05    0.82
   0   2 -17    9.41    1.00
   0   2 -17    8.18    0.98
   0   2 -17    8.37    0.94
   0   2 -17    9.68    0.92
   0   2 -17   10.04    0.83
   0   2 -17    8.02    1.01
   0  -2  17    9.46    1.08
  -1   2 -17    7.17    0.99
  -1   2 -17    6.62    0.86
  -1   2 -17    7.10    0.82
   1  -2  17    6.64    0.94
  -2   2 -17    1.23    0.54
  -2   2 -17    0.98    0.54
  -2   2 -17    2.25    0.60
   2  -2  17    2.12    0.55
   2  -2  17    1.92    0.68
  -3   2 -17    0.18    0.43
  -3   2 -17    0.32    0.42
   3  -2  17    0.38    0.33
   3  -2  17    0.13    0.42
   4   1 -17    3.37    0.41
   4   1 -17    3.01    0.36
   4   1 -17    3.09    0.44
   4   1 -17    2.74    0.38
   4   1 -17    2.76    0.38
   3   1 -17    1.19    0.47
   3   1 -17    1.48    0.45
   3   1 -17    2.24    0.45
   3   1 -17    1.74    0.40
   3   1 -17    1.71    0.40
   3   1 -17    2.97    0.53
   3   1 -17    1.36    0.45
   2   1 -17    6.80    0.72
   2   1 -17    6.26    0.70
   2   1 -17    8.55    0.85
   2   1 -17    4.93    0.69
   2   1 -17    6.82    0.71
   2   1 -17    6.36    0.78
   2   1 -17    6.65    0.73
   2   1 -17    6.02    0.82
   1   1 -17    0.65    0.50
   1   1 -17    0.20    0.52
   1   1 -17    0.19    0.43
   1   1 -17    0.00    0.52
   1   1 -17    0.54    0.50
   1   1 -17    0.25    0.43
   1   1 -17    0.28    0.54
  -1  -1  17    0.10    0.60
   0   1 -17    0.93    0.56
   0   1 -17    0.97    0.54
   0   1 -17    0.87    0.56
   0  -1  17    2.49    0.71
   0  -1  17   -0.26    0.66
  -1   1 -17   20.02    1.35
  -1   1 -17   18.58    1.22
  -1   1 -17   18.10    1.21
   1  -1  17   18.54    1.38
  -2   1 -17   17.79    1.18
  -2   1 -17   17.86    1.25
   2  -1  17   16.46    1.23
  -3   1 -17    1.81    0.50
   3  -1  17    2.38    0.47
   3  -1  17    2.21    0.39
   4   0 -17    0.33    0.23
   4   0 -17   -0.09    0.27
   4   0 -17    0.50    0.32
   4   0 -17   -0.32    0.25
   4   0 -17    0.24    0.30
   3   0 -17    0.88    0.46
   3   0 -17    0.06    0.37
   3   0 -17    0.32    0.34
   3   0 -17    0.44    0.47
   3   0 -17    0.26    0.32
   3   0 -17   -0.18    0.41
   3   0 -17    1.02    0.44
   2   0 -17    2.64    0.52
   2   0 -17    2.09    0.46
   2   0 -17    1.23    0.54
   2   0 -17    1.95    0.52
   2   0 -17    1.08    0.53
   2   0 -17    2.44    0.60
   2   0 -17    1.67    0.46
   2   0 -17    1.49    0.49
   1   0 -17    0.60    0.49
   1   0 -17   -0.52    0.40
   1   0 -17   -0.32    0.52
   1   0 -17    0.09    0.48
   1   0 -17    0.50    0.52
  -1   0  17    0.48    0.59
   0   0 -17    8.27    0.92
   0   0 -17    8.48    0.94
   0   0  17    9.84    1.18
   0   0  17    8.56    1.01
  -1   0 -17   14.34    1.06
  -1   0 -17   15.06    1.18
   1   0  17   15.25    1.30
   1   0  17   14.59    1.19
  -2   0 -17    1.15    0.55
  -2   0 -17    1.27    0.54
   2   0  17    1.06    0.54
   2   0  17    1.21    0.56
  -3   0 -17    0.22    0.44
   3   0  17    0.36    0.38
   3   0  17    0.70    0.40
   4  -1 -17    2.29    0.39
   4  -1 -17    1.97    0.36
   4  -1 -17    2.14    0.36
   3  -1 -17    0.06    0.45
   3  -1 -17    0.25    0.38
   3  -1 -17    0.40    0.40
   3  -1 -17   -0.02    0.38
   3  -1 -17    0.12    0.33
  -3   1  17    0.40    0.76
   2  -1 -17    1.68    0.51
   2  -1 -17    0.68    0.54
   2  -1 -17    1.28    0.45
   2  -1 -17    1.43    0.53
  -2   1  17    0.07    0.56
   1  -1 -17    1.01    0.57
   1  -1 -17    0.26    0.50
   1  -1 -17    0.52    0.55
   1  -1 -17    0.25    0.50
  -1   1  17    0.78    0.55
  -1   1  17    1.62    0.72
   0  -1 -17    4.85    0.79
   0  -1 -17    2.75    0.63
   0   1  17    3.39    0.68
   0   1  17    3.09    0.81
  -1  -1 -17    9.68    0.89
  -1  -1 -17    8.70    1.00
   1   1  17    7.56    0.87
   1   1  17    9.63    1.13
  -2  -1 -17    2.28    0.55
  -2  -1 -17    1.77    0.56
   2   1  17    1.17    0.57
   2   1  17    2.48    0.56
   3   1  17    0.26    0.39
   4  -2 -17   -0.27    0.23
   4  -2 -17    0.16    0.29
   4  -2 -17    1.27    0.34
   3  -2 -17    0.69    0.41
   3  -2 -17    0.28    0.41
   3  -2 -17    0.26    0.36
   3  -2 -17    1.16    0.45
  -3   2  17    1.34    0.73
   2  -2 -17    2.76    0.60
   2  -2 -17    3.78    0.58
   2  -2 -17    3.49    0.55
   2  -2 -17    2.90    0.57
  -2   2  17    4.41    0.89
   1  -2 -17    3.67    0.62
   1  -2 -17    3.06    0.67
  -1   2  17    1.71    0.74
  -1   2  17    3.13    0.82
   0  -2 -17   -0.34    0.47
   0  -2 -17   -0.26    0.50
   0   2  17    0.37    0.69
  -1  -2 -17   11.83    1.07
  -1  -2 -17   12.02    0.94
   1   2  17   12.46    1.19
  -2  -2 -17    3.10    0.57
  -2  -2 -17    3.70    0.57
   2   2  17    2.94    0.65
   3   2  17    0.87    0.37
   3  -3 -17    2.06    0.42
   3  -3 -17    2.63    0.44
  -3   3  17    2.96    0.58
  -3   3  17    2.25    0.69
   2  -3 -17    3.27    0.62
   2  -3 -17    5.22    0.63
   2  -3 -17    3.99    0.55
  -2   3  17    3.20    0.79
  -2   3  17    3.42    0.70
   1  -3 -17    4.63    0.61
   1  -3 -17    3.57    0.68
  -1   3  17    4.02    0.81
  -1   3  17    1.61    0.67
   0  -3 -17    7.61    0.86
   0  -3 -17    6.13    0.83
   0   3  17    7.74    1.05
   0   3  17    6.79    0.82
   0   3  17    7.91    1.01
  -1  -3 -17    3.36    0.62
   1   3  17    3.65    0.74
   1   3  17    2.65    0.67
  -2  -3 -17    5.74    0.66
   2   3  17    4.98    0.66
   3  -4 -17    6.69    0.58
   3  -4 -17    8.00    0.62
   2  -4 -17    2.87    0.47
   2  -4 -17    3.90    0.62
   2  -4 -17    2.12    0.43
  -2   4  17    2.28    0.66
  -2   4  17    1.78    0.54
   1  -4 -17    0.25    0.46
   1  -4 -17    0.29    0.41
  -1   4  17    0.81    0.63
  -1   4  17    0.58    0.54
   0  -4 -17    3.58    0.58
   0  -4 -17    4.08    0.68
   0   4  17    2.58    0.52
   0   4  17    5.16    0.71
   0   4  17    3.23    0.74
  -1  -4 -17    0.21    0.42
   1   4  17    0.63    0.48
   1   4  17    0.72    0.37
   1   4  17    0.06    0.52
  -2  -4 -17    0.52    0.32
   2   4  17   -0.02    0.34
   1  -5 -17    1.87    0.37
   1  -5 -17    1.52    0.46
  -1   5  17    0.83    0.41
  -1   5  17    0.32    0.52
   0  -5 -17   -0.21    0.37
   0   5  17   -0.16    0.34
   0   5  17    0.66    0.38
  -1  -5 -17    1.31    0.35
   1   5  17    1.02    0.35
   1   5  17    1.05    0.32
  -1   6  17    1.20    0.30
   0   6 -18    0.70    0.30
   0   6 -18   -0.13    0.28
   1   5 -18    0.18    0.39
   1   5 -18   -0.25    0.34
   1   5 -18   -0.39    0.32
   1   5 -18    0.18    0.34
   0   5 -18    0.95    0.41
   0   5 -18    0.77    0.48
   0   5 -18    1.16    0.39
   0   5 -18    0.71    0.43
  -1   5 -18    9.43    0.83
  -2   5 -18   10.16    0.71
  -2   5 -18    9.96    0.67
   2  -5  18    9.47    0.66
   2  -5  18    9.79    0.81
   2   4 -18    4.80    0.63
   2   4 -18    3.79    0.51
   2   4 -18    4.30    0.57
   1   4 -18    4.64    0.62
   1   4 -18    4.46    0.74
   1   4 -18    6.31    0.77
   1   4 -18    3.24    0.55
   1   4 -18    5.70    0.70
   1   4 -18    5.26    0.72
  -1  -4  18    3.76    0.67
   0   4 -18    0.68    0.49
   0   4 -18    1.07    0.54
   0   4 -18    1.74    0.45
   0   4 -18    2.25    0.52
   0   4 -18    2.27    0.49
   0   4 -18    2.17    0.55
   0  -4  18    2.03    0.58
  -1   4 -18    9.42    0.83
  -1   4 -18    6.42    0.70
  -1   4 -18    8.51    0.87
  -2   4 -18   -0.19    0.39
  -2   4 -18    0.64    0.37
   2  -4  18    0.32    0.52
   3   3 -18   -0.11    0.28
   3   3 -18    0.20    0.35
   3   3 -18    0.73    0.33
   2   3 -18    1.14    0.42
   2   3 -18    0.73    0.47
   2   3 -18    0.54    0.39
   2   3 -18    1.05    0.47
   2   3 -18    0.83    0.51
  -2  -3  18    1.06    0.58
   1   3 -18    0.87    0.45
   1   3 -18    0.39    0.40
   1   3 -18    0.62    0.52
   1   3 -18   -0.22    0.45
   1   3 -18    0.53    0.51
   1   3 -18   -0.07    0.47
  -1  -3  18    0.50    0.56
   0   3 -18    3.73    0.60
   0   3 -18    4.17    0.58
   0   3 -18    2.17    0.60
   0   3 -18    4.31    0.69
   0   3 -18    3.91    0.63
   0   3 -18    3.57    0.59
   0  -3  18    3.84    0.68
  -1   3 -18    0.07    0.50
  -1   3 -18    1.03    0.46
  -1   3 -18    0.90    0.50
   1  -3  18    0.57    0.49
  -2   3 -18   -0.43    0.42
  -2   3 -18    0.04    0.42
  -2   3 -18    0.63    0.44
   2  -3  18    0.39    0.40
   2  -3  18    1.37    0.59
  -3   3 -18    1.26    0.36
   3  -3  18    1.14    0.30
   3  -3  18    1.21    0.37
   3   2 -18    7.77    0.67
   3   2 -18    6.61    0.64
   3   2 -18    7.48    0.64
   3   2 -18    7.57    0.69
   3   2 -18    8.27    0.58
   2   2 -18    6.03    0.70
   2   2 -18    5.67    0.61
   2   2 -18    6.58    0.68
   2   2 -18    6.45    0.75
   2   2 -18    5.59    0.75
   2   2 -18    5.42    0.74
   2   2 -18    5.72    0.63
  -2  -2  18    4.15    0.74
   1   2 -18   11.20    0.86
   1   2 -18   12.56    0.94
   1   2 -18    9.66    1.02
   1   2 -18   11.82    0.98
   1   2 -18   11.86    0.94
   1   2 -18   11.47    1.00
  -1  -2  18   10.41    1.08
   0   2 -18    3.13    0.58
   0   2 -18    2.52    0.60
   0   2 -18    2.71    0.63
   0  -2  18    2.94    0.69
  -1   2 -18   -0.60    0.44
  -1   2 -18    0.08    0.52
  -1   2 -18   -0.65    0.45
   1  -2  18    0.36    0.52
  -2   2 -18    0.94    0.50
  -2   2 -18    0.01    0.43
  -2   2 -18    0.71    0.46
   2  -2  18    0.82    0.44
   2  -2  18    2.30    0.64
  -3   2 -18    0.40    0.36
   3  -2  18    0.01    0.27
   3   1 -18    2.58    0.45
   3   1 -18    2.53    0.43
   3   1 -18    2.94    0.45
   3   1 -18    2.12    0.38
   3   1 -18    1.95    0.43
   3   1 -18    3.64    0.49
   2   1 -18    9.20    0.82
   2   1 -18    8.56    0.88
   2   1 -18    9.40    0.71
   2   1 -18    8.56    0.81
   2   1 -18    9.09    0.76
   2   1 -18    7.55    0.87
   2   1 -18   10.24    0.84
  -2  -1  18    7.39    0.93
   1   1 -18    3.27    0.61
   1   1 -18    2.62    0.56
   1   1 -18    2.08    0.56
   1   1 -18    1.44    0.57
   1   1 -18    2.02    0.49
   1   1 -18    2.83    0.56
  -1  -1  18    2.20    0.64
  -1  -1  18    2.98    0.76
   0   1 -18    1.65    0.54
   0   1 -18    0.87    0.53
   0   1 -18    0.59    0.52
   0  -1  18    1.26    0.59
   0  -1  18    1.97    0.70
  -1   1 -18    0.48    0.53
  -1   1 -18    0.70    0.49
   1  -1  18    1.13    0.57
  -2   1 -18    1.29    0.54
  -2   1 -18    1.10    0.51
  -2   1 -18    1.84    0.53
   2  -1  18    0.96    0.49
  -3   1 -18    0.51    0.37
   3   0 -18    3.54    0.49
   3   0 -18    5.26    0.61
   3   0 -18    2.98    0.49
   3   0 -18    4.37    0.54
   3   0 -18    4.69    0.63
   3   0 -18    3.80    0.48
  -3   0  18    2.76    0.60
   2   0 -18    0.27    0.50
   2   0 -18    0.09    0.37
   2   0 -18    0.31    0.46
   2   0 -18    0.03    0.44
   2   0 -18    0.49    0.45
   2   0 -18    0.64    0.40
   2   0 -18    0.16    0.33
  -2   0  18    0.61    0.55
   1   0 -18    1.87    0.54
   1   0 -18    2.97    0.57
   1   0 -18    3.80    0.61
   1   0 -18    1.98    0.58
  -1   0  18    2.27    0.74
  -1   0  18    0.97    0.59
   0   0 -18   10.86    1.04
   0   0 -18   10.41    0.99
   0   0  18   11.15    1.02
   0   0  18   11.21    1.21
  -1   0 -18   -0.43    0.50
   1   0  18   -0.20    0.45
   1   0  18    0.83    0.57
  -2   0 -18   -0.59    0.42
  -2   0 -18   -0.42    0.46
   2   0  18    0.48    0.47
   2   0  18   -0.28    0.46
   3  -1 -18    0.03    0.33
   3  -1 -18    0.10    0.41
   3  -1 -18    0.06    0.37
   2  -1 -18    0.54    0.45
   2  -1 -18    0.12    0.39
   2  -1 -18    0.72    0.47
   2  -1 -18    0.15    0.48
  -2   1  18   -0.11    0.49
   1  -1 -18    2.98    0.65
   1  -1 -18    3.32    0.59
  -1   1  18    3.32    0.75
  -1   1  18    2.46    0.61
   0  -1 -18    1.90    0.59
   0  -1 -18    3.23    0.61
   0   1  18    1.56    0.56
   0   1  18    3.75    0.81
  -1  -1 -18   12.38    1.06
   1   1  18   12.14    1.14
   1   1  18   10.88    0.93
  -2  -1 -18    0.46    0.48
  -2  -1 -18   -0.04    0.43
   2   1  18    1.42    0.52
   2   1  18    0.16    0.40
   3   1  18    7.61    0.62
   3  -2 -18    2.31    0.42
   3  -2 -18    2.80    0.46
   2  -2 -18    7.70    0.80
   2  -2 -18    7.59    0.72
   2  -2 -18    7.42    0.82
  -2   2  18    6.26    1.00
  -2   2  18    8.56    0.99
   1  -2 -18    0.53    0.51
   1  -2 -18    2.12    0.53
  -1   2  18    1.82    0.66
   0  -2 -18    6.27    0.79
   0  -2 -18    6.57    0.83
   0   2  18    4.43    0.83
  -1  -2 -18    2.82    0.58
   1   2  18    1.58    0.62
  -2  -2 -18    8.68    0.76
   2   2  18    8.56    0.84
   3  -3 -18    0.22    0.33
   3  -3 -18    0.68    0.31
  -3   3  18   -0.26    0.38
   2  -3 -18    5.11    0.56
   2  -3 -18    3.59    0.60
   2  -3 -18    4.39    0.54
  -2   3  18    4.75    0.70
  -2   3  18    4.13    0.76
   1  -3 -18    4.13    0.68
   1  -3 -18    3.61    0.55
  -1   3  18    3.08    0.73
  -1   3  18    3.80    0.74
   0  -3 -18    2.14    0.54
   0  -3 -18    0.72    0.46
   0   3  18    2.14    0.64
   0   3  18    0.73    0.44
   0   3  18    0.99    0.64
  -1  -3 -18   11.85    0.95
   1   3  18   12.15    1.03
  -2  -3 -18    0.52    0.33
   2   3  18    0.63    0.37
   3  -4 -18    0.15    0.28
   3  -4 -18   -0.04    0.23
  -2   4  18    3.97    0.58
   1  -4 -18    0.45    0.42
   1  -4 -18    0.48    0.35
  -1   4  18    0.78    0.57
  -1   4  18    0.47    0.47
   0  -4 -18    1.71    0.44
   0   4  18    1.19    0.40
   0   4  18    2.61    0.55
   0   4  18    1.31    0.57
  -1  -4 -18    1.15    0.38
   1   4  18    0.44    0.31
   1   4  18    0.36    0.41
  -1   5  18    7.32    0.60
   0  -5 -18    0.30    0.30
   0   5  18   -0.31    0.30
   0   5  18   -0.14    0.28
   1   5 -19    3.40    0.43
   1   5 -19    3.12    0.37
   1   5 -19    3.01    0.40
   1   5 -19    3.21    0.44
   0   5 -19    2.81    0.41
   0   5 -19    2.02    0.40
   0   5 -19    2.53    0.41
   0   5 -19    3.31    0.45
  -1   5 -19    0.19    0.30
   1  -5  19    0.40    0.44
   2   4 -19    3.81    0.48
   2   4 -19    4.67    0.49
   2   4 -19    4.16    0.51
   1   4 -19    4.32    0.56
   1   4 -19    4.25    0.52
   1   4 -19    3.53    0.50
   1   4 -19    2.93    0.47
   0   4 -19   -0.20    0.34
   0   4 -19   -0.05    0.40
   0   4 -19    0.34    0.43
   0   4 -19    0.64    0.43
   0   4 -19    0.30    0.40
  -1   4 -19    6.62    0.72
  -1   4 -19    6.98    0.70
  -2   4 -19    0.07    0.28
  -2   4 -19    0.50    0.32
   2  -4  19    0.64    0.30
   2  -4  19    0.64    0.44
   2   3 -19   -0.54    0.37
   2   3 -19   -0.21    0.32
   2   3 -19   -0.07    0.37
   1   3 -19    0.18    0.42
   1   3 -19   -0.40    0.43
   1   3 -19   -0.49    0.36
   1   3 -19   -0.17    0.40
   1   3 -19   -0.13    0.44
   1   3 -19   -0.41    0.35
  -1  -3  19    0.30    0.48
   0   3 -19   -0.37    0.42
   0   3 -19    0.10    0.46
   0   3 -19   -0.14    0.39
   0   3 -19   -0.66    0.38
   0   3 -19    0.00    0.43
   0  -3  19   -0.51    0.44
  -1   3 -19    0.71    0.45
  -1   3 -19    0.45    0.48
   1  -3  19   -0.22    0.41
  -2   3 -19    5.09    0.60
  -2   3 -19    4.63    0.54
   2  -3  19    4.09    0.59
   3   2 -19   -0.09    0.32
   3   2 -19    0.36    0.30
   3   2 -19    0.10    0.27
   2   2 -19   -0.34    0.33
   2   2 -19    0.31    0.43
   2   2 -19    0.81    0.39
   2   2 -19    0.09    0.38
   2   2 -19    0.68    0.43
  -2  -2  19    0.20    0.55
  -2  -2  19   -0.28    0.46
   1   2 -19    7.58    0.87
   1   2 -19    9.25    0.88
   1   2 -19   10.05    0.85
   1   2 -19    9.90    0.84
   1   2 -19   10.61    0.81
   1   2 -19    9.28    0.77
  -1  -2  19    8.43    0.91
   0   2 -19    1.09    0.46
   0   2 -19    0.58    0.47
   0   2 -19    0.71    0.47
   0  -2  19    0.41    0.49
  -1   2 -19    3.40    0.56
  -1   2 -19    3.26    0.58
   1  -2  19    3.27    0.59
  -2   2 -19    4.37    0.58
  -2   2 -19    4.53    0.63
   2  -2  19    3.76    0.56
   3   1 -19   14.35    0.88
   3   1 -19   14.87    0.87
   3   1 -19   14.13    0.86
   3   1 -19   14.11    0.84
   2   1 -19    0.93    0.47
   2   1 -19    1.34    0.43
   2   1 -19    1.32    0.40
   2   1 -19    1.90    0.47
   2   1 -19    1.30    0.44
  -2  -1  19    0.45    0.47
   1   1 -19    1.03    0.46
   1   1 -19    1.00    0.45
   1   1 -19    0.84    0.48
   1   1 -19    0.19    0.48
   1   1 -19    0.77    0.45
  -1  -1  19    1.10    0.57
  -1  -1  19    1.36    0.53
   0   1 -19    1.27    0.48
   0   1 -19    1.40    0.52
   0   1 -19    0.94    0.49
   0  -1  19    1.45    0.53
   0  -1  19    1.38    0.59
  -1   1 -19    3.18    0.59
   1  -1  19    1.34    0.50
  -2   1 -19   22.57    1.19
  -2   1 -19   21.92    1.23
   2  -1  19   19.02    1.24
   2  -1  19   19.07    1.10
   3   0 -19    2.57    0.43
   3   0 -19    4.03    0.48
   3   0 -19    4.47    0.52
   3   0 -19    3.26    0.42
   2   0 -19    0.49    0.42
   2   0 -19    0.18    0.45
   2   0 -19    1.53    0.47
  -2   0  19    1.32    0.61
  -2   0  19    0.63    0.50
   1   0 -19    4.41    0.58
   1   0 -19    4.50    0.60
   1   0 -19    2.87    0.59
   1   0 -19    3.69    0.57
  -1   0  19    4.02    0.73
  -1   0  19    2.74    0.61
   0   0 -19    6.39    0.78
   0   0 -19    6.89    0.80
   0   0  19    6.60    0.91
   0   0  19    4.35    0.68
  -1   0 -19    8.57    0.90
   1   0  19    8.28    0.79
   1   0  19    8.15    0.89
  -2   0 -19    2.10    0.46
   2   0  19    0.91    0.41
   2   0  19    1.79    0.46
   3  -1 -19    1.23    0.37
   3  -1 -19    0.35    0.32
   2  -1 -19    7.19    0.76
   2  -1 -19    6.86    0.69
   2  -1 -19    7.86    0.76
  -2   1  19    5.15    0.73
  -2   1  19    6.51    0.92
   1  -1 -19    2.91    0.51
   1  -1 -19    3.12    0.58
  -1   1  19    3.96    0.74
  -1   1  19    0.73    0.48
   0  -1 -19   -0.44    0.43
   0  -1 -19   -0.16    0.43
   0   1  19    0.33    0.47
   0   1  19   -0.01    0.56
  -1  -1 -19    0.02    0.48
   1   1  19   -0.52    0.48
   1   1  19    0.78    0.46
  -2  -1 -19    5.41    0.60
   2   1  19    3.25    0.53
   3  -2 -19    5.17    0.51
   3  -2 -19    5.75    0.55
  -3   2  19    5.89    0.67
   2  -2 -19    4.50    0.63
   2  -2 -19    2.82    0.47
   2  -2 -19    5.00    0.64
  -2   2  19    3.72    0.65
   1  -2 -19   -0.09    0.41
   1  -2 -19    0.13    0.38
  -1   2  19   -0.09    0.55
   0  -2 -19   -0.51    0.40
   0  -2 -19   -0.31    0.45
   0   2  19    0.80    0.58
  -1  -2 -19   10.32    0.89
   1   2  19   10.03    0.95
  -2  -2 -19    2.13    0.38
   2   2  19    1.62    0.41
   3  -3 -19    4.87    0.46
  -3   3  19    6.88    0.60
   2  -3 -19    1.53    0.40
   2  -3 -19    1.67    0.35
  -2   3  19    2.03    0.52
   1  -3 -19    0.31    0.34
   1  -3 -19    0.14    0.41
  -1   3  19   -0.07    0.49
   0  -3 -19    0.75    0.42
   0  -3 -19   -0.09    0.38
   0   3  19    0.06    0.47
  -1  -3 -19    0.61    0.38
   1   3  19    0.67    0.42
  -2   4  19   -0.54    0.32
  -1   4  19    0.24    0.32
  -1   4  19    0.34    0.40
   0  -4 -19    0.22    0.32
   0   4  19   -0.02    0.38
   0   4  19    0.05    0.29
  -1  -4 -19    0.16    0.27
   1   4  19    0.10    0.31
   1   4 -20    2.15    0.37
   1   4 -20    2.27    0.36
   1   4 -20    1.61    0.34
   1   4 -20    1.60    0.29
   0   4 -20    1.58    0.34
   0   4 -20    1.90    0.38
   0   4 -20    1.35    0.38
   0   4 -20    1.49    0.37
  -1   4 -20    0.06    0.30
   1  -4  20    0.75    0.43
   2   3 -20    2.49    0.38
   2   3 -20    2.60    0.39
   2   3 -20    3.22    0.43
   1   3 -20    3.53    0.49
   1   3 -20    3.88    0.53
   1   3 -20    3.49    0.48
   1   3 -20    3.46    0.51
   0   3 -20   -0.22    0.36
   0   3 -20   -0.36    0.37
  -1   3 -20    0.03    0.37
   2   2 -20    0.18    0.37
   2   2 -20    0.34    0.31
   2   2 -20   -0.18    0.33
   1   2 -20    2.60    0.47
   1   2 -20    2.64    0.44
   1   2 -20    2.06    0.49
   1   2 -20    2.69    0.52
   1   2 -20    2.68    0.45
  -1  -2  20    2.80    0.56
   0   2 -20    3.76    0.62
   0   2 -20    3.49    0.51
   0   2 -20    3.19    0.49
   0  -2  20    3.10    0.55
  -1   2 -20    2.82    0.50
   1  -2  20    1.29    0.44
  -2   2 -20   -0.03    0.28
  -2   2 -20    0.84    0.36
   2  -2  20    0.22    0.26
   2   1 -20    6.92    0.66
   2   1 -20    8.18    0.71
   2   1 -20    8.17    0.66
  -2  -1  20    8.41    0.84
   1   1 -20   -0.11    0.44
   1   1 -20    0.74    0.41
   1   1 -20    0.58    0.37
   1   1 -20   -0.17    0.36
   1   1 -20    0.32    0.40
  -1  -1  20   -0.28    0.48
  -1  -1  20   -0.43    0.39
   0   1 -20   -0.33    0.39
   0   1 -20    0.32    0.41
   0  -1  20   -0.31    0.41
   0  -1  20    0.26    0.48
  -1   1 -20    2.34    0.49
   1  -1  20    2.72    0.49
  -2   1 -20    1.06    0.35
  -2   1 -20    0.71    0.33
   3   0 -20    0.90    0.29
   3   0 -20    1.23    0.31
  -3   0  20    0.97    0.38
   2   0 -20   -0.16    0.34
   2   0 -20   -0.16    0.37
   2   0 -20   -0.63    0.30
  -2   0  20    0.87    0.52
   1   0 -20    0.21    0.35
   1   0 -20   -0.34    0.37
  -1   0  20    0.59    0.44
  -1   0  20    0.03    0.51
   0   0 -20   -0.05    0.41
   0   0 -20   -1.01    0.37
   0   0  20   -0.20    0.40
   0   0  20    0.11    0.47
  -1   0 -20    0.22    0.43
   1   0  20    0.82    0.43
   1   0  20    0.99    0.46
  -2   0 -20    7.40    0.55
  -2   0 -20    7.38    0.61
   3  -1 -20    0.29    0.26
  -3   1  20    0.42    0.35
   2  -1 -20    1.68    0.39
   2  -1 -20    2.31    0.44
   2  -1 -20    1.81    0.44
  -2   1  20    2.12    0.56
   1  -1 -20    2.92    0.45
   1  -1 -20    1.79    0.47
  -1   1  20    1.04    0.44
  -1   1  20    1.89    0.59
   0  -1 -20    1.25    0.44
   0  -1 -20    1.30    0.47
   0   1  20    1.85    0.56
   0   1  20    1.74    0.47
  -1  -1 -20    6.08    0.71
   1   1  20    6.93    0.75
  -2  -1 -20    4.20    0.46
   2   1  20    3.55    0.48
   2  -2 -20    1.82    0.35
   2  -2 -20    2.32    0.39
  -2   2  20    2.25    0.51
   1  -2 -20    0.14    0.31
   1  -2 -20   -0.53    0.34
  -1   2  20    0.46    0.49
   0  -2 -20   -0.12    0.36
   0   2  20    0.02    0.45
  -1  -2 -20    0.92    0.37
   1   2  20    0.22    0.39
  -2   3  20    0.12    0.37
  -1   3  20    2.07    0.48
   0  -3 -20    2.26    0.39
   0   3  20    2.68    0.51
  -1  -3 -20    0.45    0.29
   1   3  20    0.49    0.34
  -1   4  20    0.31    0.26
  -1   4  20    0.74    0.34
   1   3 -21    0.88    0.31
   1   3 -21    0.71    0.28
   1   3 -21    0.97    0.33
   0   3 -21    1.58    0.35
   0   3 -21    1.64    0.35
  -1   3 -21    0.77    0.30
   1  -3  21    0.13    0.38
   2   2 -21    0.32    0.25
   1   2 -21    0.06    0.29
   1   2 -21    0.65    0.29
   1   2 -21    0.08    0.31
   1   2 -21   -0.09    0.34
   0   2 -21    0.93    0.38
   0   2 -21    0.76    0.35
  -1   2 -21    2.96    0.42
   2   1 -21    1.18    0.36
   2   1 -21    1.19    0.31
   2   1 -21    1.22    0.31
  -2  -1  21    0.93    0.42
   1   1 -21    0.13    0.29
   1   1 -21   -0.53    0.37
   1   1 -21    0.22    0.30
  -1  -1  21    0.54    0.46
   0   1 -21    7.14    0.67
  -1   1 -21    1.16    0.37
   2   0 -21    0.17    0.27
   2   0 -21    0.47    0.34
  -2   0  21    0.58    0.40
   1   0 -21    6.58    0.56
  -1   0  21    5.91    0.73
   0   0 -21    5.96    0.64
   0   0  21    5.96    0.69
  -1   0 -21    1.84    0.40
   1   0  21    2.88    0.45
   2  -1 -21    6.02    0.52
   2  -1 -21    4.95    0.46
  -2   1  21    4.62    0.61
   1  -1 -21   -0.24    0.27
  -1   1  21    0.14    0.42
   0  -1 -21    4.45    0.56
   0   1  21    4.50    0.63
  -1  -1 -21    0.35    0.33
   1   1  21   -0.38    0.31
  -2   2  21    0.03    0.34
  -1   2  21    8.48    0.75
   0  -2 -21    2.00    0.35
   0   2  21    2.39    0.45
  -1   3  21    0.31    0.33
   0   2 -22    0.45    0.27
   0   1 -22    0.90    0.32
  -1   0  22    0.04    0.34
   0   0 -22   -0.15    0.26
   0   0  22    0.35    0.35
  -1   1  22    0.43    0.33
   0  -1 -22   -0.27    0.25
   0   1  22    0.19    0.31
   0   0   0    0.00    0.00
;
_shelx_hkl_checksum              67439
loop_
_space_group_symop_operation_xyz
'x, y, z'
'-x, -y, -z'
loop_
_atom_site_label
_atom_site_type_symbol
_atom_site_fract_x
_atom_site_fract_y
_atom_site_fract_z
_atom_site_U_iso_or_equiv
_atom_site_adp_type
_atom_site_occupancy
_atom_site_site_symmetry_order
_atom_site_calc_flag
_atom_site_refinement_flags_posn
_atom_site_refinement_flags_adp
Cl1 Cl 0.6870(4) 1.0933(2) 0.42513(10) 0.0668(5) Uani 1 1 d . .
Cl2 Cl 1.0021(3) 0.9901(2) 0.31041(9) 0.0562(5) Uani 1 1 d . .
S1 S 0.5424(2) 0.55872(12) 0.23736(6) 0.0203(3) Uani 1 1 d . .
O1 O -0.2050(6) -0.4084(4) 0.04856(17) 0.0238(7) Uani 1 1 d D .
H1 H -0.276(10) -0.499(4) 0.032(3) 0.029 Uiso 1 1 d D U
O2 O -0.5619(5) -0.3002(4) 0.00354(16) 0.0231(7) Uani 1 1 d . .
O3 O 0.8102(6) 0.5426(4) 0.26216(18) 0.0272(7) Uani 1 1 d . .
O4 O 0.4876(6) 0.6920(4) 0.19362(17) 0.0267(7) Uani 1 1 d . .
O5 O 0.2499(8) 0.3703(5) 0.4738(2) 0.0418(9) Uani 1 1 d D .
H4 H 0.163(11) 0.409(8) 0.507(3) 0.050 Uiso 1 1 d D U
O6 O 0.0815(7) 0.5844(5) 0.42479(18) 0.0372(9) Uani 1 1 d . .
N1 N 0.3787(7) 0.5771(5) 0.3092(2) 0.0243(8) Uani 1 1 d D .
H7 H 0.226(6) 0.606(6) 0.302(3) 0.029 Uiso 1 1 d D U
C1 C -0.3330(8) -0.2856(5) 0.0365(2) 0.0200(9) Uani 1 1 d . .
C2 C -0.2086(8) -0.1192(5) 0.0620(2) 0.0203(9) Uani 1 1 d . .
H2 H -0.2968 -0.0270 0.0499 0.024 Uiso 1 1 calc R U
C3 C 0.0227(8) -0.0915(5) 0.1014(2) 0.0202(9) Uani 1 1 d . .
H3 H 0.1101 -0.1852 0.1114 0.024 Uiso 1 1 calc R U
C4 C 0.1541(8) 0.0695(5) 0.1306(2) 0.0196(9) Uani 1 1 d . .
C5 C 0.0568(8) 0.2183(5) 0.1141(2) 0.0201(9) Uani 1 1 d . .
H5 H -0.0946 0.2158 0.0812 0.024 Uiso 1 1 calc R U
C6 C 0.1776(8) 0.3675(5) 0.1448(2) 0.0203(9) Uani 1 1 d . .
H6 H 0.1090 0.4673 0.1337 0.024 Uiso 1 1 calc R U
C7 C 0.4040(8) 0.3710(5) 0.1930(2) 0.0190(8) Uani 1 1 d . .
C8 C 0.5064(8) 0.2256(5) 0.2082(2) 0.0217(9) Uani 1 1 d . .
H8 H 0.6608 0.2285 0.2401 0.026 Uiso 1 1 calc R U
C9 C 0.3834(8) 0.0761(5) 0.1769(2) 0.0233(9) Uani 1 1 d . .
H9 H 0.4556 -0.0231 0.1870 0.028 Uiso 1 1 calc R U
C10 C 0.2261(9) 0.4767(6) 0.4230(3) 0.0303(10) Uani 1 1 d . .
C11 C 0.3902(10) 0.4477(6) 0.3612(3) 0.0308(10) Uani 1 1 d . .
H11A H 0.5776 0.4462 0.3793 0.037 Uiso 1 1 calc R U
H11B H 0.3236 0.3383 0.3374 0.037 Uiso 1 1 calc R U
C13 C 0.8397(17) 0.9320(9) 0.3884(4) 0.068(2) Uani 1 1 d . .
H13B H 0.7030 0.8347 0.3763 0.081 Uiso 1 1 calc R U
H13A H 0.9712 0.8989 0.4247 0.081 Uiso 1 1 calc R U
loop_
_atom_site_aniso_label
_atom_site_aniso_U_11
_atom_site_aniso_U_22
_atom_site_aniso_U_33
_atom_site_aniso_U_23
_atom_site_aniso_U_13
_atom_site_aniso_U_12
Cl1 0.0730(11) 0.0599(10) 0.0699(11) 0.0038(8) 0.0090(9) 0.0154(9)
Cl2 0.0612(9) 0.0503(9) 0.0558(9) 0.0057(7) 0.0043(7) 0.0016(7)
S1 0.0196(5) 0.0154(5) 0.0248(6) -0.0009(4) 0.0012(4) -0.0007(4)
O1 0.0264(16) 0.0152(15) 0.0287(16) -0.0019(12) -0.0072(13) 0.0037(13)
O2 0.0177(14) 0.0190(15) 0.0305(16) -0.0002(12) -0.0050(12) -0.0016(12)
O3 0.0164(14) 0.0262(16) 0.0372(18) -0.0041(13) -0.0026(13) -0.0009(12)
O4 0.0315(16) 0.0156(15) 0.0323(17) 0.0034(12) 0.0019(13) 0.0001(13)
O5 0.047(2) 0.043(2) 0.039(2) 0.0148(17) 0.0143(17) 0.0127(18)
O6 0.042(2) 0.045(2) 0.0277(18) 0.0046(15) 0.0048(15) 0.0145(18)
N1 0.0223(18) 0.0251(19) 0.026(2) -0.0003(15) 0.0007(15) 0.0034(15)
C1 0.024(2) 0.017(2) 0.018(2) -0.0018(16) 0.0022(16) -0.0002(17)
C2 0.022(2) 0.0138(19) 0.025(2) -0.0009(16) 0.0020(16) 0.0002(16)
C3 0.022(2) 0.016(2) 0.023(2) 0.0001(16) 0.0011(16) 0.0022(17)
C4 0.0183(19) 0.019(2) 0.021(2) 0.0011(16) 0.0008(16) 0.0015(17)
C5 0.022(2) 0.019(2) 0.019(2) 0.0009(16) -0.0022(16) 0.0019(17)
C6 0.022(2) 0.018(2) 0.021(2) 0.0036(16) -0.0011(16) 0.0041(17)
C7 0.0176(19) 0.019(2) 0.020(2) -0.0013(16) 0.0008(16) 0.0000(17)
C8 0.020(2) 0.020(2) 0.025(2) 0.0006(17) -0.0040(16) 0.0040(17)
C9 0.021(2) 0.020(2) 0.029(2) 0.0005(17) -0.0035(17) 0.0035(17)
C10 0.030(2) 0.032(3) 0.028(2) 0.002(2) -0.0018(19) 0.002(2)
C11 0.036(3) 0.027(2) 0.030(2) 0.0051(19) 0.002(2) 0.004(2)
C13 0.097(6) 0.040(4) 0.067(5) 0.007(3) 0.018(4) 0.006(4)
loop_
_atom_type_symbol
_atom_type_description
_atom_type_scat_dispersion_real
_atom_type_scat_dispersion_imag
_atom_type_scat_source
C C 0.0181 0.0091 'International Tables Vol C Tables 4.2.6.8 and 6.1.1.4'
H H 0.0000 0.0000 'International Tables Vol C Tables 4.2.6.8 and 6.1.1.4'
N N 0.0311 0.0180 'International Tables Vol C Tables 4.2.6.8 and 6.1.1.4'
O O 0.0492 0.0322 'International Tables Vol C Tables 4.2.6.8 and 6.1.1.4'
S S 0.3331 0.5567 'International Tables Vol C Tables 4.2.6.8 and 6.1.1.4'
Cl Cl 0.3639 0.7018 'International Tables Vol C Tables 4.2.6.8 and 6.1.1.4'
loop_
_geom_angle_atom_site_label_1
_geom_angle_atom_site_label_2
_geom_angle_atom_site_label_3
_geom_angle
O4 S1 O3 120.71(19)
O4 S1 N1 105.85(19)
O3 S1 N1 106.34(19)
O4 S1 C7 108.81(19)
O3 S1 C7 107.61(19)
N1 S1 C7 106.73(19)
C1 O1 H1 117(4)
C10 O5 H4 102(4)
C11 N1 S1 116.5(3)
C11 N1 H7 114(4)
S1 N1 H7 115(4)
O2 C1 O1 123.5(4)
O2 C1 C2 118.1(4)
O1 C1 C2 118.4(4)
C3 C2 C1 122.9(4)
C3 C2 H2 118.5
C1 C2 H2 118.5
C2 C3 C4 126.0(4)
C2 C3 H3 117.0
C4 C3 H3 117.0
C9 C4 C5 118.7(4)
C9 C4 C3 119.1(4)
C5 C4 C3 122.2(4)
C6 C5 C4 121.0(4)
C6 C5 H5 119.5
C4 C5 H5 119.5
C5 C6 C7 119.4(4)
C5 C6 H6 120.3
C7 C6 H6 120.3
C8 C7 C6 120.2(4)
C8 C7 S1 120.3(3)
C6 C7 S1 119.4(3)
C9 C8 C7 119.9(4)
C9 C8 H8 120.0
C7 C8 H8 120.0
C8 C9 C4 120.7(4)
C8 C9 H9 119.6
C4 C9 H9 119.6
O6 C10 O5 124.1(5)
O6 C10 C11 123.4(4)
O5 C10 C11 112.5(4)
N1 C11 C10 110.9(4)
N1 C11 H11A 109.5
C10 C11 H11A 109.5
N1 C11 H11B 109.5
C10 C11 H11B 109.5
H11A C11 H11B 108.0
Cl1 C13 Cl2 112.1(4)
Cl1 C13 H13B 109.2
Cl2 C13 H13B 109.2
Cl1 C13 H13A 109.2
Cl2 C13 H13A 109.2
H13B C13 H13A 107.9
loop_
_geom_bond_atom_site_label_1
_geom_bond_atom_site_label_2
_geom_bond_distance
Cl1 C13 1.754(7)
Cl2 C13 1.763(7)
S1 O4 1.425(3)
S1 O3 1.432(3)
S1 N1 1.634(4)
S1 C7 1.752(4)
O1 C1 1.281(5)
O1 H1 0.82(2)
O2 C1 1.268(5)
O5 C10 1.315(6)
O5 H4 0.86(2)
O6 C10 1.217(6)
N1 C11 1.459(6)
N1 H7 0.85(2)
C1 C2 1.467(5)
C2 C3 1.333(6)
C2 H2 0.9500
C3 C4 1.460(6)
C3 H3 0.9500
C4 C9 1.398(6)
C4 C5 1.405(6)
C5 C6 1.375(6)
C5 H5 0.9500
C6 C7 1.409(6)
C6 H6 0.9500
C7 C8 1.386(6)
C8 C9 1.384(6)
C8 H8 0.9500
C9 H9 0.9500
C10 C11 1.494(7)
C11 H11A 0.9900
C11 H11B 0.9900
C13 H13B 0.9900
C13 H13A 0.9900
loop_
_geom_hbond_atom_site_label_D
_geom_hbond_atom_site_label_H
_geom_hbond_atom_site_label_A
_geom_hbond_distance_DH
_geom_hbond_distance_HA
_geom_hbond_distance_DA
_geom_hbond_angle_DHA
_geom_hbond_site_symmetry_A
O1 H1 O2 0.82(2) 1.82(2) 2.631(4) 179(6) 2_445
O5 H4 O6 0.86(2) 1.84(3) 2.658(5) 159(6) 2_566
N1 H7 O3 0.85(2) 2.18(3) 2.935(5) 149(5) 1_455
loop_
_geom_torsion_atom_site_label_1
_geom_torsion_atom_site_label_2
_geom_torsion_atom_site_label_3
_geom_torsion_atom_site_label_4
_geom_torsion
O4 S1 N1 C11 176.5(3)
O3 S1 N1 C11 -54.0(4)
C7 S1 N1 C11 60.7(4)
O2 C1 C2 C3 175.3(4)
O1 C1 C2 C3 -4.8(6)
C1 C2 C3 C4 -177.9(4)
C2 C3 C4 C9 173.7(4)
C2 C3 C4 C5 -5.9(7)
C9 C4 C5 C6 -2.5(6)
C3 C4 C5 C6 177.1(4)
C4 C5 C6 C7 0.7(6)
C5 C6 C7 C8 1.1(6)
C5 C6 C7 S1 -175.1(3)
O4 S1 C7 C8 155.6(3)
O3 S1 C7 C8 23.2(4)
N1 S1 C7 C8 -90.6(4)
O4 S1 C7 C6 -28.2(4)
O3 S1 C7 C6 -160.6(3)
N1 S1 C7 C6 85.6(4)
C6 C7 C8 C9 -1.0(6)
S1 C7 C8 C9 175.1(3)
C7 C8 C9 C4 -0.8(7)
C5 C4 C9 C8 2.5(6)
C3 C4 C9 C8 -177.1(4)
S1 N1 C11 C10 -178.3(3)
O6 C10 C11 N1 7.2(7)
O5 C10 C11 N1 -174.7(4)
