#------------------------------------------------------------------------------
#$Date: 2019-11-23 15:20:39 +0200 (Sat, 23 Nov 2019) $
#$Revision: 233806 $
#$URL: file:///home/coder/svn-repositories/cod/cif/7/23/59/7235982.cif $
#------------------------------------------------------------------------------
#
# This file is available in the Crystallography Open Database (COD),
# http://www.crystallography.net/
#
# All data on this site have been placed in the public domain by the
# contributors.
#
data_7235982
loop_
_publ_author_name
'Cui, L.-Y.'
'Wang, Y.-H.'
'Chen, S.-R.'
'Wang, Y.-M.'
'Zhou, Z.-H.'
_publ_section_title
;
 Stereocontrolled construction of 3H-furo[3,4-b]chromen-1(9H)-one
 scaffolds via organocatalyzed Michael addition and the following
 intramolecular dehydration
;
_journal_issue                   107
_journal_name_full               'RSC Advances'
_journal_page_first              88133
_journal_paper_doi               10.1039/C5RA17503H
_journal_volume                  5
_journal_year                    2015
_chemical_absolute_configuration ad
_chemical_formula_moiety         'C12 H9 N O5'
_chemical_formula_sum            'C12 H9 N O5'
_chemical_formula_weight         247.20
_space_group_crystal_system      monoclinic
_space_group_IT_number           4
_space_group_name_Hall           'P 2yb'
_space_group_name_H-M_alt        'P 1 21 1'
_atom_sites_solution_hydrogens   geom
_atom_sites_solution_primary     direct
_atom_sites_solution_secondary   difmap
_audit_block_doi                 10.5517/cc1jpx48
_audit_creation_method           SHELXL-2014/7
_audit_update_record
;
2015-08-29 deposited with the CCDC.
2015-10-09 downloaded from the CCDC.
;
_cell_angle_alpha                90
_cell_angle_beta                 96.096(7)
_cell_angle_gamma                90
_cell_formula_units_Z            2
_cell_length_a                   7.201(3)
_cell_length_b                   10.323(4)
_cell_length_c                   7.211(2)
_cell_measurement_reflns_used    625
_cell_measurement_temperature    173(2)
_cell_measurement_theta_max      77.80
_cell_measurement_theta_min      28.60
_cell_volume                     533.0(3)
_computing_cell_refinement       'CrystalClear-SM Expert 2.1 b42'
_computing_data_collection
'CrystalClear-SM Expert 2.1 b42 (Rigaku, 2015)'
_computing_data_reduction        'CrystalClear-SM Expert 2.1 b42'
_computing_molecular_graphics    'CrystalStructure 4.1'
_computing_publication_material  'CrystalStructure 4.1 (Rigaku, 2014)'
_computing_structure_refinement  'SHELXL-2014/7 (Sheldrick, 2014)'
_computing_structure_solution    'SIR2011 (Burla, et al., 2012)'
_diffrn_ambient_temperature      173(2)
_diffrn_detector_area_resol_mean 5.814
_diffrn_measured_fraction_theta_full 0.999
_diffrn_measured_fraction_theta_max 0.997
_diffrn_measurement_device_type  'Rigaku XtaLAB P200'
_diffrn_measurement_method       \w
_diffrn_radiation_type           CuK\a
_diffrn_radiation_wavelength     1.54187
_diffrn_reflns_av_R_equivalents  0.0439
_diffrn_reflns_av_unetI/netI     0.0303
_diffrn_reflns_Laue_measured_fraction_full 0.999
_diffrn_reflns_Laue_measured_fraction_max 0.997
_diffrn_reflns_limit_h_max       9
_diffrn_reflns_limit_h_min       -9
_diffrn_reflns_limit_k_max       10
_diffrn_reflns_limit_k_min       -12
_diffrn_reflns_limit_l_max       9
_diffrn_reflns_limit_l_min       -9
_diffrn_reflns_number            11331
_diffrn_reflns_point_group_measured_fraction_full 0.934
_diffrn_reflns_point_group_measured_fraction_max 0.925
_diffrn_reflns_theta_full        67.687
_diffrn_reflns_theta_max         77.372
_diffrn_reflns_theta_min         6.172
_exptl_absorpt_coefficient_mu    1.042
_exptl_absorpt_correction_T_max  0.882
_exptl_absorpt_correction_T_min  0.630
_exptl_absorpt_correction_type   multi-scan
_exptl_absorpt_process_details   'REQAB (Rigaku, 1998)'
_exptl_crystal_colour            colorless
_exptl_crystal_density_diffrn    1.540
_exptl_crystal_density_method    'not measured'
_exptl_crystal_description       prism
_exptl_crystal_F_000             256
_exptl_crystal_size_max          0.400
_exptl_crystal_size_mid          0.140
_exptl_crystal_size_min          0.120
_refine_diff_density_max         0.255
_refine_diff_density_min         -0.171
_refine_diff_density_rms         0.047
_refine_ls_abs_structure_details
; 
 Flack x determined using 832 quotients [(I+)-(I-)]/[(I+)+(I-)] 
 (Parsons, Flack and Wagner, Acta Cryst. B69 (2013) 249-259). 
;
_refine_ls_abs_structure_Flack   0.01(6)
_refine_ls_extinction_coef       0.0078(19)
_refine_ls_extinction_expression Fc^*^=kFc[1+0.001xFc^2^\l^3^/sin(2\q)]^-1/4^
_refine_ls_extinction_method     'SHELXL-2014/7 (Sheldrick 2014'
_refine_ls_goodness_of_fit_ref   1.124
_refine_ls_hydrogen_treatment    constr
_refine_ls_matrix_type           full
_refine_ls_number_parameters     164
_refine_ls_number_reflns         2085
_refine_ls_number_restraints     1
_refine_ls_restrained_S_all      1.123
_refine_ls_R_factor_all          0.0293
_refine_ls_R_factor_gt           0.0284
_refine_ls_shift/su_max          0.000
_refine_ls_shift/su_mean         0.000
_refine_ls_structure_factor_coef Fsqd
_refine_ls_weighting_details
'w=1/[\s^2^(Fo^2^)+(0.0511P)^2^+0.0050P] where P=(Fo^2^+2Fc^2^)/3'
_refine_ls_weighting_scheme      calc
_refine_ls_wR_factor_gt          0.0757
_refine_ls_wR_factor_ref         0.0764
_reflns_Friedel_coverage         0.752
_reflns_Friedel_fraction_full    0.861
_reflns_Friedel_fraction_max     0.844
_reflns_number_gt                1995
_reflns_number_total             2085
_reflns_threshold_expression     'I > 2\s(I)'
_cod_data_source_file            c5ra17503h2.cif
_cod_data_source_block           shelxl
_cod_original_sg_symbol_H-M      'P 21'
_cod_database_code               7235982
_shelx_shelxl_version_number     2014/7
_shelx_space_group_comment
; 
The symmetry employed for this shelxl refinement is uniquely defined 
by the following loop, which should always be used as a source of 
symmetry information in preference to the above space-group names. 
They are only intended as comments. 
;
_shelx_estimated_absorpt_t_min   0.681
_shelx_estimated_absorpt_t_max   0.885
_shelx_res_file
; 
  
    shelxl.res created by SHELXL-2014/7 
  
TITL P20150525a 
CELL  1.54187 7.20100 10.32300 7.21100 90.00000 96.09600 90.00000 
ZERR  2 0.00300 0.00400 0.00200 0.00000 0.00700 0.00000 
LATT -1 
SYMM    -X, .50+Y,    -Z 
SFAC C H N O 
UNIT 24 18 2 10 
L.S. 5 
FMAP 2 
PLAN -5 
WPDB -2 
HTAB 
BOND $H 
CONF 
LIST 4 
TEMP -100.0 
ACTA 
SIZE 0.400 0.140 0.120 
WGHT    0.051100    0.005000 
EXTI    0.007779 
FVAR       0.79941 
O1    4    0.538286    0.379004    0.269417    11.00000    0.02807    0.01932 = 
         0.03656   -0.00214   -0.00162    0.00058 
O2    4    0.834782    0.363133    0.403706    11.00000    0.03238    0.02717 = 
         0.04395   -0.00601   -0.00596   -0.00642 
O3    4    0.378739    0.052655    0.193619    11.00000    0.01877    0.01983 = 
         0.03653   -0.00283   -0.00043   -0.00129 
O4    4    0.988826    0.186545    0.026991    11.00000    0.04307    0.03310 = 
         0.04749    0.01462    0.00051   -0.00186 
O5    4    0.900948   -0.012427   -0.006496    11.00000    0.06778    0.04458 = 
         0.04142   -0.01366    0.01366   -0.02222 
N1    3    0.952856    0.080431    0.089279    11.00000    0.01794    0.02745 = 
         0.03536    0.00210    0.00243   -0.00031 
C1    1    0.693480    0.308805    0.336817    11.00000    0.02592    0.02332 = 
         0.02808   -0.00119    0.00144   -0.00107 
C2    1    0.653784    0.170859    0.313266    11.00000    0.02139    0.02260 = 
         0.02320   -0.00077    0.00095   -0.00201 
C3    1    0.476043    0.161445    0.235742    11.00000    0.02085    0.02032 = 
         0.02350   -0.00253    0.00415   -0.00154 
C4    1    0.389272    0.291413    0.201577    11.00000    0.02256    0.02074 = 
         0.03038   -0.00164    0.00214    0.00001 
AFIX  23 
H4A   2    0.350710    0.305275    0.067147    11.00000   -1.20000 
H4B   2    0.279313    0.302221    0.271695    11.00000   -1.20000 
AFIX   0 
C5    1    0.774953    0.056602    0.369311    11.00000    0.02029    0.02351 = 
         0.02473    0.00086   -0.00133   -0.00154 
AFIX  13 
H5    2    0.796257    0.056755    0.508625    11.00000   -1.20000 
AFIX   0 
C6    1    0.665238   -0.066518    0.311904    11.00000    0.02148    0.02105 = 
         0.02254    0.00043    0.00209   -0.00226 
C7    1    0.477949   -0.063429    0.234037    11.00000    0.02019    0.01981 = 
         0.02529    0.00006    0.00384   -0.00042 
C8    1    0.375199   -0.175632    0.190395    11.00000    0.02308    0.02601 = 
         0.02943   -0.00351    0.00410   -0.00519 
AFIX  43 
H8    2    0.248736   -0.170094    0.137938    11.00000   -1.20000 
AFIX   0 
C9    1    0.458947   -0.295612    0.224115    11.00000    0.03479    0.02273 = 
         0.03027   -0.00163    0.00641   -0.00737 
AFIX  43 
H9    2    0.389584   -0.372770    0.196467    11.00000   -1.20000 
AFIX   0 
C10   1    0.647241   -0.302413    0.299513    11.00000    0.03819    0.02064 = 
         0.03014    0.00346    0.00364    0.00001 
AFIX  43 
H10   2    0.706182   -0.384158    0.321149    11.00000   -1.20000 
AFIX   0 
C11   1    0.745842   -0.189483    0.341871    11.00000    0.02753    0.02543 = 
         0.02857    0.00410   -0.00035    0.00029 
AFIX  43 
H11   2    0.872670   -0.195335    0.393085    11.00000   -1.20000 
AFIX   0 
C12   1    0.969346    0.064722    0.296484    11.00000    0.01968    0.02611 = 
         0.03316    0.00210   -0.00255   -0.00065 
AFIX  23 
H12A  2    1.039160    0.139107    0.355881    11.00000   -1.20000 
H12B  2    1.040709   -0.015106    0.331758    11.00000   -1.20000 
AFIX   0 
HKLF 4 
  
REM  P20150525a 
REM R1 =  0.0284 for    1995 Fo > 4sig(Fo)  and  0.0293 for all    2085 data 
REM    164 parameters refined using      1 restraints 
  
END 
  
WGHT      0.0512      0.0050 
  
REM Instructions for potential hydrogen bonds 
EQIV $1 -x+1, y+1/2, -z 
HTAB C4 O5_$1 
EQIV $2 -x+1, y-1/2, -z 
HTAB C8 O4_$2 
EQIV $3 -x+2, y-1/2, -z+1 
HTAB C12 O2_$3 
  
REM Highest difference peak  0.255,  deepest hole -0.171,  1-sigma level  0.047 
Q1    1   0.5908 -0.0648  0.2789  11.00000  0.05    0.26 
Q2    1   0.7152 -0.0056  0.3362  11.00000  0.05    0.23 
Q3    1   0.5804  0.1722  0.2760  11.00000  0.05    0.23 
Q4    1   0.4102 -0.1240  0.2368  11.00000  0.05    0.17 
Q5    1   0.8940  0.0549  0.3945  11.00000  0.05    0.17 
;
_shelx_res_checksum              39862
_shelx_hkl_file
; 
   0   0   1   23.39    2.07 
   0   0   1   24.70    2.02 
   0   0   1   24.35    2.16 
   0   0  -1   22.79    2.06 
   0   0  -1   25.21    2.23 
   0   0   1   16.65    1.78 
   0   0  -1   24.19    2.33 
   0   0  -2 2386.05  122.87 
   0   0  -2 2399.98  123.24 
   0   0   2 2417.87  122.59 
   0   0  -2 2177.28  110.24 
   0   0  -2 2078.52  105.73 
   0   0  -2 2471.68  124.91 
   0   0   3  940.19   48.85 
   0   0  -3  826.49   42.89 
   0   0  -3  953.55   49.34 
   0   0  -3  999.07   51.61 
   0   0   4  192.14    8.37 
   0   0  -4  171.20    7.39 
   0   0  -4  189.30    7.97 
   0   0  -4  180.57    7.78 
   0   0  -5   52.78    2.80 
   0   0   5   40.40    2.54 
   0   0  -5   46.87    2.69 
   0   0  -5   43.37    2.51 
   0   0  -5   41.64    2.53 
   0   0  -5   43.62    1.63 
   0   0  -5   44.68    1.78 
   0   0  -5   39.11    1.63 
   0   0  -5   45.93    1.79 
   0   0  -5   41.39    1.66 
   0   0  -5   45.51    1.84 
   0   0  -5   45.36    1.81 
   0   0  -5   44.03    1.88 
   0   0   5   46.14    1.99 
   0   0  -6   22.61    1.67 
   0   0   6   22.91    1.87 
   0   0  -6   24.44    1.91 
   0   0  -6   21.84    1.81 
   0   0  -6   24.73    1.16 
   0   0  -6   22.82    1.14 
   0   0  -6   23.60    1.19 
   0   0  -6   23.07    1.13 
   0   0  -6   25.33    1.25 
   0   0  -6   25.24    1.21 
   0   0  -6   25.18    1.30 
   0   0  -6   25.39    1.29 
   0   0  -6   23.85    1.16 
   0   0  -6   23.43    1.30 
   0   0   6   28.02    1.48 
   0   0  -7   16.00    1.01 
   0   0  -7   15.62    1.08 
   0   0  -7   14.75    0.95 
   0   0  -7   16.19    1.12 
   0   0  -7   16.27    1.08 
   0   0  -7   13.71    1.06 
   0   0  -7   15.36    1.12 
   0   0  -7   15.08    0.98 
   0   0  -7   15.34    1.07 
   0   0   7   17.81    1.28 
   0   0  -8   10.12    1.05 
   0   0  -8    8.38    1.13 
   0   0  -8    8.51    0.92 
   0   0  -8    9.68    1.08 
   0   0  -8    9.59    1.10 
   0   0  -8    7.72    1.10 
   0   0  -8    8.03    0.96 
   0   0  -8    8.84    1.02 
   0   0  -8   10.05    1.21 
   0   0   8   10.35    1.29 
   0   0  -9   10.15    1.35 
   0   0  -9   10.49    2.42 
   0   0  -9   12.37    1.64 
   0   0  -9   10.22    1.55 
   0   0   9   13.88    1.71 
   0   1   1 1442.40   73.17 
   0   1  -1 1374.20   69.94 
   0   1  -1 1387.84   70.32 
   0   1   1 1254.26   63.99 
   0   1   1 1310.22   66.69 
   0   1   1 1442.19   73.21 
   0  -1  -1 1354.35   68.86 
   0  -1  -1 1363.08   69.18 
   0  -1  -1 1425.30   72.45 
   0  -1   1 1360.68   69.40 
   0  -1  -1 1224.07   62.18 
   0  -1  -1 1298.72   65.92 
   0  -1   1 1113.42   57.53 
   0  -1  -1 1353.79   68.79 
   0  -1   1 1308.80   66.66 
   0   1  -2   51.68    3.83 
   0   1  -2   52.25    3.45 
   0   1   2   53.50    3.68 
   0  -1  -2   59.47    3.99 
   0  -1  -2   62.04    4.07 
   0  -1   2   55.11    3.72 
   0  -1  -2   54.44    3.83 
   0  -1  -2   56.99    3.84 
   0  -1  -2   59.71    3.95 
   0  -1  -2   57.90    3.94 
   0  -1   2   53.57    3.74 
   0   1   3   71.51    4.68 
   0   1  -3   73.12    4.95 
   0   1  -3   67.21    4.48 
   0  -1  -3   72.56    4.64 
   0  -1  -3   72.46    4.66 
   0  -1  -3   66.96    4.43 
   0  -1   3   85.68    5.37 
   0   1  -4   46.82    3.01 
   0   1   4   43.67    2.76 
   0   1  -4   46.89    2.89 
   0  -1  -4   44.73    2.74 
   0  -1  -4   42.93    2.62 
   0  -1  -4   48.05    2.84 
   0  -1  -4   44.47    2.75 
   0  -1   4   45.37    2.82 
   0   1  -5   34.66    1.42 
   0   1   5   37.46    2.35 
   0   1  -5   34.81    1.39 
   0   1  -5   36.45    1.40 
   0   1  -5   38.93    2.38 
   0   1  -5   36.15    1.48 
   0   1  -5   37.46    2.24 
   0   1  -5   37.50    1.38 
   0   1  -5   37.37    2.40 
   0   1   5   36.74    1.63 
   0   1  -5   36.64    1.46 
   0  -1  -5   33.55    2.09 
   0  -1  -5   33.11    2.10 
   0  -1  -5   36.08    1.48 
   0  -1   5   38.42    2.39 
   0  -1  -5   35.55    1.39 
   0  -1  -5   35.67    1.41 
   0  -1  -5   36.84    2.28 
   0  -1  -5   36.50    1.38 
   0  -1  -5   35.46    2.19 
   0  -1  -5   31.85    1.43 
   0  -1  -5   39.39    1.50 
   0  -1  -5   36.63    1.57 
   0  -1  -5   37.89    1.52 
   0   1  -6   12.38    0.87 
   0   1  -6   12.99    1.43 
   0   1   6   12.67    0.99 
   0   1  -6   13.60    0.85 
   0   1  -6   12.00    1.35 
   0   1  -6   10.76    1.26 
   0   1  -6   13.51    1.54 
   0   1  -6   11.35    0.83 
   0   1  -6   12.06    0.77 
   0   1  -6   13.37    0.95 
   0   1  -6   13.60    0.93 
   0   1  -6   14.25    1.09 
   0  -1  -6   11.88    1.26 
   0  -1  -6   11.17    1.36 
   0  -1  -6   11.98    0.80 
   0  -1  -6   11.59    0.90 
   0  -1  -6   13.40    0.85 
   0  -1  -6   12.57    0.93 
   0  -1  -6   12.50    0.84 
   0  -1  -6   12.83    0.89 
   0  -1  -6   11.22    0.78 
   0  -1  -6   10.98    0.87 
   0  -1  -6   12.48    0.95 
   0  -1  -6   12.62    0.80 
   0  -1   6   12.34    1.46 
   0   1  -7    9.68    0.81 
   0   1  -7   10.65    0.81 
   0   1  -7   10.90    0.87 
   0   1  -7   10.78    0.91 
   0   1   7   11.23    1.00 
   0   1  -7    9.95    0.85 
   0   1  -7   10.50    1.01 
   0   1  -7    8.96    1.00 
   0  -1  -7   10.38    0.92 
   0  -1  -7   10.45    0.93 
   0  -1  -7    9.44    0.86 
   0  -1  -7    9.59    0.77 
   0  -1  -7   11.24    0.89 
   0  -1  -7   10.69    0.92 
   0  -1  -7   11.14    0.84 
   0  -1  -7    9.46    0.73 
   0  -1   7   11.45    1.13 
   0   1  -8   17.03    1.61 
   0   1  -8   19.83    1.77 
   0   1  -8   19.27    1.77 
   0   1  -8   15.55    1.98 
   0   1  -8   17.04    1.60 
   0   1   8   18.17    1.78 
   0   1  -8   13.76    2.23 
   0   1  -8   18.04    1.72 
   0  -1  -8   19.54    1.75 
   0  -1  -8   16.24    1.73 
   0  -1  -8   19.30    1.75 
   0  -1  -8   15.80    1.54 
   0  -1  -8   13.86    1.76 
   0  -1  -8   17.48    1.68 
   0  -1  -8   18.40    1.73 
   0  -1  -8   16.13    1.58 
   0  -1   8   18.65    1.82 
   0   1  -9    6.16    1.52 
   0   1  -9   12.71    2.81 
   0  -1  -9    1.22    0.61 
   0  -1  -9    1.11    1.85 
   0  -1  -9    2.27    0.60 
   0  -1   9    2.81    0.85 
   0   2   0   55.46    3.77 
   0   2   0   51.01    3.61 
   0  -2   0   50.07    3.48 
   0  -2   0   50.23    3.48 
   0   2   1  392.10   20.71 
   0   2  -1  361.01   19.24 
   0   2  -1  412.03   21.90 
   0   2  -1  347.83   18.47 
   0   2   1  407.00   21.42 
   0   2   1  360.01   19.09 
   0   2  -1  356.11   18.99 
   0  -2  -1  401.61   21.26 
   0  -2   1  363.28   19.63 
   0  -2  -1  372.67   19.98 
   0  -2   1  386.33   20.41 
   0   2   2  170.83    9.75 
   0   2  -2  177.18   10.05 
   0   2  -2  190.30   10.46 
   0   2   2  169.57    9.82 
   0  -2  -2  168.49   10.32 
   0  -2   2  179.89   10.33 
   0  -2   2  165.30    9.58 
   0  -2  -2  189.09   10.52 
   0  -2  -2  156.27    9.73 
   0  -2  -2  160.11    9.21 
   0  -2  -2  157.24    8.89 
   0   2  -3    0.20    0.60 
   0   2   3    0.25    0.51 
   0  -2  -3    0.26    0.69 
   0  -2   3   -0.06    0.68 
   0  -2  -3    1.13    0.70 
   0  -2  -3   -0.01    0.58 
   0   2  -4   11.33    1.54 
   0   2   4   12.39    1.38 
   0  -2   4   12.11    1.41 
   0  -2  -4   11.29    1.27 
   0  -2  -4   12.66    1.40 
   0  -2  -4   11.23    1.27 
   0   2  -5   13.30    0.94 
   0   2   5   15.93    1.05 
   0   2  -5   13.36    0.81 
   0   2  -5   13.68    0.87 
   0   2  -5   12.82    1.54 
   0   2  -5   14.19    0.83 
   0   2  -5   12.54    0.76 
   0   2  -5   13.87    0.86 
   0  -2  -5   13.45    1.38 
   0  -2   5   13.74    0.74 
   0  -2  -5   13.78    0.84 
   0  -2  -5   14.17    0.93 
   0  -2   5   13.81    0.94 
   0  -2  -5   13.21    1.44 
   0  -2  -5   14.32    0.86 
   0  -2  -5   13.45    0.82 
   0  -2   5   14.46    0.87 
   0  -2  -5   13.45    0.90 
   0  -2  -5   13.07    0.93 
   0  -2  -5   13.90    0.79 
   0  -2  -5   12.78    0.77 
   0  -2  -5   15.38    0.99 
   0  -2  -5   13.88    1.38 
   0  -2   5   13.71    1.55 
   0   2   6    1.30    0.53 
   0   2  -6    1.20    0.97 
   0   2  -6    1.72    0.97 
   0   2  -6    0.84    0.51 
   0   2  -6    1.39    0.48 
   0   2  -6    0.98    0.58 
   0   2  -6    1.12    0.49 
   0   2  -6    1.60    0.49 
   0   2  -6    0.95    0.52 
   0   2  -6    0.97    0.53 
   0  -2  -6    0.54    0.41 
   0  -2  -6    0.77    0.59 
   0  -2  -6    1.11    0.60 
   0  -2   6    0.70    0.41 
   0  -2  -6    1.06    0.63 
   0  -2  -6    0.52    0.51 
   0  -2  -6    0.85    0.56 
   0  -2  -6    0.74    0.42 
   0  -2  -6    0.54    0.48 
   0  -2  -6    2.54    0.54 
   0  -2  -6    0.80    0.55 
   0  -2  -6    0.62    0.53 
   0  -2   6    1.05    0.75 
   0  -2   6    0.96    0.63 
   0   2  -7    8.15    0.90 
   0   2  -7    8.40    0.85 
   0   2  -7    8.24    0.82 
   0   2  -7    9.46    0.86 
   0   2  -7    9.53    0.80 
   0   2  -7    9.65    0.84 
   0   2   7    9.38    0.98 
   0   2  -7    9.02    0.83 
   0  -2  -7    8.14    0.80 
   0  -2  -7    8.55    0.71 
   0  -2  -7    9.16    0.84 
   0  -2  -7    9.40    0.83 
   0  -2  -7    7.96    0.85 
   0  -2  -7    9.03    0.82 
   0  -2  -7    8.77    0.78 
   0  -2  -7    9.61    0.90 
   0  -2  -7    9.30    0.92 
   0  -2  -7    8.29    0.80 
   0   2  -8    6.60    0.86 
   0   2  -8    8.07    0.96 
   0   2  -8    8.47    1.01 
   0   2  -8    5.05    0.90 
   0   2  -8    6.83    0.81 
   0   2   8    7.23    1.05 
   0   2  -8    6.49    0.95 
   0   2  -8    7.94    1.01 
   0  -2  -8    8.14    0.97 
   0  -2  -8    7.13    0.93 
   0  -2  -8    6.89    0.85 
   0  -2  -8    5.68    0.78 
   0  -2  -8    7.73    0.95 
   0  -2  -8    7.81    1.01 
   0  -2  -8    5.76    0.94 
   0  -3   0    0.02    0.64 
   0  -3   0    0.25    0.52 
   0   3  -1  754.67   39.32 
   0   3   1  830.73   42.76 
   0   3  -1  800.48   41.44 
   0   3  -1  811.60   42.06 
   0   3   1  817.12   42.05 
   0   3   1  868.78   44.72 
   0   3  -1  711.30   36.93 
   0  -3   1  848.30   43.71 
   0  -3   1  818.46   43.72 
   0  -3  -1  763.30   40.54 
   0   3  -2  135.18    7.93 
   0   3  -2  141.88    8.06 
   0   3  -2  129.31    7.83 
   0   3  -2  142.00    8.31 
   0   3  -2  131.09    7.71 
   0   3   2  125.55    7.58 
   0  -3  -2  132.68    7.82 
   0  -3   2  128.47    7.54 
   0   3  -3   43.96    3.11 
   0   3  -3   47.01    3.24 
   0   3  -3   41.99    3.37 
   0   3  -3   43.05    3.23 
   0  -3   3   45.02    3.20 
   0  -3  -3   44.65    3.33 
   0  -3   3   41.93    3.14 
   0   3  -4   14.36    1.47 
   0   3  -4   16.67    1.69 
   0   3  -4   13.76    0.85 
   0   3  -4   14.49    1.01 
   0  -3  -4   13.10    1.40 
   0  -3   4   14.07    0.85 
   0  -3  -4   14.15    0.89 
   0  -3   4   14.49    0.98 
   0  -3  -4   13.61    1.46 
   0  -3  -4   14.85    0.95 
   0  -3   4   14.41    0.91 
   0  -3  -4   15.23    0.96 
   0  -3  -4   13.68    0.89 
   0  -3  -4   14.59    1.03 
   0  -3   4   15.00    1.00 
   0   3   5    0.47    0.39 
   0   3  -5    0.14    0.89 
   0   3  -5    0.35    0.74 
   0   3  -5    0.59    0.46 
   0   3  -5    0.68    0.41 
   0   3  -5    0.32    0.53 
   0   3  -5    0.52    0.34 
   0   3  -5    0.40    0.40 
   0   3  -5    0.29    0.43 
   0  -3  -5    0.24    0.49 
   0  -3   5    0.71    0.90 
   0  -3  -5    0.15    0.44 
   0  -3   5    0.54    0.30 
   0  -3  -5    0.41    0.34 
   0  -3   5    0.69    0.46 
   0  -3  -5    0.47    0.49 
   0  -3  -5    0.11    0.46 
   0  -3  -5    0.49    0.46 
   0  -3  -5    0.62    0.39 
   0  -3  -5    0.41    0.45 
   0  -3  -5    0.22    0.49 
   0  -3   5    0.25    0.57 
   0  -3   5    0.19    0.53 
   0   3  -6    2.47    0.61 
   0   3  -6    3.18    1.04 
   0   3  -6    2.40    0.62 
   0   3  -6    2.44    0.49 
   0   3  -6    2.48    0.51 
   0   3  -6    2.36    0.57 
   0   3  -6    2.69    0.71 
   0   3   6    2.60    0.65 
   0  -3   6    2.35    0.98 
   0  -3  -6    2.61    0.59 
   0  -3   6    3.19    0.42 
   0  -3   6    2.25    0.53 
   0  -3  -6    2.81    0.57 
   0  -3  -6    2.93    0.65 
   0  -3  -6    2.48    0.69 
   0  -3  -6    2.11    0.47 
   0  -3  -6    2.32    0.59 
   0  -3  -6    2.86    0.55 
   0  -3  -6    2.80    0.64 
   0  -3   6    2.25    0.70 
   0   3  -7   22.83    1.29 
   0   3  -7   24.63    1.33 
   0   3  -7   22.19    1.37 
   0   3  -7   24.73    1.41 
   0   3   7   22.75    1.51 
   0   3  -7   24.33    1.34 
   0   3  -7   22.67    1.37 
   0   3  -7   17.27    1.86 
   0  -3  -7   22.64    1.33 
   0  -3  -7   23.74    1.48 
   0  -3   7   18.35    1.60 
   0  -3  -7   23.77    1.35 
   0  -3  -7   24.07    1.37 
   0  -3  -7   21.25    1.32 
   0  -3  -7   22.47    1.26 
   0  -3  -7   22.89    1.32 
   0  -3   7   24.11    1.50 
   0   3  -8    0.43    0.45 
   0   3  -8    0.28    0.56 
   0   3  -8    0.71    0.57 
   0   3  -8    0.29    0.56 
   0   3  -8    0.39    0.64 
   0  -3  -8    0.51    0.51 
   0  -3  -8    0.49    0.59 
   0  -3  -8    0.59    0.56 
   0  -3  -8    0.65    0.53 
   0  -3  -8    0.45    0.59 
   0  -3   8    0.74    0.70 
   0   4   0  232.45   13.17 
   0  -4   0  218.42   12.32 
   0  -4   0  237.43   13.06 
   0   4  -1  205.16   11.63 
   0   4  -1  224.60   12.71 
   0   4  -1  185.49   10.68 
   0   4  -1  214.40   12.09 
   0   4   1  223.49   12.27 
   0   4   1  220.77   12.20 
   0  -4   1  233.24   12.92 
   0  -4  -1  200.99   11.45 
   0  -4   1  219.48   13.05 
   0   4  -2   98.88    6.17 
   0   4  -2   95.64    6.13 
   0   4  -2   91.68    5.60 
   0   4  -2   98.84    6.12 
   0   4  -2  100.04    6.21 
   0  -4   2   94.53    5.83 
   0  -4   2   90.97    5.74 
   0   4  -3  122.05    6.04 
   0   4  -3  115.86    5.38 
   0   4  -3  110.98    5.15 
   0   4  -3  126.35    5.96 
   0  -4   3  116.17    5.49 
   0  -4   3  112.48    5.32 
   0   4  -4  388.78   10.99 
   0   4  -4  379.50   11.40 
   0   4  -4  376.02    9.85 
   0   4  -4  398.96   12.07 
   0   4  -4  351.56   11.51 
   0  -4  -4  379.08    9.74 
   0  -4   4  362.91   12.16 
   0  -4  -4  355.22   10.58 
   0  -4   4  372.17    9.39 
   0  -4   4  349.61   10.21 
   0  -4  -4  379.40    9.91 
   0  -4  -4  369.49   10.92 
   0  -4   4  374.50    9.66 
   0  -4  -4  358.59   10.56 
   0  -4   4  365.78   10.96 
   0  -4   4  372.72    9.67 
   0   4  -5   31.60    2.31 
   0   4  -5   29.98    2.00 
   0   4  -5   29.56    1.49 
   0   4  -5   30.54    1.33 
   0   4  -5   31.37    1.37 
   0   4  -5   32.14    1.36 
   0   4  -5   28.51    1.30 
   0  -4  -5   30.63    1.43 
   0  -4  -5   30.17    1.54 
   0  -4   5   31.57    1.53 
   0  -4  -5   31.39    1.39 
   0  -4   5   30.48    1.38 
   0  -4  -5   29.80    1.43 
   0  -4  -5   30.48    1.37 
   0  -4  -5   32.38    1.45 
   0  -4   5   31.51    1.35 
   0  -4   5   31.37    1.55 
   0   4  -6   59.87    2.35 
   0   4  -6   54.05    2.21 
   0   4  -6   57.11    2.32 
   0   4  -6   57.24    2.29 
   0   4  -6   59.16    2.47 
   0  -4  -6   55.14    2.27 
   0  -4  -6   57.01    2.29 
   0  -4  -6   60.73    2.45 
   0  -4  -6   56.78    2.42 
   0  -4   6   49.63    2.02 
   0  -4  -6   54.92    2.28 
   0  -4  -6   54.25    2.16 
   0  -4  -6   57.74    2.44 
   0  -4   6   52.57    2.04 
   0  -4   6   55.15    2.36 
   0   4  -7   43.46    2.04 
   0   4  -7   42.55    1.88 
   0   4  -7   34.27    2.24 
   0   4  -7   42.46    2.18 
   0   4  -7   34.87    1.67 
   0   4  -7   42.44    1.98 
   0   4  -7   41.27    1.83 
   0  -4  -7   43.96    1.96 
   0  -4  -7   44.81    2.05 
   0  -4   7   38.13    1.76 
   0  -4  -7   40.99    1.87 
   0  -4  -7   44.59    1.98 
   0  -4   7   44.55    2.10 
   0   4  -8    6.87    0.94 
   0   4  -8    6.29    1.01 
   0   4  -8    5.64    0.98 
   0   4  -8    6.20    1.03 
   0  -4  -8    6.48    0.92 
   0  -4  -8    4.91    0.80 
   0  -4  -8    6.95    1.08 
   0  -4  -8    6.49    0.91 
   0  -4   8    7.54    1.11 
   0   5   0    0.10    0.67 
   0   5   0    0.02    0.57 
   0  -5   0    0.08    0.53 
   0  -5   0   -0.02    0.42 
   0   5  -1   45.28    3.41 
   0   5  -1   42.65    3.22 
   0   5  -1   46.96    3.39 
   0   5  -1   41.51    3.17 
   0  -5  -1   49.13    3.40 
   0  -5   1   49.53    3.52 
   0  -5   1   45.58    3.32 
   0   5  -2  176.72    7.79 
   0   5  -2  177.83    7.98 
   0   5  -2  170.30    7.32 
   0   5  -2  178.28    7.92 
   0   5  -2  178.18    7.85 
   0  -5   2  170.91    7.51 
   0  -5   2  164.47    7.38 
   0   5  -3   25.96    2.06 
   0   5  -3   29.86    2.21 
   0   5  -3   30.93    2.33 
   0   5  -3   32.77    2.58 
   0  -5   3   31.61    2.32 
   0  -5  -3   27.03    1.39 
   0  -5   3   29.19    1.42 
   0  -5  -3   30.94    1.61 
   0  -5  -3   30.73    1.62 
   0  -5   3   30.66    1.56 
   0  -5  -3   31.45    1.59 
   0   5  -4   25.05    1.85 
   0   5  -4   29.13    2.18 
   0   5  -4   25.85    1.29 
   0   5  -4   26.74    2.19 
   0   5  -4   26.92    1.20 
   0  -5   4   24.57    1.95 
   0  -5   4   26.53    1.17 
   0  -5   4   25.36    1.06 
   0  -5   4   27.24    1.36 
   0  -5  -4   24.96    1.25 
   0  -5  -4   26.70    1.28 
   0  -5   4   26.78    1.26 
   0  -5  -4   26.59    1.30 
   0  -5  -4   26.61    1.21 
   0  -5  -4   27.64    1.38 
   0  -5   4   27.25    1.34 
   0   5  -5   53.00    2.22 
   0   5  -5   53.50    2.99 
   0   5  -5   49.03    2.65 
   0   5  -5   53.70    3.21 
   0   5  -5   51.79    2.00 
   0   5  -5   50.73    1.99 
   0   5  -5   50.36    1.95 
   0  -5  -5   48.22    2.03 
   0  -5  -5   47.78    2.10 
   0  -5  -5   54.67    2.18 
   0  -5   5   50.13    2.89 
   0  -5  -5   51.55    2.17 
   0  -5  -5   53.35    2.17 
   0  -5   5   53.97    2.07 
   0  -5   5   51.38    2.05 
   0  -5  -5   53.29    2.15 
   0  -5   5   49.74    1.82 
   0  -5   5   54.95    2.29 
   0   5  -6   10.40    0.92 
   0   5  -6    9.95    0.79 
   0   5  -6    9.84    0.80 
   0   5  -6    9.90    0.79 
   0  -5  -6   10.28    0.86 
   0  -5  -6   11.14    0.90 
   0  -5  -6   10.99    0.91 
   0  -5   6   10.69    0.74 
   0  -5   6   10.24    0.82 
   0  -5  -6   10.45    0.95 
   0  -5  -6   11.02    1.05 
   0  -5   6   10.44    0.92 
   0   5  -7    6.99    0.91 
   0   5  -7    6.68    0.73 
   0   5  -7    6.76    0.78 
   0   5  -7    6.71    0.81 
   0   5  -7    6.72    0.76 
   0   5  -7    6.81    0.84 
   0  -5  -7    7.21    0.81 
   0  -5  -7    6.44    0.74 
   0  -5  -7    6.36    0.74 
   0  -5   7    6.54    0.63 
   0  -5   7    5.50    0.77 
   0  -5  -7    6.56    0.84 
   0  -5  -7    6.05    0.86 
   0  -5  -7    6.25    0.91 
   0  -5   7    7.18    0.89 
   0   5  -8    7.90    1.31 
   0   5  -8    9.55    1.30 
   0   5  -8    7.56    1.17 
   0   5  -8    9.29    1.23 
   0   5  -8    7.42    1.03 
   0   5  -8    9.13    1.34 
   0  -5  -8    7.69    1.03 
   0  -5  -8    8.78    1.17 
   0  -5  -8    8.22    1.12 
   0  -5  -8    8.06    1.28 
   0  -5  -8    9.95    1.32 
   0  -5   8    9.24    1.27 
   0   6   0  280.89   11.60 
   0   6   0  291.53   12.14 
   0  -6   0  301.19   12.15 
   0   6  -1   11.91    1.46 
   0   6  -1   12.29    1.46 
   0   6  -1    9.66    1.40 
   0   6  -1   10.84    1.29 
   0   6   1    9.38    1.48 
   0   6  -1    9.58    1.33 
   0  -6   1   11.39    1.26 
   0  -6   1   13.76    1.47 
   0  -6  -1   12.08    1.27 
   0   6  -2   25.21    2.08 
   0   6  -2   25.76    2.23 
   0   6  -2   22.51    1.74 
   0   6  -2   26.51    2.11 
   0   6  -2   24.91    2.06 
   0  -6   2   22.78    1.88 
   0  -6   2   25.85    1.99 
   0  -6  -2   23.76    1.35 
   0  -6   2   22.75    1.20 
   0  -6  -2   23.51    1.34 
   0  -6   2   25.09    1.36 
   0   6  -3   59.21    3.00 
   0   6  -3   60.90    3.13 
   0   6  -3   59.30    3.33 
   0  -6   3   59.53    3.07 
   0  -6  -3   55.37    1.98 
   0  -6   3   56.55    1.88 
   0  -6   3   57.98    1.91 
   0  -6   3   55.42    1.87 
   0  -6  -3   55.82    2.10 
   0  -6  -3   57.59    2.07 
   0  -6  -3   50.61    1.87 
   0  -6  -3   60.87    2.12 
   0   6  -4   20.72    1.74 
   0   6  -4   21.36    1.87 
   0   6  -4   22.58    2.01 
   0  -6   4   21.89    1.88 
   0  -6  -4   20.15    1.16 
   0  -6   4   21.57    1.03 
   0  -6  -4   21.99    1.26 
   0  -6  -4   19.43    1.19 
   0  -6  -4   19.86    1.13 
   0  -6  -4   22.57    1.21 
   0   6  -5   37.00    1.75 
   0   6  -5   40.21    1.71 
   0   6  -5   38.44    1.64 
   0  -6   5   37.82    1.50 
   0  -6   5   40.41    1.65 
   0  -6  -5   36.09    1.70 
   0  -6  -5   34.75    1.64 
   0  -6  -5   39.07    1.87 
   0  -6   5   41.38    1.80 
   0  -6  -5   42.12    1.82 
   0  -6  -5   39.53    1.87 
   0  -6   5   38.25    1.82 
   0   6  -6   52.05    2.37 
   0   6  -6   49.26    2.32 
   0   6  -6   50.28    2.23 
   0   6  -6   47.61    2.31 
   0  -6   6   53.02    2.23 
   0  -6  -6   48.88    2.38 
   0  -6  -6   51.61    2.35 
   0  -6  -6   45.01    2.17 
   0  -6  -6   47.78    2.19 
   0  -6   6   45.60    2.06 
   0  -6  -6   49.41    2.25 
   0  -6  -6   50.87    2.34 
   0  -6   6   44.41    1.94 
   0  -6   6   47.42    2.24 
   0   6  -7   10.68    1.13 
   0   6  -7   10.90    1.11 
   0   6  -7    9.74    1.08 
   0   6  -7    8.17    0.98 
   0  -6  -7   10.47    1.11 
   0  -6  -7   10.36    1.10 
   0  -6   7    9.70    0.98 
   0  -6  -7    9.29    1.03 
   0  -6   7    8.37    1.17 
   0  -6  -7   10.51    1.22 
   0  -6   7    9.46    1.21 
   0   6  -8    2.19    0.59 
   0   6  -8    0.24    0.48 
   0   6  -8    0.16    0.43 
   0  -6  -8    0.46    0.51 
   0  -6  -8   -0.01    0.58 
   0   7   0    0.03    0.71 
   0   7   0    0.51    0.73 
   0  -7   0    0.08    0.45 
   0  -7   0   -0.06    0.39 
   0  -7   0    0.08    0.36 
   0  -7   0   -0.01    0.37 
   0   7  -1   83.63    4.02 
   0   7  -1   79.57    3.93 
   0   7   1   83.63    4.31 
   0   7  -1   80.49    4.12 
   0  -7   1   85.39    3.98 
   0  -7  -1   76.33    2.69 
   0  -7   1   81.44    2.80 
   0  -7   1   80.47    2.73 
   0  -7  -1   80.52    2.84 
   0   7  -2   14.70    1.54 
   0   7  -2   15.38    1.66 
   0   7  -2   14.49    1.47 
   0   7  -2   14.45    1.65 
   0  -7   2   15.39    1.50 
   0  -7  -2   13.11    0.82 
   0  -7   2   14.31    0.84 
   0  -7  -2   13.34    0.85 
   0  -7   2   15.27    0.84 
   0  -7   2   14.49    0.82 
   0  -7  -2   13.50    0.93 
   0  -7   2   14.80    0.90 
   0   7  -3   49.86    2.78 
   0   7  -3   47.89    2.77 
   0   7  -3   51.16    3.12 
   0  -7   3   48.32    2.81 
   0  -7  -3   48.85    1.97 
   0  -7   3   46.45    1.78 
   0  -7  -3   48.11    1.98 
   0  -7   3   48.58    1.85 
   0  -7   3   44.22    1.73 
   0  -7  -3   48.53    2.03 
   0  -7   3   50.57    1.96 
   0   7  -4   20.20    1.97 
   0   7  -4   21.29    1.74 
   0  -7   4   21.35    1.87 
   0  -7  -4   21.79    1.29 
   0  -7   4   22.45    1.12 
   0  -7  -4   23.28    1.40 
   0  -7  -4   21.48    1.35 
   0  -7  -4   21.09    1.26 
   0  -7  -4   18.87    1.15 
   0  -7   4   22.02    1.21 
   0   7  -5    2.62    0.53 
   0  -7  -5    2.69    0.69 
   0  -7  -5    2.56    0.79 
   0  -7   5    2.72    0.59 
   0  -7  -5    2.92    0.81 
   0  -7  -5    2.93    0.61 
   0  -7   5    2.80    0.42 
   0  -7  -5    2.35    0.56 
   0   7  -6    4.91    0.61 
   0   7  -6    5.57    0.71 
   0  -7   6    5.51    0.62 
   0  -7  -6    6.55    0.89 
   0  -7  -6    6.03    0.76 
   0  -7  -6    5.84    0.78 
   0  -7  -6    5.17    0.69 
   0  -7   6    5.21    0.71 
   0  -7  -6    5.50    0.90 
   0   7  -7    5.47    0.85 
   0   7  -7    6.63    0.92 
   0   7  -7    6.67    0.97 
   0  -7   7    6.17    0.85 
   0  -7  -7    7.14    1.04 
   0  -7  -7    6.70    0.92 
   0  -7  -7    7.77    1.13 
   0   8   0  457.28   14.76 
   0  -8   0  528.24   15.27 
   0  -8   0  513.72   14.79 
   0   8  -1    6.94    1.15 
   0   8  -1    6.86    1.31 
   0  -8  -1    7.14    0.68 
   0  -8   1    6.51    0.69 
   0  -8   1    6.86    0.57 
   0  -8   1    6.63    0.62 
   0  -8  -1    6.56    0.69 
   0   8  -2  212.80    7.61 
   0   8  -2  215.97    7.79 
   0  -8  -2  207.35    6.28 
   0  -8   2  220.83    6.49 
   0  -8   2  210.85    6.38 
   0  -8   2  199.97    5.96 
   0  -8  -2  209.75    6.41 
   0  -8   2  205.75    6.28 
   0   8  -3   12.62    1.47 
   0  -8  -3   14.48    0.96 
   0  -8   3   12.83    0.81 
   0  -8  -3   15.53    1.13 
   0  -8   3   15.14    0.93 
   0  -8   3   13.05    0.82 
   0  -8  -3   14.62    1.09 
   0  -8   3   17.02    1.08 
   0  -8  -4    5.81    0.71 
   0  -8   4    5.70    0.57 
   0  -8  -4    5.62    0.78 
   0  -8   4    5.43    0.56 
   0  -8  -4    5.20    0.81 
   0  -8   4    4.61    0.72 
   0   8  -5    1.97    0.45 
   0   8  -5    2.02    0.50 
   0  -8  -5    2.29    0.63 
   0  -8  -5    1.84    0.67 
   0  -8  -5    2.02    0.65 
   0  -8   5    2.69    0.65 
   0  -8   5    2.21    0.43 
   0   8  -6   27.38    2.42 
   0   8  -6   31.09    2.77 
   0  -8  -6   38.60    3.21 
   0  -8   6   34.81    2.80 
   0  -8  -6   36.78    3.08 
   0  -8  -6   35.90    2.95 
   0  -8   6   25.46    4.40 
   0   8  -7   21.90    2.48 
   0   8  -7   24.67    2.83 
   0  -8   7   22.67    2.49 
   0  -8  -7   26.62    2.77 
   0   9   0   -0.55    0.86 
   0  -9   0    0.07    0.38 
   0  -9   0    0.31    0.45 
   0   9  -1  488.83   18.21 
   0  -9   1  547.71   19.01 
   0  -9   1  523.27   18.05 
   0  -9   1  482.57   16.65 
   0  -9  -1  486.06   16.81 
   0  -9  -2   42.83    1.80 
   0  -9   2   42.49    1.72 
   0  -9   2   41.53    1.70 
   0  -9   2   40.54    1.68 
   0  -9  -2   39.79    1.80 
   0  -9   2   41.79    1.76 
   0  -9  -3  114.91    4.27 
   0  -9   3  111.22    4.05 
   0  -9  -3  116.69    4.41 
   0  -9   3  113.02    4.18 
   0  -9  -4    9.77    0.82 
   0  -9   4    9.14    0.69 
   0  -9   4   10.12    0.73 
   0  -9  -4    9.28    0.95 
   0  -9   4   10.21    0.86 
   0  -9  -5    4.61    0.68 
   0  -9   5    3.65    0.54 
   0  -9   5    3.83    0.60 
   0  -9  -5    4.11    0.75 
   0  -9   5    4.49    0.70 
   0   9  -6   11.41    1.37 
   0  -9   6    9.07    1.09 
   0  -9   6   11.84    1.38 
   0  -9  -6   12.51    1.52 
   0 -10   0   70.69    2.70 
   0 -10   0   64.33    2.52 
   0 -10   1   20.01    1.06 
   0 -10   1   20.17    1.07 
   0 -10  -1   20.55    1.10 
   0 -10   2    6.46    0.64 
   0 -10   2    6.27    0.57 
   0 -10   2    5.76    0.59 
   0 -10  -2    5.81    0.65 
   0 -10   3   24.90    1.17 
   0 -10  -3   25.92    1.36 
   0 -10   3   27.36    1.36 
   0 -10   4    8.14    0.84 
   0 -10   4    9.64    0.93 
   0 -10  -4    8.75    1.03 
   0 -10   5    3.14    0.55 
   0 -10   5    3.06    0.55 
   0 -10  -5    3.51    0.69 
   0 -11   0   -0.14    0.31 
   0 -11   0    0.05    0.35 
   0 -11   1    6.45    0.62 
   0 -11  -1    6.67    0.66 
   0 -11   2    3.40    0.50 
   0 -11  -2    3.29    0.56 
   0 -11   3    5.39    0.62 
   0 -11   3    5.53    0.63 
   0 -11  -3    5.61    0.74 
   0 -11   4    1.85    0.43 
   0 -11   4    1.91    0.45 
   0 -11  -4    1.68    0.47 
   0 -12   1    6.45    0.77 
   0 -12   2   14.69    1.62 
   0 -12   3    0.94    0.34 
   1   0  -9    2.86    0.56 
   1   0  -9    1.90    0.56 
   1   0  -9    2.77    0.65 
   1   0  -9    3.52    0.68 
   1   0  -9    1.25    0.64 
   1   0  -9    3.25    0.73 
  -1   0   9    3.92    0.74 
   1   0  -8    4.93    0.76 
   1   0  -8    4.37    0.80 
   1   0  -8    4.24    0.73 
   1   0  -8    4.75    0.72 
   1   0  -8    4.12    0.82 
   1   0  -8    4.51    0.82 
   1   0  -8    4.28    0.69 
   1   0  -8    4.49    0.89 
  -1   0   8    5.54    0.99 
   1   0  -7   25.27    1.29 
   1   0  -7   23.85    1.28 
   1   0  -7   26.45    1.39 
   1   0  -7   24.58    1.25 
   1   0  -7   25.13    1.28 
   1   0  -7   20.64    1.70 
   1   0  -7   26.13    1.37 
   1   0  -7   25.80    1.41 
   1   0  -7   25.92    1.49 
   1   0  -7   23.14    1.26 
   1   0  -7   24.90    1.48 
  -1   0   7   25.84    1.48 
   1   0  -6   80.22    3.62 
  -1   0   6   81.29    3.85 
   1   0  -6   76.71    3.64 
   1   0  -6   73.68    3.46 
   1   0  -6   78.25    2.62 
   1   0  -6   76.34    2.70 
   1   0  -6   81.19    2.88 
   1   0  -6   74.25    2.54 
   1   0  -6   79.78    2.71 
  -1   0   6   79.02    2.92 
   1   0  -6   76.75    2.85 
   1   0  -6   80.71    2.80 
   1   0  -6   84.58    2.94 
   1   0  -6   75.15    2.68 
   1   0  -6   82.69    2.82 
   1   0  -6   79.40    2.92 
  -1   0   6   81.08    2.99 
  -1   0   5   36.98    2.44 
   1   0  -5   37.04    2.36 
   1   0  -5   39.14    2.35 
   1   0  -5   37.17    2.47 
   1   0  -5   37.17    1.53 
   1   0  -5   36.57    1.55 
   1   0  -5   35.07    1.48 
  -1   0   5   39.24    1.79 
   1   0  -5   37.35    1.70 
   1   0  -5   37.08    1.61 
   1   0  -5   36.73    1.56 
  -1   0   5   41.79    1.85 
  -1   0   4 1240.78   45.15 
   1   0  -4 1401.06   50.88 
   1   0  -4 1280.39   46.40 
   1   0  -4 1154.19   42.67 
  -1   0   3   98.92    6.10 
  -1   0   3   99.14    6.07 
   1   0  -3   93.74    5.75 
   1   0  -3  105.83    6.41 
   1   0  -3   83.80    5.42 
  -1   0   210894.28  383.31 
   1   0  -210781.64  396.26 
  -1   0   2 9777.68  498.75 
  -1   0   210905.80  378.99 
   1   0  -2 9698.74  487.57 
   1   0  -2 9145.32  461.50 
   1   0  -1   84.84    5.31 
  -1   0   1   99.11    5.93 
   1   0  -1   97.18    5.77 
  -1   0   1   98.78    5.97 
  -1   0   1   99.74    5.91 
   1   0  -1   96.77    5.85 
   1   0  -1   88.78    5.39 
  -1   0   1   84.98    5.34 
   1   0   0  721.09   36.94 
   1   0   0  704.57   36.61 
  -1   0   0  649.51   33.56 
   1   0   0  683.85   35.31 
   1   0   1 1247.13   63.48 
  -1   0  -1 1513.50   77.07 
   1   0   1 1392.67   70.88 
  -1   0  -1 1478.65   74.85 
   1   0   1 1406.49   72.14 
   1   0   2  257.52   13.99 
  -1   0  -2  287.17   15.41 
  -1   0  -2  253.55   13.85 
   1   0   3 1033.89   53.40 
  -1   0  -3  957.58   49.67 
  -1   0  -3 1070.15   55.21 
  -1   0  -3  995.09   51.35 
  -1   0  -4  103.49    4.89 
   1   0   4  101.27    4.94 
  -1   0  -4  114.76    5.31 
  -1   0  -4  101.25    4.82 
  -1   0  -4  101.92    4.96 
  -1   0  -5  106.96    4.14 
   1   0   5  108.09    4.37 
  -1   0  -5   99.09    4.02 
  -1   0  -5   99.00    3.98 
  -1   0  -5  110.15    4.41 
  -1   0  -5  106.66    3.11 
  -1   0  -5  110.15    3.32 
  -1   0  -5  112.08    3.23 
  -1   0  -5  113.28    3.34 
  -1   0  -5  110.72    3.21 
  -1   0  -5  109.70    3.43 
  -1   0  -5  116.04    3.45 
   1   0   5  111.16    3.53 
  -1   0  -6    9.77    1.22 
  -1   0  -6   11.83    1.40 
  -1   0  -6   12.27    1.43 
  -1   0  -6   11.27    0.87 
  -1   0  -6   12.32    0.84 
  -1   0  -6   12.71    0.95 
  -1   0  -6   12.10    0.88 
  -1   0  -6   12.15    0.89 
  -1   0  -6   12.97    0.91 
  -1   0  -6   13.46    1.09 
   1   0   6   12.55    1.13 
  -1   0  -7   39.08    2.03 
  -1   0  -7   42.61    1.86 
  -1   0  -7   46.51    2.08 
  -1   0  -7   37.25    2.46 
  -1   0  -7   39.37    1.87 
  -1   0  -7   44.10    1.99 
  -1   0  -7   45.09    2.17 
   1   0   7   48.23    2.30 
  -1   0  -8    2.17    0.64 
  -1   0  -8    4.27    0.68 
  -1   0  -8    4.28    0.75 
  -1   0  -8    1.60    0.73 
  -1   0  -8    4.44    0.69 
  -1   0  -8    4.43    0.91 
   1   0   8    5.03    0.96 
   1   1  -9    1.12    0.53 
   1  -1  -9    0.99    0.49 
   1  -1  -9    0.71    0.49 
   1  -1  -9    0.43    0.51 
  -1  -1   9    1.53    0.59 
   1   1  -8    8.96    1.05 
   1   1  -8    9.00    0.98 
   1   1  -8    8.65    1.01 
   1   1  -8    7.97    0.99 
   1   1  -8    7.17    0.83 
  -1   1   8    7.83    1.04 
   1   1  -8    8.56    0.97 
   1   1  -8    8.73    1.16 
   1   1  -8    8.26    0.93 
   1   1  -8    6.89    0.98 
   1  -1  -8    8.78    1.04 
   1  -1  -8    6.74    1.00 
   1  -1  -8    6.65    0.86 
   1  -1  -8    9.02    1.00 
   1  -1  -8    8.45    1.03 
   1  -1  -8    8.55    1.07 
   1  -1  -8    9.77    1.08 
  -1  -1   8    9.86    1.25 
   1   1  -7    2.27    0.65 
   1   1  -7    2.18    0.57 
   1   1  -7    2.22    0.61 
   1   1  -7    1.88    0.47 
   1   1  -7    2.71    0.68 
   1   1  -7    2.50    0.67 
   1   1  -7    1.99    0.50 
   1   1  -7    1.93    0.73 
   1   1  -7    2.26    0.62 
  -1   1   7    1.95    0.68 
   1   1  -7    1.57    0.64 
   1  -1  -7    1.74    0.61 
   1  -1  -7    2.08    0.64 
   1  -1  -7    2.15    0.55 
   1  -1  -7    2.07    0.66 
   1  -1  -7    1.83    0.49 
   1  -1  -7    2.17    0.56 
   1  -1  -7    1.67    0.59 
   1  -1  -7    1.63    0.62 
   1  -1  -7    1.69    0.60 
  -1  -1   7    2.00    0.77 
   1   1  -6    2.73    0.54 
   1   1  -6    3.29    0.59 
   1   1  -6    3.15    1.02 
   1   1  -6    2.60    0.82 
   1   1  -6    3.79    0.96 
   1   1  -6    3.10    0.57 
   1   1  -6    2.67    0.53 
   1   1  -6    2.67    0.65 
   1   1  -6    2.46    0.46 
  -1   1   6    2.26    0.62 
   1   1  -6    3.04    0.65 
   1   1  -6    2.50    0.62 
   1   1  -6    2.79    0.62 
  -1  -1   6    2.46    0.91 
   1  -1  -6    2.78    0.60 
   1  -1  -6    2.75    0.53 
   1  -1  -6    2.71    0.57 
   1  -1  -6    2.71    0.85 
   1  -1  -6    1.98    0.57 
   1  -1  -6    2.66    0.59 
   1  -1  -6    3.01    0.65 
   1  -1  -6    2.81    0.54 
   1  -1  -6    2.61    0.44 
   1  -1  -6    2.65    0.65 
  -1  -1   6    3.79    0.78 
   1  -1  -6    2.46    0.61 
  -1  -1   6    2.43    0.65 
   1   1  -5   27.22    1.22 
  -1   1   5   22.92    1.81 
   1   1  -5   25.53    1.19 
   1   1  -5   25.57    1.17 
   1   1  -5   27.09    2.04 
   1   1  -5   26.58    1.31 
   1   1  -5   29.55    1.97 
   1   1  -5   25.77    1.28 
   1   1  -5   26.96    2.14 
   1   1  -5   27.36    1.17 
   1   1  -5   26.93    1.22 
   1   1  -5   27.63    1.22 
   1   1  -5   26.05    1.13 
  -1   1   5   25.65    1.30 
  -1   1   5   28.35    1.40 
   1  -1  -5   25.58    1.93 
  -1  -1   5   25.04    1.33 
   1  -1  -5   25.92    1.13 
   1  -1  -5   24.74    1.88 
   1  -1  -5   26.50    1.16 
   1  -1  -5   26.28    1.13 
   1  -1  -5   26.21    1.19 
   1  -1  -5   27.36    1.88 
   1  -1  -5   28.12    1.24 
  -1  -1   5   25.85    1.93 
   1  -1  -5   24.17    1.08 
   1  -1  -5   24.79    1.25 
   1  -1  -5   23.95    1.79 
   1  -1  -5   25.51    1.26 
  -1  -1   5   28.62    1.41 
   1   1  -4  200.22    8.49 
  -1   1   4  172.11    7.57 
   1   1  -4  179.82    7.86 
   1   1  -4  188.56    8.30 
  -1  -1   4  174.34    7.82 
   1  -1  -4  176.21    7.63 
  -1  -1   4  180.45    7.81 
   1  -1  -4  183.90    7.98 
   1  -1  -4  182.94    7.84 
   1   1  -3  527.93   27.83 
   1   1  -3  533.32   28.09 
  -1   1   3  558.35   29.41 
   1   1  -3  486.97   25.57 
   1   1  -3  554.19   29.18 
  -1  -1   3  524.27   27.60 
   1  -1  -3  526.10   28.19 
  -1  -1   3  481.61   26.09 
   1  -1  -3  493.91   26.34 
   1  -1  -3  500.99   26.50 
   1   1  -2   94.36    5.79 
  -1   1   2   87.30    5.49 
  -1   1   2   95.27    5.82 
  -1   1   2  101.28    6.18 
  -1   1   2   92.07    5.61 
   1   1  -2  103.37    6.39 
   1   1  -2  100.24    5.96 
  -1  -1   2   92.88    5.69 
   1  -1  -2  100.91    6.07 
   1  -1  -2   91.40    5.70 
   1  -1  -2   94.66    5.69 
  -1  -1   2   77.71    4.97 
   1  -1  -2   90.01    5.70 
  -1   1   1    7.15    1.10 
   1   1  -1    7.04    1.03 
  -1   1   1    7.66    0.98 
  -1   1   1    7.05    0.99 
   1   1  -1    6.50    1.15 
  -1  -1   1    6.62    1.11 
   1  -1  -1    7.30    1.01 
   1  -1  -1    6.90    1.28 
   1  -1  -1    8.35    1.21 
   1  -1  -1    7.49    1.05 
   1   1   0  145.28    8.38 
  -1   1   0  116.61    7.21 
  -1   1   0  143.73    8.55 
   1   1   0  130.66    7.84 
  -1   1   0  143.39    8.18 
  -1   1   0  141.64    8.13 
  -1   1   0  144.45    8.30 
   1  -1   0  141.26    7.96 
   1  -1   0  113.50    6.68 
  -1  -1   0  142.31    8.08 
  -1  -1   0  145.73    8.25 
  -1   1  -1   64.77    4.05 
  -1   1  -1   67.08    4.34 
  -1   1  -1   61.23    4.13 
  -1  -1  -1   63.15    4.42 
  -1  -1  -1   63.44    4.17 
   1  -1   1   65.97    4.16 
   1  -1   1   62.67    4.17 
  -1  -1  -1   65.22    4.31 
   1  -1   1   66.82    4.45 
  -1   1  -2  100.59    6.06 
   1   1   2   94.25    5.79 
  -1   1  -2   91.73    5.42 
  -1  -1  -2   86.34    5.25 
  -1  -1  -2   92.60    5.56 
  -1  -1  -2   89.91    5.45 
   1  -1   2  102.68    6.20 
  -1  -1  -2   87.65    5.42 
  -1   1  -3  201.59   11.15 
   1   1   3  194.76   10.98 
  -1   1  -3  196.14   11.04 
  -1  -1  -3  182.67   10.27 
  -1  -1  -3  189.45   10.50 
  -1  -1  -3  195.02   10.94 
   1  -1   3  184.81   10.52 
  -1   1  -4  195.94    8.17 
   1   1   4  221.40    9.40 
  -1   1  -4  240.24    9.85 
  -1  -1  -4  222.29    9.12 
  -1  -1  -4  204.29    8.45 
  -1  -1  -4  207.57    8.71 
   1  -1   4  216.13    9.02 
  -1   1  -5   37.45    2.28 
   1   1   5   37.81    2.39 
  -1   1  -5   32.54    1.36 
  -1   1  -5   30.02    1.28 
  -1   1  -5   34.21    2.09 
   1   1   5   34.67    1.62 
  -1   1  -5   36.50    2.38 
  -1   1  -5   34.32    1.28 
  -1   1  -5   33.65    1.43 
  -1   1  -5   32.81    1.38 
  -1   1  -5   33.61    1.34 
  -1   1  -5   32.69    1.39 
  -1  -1  -5   33.46    2.14 
  -1  -1  -5   33.17    1.36 
  -1  -1  -5   33.84    1.44 
   1  -1   5   33.58    2.25 
  -1  -1  -5   33.33    1.41 
  -1  -1  -5   32.86    2.18 
  -1  -1  -5   35.83    1.45 
  -1  -1  -5   32.47    1.38 
  -1  -1  -5   33.25    1.51 
  -1  -1  -5   31.69    1.27 
  -1   1  -6   89.91    3.09 
  -1   1  -6   86.01    3.85 
  -1   1  -6   91.91    3.26 
  -1   1  -6   86.97    4.01 
  -1   1  -6   75.16    3.53 
  -1   1  -6   81.13    3.18 
  -1   1  -6   79.67    3.87 
  -1   1  -6   94.97    3.20 
  -1   1  -6   82.82    3.03 
  -1   1  -6   86.94    3.18 
  -1   1  -6   93.73    3.25 
  -1   1  -6   91.23    3.18 
  -1  -1  -6   77.31    3.59 
  -1  -1  -6   85.76    3.12 
  -1  -1  -6   86.78    3.08 
  -1  -1  -6   82.92    2.91 
  -1  -1  -6   91.08    4.21 
  -1  -1  -6   88.40    3.15 
   1  -1   6   88.07    4.12 
  -1  -1  -6   85.45    3.04 
  -1  -1  -6   90.79    3.28 
  -1  -1  -6   91.00    3.33 
  -1   1  -7    1.49    0.52 
  -1   1  -7    1.70    0.51 
  -1   1  -7    1.33    0.53 
  -1   1  -7    1.67    0.63 
  -1   1  -7    1.50    0.58 
   1   1   7    1.48    0.65 
  -1   1  -7    1.94    0.59 
  -1   1  -7    1.65    0.68 
  -1   1  -7    1.07    0.55 
  -1  -1  -7    1.77    0.49 
  -1  -1  -7    1.55    0.62 
  -1  -1  -7    1.53    0.61 
  -1  -1  -7    2.34    0.63 
  -1  -1  -7    1.27    0.58 
  -1  -1  -7    2.08    0.69 
  -1  -1  -7    1.65    0.64 
  -1   1  -8    0.44    0.59 
  -1   1  -8    0.14    0.71 
   1   1   8    0.42    0.67 
  -1   1  -8    0.49    0.49 
  -1   1  -8    0.64    0.58 
  -1   1  -8    0.06    0.55 
  -1   1  -8   -0.05    0.43 
  -1  -1  -8    0.27    0.60 
  -1  -1  -8   -0.02    0.52 
  -1  -1  -8    0.18    0.51 
  -1  -1  -8    0.17    0.49 
  -1  -1  -8    0.32    0.71 
  -1  -1  -8    0.21    0.48 
  -1  -1  -8    0.44    0.42 
   1  -1   8    0.39    0.60 
   1   2  -9    2.12    0.67 
   1   2  -9    2.28    0.82 
   1  -2  -9    0.93    0.54 
   1  -2  -9    0.44    0.60 
  -1  -2   9    2.33    0.75 
   1   2  -8    1.01    0.57 
   1   2  -8    1.17    0.52 
  -1   2   8    0.71    0.61 
   1   2  -8    0.65    0.56 
   1   2  -8    0.71    0.41 
   1   2  -8    0.98    0.60 
   1   2  -8    0.74    0.54 
   1   2  -8    0.87    0.61 
   1  -2  -8    0.81    0.52 
   1  -2  -8    0.76    0.63 
   1  -2  -8    0.51    0.53 
   1  -2  -8    1.16    0.54 
   1  -2  -8    0.83    0.57 
   1  -2  -8    0.69    0.63 
   1   2  -7    7.41    0.68 
   1   2  -7    7.24    0.66 
   1   2  -7    6.80    0.79 
   1   2  -7    7.19    0.81 
   1   2  -7    7.21    0.80 
   1   2  -7    7.02    0.76 
  -1   2   7    7.32    0.91 
   1   2  -7    6.75    0.77 
   1  -2  -7    7.74    0.79 
   1  -2  -7    7.34    0.79 
   1  -2  -7    6.63    0.71 
   1  -2  -7    7.34    0.79 
   1  -2  -7    7.24    0.83 
   1  -2  -7    6.99    0.67 
   1  -2  -7    6.33    0.81 
   1  -2  -7    6.88    0.82 
   1  -2  -7    6.49    0.75 
   1   2  -6    0.57    0.46 
   1   2  -6    1.17    0.84 
   1   2  -6    1.51    0.86 
   1   2  -6    0.81    0.85 
   1   2  -6    0.93    0.58 
   1   2  -6    1.50    0.47 
   1   2  -6    1.26    0.48 
   1   2  -6    0.96    0.48 
  -1   2   6    1.26    0.60 
   1   2  -6    0.99    0.46 
   1  -2  -6    1.06    0.54 
   1  -2  -6    0.90    0.46 
   1  -2  -6    0.80    0.53 
  -1  -2   6    0.90    0.41 
   1  -2  -6    1.44    0.55 
   1  -2  -6    1.76    0.61 
  -1  -2   6    1.46    0.80 
   1  -2  -6    1.09    0.45 
   1  -2  -6    1.31    0.60 
   1  -2  -6    1.09    0.37 
   1   2  -5   57.01    2.03 
   1   2  -5   57.19    2.01 
   1   2  -5   58.20    3.09 
   1   2  -5   59.41    2.81 
   1   2  -5   52.24    3.08 
  -1   2   5   56.96    2.15 
   1   2  -5   53.27    1.97 
   1   2  -5   57.64    1.89 
   1   2  -5   59.62    2.05 
   1   2  -5   56.81    1.98 
   1  -2  -5   56.02    2.82 
  -1  -2   5   61.13    3.09 
   1  -2  -5   61.12    2.10 
   1  -2  -5   55.85    1.95 
  -1  -2   5   51.66    2.37 
   1  -2  -5   60.84    2.23 
   1  -2  -5   55.01    1.89 
   1  -2  -5   54.60    1.91 
   1  -2  -5   58.36    2.11 
   1  -2  -5   58.07    1.95 
   1  -2  -5   62.95    2.14 
  -1  -2   5   60.63    2.25 
   1   2  -4   56.47    3.14 
   1   2  -4   54.52    3.27 
   1   2  -4   50.90    3.27 
  -1   2   4   50.91    3.05 
   1   2  -4   49.11    2.72 
   1  -2  -4   50.12    2.93 
  -1  -2   4   51.34    3.02 
   1  -2  -4   51.03    3.01 
   1  -2  -4   58.88    3.35 
  -1  -2   4   52.80    3.12 
   1   2  -3  126.01    7.30 
   1   2  -3  128.44    7.47 
  -1   2   3  122.07    7.28 
   1   2  -3  129.47    7.46 
   1   2  -3  117.73    7.09 
   1  -2  -3  128.31    7.50 
   1  -2  -3  124.81    7.30 
  -1  -2   3  123.23    7.29 
   1  -2  -3  130.93    7.68 
   1   2  -2  385.21   20.50 
  -1   2   2  330.11   17.72 
   1   2  -2  393.98   21.07 
  -1   2   2  349.22   18.80 
   1   2  -2  372.01   19.71 
  -1   2   2  339.39   18.20 
  -1   2   2  330.59   17.97 
  -1  -2   2  332.37   17.86 
   1  -2  -2  345.47   18.91 
   1  -2  -2  359.44   19.28 
  -1  -2   2  349.75   19.24 
   1  -2  -2  342.37   18.53 
   1  -2  -2  351.45   18.87 
  -1   2   1  349.65   18.60 
  -1   2   1  304.75   16.23 
   1   2  -1  329.13   17.66 
  -1   2   1  320.60   17.33 
  -1   2   1  317.53   16.94 
  -1  -2   1  319.83   17.26 
  -1   2   0  897.44   46.20 
  -1   2   0  865.01   44.95 
  -1   2   0  833.53   42.76 
  -1   2   0  902.66   46.18 
  -1   2   0  822.52   42.46 
   1   2   0  810.19   41.56 
  -1   2   0  833.27   42.88 
  -1  -2   0  892.70   45.74 
  -1  -2   0  873.53   45.05 
  -1   2  -1   67.91    4.53 
  -1   2  -1   70.34    4.58 
  -1   2  -1   67.44    4.35 
   1   2   1   65.03    4.58 
  -1  -2  -1   65.92    4.24 
  -1  -2  -1   72.04    4.63 
  -1  -2  -1   60.50    4.01 
   1  -2   1   65.23    4.42 
   1  -2   1   51.94    3.75 
  -1  -2  -1   70.64    4.57 
   1  -2   1   70.03    4.56 
  -1   2  -2   89.79    5.69 
  -1   2  -2   82.05    4.98 
  -1   2  -2   87.43    5.42 
  -1  -2  -2   86.76    5.49 
  -1  -2  -2   90.82    5.65 
  -1  -2  -2   86.11    5.29 
  -1   2  -3   37.72    2.69 
   1   2   3   39.93    3.01 
  -1   2  -3   42.58    3.15 
  -1  -2  -3   34.50    3.00 
  -1  -2  -3   33.70    2.69 
  -1  -2  -3   42.95    3.04 
  -1  -2  -3   36.06    2.82 
  -1   2  -4   47.18    2.73 
   1   2   4   48.84    2.98 
  -1   2  -4   45.45    2.89 
  -1   2  -4   47.73    2.22 
  -1   2  -4   49.07    3.01 
  -1  -2  -4   39.84    2.55 
  -1  -2  -4   42.54    2.74 
  -1  -2  -4   44.25    2.66 
  -1  -2  -4   41.17    1.87 
  -1  -2  -4   44.40    1.99 
  -1  -2  -4   43.96    2.01 
  -1  -2  -4   42.97    1.96 
   1  -2   4   44.34    2.81 
   1  -2   4   48.77    2.27 
   1   2   5   35.44    1.64 
  -1   2  -5   32.77    1.31 
  -1   2  -5   29.51    2.09 
  -1   2  -5   33.00    2.06 
  -1   2  -5   30.49    1.33 
  -1   2  -5   30.53    2.22 
  -1   2  -5   32.55    1.40 
  -1   2  -5   29.81    1.33 
  -1   2  -5   32.13    1.53 
  -1   2  -5   29.42    1.32 
  -1   2  -5   30.41    1.29 
  -1  -2  -5   29.52    2.11 
  -1  -2  -5   29.91    1.38 
   1  -2   5   28.27    1.13 
   1  -2   5   30.18    1.28 
  -1  -2  -5   32.41    1.45 
   1  -2   5   29.58    2.11 
  -1  -2  -5   31.23    1.49 
  -1  -2  -5   31.43    1.36 
  -1  -2  -5   28.13    1.20 
  -1  -2  -5   30.16    1.42 
  -1  -2  -5   30.80    1.32 
  -1  -2  -5   27.34    1.89 
   1   2   6    9.51    0.91 
  -1   2  -6    9.76    1.23 
  -1   2  -6    8.43    0.79 
  -1   2  -6    8.86    1.17 
  -1   2  -6    9.01    1.40 
  -1   2  -6    9.08    0.81 
  -1   2  -6    9.06    0.75 
  -1   2  -6    8.02    0.79 
  -1   2  -6    8.40    0.76 
  -1   2  -6    8.96    0.98 
  -1   2  -6    9.49    0.83 
  -1   2  -6    8.31    0.76 
  -1  -2  -6    8.23    0.73 
   1  -2   6    8.18    1.22 
  -1  -2  -6    9.83    0.91 
  -1  -2  -6    8.35    0.84 
   1  -2   6    6.71    0.72 
  -1  -2  -6    8.99    0.79 
  -1  -2  -6    8.48    0.86 
  -1  -2  -6    9.43    0.79 
  -1  -2  -6    8.80    0.91 
  -1  -2  -6    9.19    0.91 
  -1  -2  -6    7.08    1.07 
   1  -2   6   10.56    1.08 
  -1   2  -7    8.78    0.84 
  -1   2  -7   10.45    0.85 
  -1   2  -7   11.97    0.91 
  -1   2  -7   11.59    1.07 
  -1   2  -7   10.76    1.07 
  -1   2  -7    6.12    1.22 
  -1   2  -7   10.70    0.94 
   1   2   7   10.78    1.07 
  -1  -2  -7   11.51    0.94 
  -1  -2  -7    9.63    0.93 
  -1  -2  -7    9.99    0.93 
  -1  -2  -7   10.61    0.90 
  -1  -2  -7   11.03    0.89 
  -1  -2  -7    9.49    0.98 
  -1  -2  -7   10.59    0.83 
  -1  -2  -7   11.20    0.94 
   1  -2   7   10.52    1.11 
  -1   2  -8    0.43    0.51 
  -1   2  -8    0.41    0.47 
   1   2   8    0.80    0.57 
  -1   2  -8    0.62    0.57 
  -1   2  -8    0.81    0.54 
  -1   2  -8    0.25    0.60 
  -1  -2  -8    0.77    0.58 
  -1  -2  -8    0.39    0.57 
  -1  -2  -8    0.54    0.40 
  -1  -2  -8    0.13    0.52 
  -1  -2  -8    0.41    0.47 
  -1  -2  -8    0.82    0.63 
  -1  -2  -8    0.21    0.61 
  -1  -2  -8    0.36    0.52 
   1  -2   8    0.45    0.75 
   1   3  -8    0.71    0.73 
   1   3  -8    0.98    0.52 
   1   3  -8    0.74    0.42 
   1   3  -8    0.35    0.47 
   1   3  -8    0.87    0.60 
   1   3  -8    0.91    0.59 
   1   3  -8    0.64    0.50 
   1   3  -8    0.50    0.47 
   1  -3  -8    0.79    0.61 
   1  -3  -8    1.03    0.51 
   1  -3  -8    0.65    0.50 
   1  -3  -8    0.59    0.46 
  -1  -3   8    1.08    0.79 
   1   3  -7    5.94    0.73 
   1   3  -7    5.00    0.66 
   1   3  -7    5.15    0.70 
   1   3  -7    5.55    0.92 
   1   3  -7    5.73    0.71 
  -1   3   7    4.49    0.71 
   1   3  -7    5.28    0.79 
   1   3  -7    4.87    0.76 
   1  -3  -7    5.32    0.72 
   1  -3  -7    5.18    0.77 
   1  -3  -7    6.03    0.84 
   1  -3  -7    5.42    0.67 
  -1  -3   7    3.79    0.62 
   1  -3  -7    5.40    0.69 
   1  -3  -7    5.07    0.69 
   1  -3  -7    5.32    0.74 
  -1  -3   7    4.98    0.93 
  -1   3   6   30.73    1.66 
   1   3  -6   30.70    2.27 
   1   3  -6   34.29    2.27 
   1   3  -6   32.48    2.49 
   1   3  -6   31.98    1.58 
   1   3  -6   31.60    1.57 
   1   3  -6   33.83    1.62 
   1   3  -6   34.27    1.64 
   1   3  -6   33.35    1.77 
  -1  -3   6   31.81    2.28 
   1  -3  -6   30.58    1.51 
   1  -3  -6   32.10    1.70 
  -1  -3   6   32.36    1.47 
  -1  -3   6   31.86    1.61 
   1  -3  -6   32.30    1.57 
  -1  -3   6   32.64    1.72 
   1  -3  -6   31.27    1.58 
   1  -3  -6   34.58    1.67 
   1  -3  -6   28.92    1.53 
   1  -3  -6   31.11    1.53 
   1  -3  -6   35.24    1.71 
  -1  -3   6   32.43    1.76 
   1   3  -5    6.13    0.62 
   1   3  -5    5.86    1.05 
   1   3  -5    6.43    1.43 
   1   3  -5    6.30    0.58 
   1   3  -5    5.66    0.60 
   1   3  -5    5.28    0.67 
   1   3  -5    5.94    0.71 
   1   3  -5    6.05    0.65 
  -1  -3   5    6.17    0.81 
   1  -3  -5    5.66    0.76 
   1  -3  -5    6.36    0.62 
  -1  -3   5    5.28    1.19 
  -1  -3   5    6.59    0.65 
   1  -3  -5    6.15    0.68 
   1  -3  -5    7.60    0.66 
   1  -3  -5    5.85    0.57 
  -1  -3   5    6.18    0.56 
   1  -3  -5    6.02    0.59 
  -1  -3   5    5.98    0.87 
   1   3  -4   19.53    1.18 
   1   3  -4   17.58    1.58 
   1   3  -4   21.86    2.11 
   1   3  -4   18.69    1.61 
   1   3  -4   16.13    0.97 
  -1  -3   4   18.81    1.70 
   1  -3  -4   17.53    1.09 
   1  -3  -4   15.98    0.97 
  -1  -3   4   17.29    1.10 
   1  -3  -4   16.21    1.10 
   1  -3  -4   16.95    1.00 
  -1  -3   4   16.92    1.05 
   1  -3  -4   17.11    1.02 
   1  -3  -4   17.30    1.59 
  -1  -3   4   17.87    1.15 
   1   3  -3  197.03    8.43 
   1   3  -3  176.66    7.76 
   1   3  -3  196.33    8.23 
  -1   3   3  187.69    8.05 
   1   3  -3  211.43    8.77 
  -1  -3   3  181.94    7.89 
  -1  -3   3  213.57    9.03 
   1  -3  -3  160.77   22.37 
   1  -3  -3  206.31    8.75 
   1   3  -2    1.14    0.73 
  -1   3   2    1.11    0.51 
   1   3  -2    0.97    0.92 
  -1   3   2    0.89    0.53 
   1   3  -2    0.67    0.92 
  -1   3   2    1.26    0.62 
  -1  -3   2    0.95    0.72 
  -1   3   1  156.98    8.78 
   1   3  -1  159.46    9.21 
  -1   3   1  155.66    9.16 
  -1   3   1  162.39    9.28 
  -1   3   1  161.37    9.45 
  -1  -3   1  157.97    9.27 
  -1  -3   1  159.01    9.10 
  -1   3   0  255.83   14.06 
   1   3   0  248.52   13.84 
  -1   3   0  250.94   13.99 
  -1   3   0  271.76   14.83 
  -1   3   0  257.36   14.49 
  -1   3   0  267.90   14.57 
   1  -3   0  259.57   14.13 
  -1  -3   0  247.58   13.74 
  -1  -3   0  259.05   14.20 
  -1   3  -1  174.10    9.92 
  -1   3  -1  180.61   10.16 
  -1   3  -1  166.05    9.41 
   1   3   1  164.86    9.67 
  -1   3  -1  179.00   10.21 
  -1   3  -1  183.63   10.40 
  -1  -3  -1  164.06    9.27 
   1  -3   1  187.73   10.50 
  -1  -3  -1  180.56   10.23 
  -1   3  -2  187.42   10.70 
  -1   3  -2  179.29   10.02 
  -1   3  -2  193.25   10.80 
   1  -3   2  182.28   10.39 
  -1  -3  -2  182.91   10.39 
  -1  -3  -2  190.47   10.77 
  -1   3  -3   16.92    1.82 
  -1   3  -3   16.97    1.53 
  -1   3  -3   16.27    1.70 
   1  -3   3   16.39    1.54 
  -1  -3  -3   16.08    1.64 
  -1  -3  -3   17.85    1.57 
  -1   3  -4   81.51    3.86 
  -1   3  -4   71.83    3.27 
  -1   3  -4   76.18    2.63 
  -1   3  -4   76.03    3.93 
  -1   3  -4   77.79    2.87 
  -1  -3  -4   78.20    3.81 
  -1  -3  -4   72.98    2.60 
   1  -3   4   71.39    2.43 
  -1  -3  -4   71.35    2.55 
  -1  -3  -4   75.19    2.79 
  -1  -3  -4   78.10    2.76 
  -1  -3  -4   69.08    2.57 
   1  -3   4   72.08    2.59 
  -1  -3  -4   74.04    2.65 
  -1  -3  -4   72.48    2.60 
  -1  -3  -4   70.62    2.53 
   1  -3   4   68.16    2.27 
  -1   3  -5   43.78    1.71 
  -1   3  -5   46.12    2.70 
  -1   3  -5   45.98    2.55 
  -1   3  -5   42.95    1.73 
  -1   3  -5   43.50    1.76 
   1   3   5   46.68    2.02 
  -1   3  -5   45.87    1.86 
  -1   3  -5   45.81    1.94 
  -1  -3  -5   44.00    1.75 
  -1  -3  -5   45.16    1.78 
  -1  -3  -5   46.84    1.83 
   1  -3   5   40.31    2.53 
  -1  -3  -5   48.73    1.94 
  -1  -3  -5   47.39    1.92 
   1  -3   5   44.88    1.78 
  -1  -3  -5   43.64    1.83 
  -1  -3  -5   44.27    1.78 
   1  -3   5   43.12    1.61 
  -1  -3  -5   40.14    1.75 
  -1  -3  -5   45.29    1.85 
  -1  -3  -5   47.54    2.02 
   1  -3   5   43.61    1.90 
  -1   3  -6    6.15    0.90 
  -1   3  -6    6.37    0.64 
  -1   3  -6    6.16    0.61 
  -1   3  -6    6.22    0.71 
  -1   3  -6    6.73    0.69 
   1   3   6    6.57    0.76 
  -1   3  -6    6.25    0.68 
  -1  -3  -6    8.75    0.81 
   1  -3   6    5.89    0.56 
   1  -3   6    5.58    0.62 
  -1  -3  -6    6.08    0.76 
  -1  -3  -6    6.26    0.70 
  -1  -3  -6    5.68    0.77 
  -1  -3  -6    5.24    0.59 
  -1  -3  -6    6.04    0.64 
  -1  -3  -6    4.86    0.68 
  -1  -3  -6    6.54    0.70 
  -1  -3  -6    6.12    0.70 
   1  -3   6    6.72    0.92 
  -1   3  -7   16.84    1.27 
  -1   3  -7   19.05    1.10 
  -1   3  -7   19.35    1.19 
  -1   3  -7   18.66    1.31 
  -1   3  -7   18.72    1.10 
   1   3   7   17.48    1.18 
  -1   3  -7   17.91    1.38 
  -1   3  -7   18.99    1.15 
  -1  -3  -7   18.58    1.29 
  -1  -3  -7   16.28    1.20 
  -1  -3  -7   19.01    1.13 
  -1  -3  -7   18.24    1.08 
  -1  -3  -7   20.11    1.22 
  -1  -3  -7   19.41    1.35 
  -1  -3  -7   18.30    1.08 
  -1  -3  -7   18.73    1.17 
   1  -3   7   19.78    1.35 
  -1   3  -8   12.42    2.71 
  -1   3  -8   21.73    2.45 
  -1   3  -8   20.76    2.39 
  -1   3  -8   22.97    2.51 
  -1   3  -8   18.54    2.34 
  -1  -3  -8   21.60    2.33 
  -1  -3  -8   16.34    2.35 
  -1  -3  -8   20.96    2.22 
  -1  -3  -8   20.79    2.34 
  -1  -3  -8   17.56    2.21 
   1  -3   8   26.47    2.81 
   1   4  -8   26.60    2.82 
   1   4  -8   24.53    2.54 
   1   4  -8   15.88    1.95 
   1   4  -8   21.87    2.31 
   1   4  -8   23.84    2.54 
   1   4  -8   25.73    2.78 
   1   4  -8   25.21    2.65 
   1   4  -8   18.02    2.19 
   1  -4  -8   21.03    2.24 
   1  -4  -8   22.62    2.48 
   1  -4  -8   21.55    2.28 
  -1  -4   8   25.15    2.69 
   1   4  -7   25.65    1.57 
   1   4  -7   30.89    1.41 
   1   4  -7   30.58    1.53 
   1   4  -7   31.06    1.61 
   1   4  -7   31.92    1.56 
   1   4  -7   31.38    1.52 
   1   4  -7   30.04    1.53 
   1  -4  -7   31.57    1.54 
   1  -4  -7   31.54    1.55 
   1  -4  -7   30.83    1.58 
   1  -4  -7   30.33    1.50 
   1  -4  -7   26.70    1.37 
   1  -4  -7   32.34    1.69 
  -1  -4   7   27.16    1.41 
  -1  -4   7   31.90    1.66 
   1   4  -6  140.64    4.86 
   1   4  -6  120.32    4.56 
   1   4  -6  134.03    4.65 
   1   4  -6  130.83    4.55 
   1   4  -6  134.98    4.80 
   1   4  -6  147.65    5.02 
  -1  -4   6  131.73    4.71 
   1  -4  -6  133.53    4.66 
   1  -4  -6  140.90    4.89 
   1  -4  -6  130.29    4.65 
  -1  -4   6  132.89    4.69 
   1  -4  -6  132.74    4.63 
   1  -4  -6  124.53    4.50 
   1  -4  -6  127.80    4.48 
  -1  -4   6  135.78    4.61 
   1  -4  -6  133.56    4.63 
  -1  -4   6  133.51    4.78 
   1   4  -5   61.21    3.34 
   1   4  -5   59.95    2.98 
   1   4  -5   71.67    3.83 
   1   4  -5   62.66    2.44 
   1   4  -5   63.22    2.35 
   1   4  -5   70.38    2.50 
   1   4  -5   64.40    2.32 
   1   4  -5   62.48    2.31 
   1  -4  -5   64.03    2.42 
   1  -4  -5   65.65    2.47 
   1  -4  -5   57.79    2.17 
   1  -4  -5   65.47    2.53 
  -1  -4   5   62.35    2.46 
  -1  -4   5   63.12    2.36 
   1  -4  -5   66.18    2.42 
   1  -4  -5   65.66    2.39 
   1  -4  -5   62.19    2.27 
   1  -4  -5   60.26    2.30 
  -1  -4   5   63.53    2.28 
  -1  -4   5   66.30    2.54 
   1   4  -4   64.39    2.39 
   1   4  -4   55.94    2.91 
   1   4  -4   59.98    2.22 
   1   4  -4   66.82    3.52 
   1   4  -4   64.13    3.16 
   1   4  -4   62.86    2.42 
  -1  -4   4   57.95    2.15 
  -1  -4   4   63.89    3.24 
   1  -4  -4   63.28    2.42 
   1  -4  -4   64.34    2.32 
   1  -4  -4   60.23    2.27 
  -1  -4   4   63.40    2.39 
   1  -4  -4   62.33    2.29 
  -1  -4   4   61.20    3.24 
  -1  -4   4   59.37    2.16 
  -1  -4   4   62.19    2.42 
   1   4  -3  123.98    5.62 
   1   4  -3  136.07    6.39 
  -1  -4   3  126.79    5.76 
  -1  -4   3  119.45    5.57 
   1   4  -2   85.12    5.31 
  -1   4   2   75.92    5.00 
   1   4  -2   88.12    5.67 
  -1  -4   2   85.45    5.41 
  -1   4   1  197.68   11.35 
   1   4  -1  203.32   11.54 
  -1   4   1  197.27   11.08 
  -1  -4   1  199.41   11.19 
  -1  -4   1  208.91   12.32 
  -1   4   0  188.89   10.69 
  -1   4   0  163.68    9.94 
  -1   4   0  169.68   10.18 
   1   4   0  152.07    9.06 
  -1   4   0  178.94   10.50 
  -1  -4   0  170.45    9.76 
  -1  -4   0  162.74    9.65 
  -1   4  -1  406.93   21.68 
  -1   4  -1  374.04   20.07 
  -1   4  -1  382.85   20.27 
  -1   4  -1  399.95   21.50 
  -1   4  -1  417.41   22.43 
  -1  -4  -1  382.21   20.28 
  -1  -4  -1  408.96   22.47 
  -1  -4  -1  383.93   20.38 
   1  -4   1  387.35   20.79 
  -1   4  -2  854.35   44.45 
  -1   4  -2  873.32   45.49 
  -1   4  -2  908.95   47.37 
   1  -4   2  884.93   46.58 
  -1  -4  -2  835.75   43.52 
  -1   4  -3  252.81   10.09 
  -1   4  -3  276.28   11.33 
  -1   4  -3  271.38   11.24 
   1  -4   3  259.32   10.51 
  -1   4  -4  119.51    3.49 
  -1   4  -4  127.89    4.97 
  -1   4  -4  123.32    4.49 
  -1   4  -4  125.61    5.09 
  -1   4  -4  119.41    3.68 
  -1   4  -4  116.78    3.34 
  -1  -4  -4  118.33    3.54 
   1  -4   4  117.52    4.68 
   1  -4   4  115.14    3.28 
  -1  -4  -4  115.05    3.41 
   1  -4   4  113.34    3.11 
  -1  -4  -4  115.05    3.54 
  -1  -4  -4  106.16    3.21 
   1  -4   4  117.19    3.45 
  -1  -4  -4  111.86    3.39 
  -1  -4  -4  116.27    3.47 
  -1  -4  -4  114.20    3.40 
  -1  -4  -4  127.04    3.85 
   1  -4   4  115.83    3.57 
  -1   4  -5  203.97    7.49 
  -1   4  -5  217.19    7.53 
  -1   4  -5  197.17    7.31 
  -1   4  -5  193.46    5.95 
  -1   4  -5  198.42    6.21 
  -1   4  -5  196.78    6.05 
  -1  -4  -5  188.72    5.80 
  -1  -4  -5  202.31    6.21 
  -1  -4  -5  211.93    6.44 
  -1  -4  -5  203.82    6.35 
  -1  -4  -5  218.49    6.89 
  -1  -4  -5  204.91    6.27 
   1  -4   5  206.19    6.15 
   1  -4   5  204.52    6.15 
  -1  -4  -5  204.92    6.24 
   1  -4   5  196.05    5.82 
   1  -4   5  195.04    6.09 
  -1   4  -6   23.04    1.32 
  -1   4  -6   22.73    1.17 
  -1   4  -6   22.45    1.34 
   1   4   6   21.34    1.33 
  -1   4  -6   19.96    1.14 
  -1   4  -6   21.72    1.23 
  -1  -4  -6   20.99    1.21 
  -1  -4  -6   22.12    1.31 
   1  -4   6   20.49    1.05 
   1  -4   6   19.39    1.12 
  -1  -4  -6   20.70    1.19 
  -1  -4  -6   21.38    1.27 
  -1  -4  -6   21.22    1.30 
  -1  -4  -6   21.22    1.34 
  -1  -4  -6   20.09    1.15 
   1  -4   6   21.28    1.32 
  -1   4  -7   31.07    1.91 
  -1   4  -7   32.56    1.98 
  -1   4  -7   27.13    1.68 
  -1   4  -7   34.22    1.95 
  -1   4  -7   33.92    2.02 
  -1   4  -7   26.55    1.88 
  -1  -4  -7   33.01    2.03 
  -1  -4  -7   35.21    2.11 
  -1  -4  -7   31.83    1.90 
  -1  -4  -7   28.94    1.73 
  -1  -4  -7   28.92    2.19 
  -1  -4  -7   33.19    1.95 
   1  -4   7   31.27    1.95 
  -1   4  -8    3.28    0.79 
  -1   4  -8    3.30    0.69 
  -1   4  -8    1.95    0.58 
  -1   4  -8    3.62    0.70 
  -1   4  -8    3.26    0.73 
  -1   4  -8    2.26    0.61 
  -1  -4  -8    2.68    0.65 
  -1  -4  -8    3.46    0.72 
  -1  -4  -8    3.07    0.72 
  -1  -4  -8    3.82    0.73 
  -1  -4  -8    3.53    0.76 
  -1  -4  -8    3.57    0.73 
   1  -4   8    4.29    0.81 
   1   5  -8    7.00    0.96 
   1   5  -8    6.64    0.99 
   1   5  -8    5.49    0.93 
   1   5  -8    6.05    0.96 
   1   5  -8    6.66    1.01 
   1  -5  -8    7.63    1.13 
  -1  -5   8    6.48    1.03 
   1   5  -7   35.96    2.12 
   1   5  -7   34.22    1.92 
   1   5  -7   34.37    1.98 
   1   5  -7   33.03    2.11 
   1   5  -7   33.78    2.01 
   1   5  -7   33.35    1.88 
  -1  -5   7   30.98    1.71 
   1  -5  -7   36.45    2.18 
   1  -5  -7   34.04    1.96 
   1  -5  -7   35.20    2.03 
  -1  -5   7   30.73    2.02 
   1  -5  -7   34.25    1.97 
  -1  -5   7   33.99    2.03 
   1   5  -6   57.03    2.85 
   1   5  -6   66.96    2.84 
   1   5  -6   63.55    2.64 
   1   5  -6   64.76    2.63 
   1   5  -6   65.52    2.64 
   1   5  -6   67.76    2.71 
   1  -5  -6   66.14    2.83 
  -1  -5   6   60.95    2.62 
   1  -5  -6   70.59    2.92 
   1  -5  -6   67.77    2.78 
   1  -5  -6   64.35    2.71 
  -1  -5   6   64.42    2.63 
   1  -5  -6   61.99    2.54 
   1  -5  -6   68.14    2.80 
  -1  -5   6   68.35    2.68 
  -1  -5   6   67.89    2.89 
   1   5  -5   34.20    1.64 
   1   5  -5   31.93    2.25 
   1   5  -5   32.96    1.46 
   1   5  -5   35.22    1.55 
   1   5  -5   33.45    1.46 
   1   5  -5   34.80    1.47 
  -1  -5   5   33.90    2.24 
  -1  -5   5   36.01    1.54 
  -1  -5   5   34.45    1.40 
  -1  -5   5   32.81    1.59 
   1  -5  -5   29.78    1.45 
  -1  -5   5   32.45    1.50 
   1  -5  -5   34.84    1.63 
   1  -5  -5   33.45    1.53 
   1  -5  -5   32.77    1.49 
   1  -5  -5   31.80    1.43 
   1  -5  -5   31.46    1.61 
  -1  -5   5   32.96    1.63 
   1   5  -4   68.40    2.33 
   1   5  -4   64.85    3.08 
   1   5  -4   65.49    2.24 
   1   5  -4   66.43    3.35 
   1   5  -4   69.98    3.72 
   1   5  -4   64.47    2.32 
  -1  -5   4   67.41    2.23 
  -1  -5   4   68.92    3.26 
   1  -5  -4   66.47    2.45 
   1  -5  -4   61.10    2.11 
   1  -5  -4   67.68    2.36 
  -1  -5   4   69.35    2.48 
   1  -5  -4   66.27    2.32 
  -1  -5   4   65.35    3.17 
  -1  -5   4   59.98    2.05 
  -1  -5   4   66.89    2.39 
   1   5  -3   52.65    2.99 
   1   5  -3   53.28    3.39 
   1   5  -3   55.02    3.32 
  -1  -5   3   52.89    3.09 
  -1  -5   3   46.51    2.03 
   1  -5  -3   52.92    2.41 
   1  -5  -3   52.88    2.41 
  -1  -5   3   51.71    2.22 
  -1  -5   3   54.28    2.32 
  -1  -5   3   53.65    2.39 
   1   5  -2    4.33    1.20 
   1   5  -2    4.74    0.98 
   1   5  -2    5.31    1.19 
  -1  -5   2    4.18    1.07 
  -1  -5   2    5.81    1.01 
  -1   5   1  112.40    5.43 
  -1   5   1  117.58    5.89 
   1   5  -1  133.08    6.25 
  -1  -5   1  121.65    5.95 
  -1  -5   1  108.26    5.25 
  -1   5   0  198.09   11.30 
  -1   5   0  199.43   11.33 
  -1   5   0  159.32   18.62 
   1   5   0  207.14   11.90 
  -1   5   0  189.89   11.86 
  -1  -5   0  203.50   11.33 
  -1  -5   0  201.62   11.60 
  -1   5  -1  135.33    6.29 
  -1   5  -1  142.85    6.74 
  -1   5  -1  110.96   13.82 
  -1   5  -1  133.41    6.38 
  -1   5  -1  137.21    6.33 
   1  -5   1  144.89    6.59 
  -1  -5  -1  146.35    6.82 
  -1   5  -2  118.13    5.53 
  -1   5  -2  114.41    5.44 
  -1   5  -2  117.13    5.75 
   1  -5   2  114.22    5.49 
  -1   5  -3  108.68    4.48 
  -1   5  -3  125.30    5.24 
  -1   5  -3  117.03    5.25 
   1  -5   3  117.84    5.04 
  -1  -5  -3  105.93    3.62 
   1  -5   3  108.01    3.48 
  -1  -5  -3  103.86    3.55 
   1  -5   3  107.92    3.52 
  -1  -5  -3  117.14    3.93 
   1  -5   3  110.53    3.66 
  -1  -5  -3  108.10    3.60 
  -1   5  -4  149.82    4.67 
  -1   5  -4  160.60    6.26 
  -1   5  -4  148.70    5.58 
  -1   5  -4  152.44    6.12 
  -1   5  -4  142.05    4.37 
   1  -5   4  141.77    3.99 
  -1  -5  -4  154.43    4.96 
  -1  -5  -4  132.01    4.02 
   1  -5   4  148.10    4.59 
  -1  -5  -4  152.81    4.93 
  -1  -5  -4  148.40    4.80 
   1  -5   4  148.23    5.90 
   1  -5   4  148.01    4.73 
  -1  -5  -4  148.54    4.85 
  -1  -5  -4  140.34    4.22 
   1  -5   4  150.98    4.95 
  -1   5  -5   61.18    2.69 
  -1   5  -5   61.84    3.38 
  -1   5  -5   67.04    3.46 
  -1   5  -5   61.81    3.55 
  -1   5  -5   64.93    2.70 
  -1   5  -5   63.40    2.62 
  -1   5  -5   66.68    2.70 
  -1  -5  -5   65.50    2.87 
   1  -5   5   62.79    2.49 
  -1  -5  -5   69.48    2.88 
   1  -5   5   61.39    3.39 
  -1  -5  -5   71.63    2.94 
  -1  -5  -5   60.30    2.57 
   1  -5   5   63.02    2.62 
  -1  -5  -5   67.97    2.87 
  -1  -5  -5   66.87    2.82 
   1  -5   5   64.87    2.52 
   1  -5   5   67.76    2.93 
  -1   5  -6   28.12    1.52 
  -1   5  -6   30.39    1.46 
  -1   5  -6   26.76    1.36 
  -1   5  -6   25.96    1.30 
  -1   5  -6   28.02    1.46 
   1  -5   6   20.44    1.70 
   1  -5   6   26.80    1.28 
  -1  -5  -6   28.64    1.51 
  -1  -5  -6   28.07    1.52 
   1  -5   6   24.70    1.34 
  -1  -5  -6   29.92    1.54 
  -1  -5  -6   27.06    1.50 
   1  -5   6   27.56    1.51 
  -1   5  -7    5.11    0.86 
  -1   5  -7    4.63    0.71 
  -1   5  -7    5.45    0.86 
  -1   5  -7    4.41    0.72 
  -1   5  -7    3.79    0.75 
  -1  -5  -7    5.21    0.81 
  -1  -5  -7    4.96    0.77 
  -1  -5  -7    5.54    0.82 
  -1  -5  -7    5.23    0.84 
  -1  -5  -7    4.89    0.78 
   1  -5   7    4.56    0.64 
  -1  -5  -7    5.19    0.83 
   1  -5   7    4.97    0.83 
  -1   5  -8   28.09    3.54 
  -1   5  -8   22.19    3.03 
  -1   5  -8   32.12    3.72 
  -1  -5  -8   30.22    3.68 
  -1  -5  -8   34.39    3.75 
  -1  -5  -8   28.94    3.16 
  -1  -5  -8   30.12    3.34 
  -1  -5  -8   22.31    2.81 
   1  -5   8   24.31    2.62 
   1   6  -8   15.21    2.08 
   1   6  -8   15.40    1.84 
   1   6  -8   15.27    1.78 
   1  -6  -8   15.37    1.81 
   1  -6  -8   15.53    1.77 
   1   6  -7    3.40    0.65 
   1   6  -7    2.81    0.59 
   1   6  -7    3.47    0.73 
   1   6  -7    3.45    0.62 
   1   6  -7    3.62    0.73 
   1  -6  -7    3.54    0.81 
   1  -6  -7    3.01    0.77 
  -1  -6   7    3.10    0.49 
  -1  -6   7    2.85    0.67 
  -1  -6   7    3.08    0.68 
   1   6  -6   11.95    1.01 
   1   6  -6   12.41    0.92 
   1   6  -6   11.30    0.84 
   1   6  -6   11.43    0.89 
   1  -6  -6   10.93    0.96 
  -1  -6   6   11.52    0.84 
   1  -6  -6   11.36    1.04 
   1  -6  -6   12.72    1.08 
   1  -6  -6   10.79    0.85 
  -1  -6   6   11.33    0.93 
   1  -6  -6   11.30    0.95 
   1  -6  -6   12.19    0.92 
  -1  -6   6   11.37    0.99 
   1   6  -5   69.37    2.63 
   1   6  -5   66.55    2.67 
   1  -6  -5   65.42    2.59 
  -1  -6   5   67.33    2.44 
   1  -6  -5   70.75    2.86 
  -1  -6   5   67.67    2.72 
  -1  -6   5   63.82    2.54 
   1  -6  -5   70.57    2.76 
  -1  -6   5   69.15    2.61 
  -1  -6   5   66.88    2.69 
   1   6  -4   10.46    1.38 
   1   6  -4   10.63    1.38 
   1   6  -4    9.32    1.42 
   1   6  -4   10.71    0.74 
  -1  -6   4    9.44    1.24 
  -1  -6   4    9.86    1.32 
  -1  -6   4   10.89    0.74 
   1  -6  -4   11.01    0.83 
  -1  -6   4   10.03    0.74 
   1  -6  -4   10.19    0.92 
  -1  -6   4   10.25    0.84 
   1  -6  -4   10.00    0.92 
  -1  -6   4   10.45    0.83 
   1  -6  -4   10.47    0.83 
   1   6  -3   16.25    1.69 
   1   6  -3   15.07    1.71 
   1   6  -3   14.66    1.39 
   1   6  -3   19.23    1.80 
   1   6  -3   16.47    1.64 
  -1  -6   3   16.21    1.58 
  -1  -6   3   15.59    1.41 
  -1  -6   3   14.77    0.84 
   1  -6  -3   14.67    0.99 
  -1  -6   3   13.74    0.78 
   1  -6  -3   14.14    0.95 
  -1  -6   3   16.34    0.91 
   1  -6  -3   14.71    0.98 
  -1  -6   3   15.13    0.87 
   1   6  -2  286.68   10.07 
   1   6  -2  264.57    9.43 
   1   6  -2  272.95    9.51 
   1   6  -2  289.82   10.36 
  -1  -6   2  275.56    9.54 
  -1  -6   2  271.91    9.74 
   1  -6  -2  268.91    8.20 
  -1  -6   2  276.19    8.31 
  -1   6   1   10.49    1.27 
   1   6  -1   10.38    1.37 
   1   6  -1   12.16    1.48 
  -1   6   1   11.02    1.40 
  -1   6   1   11.52    1.53 
  -1  -6   1   10.61    1.23 
  -1  -6   1   11.89    1.42 
  -1  -6   1    8.30    0.67 
  -1   6   0    1.49    0.67 
   1   6   0    0.69    0.86 
  -1  -6   0    1.34    0.84 
  -1   6  -1   27.93    2.13 
  -1   6  -1   30.63    2.38 
   1   6   1   24.63    2.27 
  -1   6  -1   27.43    2.18 
  -1  -6  -1   25.69    2.01 
   1  -6   1   29.89    2.17 
  -1  -6  -1   24.17    1.29 
   1  -6   1   25.37    1.27 
  -1  -6  -1   25.80    1.39 
  -1   6  -2   15.81    1.57 
  -1   6  -2   16.36    1.56 
  -1   6  -2   17.58    1.75 
   1  -6   2   16.26    1.54 
  -1  -6  -2   15.61    0.98 
   1  -6   2   15.14    0.82 
  -1  -6  -2   15.84    0.98 
  -1  -6  -2   13.88    0.88 
   1  -6   2   15.77    0.87 
  -1  -6  -2   16.12    1.05 
  -1  -6  -2   12.22    0.81 
  -1  -6  -2   16.67    0.97 
  -1   6  -3   25.18    1.79 
  -1   6  -3   26.01    1.97 
  -1   6  -3   25.11    2.08 
   1  -6   3   25.49    1.93 
  -1  -6  -3   25.48    1.27 
   1  -6   3   23.94    1.02 
  -1  -6  -3   26.76    1.33 
  -1  -6  -3   23.68    1.16 
  -1  -6  -3   24.63    1.18 
  -1  -6  -3   24.50    1.18 
  -1   6  -4   55.19    2.82 
  -1   6  -4   55.41    3.02 
  -1   6  -4   57.66    2.08 
  -1   6  -4   55.51    3.08 
   1  -6   4   54.84    3.00 
   1  -6   4   54.00    1.86 
  -1  -6  -4   59.03    2.25 
  -1  -6  -4   55.22    2.19 
  -1  -6  -4   52.78    2.06 
  -1  -6  -4   58.23    2.28 
  -1  -6  -4   58.41    2.22 
  -1   6  -5   34.60    1.52 
  -1   6  -5   38.46    1.69 
   1  -6   5   35.78    1.51 
   1  -6   5   36.72    1.46 
  -1  -6  -5   38.23    1.77 
  -1  -6  -5   37.38    1.79 
  -1  -6  -5   39.26    1.79 
   1  -6   5   37.33    1.66 
  -1  -6  -5   36.77    1.71 
  -1   6  -6    1.52    0.60 
  -1   6  -6    2.13    0.53 
  -1   6  -6    1.61    0.59 
  -1   6  -6    1.90    0.53 
  -1  -6  -6    1.27    0.59 
  -1  -6  -6    1.50    0.61 
   1  -6   6    1.36    0.40 
  -1  -6  -6    2.20    0.61 
   1  -6   6    1.56    0.62 
   1  -6   6    1.69    0.42 
  -1  -6  -6    2.39    0.66 
   1  -6   6    1.55    0.59 
  -1   6  -7   22.47    2.83 
  -1   6  -7   30.84    3.39 
  -1   6  -7   21.28    2.63 
  -1   6  -7   34.89    3.50 
  -1   6  -7   32.03    3.34 
  -1  -6  -7   37.07    3.75 
  -1  -6  -7   36.53    3.68 
  -1  -6  -7   32.26    3.27 
  -1  -6  -7   34.62    3.54 
   1  -6   7   33.22    3.39 
   1  -6   7   24.94    3.04 
   1   7  -7    1.83    0.58 
   1   7  -7    1.77    0.55 
   1  -7  -7    2.32    0.65 
  -1  -7   7    1.62    0.41 
  -1  -7   7    1.70    0.57 
   1  -7  -7    1.87    0.62 
   1   7  -6    0.83    0.46 
   1   7  -6    0.82    0.47 
   1   7  -6    0.97    0.49 
  -1  -7   6    0.97    0.46 
  -1  -7   6    0.68    0.34 
   1  -7  -6    0.68    0.72 
   1  -7  -6    1.22    0.66 
  -1  -7   6    0.61    0.59 
   1   7  -5   12.73    0.87 
   1   7  -5   12.52    0.82 
   1  -7  -5   12.02    1.01 
  -1  -7   5   12.78    0.79 
  -1  -7   5   12.96    0.91 
   1  -7  -5   12.79    0.90 
   1  -7  -5   11.65    1.01 
   1   7  -4    2.14    0.81 
   1   7  -4    1.82    0.73 
   1   7  -4    1.94    0.93 
   1   7  -4    2.27    0.47 
  -1  -7   4    2.94    0.87 
   1  -7  -4    2.25    0.54 
   1  -7  -4    2.44    0.66 
  -1  -7   4    2.03    0.47 
   1  -7  -4    2.17    0.69 
   1  -7  -4    2.00    0.69 
  -1  -7   4    2.14    0.58 
   1   7  -3   33.95    2.39 
   1   7  -3   33.83    2.32 
   1   7  -3   35.27    2.30 
   1   7  -3   30.89    2.44 
  -1  -7   3   30.57    2.17 
  -1  -7   3   32.92    2.22 
  -1  -7   3   32.29    1.41 
   1  -7  -3   32.97    1.55 
  -1  -7   3   29.21    1.31 
   1  -7  -3   34.90    1.69 
  -1  -7   3   33.20    1.42 
   1  -7  -3   34.74    1.64 
  -1  -7   3   32.86    1.39 
  -1  -7   3   33.55    1.52 
   1   7  -2    0.41    0.70 
   1   7  -2    0.77    0.69 
   1   7  -2    0.15    0.54 
   1   7  -2    0.02    0.84 
   1   7  -2    0.96    1.05 
  -1  -7   2    0.22    0.80 
   1  -7  -2    0.39    0.36 
  -1  -7   2    0.40    0.33 
  -1  -7   2    0.55    0.43 
   1  -7  -2    0.32    0.36 
  -1  -7   2    0.33    0.30 
  -1  -7   2    0.36    0.35 
   1   7  -1    0.33    0.79 
   1   7  -1    0.13    0.67 
   1   7  -1    0.29    0.73 
   1   7  -1    0.23    0.70 
  -1  -7   1    0.67    0.74 
  -1  -7   1    0.20    0.29 
  -1  -7   1    0.08    0.31 
   1   7   0   51.92    3.09 
   1   7   0   59.19    3.42 
  -1   7   0   50.00    2.92 
  -1  -7   0   51.43    2.87 
   1  -7   0   53.04    1.95 
  -1  -7   0   49.28    1.92 
  -1  -7   0   45.63    3.33 
  -1  -7   0   52.39    1.99 
   1   7   1  149.85    5.99 
  -1   7  -1  140.49    5.33 
   1  -7   1  138.77    3.89 
   1  -7   1  147.18    4.13 
  -1  -7  -1  134.56    3.84 
   1  -7   1  140.21    4.04 
   1   7   2    6.26    1.31 
  -1   7  -2    6.67    1.06 
   1  -7   2    6.05    1.03 
  -1  -7  -2    6.27    0.69 
  -1  -7  -2    6.31    0.68 
  -1  -7  -2    5.48    0.59 
   1  -7   2    6.08    0.58 
  -1  -7  -2    6.09    0.70 
  -1  -7  -2    5.91    0.63 
   1  -7   2    5.98    0.58 
  -1   7  -3   23.74    2.00 
  -1   7  -3   21.42    1.70 
   1  -7   3   22.61    1.87 
  -1  -7  -3   21.93    1.18 
   1  -7   3   20.14    0.94 
  -1  -7  -3   22.39    1.22 
   1  -7   3   21.81    1.06 
  -1  -7  -3   21.81    1.30 
  -1  -7  -3   22.66    1.24 
  -1  -7  -3   22.87    1.18 
   1  -7   3   23.10    1.21 
  -1   7  -4   50.34    3.10 
  -1   7  -4   48.56    2.77 
   1  -7   4   47.59    2.92 
  -1  -7  -4   48.18    2.22 
   1  -7   4   49.19    1.98 
  -1  -7  -4   50.91    2.29 
   1  -7   4   48.56    2.00 
  -1  -7  -4   45.25    2.15 
  -1  -7  -4   49.58    2.26 
  -1  -7  -4   46.71    2.09 
   1  -7   4   53.12    2.30 
  -1   7  -5   14.38    0.96 
  -1  -7  -5   15.17    1.13 
   1  -7   5   13.34    0.83 
  -1  -7  -5   13.93    1.10 
  -1  -7  -5   14.95    1.10 
  -1  -7  -5   13.93    0.98 
   1  -7   5   14.91    0.86 
  -1   7  -6   18.28    1.66 
  -1   7  -6   17.66    1.58 
  -1  -7  -6   18.27    1.72 
   1  -7   6   18.11    1.56 
  -1  -7  -6   17.71    1.71 
  -1  -7  -6   18.18    1.71 
  -1  -7  -6   18.02    1.66 
   1  -7   6   15.49    1.40 
  -1   7  -7    2.87    0.58 
  -1   7  -7    2.60    0.53 
  -1   7  -7    3.72    0.71 
   1  -7   7    3.25    0.61 
  -1  -7  -7    3.13    0.64 
  -1  -7  -7    3.29    0.64 
   1   8  -7   -0.03    0.37 
   1   8  -7   -0.05    0.38 
  -1  -8   7    0.09    0.31 
   1   8  -6    5.71    0.78 
   1   8  -6    6.65    0.80 
   1  -8  -6    6.88    0.97 
   1  -8  -6    6.86    0.92 
  -1  -8   6    6.03    0.72 
  -1  -8   6    4.26    0.57 
   1   8  -5    4.00    0.54 
   1  -8  -5    3.87    0.79 
  -1  -8   5    4.14    0.50 
   1  -8  -5    4.12    0.76 
  -1  -8   5    4.13    0.72 
  -1  -8   4  160.19    5.65 
   1  -8  -4  155.30    5.75 
  -1  -8   4  161.22    5.77 
   1  -8  -4  165.04    6.09 
  -1  -8   4  163.22    5.90 
   1   8  -3    8.74    1.30 
   1   8  -3    7.17    1.32 
  -1  -8   3    8.45    0.75 
   1  -8  -3    8.55    0.80 
  -1  -8   3    8.27    0.71 
  -1  -8   3    7.73    0.69 
   1  -8  -3    8.84    0.85 
  -1  -8   3    7.38    0.68 
  -1  -8   3    8.09    0.71 
   1   8  -2  261.66    9.14 
   1   8  -2  278.82    9.64 
  -1  -8   2  263.81    8.91 
  -1  -8   2  251.74    7.41 
  -1  -8   2  257.90    7.67 
  -1  -8   2  261.36    7.74 
   1  -8  -2  262.49    7.85 
  -1  -8   2  263.74    7.73 
  -1  -8   2  260.92    7.78 
   1   8  -1    4.84    1.12 
   1   8  -1    4.82    1.28 
  -1  -8   1    4.55    0.95 
  -1  -8   1    3.78    0.58 
  -1  -8   1    4.42    0.53 
  -1  -8   1    4.39    0.53 
  -1  -8   1    4.52    0.50 
   1   8   0   96.50    4.44 
   1   8   0   90.68    7.40 
  -1   8   0   92.59    4.32 
   1  -8   0  104.49    3.36 
  -1  -8   0   99.43    3.30 
  -1  -8   0  105.64    3.45 
  -1  -8   0  102.99    3.37 
   1   8   1   36.01    2.61 
  -1   8  -1   38.40    2.48 
  -1  -8  -1   37.51    1.55 
   1  -8   1   37.79    1.47 
  -1  -8  -1   32.21    1.39 
   1  -8   1   38.38    1.51 
  -1  -8  -1   37.70    1.60 
  -1  -8  -1   38.00    1.59 
   1  -8   1   37.40    1.54 
   1   8   2    5.78    1.23 
  -1   8  -2    5.30    0.99 
  -1  -8  -2    5.24    0.70 
   1  -8   2    4.94    0.59 
   1  -8   2    4.70    0.54 
  -1  -8  -2    5.80    0.81 
  -1  -8  -2    5.80    0.60 
   1  -8   2    5.45    0.61 
   1   8   3   28.86    2.49 
  -1  -8  -3   31.12    1.58 
   1  -8   3   31.38    1.46 
  -1  -8  -3   32.17    1.72 
  -1  -8  -3   32.45    1.60 
   1  -8   3   34.23    1.64 
  -1  -8  -4  113.15    4.30 
   1  -8   4  114.62    4.09 
  -1  -8  -4  128.27    4.87 
   1  -8   4  118.71    4.29 
  -1  -8  -4  125.05    4.73 
  -1  -8  -4  107.45    4.11 
   1  -8   4  131.47    4.86 
  -1  -8  -5   99.52    4.94 
   1  -8   5  105.62    5.06 
  -1  -8  -5  115.27    8.93 
  -1  -8  -5  116.33    9.05 
  -1  -8  -5  102.02    5.07 
   1  -8   5  106.80    5.24 
  -1   8  -6   18.08    2.18 
  -1   8  -6   21.09    2.27 
  -1  -8  -6   22.42    2.37 
   1  -8   6   16.05    2.12 
   1  -8   6   21.87    2.24 
  -1  -8  -6   22.72    2.43 
  -1  -8  -6   19.09    2.19 
  -1   8  -7   25.02    2.53 
   1  -8   7   22.16    2.68 
  -1  -8  -7   30.02    3.31 
   1   9  -6    2.68    0.53 
   1  -9  -6    2.78    0.58 
  -1  -9   6    3.30    0.55 
  -1  -9   6    3.12    0.65 
   1   9  -5   88.23    7.00 
   1  -9  -5   92.73    7.25 
  -1  -9   5   80.62    6.22 
  -1  -9   5   84.42    6.59 
  -1  -9   4   26.72    1.23 
  -1  -9   4   26.75    1.32 
   1  -9  -4   28.04    1.48 
  -1  -9   4   28.77    1.44 
  -1  -9   3  297.89   10.33 
  -1  -9   3  265.75    9.11 
   1  -9  -3  310.22   10.76 
  -1  -9   3  301.22   10.41 
  -1  -9   2   31.96    1.50 
  -1  -9   2   31.92    1.45 
  -1  -9   2   30.60    1.40 
   1  -9  -2   31.71    1.46 
  -1  -9   2   29.32    1.34 
  -1  -9   2   31.96    1.46 
   1   9  -1  414.24   15.65 
   1   9  -1  410.52   15.64 
  -1  -9   1  412.33   14.52 
  -1  -9   1  415.30   14.44 
  -1  -9   1  416.58   14.45 
  -1  -9   1  404.30   14.00 
   1   9   0   10.09    1.43 
   1  -9   0   11.18    0.74 
  -1  -9   0   11.46    0.82 
  -1  -9   0   11.92    0.86 
  -1  -9   0   10.95    0.75 
  -1  -9  -1   43.25    1.94 
   1  -9   1   41.21    1.73 
  -1  -9  -1   40.46    1.81 
  -1  -9  -1   40.46    1.84 
  -1  -9  -1   41.37    1.84 
  -1  -9  -2    7.69    0.75 
   1  -9   2    7.92    0.65 
   1  -9   2    8.32    0.62 
  -1  -9  -2    7.94    0.83 
  -1  -9  -2    8.36    0.70 
  -1  -9  -3    4.17    0.73 
   1  -9   3    4.57    0.55 
  -1  -9  -3    4.61    0.76 
  -1  -9  -3    4.31    0.59 
   1  -9   3    4.63    0.66 
  -1  -9  -4   56.87    2.34 
   1  -9   4   60.73    2.29 
   1  -9   4   63.50    2.39 
  -1  -9  -4   67.10    2.74 
  -1  -9  -4   56.93    2.36 
  -1  -9  -5   20.09    1.80 
   1  -9   5   18.84    1.61 
   1  -9   5   20.15    1.71 
  -1  -9  -5   20.91    1.93 
  -1   9  -6    5.58    0.80 
   1  -9   6    3.90    0.55 
  -1  -9  -6    6.13    0.82 
  -1  -9  -6    6.84    0.95 
  -1 -10   5    4.29    0.63 
  -1 -10   5    5.06    0.73 
  -1 -10   5    5.09    0.80 
   1  10  -4    0.42    0.37 
  -1 -10   4    0.04    0.46 
  -1 -10   4    0.36    0.35 
  -1 -10   4    0.57    0.57 
  -1 -10   3    3.60    0.51 
  -1 -10   3    4.01    0.59 
  -1 -10   2   14.35    0.94 
  -1 -10   2   14.69    0.91 
  -1 -10   2   13.89    0.92 
  -1 -10   1   13.55    0.92 
  -1 -10   1   12.32    0.82 
   1 -10   0   26.39    1.20 
  -1 -10   0   26.94    1.33 
  -1 -10   0   26.28    1.30 
   1 -10   1   57.34    2.24 
  -1 -10  -1   55.16    2.22 
  -1 -10  -1   55.87    2.30 
   1 -10   2   29.33    1.34 
   1 -10   2   27.85    1.32 
  -1 -10  -2   28.97    1.48 
  -1 -10  -3   15.95    1.19 
   1 -10   3   15.10    0.98 
   1 -10   3   16.07    1.04 
  -1 -10  -3   16.33    1.19 
  -1 -10  -4   12.57    1.25 
   1 -10   4   12.11    1.13 
   1 -10   4   13.55    1.21 
  -1 -10  -4   13.86    1.40 
   1 -10   5    6.29    0.94 
   1 -10   5    7.87    0.98 
  -1 -10  -5    8.54    1.12 
  -1 -11   4    0.36    0.33 
  -1 -11   4    0.60    0.36 
  -1 -11   3    9.48    0.93 
  -1 -11   3   10.17    0.98 
  -1 -11   2    4.36    0.59 
  -1 -11   2    4.20    0.55 
  -1 -11   2    3.93    0.58 
  -1 -11   1    6.51    0.68 
  -1 -11   1    6.33    0.68 
   1 -11   0   13.54    0.86 
  -1 -11   0   13.64    0.94 
  -1 -11   0   15.28    1.06 
   1 -11   1    7.55    0.61 
  -1 -11  -1    7.82    0.73 
   1 -11   2    1.05    0.44 
  -1 -11  -2    0.59    0.56 
   1 -11   3    7.43    0.89 
   1 -11   3    6.94    0.84 
  -1 -11  -3    6.01    0.91 
   1 -11   4    3.56    0.58 
  -1 -11  -4    3.56    0.67 
  -1 -12   3    1.24    0.39 
  -1 -12   2   13.50    1.49 
  -1 -12   1    3.97    0.60 
  -1 -12   0   18.84    1.97 
   1 -12   1    7.49    0.87 
  -1 -12  -1    8.92    1.07 
   1 -12   2   19.33    2.09 
  -1 -12  -2   19.97    2.19 
   1 -12   3   15.16    1.69 
   2   0  -9    2.82    0.78 
   2   0  -9    1.92    0.75 
   2   0  -8   32.98    2.73 
   2   0  -8   31.79    2.73 
   2   0  -8   32.47    2.70 
   2   0  -8   32.97    2.75 
   2   0  -8   27.00    2.38 
   2   0  -8   22.40    2.69 
   2   0  -8   31.06    2.67 
  -2   0   8   33.40    2.89 
   2   0  -7   20.06    1.09 
   2   0  -7   20.27    1.18 
   2   0  -7   22.33    1.23 
   2   0  -7   19.38    1.30 
   2   0  -7   21.22    1.20 
   2   0  -7   18.18    1.06 
   2   0  -7   22.19    1.37 
  -2   0   7   23.80    1.48 
  -2   0   6  531.02   19.53 
   2   0  -6  473.35   15.50 
   2   0  -6  460.49   15.02 
   2   0  -6  493.79   14.95 
   2   0  -6  517.10   18.17 
   2   0  -6  525.85   18.32 
  -2   0   6  527.55   18.47 
   2   0  -6  511.47   15.97 
   2   0  -6  571.05   19.77 
   2   0  -6  518.95   18.16 
   2   0  -6  508.77   15.34 
   2   0  -6  553.95   19.33 
  -2   0   6  569.95   19.87 
  -2   0   5    0.07    0.68 
   2   0  -5    0.19    0.69 
   2   0  -5    0.01    0.75 
   2   0  -5    0.02    0.75 
   2   0  -5    0.26    0.30 
   2   0  -5    0.00    0.38 
   2   0  -5    0.03    0.46 
   2   0  -5   -0.10    0.48 
   2   0  -5    0.18    0.39 
  -2   0   5    0.04    0.58 
   2   0  -5    0.38    0.50 
   2   0  -5    0.23    0.39 
   2   0  -5    1.13    0.53 
   2   0  -5    0.13    0.46 
   2   0  -5   -0.08    0.58 
  -2   0   5    0.23    0.63 
  -2   0   4 2433.94   87.67 
  -2   0   4 2410.52   87.55 
   2   0  -4 2589.94   75.66 
   2   0  -4 2684.39   79.97 
   2   0  -4 2472.58   88.89 
  -2   0   3  156.54    9.17 
   2   0  -3  157.46    8.99 
  -2   0   3  145.74    8.38 
  -2   0   3  166.54    9.56 
   2   0  -3  131.39    7.80 
   2   0  -3  165.14    9.28 
   2   0  -2  869.70   45.08 
  -2   0   2  904.75   47.01 
   2   0  -2  937.61   48.84 
  -2   0   2 1009.40   52.58 
   2   0  -2  899.17   46.46 
   2   0  -2  995.74   51.70 
  -2   0   1  376.73   19.85 
   2   0  -1  342.37   18.16 
  -2   0   1  335.41   17.79 
   2   0  -1  345.50   18.41 
   2   0   0  529.60   27.85 
   2   0   0  509.72   26.84 
  -2   0   0  477.02   25.08 
   2   0   0  493.97   26.25 
  -2   0   0  525.49   27.40 
  -2   0  -1 1895.45   96.56 
  -2   0  -1 2104.35  106.93 
  -2   0  -1 1901.94   96.40 
  -2   0  -2  188.33   10.78 
  -2   0  -2  189.09   10.91 
  -2   0  -2  204.60   11.32 
  -2   0  -2  168.26    9.63 
  -2   0  -3    6.88    1.27 
   2   0   3    7.77    1.24 
  -2   0  -3    6.12    0.98 
  -2   0  -3    7.54    1.31 
  -2   0  -4    1.68    0.89 
   2   0   4    1.58    0.76 
  -2   0  -4    1.13    0.85 
  -2   0  -4    1.66    0.91 
  -2   0  -4    1.59    0.32 
  -2   0  -4    1.59    0.42 
  -2   0  -4    2.28    0.53 
  -2   0  -4    1.87    0.48 
  -2   0  -4    1.55    0.51 
   2   0   4    2.40    0.55 
  -2   0  -5   29.63    1.95 
  -2   0  -5   28.00    2.08 
  -2   0  -5   34.37    2.30 
  -2   0  -5   34.89    1.45 
  -2   0  -5   33.43    1.44 
  -2   0  -5   34.34    1.50 
  -2   0  -5   33.35    1.43 
  -2   0  -5   32.51    1.50 
  -2   0  -5   34.19    1.51 
   2   0   5   29.99    1.49 
  -2   0  -6   10.06    0.83 
  -2   0  -6    9.33    0.79 
  -2   0  -6    9.65    0.81 
  -2   0  -6   10.55    0.88 
  -2   0  -6    8.35    0.86 
  -2   0  -6    9.96    0.83 
  -2   0  -6   10.21    1.00 
   2   0   6    8.94    0.97 
  -2   0  -7    6.35    0.74 
  -2   0  -7    7.82    0.75 
  -2   0  -7    4.89    0.70 
  -2   0  -7    6.81    0.79 
  -2   0  -7    3.64    0.82 
  -2   0  -7    6.66    0.82 
  -2   0  -7    5.57    0.90 
   2   0   7    6.47    0.94 
  -2   0  -8    0.12    0.50 
  -2   0  -8    0.09    0.46 
  -2   0  -8    0.25    0.51 
  -2   0  -8    0.17    0.54 
  -2   0  -8    0.24    0.52 
  -2   0  -8    0.17    0.68 
   2   0   8    0.01    0.69 
   2   1  -9    0.22    0.42 
   2   1  -9    0.49    0.45 
   2   1  -9    0.91    0.56 
   2   1  -9    0.08    0.52 
   2   1  -9    0.67    0.72 
   2  -1  -9    0.51    0.50 
   2  -1  -9    0.72    0.50 
  -2  -1   9    0.73    0.53 
   2   1  -8    0.75    0.48 
   2   1  -8    1.63    0.53 
   2   1  -8    1.21    0.68 
  -2   1   8    1.51    0.68 
   2   1  -8    1.50    0.56 
   2   1  -8    1.22    0.68 
   2   1  -8    1.60    0.68 
   2   1  -8    1.76    0.61 
   2   1  -8    1.25    0.62 
   2  -1  -8    1.38    0.50 
   2  -1  -8    0.83    0.58 
   2  -1  -8    1.72    0.67 
   2  -1  -8    1.65    0.63 
   2  -1  -8    1.32    0.49 
   2  -1  -8    1.38    0.56 
  -2  -1   8    1.37    0.69 
   2   1  -7    8.25    0.87 
   2   1  -7    7.50    0.67 
   2   1  -7    8.66    0.85 
   2   1  -7    7.50    0.74 
   2   1  -7    8.35    0.88 
   2   1  -7    8.28    0.78 
   2   1  -7    7.44    0.75 
  -2   1   7    8.19    0.96 
   2   1  -7    7.14    0.84 
   2   1  -7    7.12    0.77 
   2   1  -7    7.80    0.93 
   2  -1  -7    7.70    0.74 
   2  -1  -7    8.17    0.73 
   2  -1  -7    8.19    0.83 
   2  -1  -7    7.33    0.69 
   2  -1  -7    8.36    0.79 
   2  -1  -7    8.09    0.89 
   2  -1  -7    7.20    0.81 
   2  -1  -7    7.63    0.86 
  -2  -1   7    7.84    1.00 
  -2   1   6   23.55    1.35 
   2   1  -6   21.61    1.83 
   2   1  -6   21.89    1.74 
  -2   1   6   23.86    1.36 
   2   1  -6   23.36    1.09 
   2   1  -6   23.24    1.19 
   2   1  -6   25.21    1.28 
   2   1  -6   24.34    1.24 
   2   1  -6   22.83    1.18 
   2   1  -6   21.96    1.26 
   2   1  -6   24.02    1.22 
   2   1  -6   22.85    1.18 
   2   1  -6   24.26    1.29 
   2   1  -6   23.32    1.33 
   2  -1  -6   24.19    1.35 
   2  -1  -6   23.26    1.21 
  -2  -1   6   22.67    1.92 
  -2  -1   6   24.67    1.41 
   2  -1  -6   24.77    1.33 
   2  -1  -6   23.47    1.17 
   2  -1  -6   24.54    1.27 
   2  -1  -6   23.86    1.27 
   2  -1  -6   22.19    1.15 
   2  -1  -6   23.88    1.27 
   2  -1  -6   23.84    1.38 
   2  -1  -6   24.43    1.17 
  -2  -1   6   29.33    1.57 
  -2   1   5  129.64    5.03 
  -2   1   5  135.94    4.06 
  -2   1   5  130.81    3.95 
   2   1  -5  117.89    4.73 
   2   1  -5  127.48    3.63 
   2   1  -5  150.54    5.32 
   2   1  -5  127.00    5.23 
   2   1  -5  134.45    3.87 
   2   1  -5  136.42    4.04 
   2   1  -5  135.75    3.92 
   2   1  -5  136.00    3.91 
   2   1  -5  131.01    3.95 
   2  -1  -5  134.06    4.97 
   2  -1  -5  122.99    4.80 
   2  -1  -5  132.75    3.80 
   2  -1  -5  129.73    3.97 
  -2  -1   5  141.71    4.23 
   2  -1  -5  127.75    3.65 
   2  -1  -5  132.59    3.83 
   2  -1  -5  141.20    4.01 
  -2  -1   5  122.28    3.77 
   2  -1  -5  134.44    3.90 
   2  -1  -5  137.13    4.03 
  -2  -1   5  140.10    5.33 
  -2  -1   5  140.23    4.20 
  -2   1   4  115.69    5.55 
   2   1  -4  107.52    5.22 
   2   1  -4  115.87    5.52 
   2   1  -4   98.19    5.22 
  -2  -1   4  116.96    5.52 
   2  -1  -4  111.26    5.21 
  -2  -1   4  104.08    5.15 
   2  -1  -4  109.45    5.38 
   2  -1  -4  106.70    5.12 
   2   1  -3    4.62    0.96 
  -2   1   3    5.21    0.93 
   2   1  -3    5.22    1.17 
  -2   1   3    4.72    0.94 
   2   1  -3    5.40    1.01 
  -2   1   3    5.40    1.15 
   2  -1  -3    5.65    1.03 
  -2  -1   3    5.58    1.04 
   2  -1  -3    6.46    1.05 
  -2  -1   3    5.93    1.28 
   2  -1  -3    4.71    1.03 
   2   1  -2  113.28    6.86 
  -2   1   2  124.11    7.19 
  -2   1   2  126.01    7.42 
   2   1  -2  109.85    6.81 
   2   1  -2  136.07    7.88 
   2   1  -2  124.31    7.28 
  -2   1   2  102.60    6.29 
   2  -1  -2  112.02    6.79 
   2  -1  -2  130.50    7.60 
   2  -1  -2  131.53    7.70 
  -2  -1   2  126.30    7.37 
  -2  -1   2  126.54    7.61 
  -2   1   1  647.81   33.55 
   2   1  -1  618.97   32.19 
   2  -1  -1  696.26   35.92 
  -2  -1   1  665.68   34.88 
   2  -1  -1  622.69   32.55 
  -2   1   0  520.64   27.14 
  -2   1   0  561.43   29.18 
   2   1   0  526.63   27.72 
   2  -1   0  498.43   26.07 
   2  -1   0  536.78   28.10 
  -2  -1   0  544.35   28.35 
  -2   1  -1  271.25   14.59 
  -2   1  -1  250.77   13.54 
  -2   1  -1  231.15   13.03 
  -2   1  -1  273.12   14.79 
  -2  -1  -1  250.37   13.80 
  -2   1  -2   75.05    4.81 
  -2   1  -2   78.48    4.86 
  -2   1  -2   80.06    5.00 
   2  -1   2   86.11    5.38 
  -2  -1  -2   76.57    5.00 
  -2  -1  -2   74.38    5.03 
  -2   1  -3   17.71    1.67 
  -2   1  -3   16.57    1.59 
  -2   1  -3   16.99    1.50 
  -2  -1  -3   15.96    1.75 
   2  -1   3   18.56    1.70 
  -2  -1  -3   16.52    1.69 
   2   1   4  137.57    4.65 
  -2   1  -4  140.49    4.48 
  -2   1  -4  135.10    5.42 
  -2   1  -4  140.07    5.50 
  -2   1  -4  139.05    4.42 
  -2   1  -4  148.52    5.87 
  -2   1  -4  134.10    4.35 
  -2   1  -4  148.58    4.60 
  -2   1  -4  139.02    4.46 
  -2   1  -4  137.19    4.36 
  -2   1  -4  142.77    4.71 
  -2  -1  -4  144.56    4.61 
   2  -1   4  144.06    5.77 
  -2  -1  -4  145.50    4.66 
  -2  -1  -4  149.94    5.92 
  -2  -1  -4  137.95    4.49 
  -2  -1  -4  145.40    4.66 
  -2  -1  -4  144.09    4.55 
  -2  -1  -4  135.81    4.36 
  -2  -1  -4  141.60    4.47 
  -2  -1  -4  146.69    4.80 
   2  -1   4  143.64    4.47 
  -2  -1  -4  139.41    5.39 
   2  -1   4  147.11    4.86 
  -2   1  -5    3.81    1.10 
  -2   1  -5    4.28    0.56 
  -2   1  -5    3.63    1.05 
  -2   1  -5    3.29    0.89 
  -2   1  -5    4.01    0.62 
   2   1   5    4.43    0.78 
  -2   1  -5    3.45    0.54 
  -2   1  -5    3.82    0.51 
  -2   1  -5    4.04    0.62 
  -2  -1  -5    3.19    0.96 
  -2  -1  -5    3.69    0.98 
   2  -1   5    4.01    0.49 
   2  -1   5    4.68    1.02 
  -2  -1  -5    4.25    0.60 
  -2  -1  -5    3.48    0.53 
  -2  -1  -5    3.71    0.55 
  -2  -1  -5    4.05    0.63 
  -2  -1  -5    3.95    0.49 
  -2  -1  -5    4.04    0.59 
  -2  -1  -5    3.93    0.47 
  -2  -1  -5    3.93    0.74 
  -2  -1  -5    4.36    0.57 
  -2   1  -6    3.44    0.61 
  -2   1  -6    2.99    0.60 
  -2   1  -6    2.78    0.69 
   2   1   6    3.85    0.77 
  -2   1  -6    2.86    0.61 
  -2   1  -6    3.58    0.63 
  -2   1  -6    2.96    0.56 
  -2  -1  -6    3.13    0.61 
  -2  -1  -6    2.86    0.46 
  -2  -1  -6    3.11    0.59 
  -2  -1  -6    3.47    0.58 
  -2  -1  -6    3.54    0.58 
  -2  -1  -6    3.72    0.67 
  -2  -1  -6    3.36    0.78 
  -2  -1  -6    2.94    0.61 
  -2   1  -7    0.56    0.48 
  -2   1  -7    0.28    0.49 
  -2   1  -7    0.32    0.42 
  -2   1  -7    0.23    0.56 
  -2   1  -7    0.38    0.53 
   2   1   7    0.29    0.63 
  -2  -1  -7    0.59    0.51 
  -2  -1  -7   -0.03    0.61 
  -2  -1  -7    0.59    0.51 
  -2  -1  -7    0.31    0.49 
  -2  -1  -7   -0.04    0.50 
  -2  -1  -7    0.18    0.65 
  -2  -1  -7    0.48    0.61 
   2   1   8    6.07    1.07 
  -2   1  -8    4.71    1.00 
  -2   1  -8    4.98    0.92 
  -2   1  -8    5.87    0.86 
  -2   1  -8    2.82    1.01 
  -2   1  -8    6.41    0.91 
  -2  -1  -8    4.95    1.00 
  -2  -1  -8    5.32    0.87 
  -2  -1  -8    4.93    0.81 
  -2  -1  -8    5.32    0.79 
  -2  -1  -8    5.19    1.04 
  -2  -1  -8    4.27    0.82 
   2   2  -8    1.69    0.60 
   2   2  -8    2.11    0.51 
   2   2  -8    1.85    0.65 
   2   2  -8    2.08    0.75 
   2   2  -8    2.19    0.64 
  -2   2   8    1.38    0.55 
   2   2  -8    1.89    0.56 
   2   2  -8    1.77    0.58 
   2   2  -8    1.43    0.63 
   2  -2  -8    2.03    0.57 
   2  -2  -8    2.36    0.72 
   2  -2  -8    2.39    0.50 
   2  -2  -8    1.67    0.58 
   2  -2  -8    1.84    0.56 
   2  -2  -8    1.92    0.54 
   2  -2  -8    1.89    0.58 
  -2  -2   8    2.43    0.81 
   2   2  -7    2.76    0.66 
   2   2  -7    2.65    0.53 
  -2   2   7    2.36    0.68 
   2   2  -7    2.27    0.53 
   2   2  -7    2.53    0.65 
   2   2  -7    2.85    0.64 
   2   2  -7    2.09    0.49 
   2   2  -7    2.20    0.62 
   2   2  -7    2.71    0.64 
   2  -2  -7    2.34    0.58 
   2  -2  -7    2.51    0.65 
   2  -2  -7    2.74    0.76 
   2  -2  -7    2.27    0.66 
   2  -2  -7    2.26    0.68 
  -2  -2   7    2.54    0.77 
   2  -2  -7    2.46    0.68 
   2  -2  -7    2.77    0.61 
   2  -2  -7    2.49    0.65 
   2  -2  -7    2.40    0.51 
   2   2  -6   28.70    1.44 
   2   2  -6   25.17    2.06 
   2   2  -6   30.63    2.12 
   2   2  -6   24.98    2.17 
   2   2  -6   27.72    1.40 
   2   2  -6   28.68    1.35 
   2   2  -6   29.16    1.41 
   2   2  -6   26.70    1.36 
   2   2  -6   28.05    1.44 
   2   2  -6   26.73    1.53 
   2   2  -6   28.35    1.46 
  -2   2   6   27.24    1.55 
   2   2  -6   28.98    1.49 
   2  -2  -6   27.19    1.44 
   2  -2  -6   28.72    1.43 
   2  -2  -6   28.71    1.54 
  -2  -2   6   27.31    2.16 
   2  -2  -6   26.51    1.39 
   2  -2  -6   29.50    1.66 
  -2  -2   6   25.96    1.40 
   2  -2  -6   27.04    1.39 
   2  -2  -6   25.40    1.29 
   2  -2  -6   25.41    1.36 
  -2  -2   6   27.62    1.64 
   2  -2  -6   26.68    1.47 
   2  -2  -6   26.54    1.46 
  -2   2   5    8.80    0.77 
  -2   2   5    9.74    0.84 
   2   2  -5    8.19    1.29 
   2   2  -5    9.58    1.20 
   2   2  -5    9.64    1.50 
   2   2  -5    9.99    0.73 
   2   2  -5    9.19    0.76 
   2   2  -5    9.61    0.72 
   2   2  -5    8.53    0.66 
   2   2  -5    8.52    0.62 
   2   2  -5    8.44    0.70 
  -2  -2   5    8.44    1.33 
   2  -2  -5    9.58    0.87 
   2  -2  -5    9.65    0.76 
   2  -2  -5    8.72    0.66 
   2  -2  -5    9.54    0.69 
  -2  -2   5    8.62    0.74 
   2  -2  -5    8.99    0.73 
   2  -2  -5    9.17    0.75 
   2  -2  -5    8.61    0.72 
   2  -2  -5    8.18    0.65 
   2  -2  -5    9.52    0.75 
  -2  -2   5    9.67    1.21 
   2   2  -4  130.29    6.02 
   2   2  -4  125.96    5.63 
  -2   2   4  124.98    5.84 
   2   2  -4  124.40    4.76 
   2   2  -4  130.56    5.76 
   2   2  -4  127.06    6.13 
   2   2  -4  128.61    5.04 
   2   2  -4  125.10    4.83 
   2   2  -4  126.15    4.91 
  -2  -2   4  142.69    6.55 
   2  -2  -4  130.99    5.98 
   2  -2  -4  125.30    4.78 
   2  -2  -4  114.29    4.44 
  -2  -2   4  132.15    6.06 
  -2  -2   4  115.92    4.56 
   2  -2  -4  120.39    4.67 
   2  -2  -4  121.09    4.80 
   2  -2  -4  124.60    4.78 
   2  -2  -4  129.51    4.95 
  -2  -2   4  119.24    4.81 
   2   2  -3  110.77    5.25 
   2   2  -3  125.46    5.89 
  -2   2   3  126.03    5.98 
  -2   2   3  121.76    5.65 
   2   2  -3  138.89    6.51 
   2  -2  -3  138.88    6.34 
   2  -2  -3  122.44    5.51 
  -2  -2   3  127.41    6.16 
   2  -2  -3  120.41    5.78 
   2   2  -2    1.58    0.79 
  -2   2   2    1.74    0.59 
  -2   2   2    1.63    0.61 
  -2   2   2    1.62    0.64 
   2   2  -2    1.66    0.82 
  -2  -2   2    0.91    0.88 
  -2  -2   2    1.73    0.78 
   2  -2  -2    2.52    0.71 
   2  -2  -2    1.56    0.54 
   2  -2  -2    1.40    0.61 
  -2   2   1   66.79    4.41 
  -2   2   1   69.07    4.57 
   2  -2  -1   70.18    4.67 
  -2   2   0  371.03   19.62 
   2   2   0  334.14   18.22 
  -2   2   0  320.17   30.44 
  -2   2   0  366.96   19.89 
  -2   2   0  388.94   20.70 
   2  -2   0  328.63   17.80 
  -2  -2   0  376.16   19.85 
  -2  -2   0  369.07   19.94 
   2  -2   0  374.85   20.06 
  -2   2  -1   53.87    3.48 
  -2   2  -1   58.23    3.84 
  -2   2  -1   58.59    3.96 
  -2  -2  -1   56.16    3.84 
  -2  -2  -1   52.54    3.61 
  -2   2  -2  250.57   13.57 
  -2   2  -2  259.94   14.13 
  -2   2  -2  262.04   14.26 
  -2  -2  -2  249.05   13.70 
  -2  -2  -2  251.50   13.82 
  -2   2  -3   16.66    1.49 
  -2   2  -3   19.21    1.76 
  -2   2  -3   16.61    1.58 
  -2  -2  -3   16.37    1.55 
   2  -2   3   15.78    1.52 
  -2  -2  -3   18.61    1.72 
  -2  -2  -3   16.57    1.63 
   2   2   4    9.38    0.84 
  -2   2  -4    9.57    0.63 
  -2   2  -4    8.85    1.22 
  -2   2  -4    9.11    1.15 
  -2   2  -4    8.73    0.67 
  -2   2  -4    9.44    0.80 
  -2   2  -4    9.13    0.69 
  -2   2  -4    8.94    0.69 
   2  -2   4    8.35    1.26 
   2  -2   4    9.37    0.58 
  -2  -2  -4    9.60    0.72 
   2  -2   4    8.12    0.59 
  -2  -2  -4    9.01    0.72 
  -2  -2  -4    8.81    0.63 
  -2  -2  -4    8.58    0.69 
  -2  -2  -4    9.95    1.34 
   2  -2   4    8.68    0.65 
  -2  -2  -4    8.04    0.70 
  -2  -2  -4    8.84    0.67 
  -2  -2  -4    8.85    0.71 
  -2  -2  -4    7.83    0.68 
  -2  -2  -4    8.84    0.63 
  -2  -2  -4    9.49    1.25 
   2  -2   4    9.14    0.81 
   2   2   5   96.36    3.44 
  -2   2  -5   87.43    3.80 
  -2   2  -5   89.75    3.07 
  -2   2  -5   88.10    4.00 
  -2   2  -5   83.37    3.71 
  -2   2  -5   99.62    3.45 
  -2   2  -5   81.94    3.93 
  -2   2  -5   86.83    3.03 
  -2   2  -5   88.15    2.94 
  -2   2  -5   92.77    3.11 
  -2   2  -5   91.46    3.09 
  -2  -2  -5   85.58    2.91 
  -2  -2  -5   88.23    2.98 
   2  -2   5   85.23    3.96 
  -2  -2  -5   82.84    2.81 
  -2  -2  -5   83.51    3.90 
  -2  -2  -5   90.18    3.11 
   2  -2   5   89.30    2.93 
  -2  -2  -5   80.09    2.78 
  -2  -2  -5   87.75    3.02 
  -2  -2  -5   88.96    3.16 
  -2  -2  -5   87.36    3.11 
  -2  -2  -5   78.39    3.62 
   2  -2   5   91.57    3.25 
  -2   2  -6    3.16    0.65 
  -2   2  -6    3.34    0.60 
  -2   2  -6    3.71    0.83 
   2   2   6    3.57    0.79 
  -2   2  -6    3.89    0.65 
  -2   2  -6    3.48    0.58 
  -2  -2  -6    3.45    0.68 
  -2  -2  -6    3.38    0.59 
   2  -2   6    2.63    0.50 
  -2  -2  -6    3.12    0.63 
  -2  -2  -6    3.26    0.67 
  -2  -2  -6    3.30    0.61 
  -2  -2  -6    3.09    0.75 
  -2  -2  -6    3.05    0.65 
  -2  -2  -6    3.06    0.58 
   2  -2   6    3.47    0.74 
  -2   2  -7    6.92    0.78 
  -2   2  -7    7.28    0.70 
   2   2   7    6.75    0.88 
  -2   2  -7    7.09    0.82 
  -2   2  -7    7.07    0.77 
  -2   2  -7    5.20    0.78 
  -2   2  -7    6.96    0.94 
  -2  -2  -7    6.61    0.66 
  -2  -2  -7    7.00    0.80 
  -2  -2  -7    6.85    0.77 
  -2  -2  -7    5.02    0.81 
  -2  -2  -7    5.78    0.87 
  -2  -2  -7    6.79    0.81 
  -2  -2  -7    5.54    0.72 
   2  -2   7    7.08    0.87 
   2   2   8   11.70    1.64 
  -2   2  -8   11.44    1.84 
  -2   2  -8   12.11    2.14 
  -2   2  -8   13.97    1.67 
  -2   2  -8    6.57    1.48 
  -2  -2  -8   13.03    2.13 
  -2  -2  -8   13.67    1.62 
  -2  -2  -8   12.46    1.65 
  -2  -2  -8    9.33    1.63 
  -2  -2  -8   11.08    1.95 
  -2  -2  -8   12.17    1.59 
   2  -2   8   17.12    2.03 
   2   3  -8    3.31    0.62 
   2   3  -8    2.39    0.67 
   2   3  -8    2.99    0.68 
   2   3  -8    2.89    0.66 
   2   3  -8    3.64    0.70 
   2   3  -8    2.99    0.76 
   2   3  -8    2.37    0.63 
   2  -3  -8    3.90    0.87 
   2  -3  -8    2.52    0.68 
   2  -3  -8    3.16    0.68 
   2  -3  -8    3.09    0.72 
  -2  -3   8    3.60    0.87 
   2   3  -7    1.53    0.60 
   2   3  -7    1.16    0.52 
   2   3  -7    1.73    0.56 
   2   3  -7    1.32    0.60 
   2   3  -7    1.21    0.68 
   2   3  -7    1.37    0.62 
   2  -3  -7    1.85    0.53 
   2  -3  -7    1.43    0.48 
   2  -3  -7    0.71    0.69 
  -2  -3   7    0.73    0.47 
   2  -3  -7    1.24    0.64 
   2  -3  -7    1.16    0.45 
   2  -3  -7    1.23    0.55 
   2  -3  -7    0.79    0.66 
   2  -3  -7    1.63    0.58 
  -2  -3   7    1.69    0.63 
   2   3  -6   34.52    1.55 
   2   3  -6   34.02    2.37 
   2   3  -6   37.92    2.27 
   2   3  -6   31.80    2.41 
   2   3  -6   35.61    1.78 
  -2   3   6   32.47    1.62 
   2   3  -6   36.06    1.64 
   2   3  -6   36.14    1.59 
   2   3  -6   35.15    1.63 
   2   3  -6   34.05    1.54 
   2   3  -6   34.39    1.56 
   2  -3  -6   35.21    1.59 
  -2  -3   6   34.66    2.38 
   2  -3  -6   37.41    1.77 
  -2  -3   6   35.90    1.68 
   2  -3  -6   35.04    1.67 
   2  -3  -6   36.10    1.64 
   2  -3  -6   32.36    1.47 
   2  -3  -6   34.52    1.53 
   2  -3  -6   31.98    1.55 
  -2  -3   6   36.87    1.86 
   2  -3  -6   35.90    1.75 
  -2  -3   6   38.51    1.90 
   2   3  -5   40.91    2.76 
   2   3  -5   42.45    2.48 
   2   3  -5   43.29    1.79 
   2   3  -5   45.91    2.79 
   2   3  -5   46.18    2.49 
   2   3  -5   45.80    1.77 
   2   3  -5   43.88    1.72 
   2   3  -5   44.30    1.86 
   2   3  -5   45.90    1.77 
   2   3  -5   44.32    1.77 
   2   3  -5   46.31    1.85 
  -2  -3   5   51.36    2.83 
  -2  -3   5   47.85    2.07 
   2  -3  -5   40.82    1.84 
  -2  -3   5   44.12    2.70 
   2  -3  -5   44.55    1.81 
   2  -3  -5   45.67    1.84 
  -2  -3   5   43.90    1.81 
   2  -3  -5   45.18    1.79 
   2  -3  -5   46.16    1.95 
  -2  -3   5   44.07    1.71 
  -2  -3   5   46.12    1.98 
   2   3  -4    0.55    0.34 
   2   3  -4    0.45    0.74 
   2   3  -4    0.61    0.74 
   2   3  -4    0.61    0.76 
   2   3  -4    0.71    1.00 
   2   3  -4    0.54    0.36 
   2   3  -4    0.64    0.31 
   2   3  -4    0.51    0.36 
   2   3  -4    0.42    0.27 
   2   3  -4    0.80    0.47 
   2  -3  -4    0.66    0.38 
  -2  -3   4    0.44    0.35 
  -2  -3   4    0.40    0.38 
  -2  -3   4    0.66    0.80 
   2  -3  -4    0.54    0.34 
  -2  -3   4    0.59    0.39 
   2   3  -3   88.46    4.53 
   2   3  -3   77.70    4.28 
   2   3  -3   88.07    4.27 
  -2   3   3   88.62    4.44 
  -2   3   3   88.49    4.56 
   2   3  -3   84.93    4.26 
  -2  -3   3   86.80    4.42 
  -2  -3   3   88.57    4.59 
   2   3  -2   80.87    5.17 
  -2   3   2   74.56    4.79 
   2   3  -2   93.55    5.73 
  -2   3   2   91.71    5.61 
  -2  -3   2   85.95    5.42 
  -2  -3   2   95.17    5.88 
  -2   3   1   62.81    3.95 
  -2   3   1   60.50    4.03 
  -2   3   1   65.83    4.54 
  -2  -3   1   62.36    4.19 
  -2  -3   1   61.93    4.18 
  -2  -3   1   56.44    3.98 
  -2   3   0  356.71   19.46 
  -2   3   0  341.76   20.15 
  -2   3   0  351.58   18.84 
  -2  -3   0  376.40   20.29 
  -2  -3   0  353.28   19.54 
  -2   3  -1  136.98    7.90 
  -2   3  -1  128.37    7.35 
  -2   3  -1  140.95    8.19 
  -2  -3  -1  140.54    8.20 
  -2  -3  -1  140.67    8.12 
  -2   3  -2   59.84    3.83 
  -2   3  -2   62.04    4.17 
  -2   3  -2   61.52    4.07 
  -2  -3  -2   66.38    4.36 
   2  -3   2   63.08    4.26 
  -2  -3  -2   60.74    4.15 
  -2  -3  -2   62.33    4.11 
  -2   3  -3  101.76    4.99 
  -2   3  -3  106.76    4.87 
  -2   3  -3  109.71    5.16 
   2  -3   3  103.50    4.99 
  -2  -3  -3  106.41    5.17 
  -2  -3  -3   94.00    4.68 
  -2   3  -4  149.79    5.35 
  -2   3  -4  151.16    5.22 
  -2   3  -4  143.62    4.07 
  -2   3  -4  153.25    5.67 
   2   3   4  153.16    4.53 
  -2   3  -4  147.15    4.34 
  -2   3  -4  145.46    4.10 
  -2   3  -4  145.24    4.14 
  -2  -3  -4  143.08    5.38 
  -2  -3  -4  142.60    4.02 
   2  -3   4  138.45    3.75 
   2  -3   4  147.05    4.11 
  -2  -3  -4  149.15    4.21 
  -2  -3  -4  144.94    4.09 
  -2  -3  -4  141.23    3.99 
  -2  -3  -4  144.09    4.23 
   2  -3   4  147.11    3.93 
  -2  -3  -4  142.31    4.13 
   2  -3   4  146.34    4.31 
  -2   3  -5   68.25    3.33 
  -2   3  -5   53.16    2.92 
  -2   3  -5   58.55    3.08 
  -2   3  -5   59.50    3.25 
  -2   3  -5   63.37    2.45 
  -2   3  -5   63.14    2.19 
  -2   3  -5   62.70    2.30 
  -2   3  -5   62.17    2.28 
   2   3   5   60.52    2.43 
  -2   3  -5   63.33    2.31 
  -2  -3  -5   65.24    2.37 
   2  -3   5   66.30    3.37 
  -2  -3  -5   66.58    2.45 
   2  -3   5   63.05    2.17 
  -2  -3  -5   56.39    3.06 
   2  -3   5   63.39    2.28 
  -2  -3  -5   64.73    2.41 
  -2  -3  -5   61.32    2.29 
   2  -3   5   59.24    2.17 
  -2  -3  -5   63.05    2.44 
  -2  -3  -5   66.49    2.52 
  -2  -3  -5   61.73    2.26 
   2  -3   5   60.52    2.39 
  -2   3  -6   65.01    2.61 
  -2   3  -6   66.52    2.85 
   2   3   6   61.02    2.68 
  -2   3  -6   61.65    2.52 
  -2   3  -6   64.10    2.87 
  -2   3  -6   68.74    2.83 
  -2   3  -6   64.19    2.97 
   2  -3   6   60.55    2.40 
  -2  -3  -6   58.56    2.50 
  -2  -3  -6   59.97    2.49 
  -2  -3  -6   67.77    2.78 
  -2  -3  -6   64.54    2.76 
  -2  -3  -6   61.53    2.65 
  -2  -3  -6   60.36    2.46 
   2  -3   6   64.27    2.77 
  -2   3  -7    4.89    0.73 
   2   3   7    4.48    0.82 
  -2   3  -7    3.95    0.62 
  -2   3  -7    3.85    0.66 
  -2   3  -7    5.43    0.76 
  -2   3  -7    4.27    0.86 
   2  -3   7    1.46    0.75 
  -2  -3  -7    4.60    0.66 
  -2  -3  -7    5.53    0.72 
  -2  -3  -7    4.26    0.76 
  -2  -3  -7    4.73    0.81 
  -2  -3  -7    4.49    0.80 
  -2  -3  -7    3.97    0.74 
   2  -3   7    4.78    0.90 
  -2   3  -8    4.22    0.86 
  -2   3  -8    6.76    0.97 
  -2   3  -8    4.84    1.16 
  -2   3  -8    2.51    0.68 
  -2   3  -8    6.53    1.03 
  -2  -3  -8    6.10    0.98 
  -2  -3  -8    5.52    0.85 
  -2  -3  -8    4.96    1.15 
   2  -3   8    7.66    1.15 
   2   4  -8   39.20    4.17 
   2   4  -8   40.57    4.28 
   2   4  -8   33.15    3.76 
   2   4  -8   31.07    3.40 
   2   4  -8   42.50    4.48 
   2   4  -8   30.41    3.54 
   2   4  -8   38.38    4.12 
   2   4  -8   33.88    3.83 
   2   4  -8   26.98    3.71 
   2  -4  -8   37.26    4.00 
   2  -4  -8   39.00    4.16 
   2  -4  -8   41.45    4.41 
  -2  -4   8   42.45    4.54 
   2   4  -7    1.15    0.50 
   2   4  -7    0.78    0.59 
   2   4  -7    0.82    0.55 
   2   4  -7    1.06    0.63 
   2   4  -7    0.90    0.53 
   2   4  -7    1.02    0.59 
   2  -4  -7    0.53    0.62 
   2  -4  -7    1.01    0.65 
   2  -4  -7    0.84    0.55 
   2  -4  -7    1.19    0.72 
  -2  -4   7    0.53    0.51 
  -2  -4   7    1.08    0.68 
   2   4  -6   10.78    0.86 
   2   4  -6   11.54    0.89 
   2   4  -6   11.93    0.83 
   2   4  -6   10.98    0.94 
   2   4  -6   11.18    0.86 
   2   4  -6   10.57    0.85 
   2  -4  -6    9.41    1.03 
   2  -4  -6    9.28    0.87 
  -2  -4   6   10.34    0.74 
   2  -4  -6   10.40    0.89 
  -2  -4   6   10.69    1.07 
   2  -4  -6    9.81    0.85 
   2  -4  -6   11.60    1.02 
  -2  -4   6   10.21    0.85 
  -2  -4   6   10.74    0.97 
   2   4  -5   72.03    2.68 
   2   4  -5   57.71    3.25 
   2   4  -5   64.52    3.09 
   2   4  -5   69.50    3.81 
   2   4  -5   73.01    2.61 
   2   4  -5   69.50    2.49 
   2   4  -5   70.69    2.51 
   2   4  -5   71.65    2.58 
  -2  -4   5   68.59    2.40 
   2  -4  -5   63.88    2.32 
  -2  -4   5   67.13    3.32 
  -2  -4   5   69.61    2.50 
   2  -4  -5   71.80    2.60 
  -2  -4   5   72.29    2.72 
   2  -4  -5   62.72    2.28 
   2  -4  -5   70.82    2.53 
   2  -4  -5   71.36    2.69 
  -2  -4   5   65.55    2.53 
   2   4  -4   33.93    2.23 
   2   4  -4   36.36    1.56 
   2   4  -4   37.53    2.23 
   2   4  -4   33.35    1.33 
   2   4  -4   35.21    2.13 
   2   4  -4   33.61    2.38 
   2   4  -4   35.52    1.45 
   2   4  -4   33.59    1.35 
  -2  -4   4   33.29    2.21 
   2  -4  -4   32.46    1.47 
   2  -4  -4   35.53    1.57 
   2  -4  -4   35.94    1.40 
  -2  -4   4   35.21    1.46 
   2  -4  -4   35.34    1.47 
  -2  -4   4   30.99    2.18 
   2  -4  -4   33.33    1.36 
  -2  -4   4   30.88    1.29 
  -2  -4   4   35.88    1.54 
   2   4  -3   69.75    3.90 
   2   4  -3   68.69    3.73 
   2   4  -3   67.97    3.56 
   2   4  -3   65.95    3.90 
  -2  -4   3   67.11    3.63 
  -2  -4   3   64.44    3.60 
  -2  -4   3   66.42    2.73 
  -2  -4   3   64.81    2.75 
   2   4  -2   23.22    1.92 
  -2   4   2   23.14    1.87 
   2   4  -2   20.78    1.89 
   2   4  -2   22.40    2.07 
  -2  -4   2   22.33    1.94 
  -2   4   1  579.68   30.59 
   2   4  -1  602.89   31.64 
  -2  -4   1  591.32   32.37 
  -2  -4   1  576.57   30.28 
  -2   4   0  376.92   58.97 
   2   4   0  464.09   24.87 
  -2   4   0  477.83   25.55 
  -2   4   0  425.16   22.78 
  -2  -4   0  438.91   23.57 
  -2  -4   0  508.10   27.11 
  -2   4  -1  557.49   29.10 
  -2   4  -1  600.55   31.41 
  -2   4  -1  566.10   29.70 
  -2  -4  -1  599.69   32.63 
  -2   4  -2   95.89    4.68 
  -2   4  -2   93.84    4.45 
  -2   4  -2  103.03    5.04 
   2  -4   2  101.12    4.94 
  -2  -4  -2  103.18    5.00 
  -2   4  -3  159.17    6.03 
  -2   4  -3  181.10    6.81 
  -2   4  -3  171.81    6.68 
   2  -4   3  174.98    6.69 
  -2  -4  -3  162.12    5.13 
   2  -4   3  170.06    5.16 
  -2  -4  -3  174.26    5.54 
  -2  -4  -3  161.53    5.08 
  -2  -4  -3  171.34    5.43 
  -2  -4  -3  164.66    5.22 
   2  -4   3  171.36    5.40 
  -2   4  -4   23.66    1.72 
  -2   4  -4   25.38    1.90 
   2   4   4   21.69    1.19 
  -2   4  -4   23.20    1.96 
  -2   4  -4   26.34    1.23 
  -2   4  -4   25.03    1.29 
   2  -4   4   23.54    1.93 
  -2  -4  -4   24.12    1.15 
  -2  -4  -4   25.26    1.25 
  -2  -4  -4   25.90    1.26 
  -2  -4  -4   25.08    1.26 
  -2  -4  -4   24.23    1.16 
   2  -4   4   23.40    1.02 
  -2  -4  -4   24.05    1.26 
   2  -4   4   25.42    1.19 
   2  -4   4   24.33    0.99 
   2  -4   4   23.86    1.26 
  -2   4  -5  166.62    6.50 
  -2   4  -5  161.36    6.17 
  -2   4  -5  165.45    6.56 
  -2   4  -5  179.63    5.76 
  -2   4  -5  173.69    5.67 
   2   4   5  176.36    5.87 
  -2   4  -5  169.08    5.66 
  -2   4  -5  172.61    5.80 
  -2   4  -5  169.17    5.59 
  -2  -4  -5  173.84    5.64 
  -2  -4  -5  169.68    5.56 
  -2  -4  -5  181.80    5.91 
   2  -4   5  176.15    5.73 
  -2  -4  -5  164.19    5.39 
  -2  -4  -5  163.55    5.30 
   2  -4   5  173.20    5.46 
  -2  -4  -5  163.35    5.45 
  -2  -4  -5  171.65    5.61 
   2  -4   5  172.96    5.42 
   2  -4   5  168.99    5.67 
  -2   4  -6    3.27    0.54 
   2   4   6    3.92    0.64 
  -2   4  -6    4.04    0.75 
  -2   4  -6    3.46    0.59 
  -2   4  -6    3.43    0.68 
  -2   4  -6    3.32    0.82 
  -2   4  -6    3.01    0.54 
   2  -4   6    3.11    0.46 
  -2  -4  -6    3.98    0.75 
  -2  -4  -6    3.84    0.67 
  -2  -4  -6    3.14    0.66 
  -2  -4  -6    3.58    0.78 
  -2  -4  -6    3.53    0.63 
  -2  -4  -6    4.24    0.76 
  -2  -4  -6    3.72    0.68 
  -2  -4  -6    3.42    0.70 
   2  -4   6    3.32    0.50 
   2  -4   6    3.81    0.78 
  -2   4  -7  100.49    8.01 
  -2   4  -7  116.91    9.10 
  -2   4  -7  101.64    8.03 
  -2   4  -7  105.60    8.21 
  -2   4  -7   93.10    9.47 
  -2   4  -7   85.65    9.16 
  -2  -4  -7   92.63    7.37 
  -2  -4  -7  105.31    8.23 
  -2  -4  -7  110.98    8.61 
   2  -4   7   82.32    7.71 
  -2  -4  -7  113.90    8.82 
  -2  -4  -7  103.21    8.22 
  -2  -4  -7   95.78    9.44 
  -2  -4  -7  110.56    8.55 
   2  -4   7  116.64    9.09 
  -2   4  -8   19.30    2.42 
  -2  -4  -8   18.69    2.04 
  -2  -4  -8   19.62    2.26 
  -2  -4  -8   15.90    2.43 
   2  -4   8   19.03    2.30 
   2   5  -8   18.10    1.92 
   2   5  -8   16.01    2.24 
   2   5  -8   14.23    1.65 
   2   5  -8   15.40    1.70 
   2   5  -8   18.42    2.01 
   2   5  -8   18.69    2.04 
   2  -5  -8   20.76    2.25 
   2  -5  -8   19.08    2.04 
  -2  -5   8   18.74    2.05 
   2   5  -7   24.48    2.06 
   2   5  -7   19.33    2.35 
   2   5  -7   24.96    2.17 
   2   5  -7   24.40    2.17 
   2   5  -7   24.31    2.11 
   2   5  -7   21.01    1.86 
  -2  -5   7   21.65    1.95 
   2  -5  -7   25.75    2.27 
  -2  -5   7   20.39    1.73 
   2  -5  -7   23.30    2.08 
   2  -5  -7   24.68    2.24 
  -2  -5   7   23.50    2.12 
   2   5  -6   11.43    1.03 
   2   5  -6   10.85    0.86 
   2   5  -6   10.85    0.80 
   2   5  -6   11.35    0.86 
   2   5  -6   11.68    0.89 
   2  -5  -6   11.42    1.03 
  -2  -5   6   11.98    0.97 
   2  -5  -6   11.04    0.89 
  -2  -5   6   12.37    0.87 
   2  -5  -6   10.44    0.85 
  -2  -5   6   11.55    1.07 
   2  -5  -6   11.20    0.88 
  -2  -5   6   10.91    0.98 
   2   5  -5   45.53    3.06 
   2   5  -5   37.78    3.25 
   2   5  -5   47.42    2.60 
   2   5  -5   50.98    2.98 
   2   5  -5   49.92    2.13 
   2   5  -5   51.96    2.04 
   2   5  -5   50.79    2.01 
   2   5  -5   50.23    2.02 
  -2  -5   5   49.61    2.81 
   2  -5  -5   46.94    2.10 
  -2  -5   5   51.85    2.01 
   2  -5  -5   44.80    1.79 
  -2  -5   5   50.54    2.86 
   2  -5  -5   50.65    2.11 
  -2  -5   5   49.64    2.03 
  -2  -5   5   53.59    2.26 
   2  -5  -5   51.09    2.22 
  -2  -5   5   53.21    2.22 
   2   5  -4   20.23    1.80 
   2   5  -4   18.14    1.07 
   2   5  -4   19.09    1.56 
   2   5  -4   18.37    0.99 
   2   5  -4   20.75    1.95 
   2   5  -4   19.07    1.67 
   2   5  -4   19.91    1.04 
   2  -5  -4   17.29    0.96 
  -2  -5   4   18.78    1.72 
  -2  -5   4   17.24    0.93 
   2  -5  -4   16.14    1.08 
  -2  -5   4   16.97    0.91 
  -2  -5   4   17.44    0.97 
   2  -5  -4   17.35    1.00 
  -2  -5   4   17.75    1.69 
  -2  -5   4   19.81    1.14 
   2  -5  -4   19.27    1.22 
  -2  -5   4   18.84    1.12 
   2   5  -3   52.42    3.05 
   2   5  -3   53.40    2.14 
   2   5  -3   54.43    2.92 
   2   5  -3   56.99    3.10 
   2   5  -3   59.79    3.42 
   2   5  -3   54.09    2.07 
  -2  -5   3   54.19    2.95 
   2  -5  -3   54.62    2.05 
   2  -5  -3   51.08    1.94 
  -2  -5   3   53.30    2.11 
  -2  -5   3   54.34    2.01 
  -2  -5   3   58.42    2.14 
  -2  -5   3   54.56    2.08 
   2  -5  -3   50.24    2.10 
  -2  -5   3   50.25    2.87 
  -2  -5   3   54.36    2.18 
   2   5  -2  173.54    7.74 
   2   5  -2  195.49    8.28 
   2   5  -2  196.42    8.66 
  -2  -5   2  190.26    8.12 
  -2  -5   2  185.29    7.97 
  -2  -5   2  189.01    6.97 
  -2   5   1   21.36    1.99 
   2   5  -1   21.03    1.95 
  -2  -5   1   22.80    1.95 
  -2  -5   1   22.53    1.93 
  -2   5   0  211.24    9.42 
   2   5   0  193.41    8.73 
  -2   5   0  190.93    8.24 
  -2  -5   0  210.03    8.92 
  -2  -5   0  188.58    8.70 
  -2   5  -1   57.78    3.28 
   2   5   1   61.97    3.84 
  -2   5  -1   55.58    4.39 
  -2  -5  -1   62.85    3.56 
  -2   5  -2  227.72    9.44 
  -2   5  -2  222.74    9.07 
  -2   5  -2  227.78    9.52 
   2  -5   2  228.75    9.46 
  -2  -5  -2  223.40    9.33 
   2  -5   2  207.26    7.58 
  -2  -5  -2  222.16    8.21 
  -2  -5  -2  203.81    7.56 
   2  -5   2  208.95    7.62 
  -2  -5  -2  222.42    8.24 
  -2  -5  -2  224.54    8.33 
  -2  -5  -2  201.23    7.53 
   2  -5   2  228.89    8.49 
  -2   5  -3  133.28    4.82 
  -2   5  -3  146.90    5.38 
  -2   5  -3  140.13    5.32 
   2  -5   3  148.04    5.43 
   2  -5   3  135.59    3.70 
  -2  -5  -3  138.87    4.08 
  -2  -5  -3  139.25    4.04 
   2  -5   3  138.75    3.86 
  -2  -5  -3  135.13    3.93 
  -2  -5  -3  129.09    3.90 
  -2  -5  -3  140.49    4.06 
  -2   5  -4   17.41    1.50 
  -2   5  -4   18.19    1.65 
  -2   5  -4   15.91    1.06 
  -2   5  -4   18.50    1.72 
  -2   5  -4   18.63    1.02 
  -2  -5  -4   17.64    1.09 
   2  -5   4   18.43    1.68 
   2  -5   4   16.37    0.86 
  -2  -5  -4   16.51    1.02 
   2  -5   4   17.67    0.84 
  -2  -5  -4   17.24    1.07 
   2  -5   4   17.65    0.97 
  -2  -5  -4   16.41    0.98 
  -2  -5  -4   17.79    1.07 
  -2  -5  -4   16.38    1.09 
   2  -5   4   16.89    1.10 
  -2   5  -5    0.62    0.46 
  -2   5  -5   -0.21    0.54 
  -2   5  -5    0.29    0.49 
  -2  -5  -5    0.55    0.55 
   2  -5   5    0.19    0.46 
  -2  -5  -5    0.02    0.45 
   2  -5   5    0.10    0.37 
  -2  -5  -5    0.29    0.62 
   2  -5   5    0.24    0.52 
  -2  -5  -5    0.40    0.51 
  -2  -5  -5    0.16    0.58 
  -2  -5  -5    0.38    0.64 
   2  -5   5    0.12    0.53 
  -2   5  -6  123.41    5.21 
  -2   5  -6  119.60    4.83 
  -2   5  -6  124.10    4.83 
  -2   5  -6  126.03    5.11 
  -2   5  -6  104.68    7.45 
  -2  -5  -6  127.69    4.99 
  -2  -5  -6  120.44    4.71 
  -2  -5  -6  122.55    4.80 
   2  -5   6  127.26    4.91 
  -2  -5  -6  121.32    4.72 
  -2  -5  -6  120.41    4.72 
  -2  -5  -6  122.09    4.87 
  -2  -5  -6  125.84    4.98 
   2  -5   6  122.73    4.91 
  -2   5  -7   19.89    2.76 
  -2   5  -7   22.16    2.52 
  -2   5  -7   24.73    2.31 
  -2   5  -7   25.97    2.35 
  -2  -5  -7   26.18    2.27 
  -2  -5  -7   27.14    2.38 
  -2  -5  -7   20.09    2.07 
  -2  -5  -7   24.38    2.11 
  -2  -5  -7   27.22    2.37 
   2  -5   7   21.07    2.12 
   2  -5   7   23.77    2.18 
   2   6  -8    3.75    0.70 
   2   6  -8    2.82    0.76 
   2   6  -7    2.49    0.54 
   2   6  -7    2.87    0.62 
   2   6  -7    2.62    0.59 
   2   6  -7    1.60    0.50 
   2   6  -7    2.64    0.57 
   2   6  -7    2.67    0.67 
   2  -6  -7    2.94    0.70 
   2  -6  -7    2.93    0.69 
  -2  -6   7    2.28    0.44 
  -2  -6   7    2.33    0.62 
  -2  -6   7    2.59    0.68 
   2   6  -6    0.68    0.57 
   2   6  -6    0.72    0.48 
   2   6  -6    0.71    0.45 
   2   6  -6    0.94    0.56 
   2   6  -6    0.68    0.51 
   2   6  -6    0.63    0.44 
  -2  -6   6    0.54    0.48 
  -2  -6   6    1.17    0.52 
   2  -6  -6    1.07    0.59 
  -2  -6   6    1.32    0.66 
   2  -6  -6    1.05    0.62 
   2  -6  -6    0.82    0.64 
  -2  -6   6    0.57    0.57 
   2   6  -5   29.75    1.51 
   2   6  -5   29.88    1.46 
   2   6  -5   27.64    1.32 
   2   6  -5   29.51    1.42 
   2  -6  -5   26.41    1.46 
  -2  -6   5   28.34    1.28 
  -2  -6   5   29.25    1.38 
   2  -6  -5   27.50    1.42 
   2  -6  -5   27.41    1.53 
  -2  -6   5   29.06    1.53 
   2  -6  -5   29.55    1.55 
  -2  -6   5   29.26    1.50 
   2   6  -4  123.45    5.48 
   2   6  -4  126.62    4.98 
   2   6  -4  120.26    4.80 
   2   6  -4  132.17    5.49 
   2   6  -4  127.67    4.19 
   2   6  -4  130.17    4.18 
   2   6  -4  125.44    3.99 
  -2  -6   4  120.61    4.94 
   2  -6  -4  115.57    3.95 
   2  -6  -4  119.81    3.89 
  -2  -6   4  116.63    4.76 
  -2  -6   4  116.02    3.71 
   2  -6  -4  123.51    4.17 
  -2  -6   4  121.76    3.87 
  -2  -6   4  134.56    4.31 
  -2  -6   4  123.70    4.09 
   2  -6  -4  121.44    4.08 
  -2  -6   4  132.19    4.17 
  -2  -6   4  124.59    4.12 
   2   6  -3    0.18    0.63 
   2   6  -3    0.60    0.91 
   2   6  -3    0.84    1.06 
  -2  -6   3    0.51    0.78 
  -2  -6   3    0.46    0.40 
   2  -6  -3    0.71    0.37 
   2  -6  -3    0.94    0.49 
  -2  -6   3    0.36    0.35 
   2  -6  -3    0.25    0.52 
  -2  -6   3    0.47    0.42 
  -2  -6   3    0.37    0.45 
   2   6  -2   20.67    1.83 
   2   6  -2   24.53    1.98 
   2   6  -2   22.99    1.82 
   2   6  -2   23.28    2.13 
  -2  -6   2   23.22    1.89 
  -2  -6   2   26.93    2.02 
  -2  -6   2   26.53    1.25 
   2  -6  -2   25.24    1.31 
  -2  -6   2   24.71    1.17 
  -2  -6   2   26.26    1.29 
  -2   6   1   34.50    2.48 
   2   6  -1   36.31    2.51 
  -2  -6   1   36.40    2.45 
  -2  -6   1   34.47    2.27 
  -2  -6   1   36.50    1.54 
  -2  -6   1   33.56    1.42 
  -2  -6   1   32.35    1.39 
  -2   6   0   72.07    4.31 
   2   6   0   72.63    4.19 
  -2   6   0   64.28    4.09 
  -2  -6   0   70.80    3.83 
  -2  -6   0   66.78    2.77 
  -2  -6   0   65.21    2.79 
  -2  -6   0   68.92    2.84 
  -2   6  -1   24.54    1.83 
   2   6   1   25.34    2.31 
  -2  -6  -1   21.02    1.74 
   2  -6   1   22.23    0.99 
   2  -6   1   22.71    1.01 
  -2  -6  -1   23.57    1.17 
   2  -6   1   24.53    1.22 
  -2  -6  -1   20.79    1.09 
  -2   6  -2  103.71    4.04 
  -2   6  -2  105.02    4.41 
   2  -6   2  102.03    2.88 
  -2  -6  -2  111.07    3.39 
  -2  -6  -2  105.30    3.20 
   2  -6   2  103.21    2.96 
  -2  -6  -2   99.68    3.21 
  -2  -6  -2  104.85    3.20 
  -2   6  -3   93.22    4.29 
  -2   6  -3   83.31    3.65 
   2  -6   3   92.78    4.17 
  -2  -6  -3   90.09    3.16 
  -2  -6  -3   91.14    3.17 
   2  -6   3   91.95    3.01 
  -2  -6  -3   85.14    3.04 
  -2  -6  -3   91.17    3.18 
  -2  -6  -3   91.55    3.16 
   2  -6   3   97.08    3.27 
  -2  -6  -3   92.58    3.22 
  -2   6  -4    6.16    0.58 
  -2   6  -4    6.99    1.15 
  -2  -6  -4    6.62    0.73 
   2  -6   4    6.39    0.53 
  -2  -6  -4    6.22    0.80 
   2  -6   4    5.54    1.16 
  -2  -6  -4    6.39    0.90 
  -2  -6  -4    6.35    0.83 
  -2  -6  -4    6.24    0.68 
  -2  -6  -4    6.11    0.72 
  -2  -6  -4    5.86    0.74 
  -2   6  -5  100.71    3.83 
  -2   6  -5  101.31    3.77 
   2  -6   5  101.59    3.71 
  -2  -6  -5   99.41    3.87 
  -2  -6  -5   89.69    3.50 
  -2  -6  -5   93.96    3.67 
  -2  -6  -5   91.10    3.61 
  -2  -6  -5  102.33    3.91 
  -2  -6  -5   90.00    3.48 
  -2  -6  -5   91.07    3.58 
   2  -6   5   94.13    3.45 
  -2   6  -6   18.10    1.18 
  -2   6  -6   17.31    1.13 
  -2   6  -6   18.07    1.24 
   2  -6   6   16.05    1.37 
  -2  -6  -6   18.96    1.26 
  -2  -6  -6   17.19    1.27 
   2  -6   6   19.47    1.23 
  -2  -6  -6   18.26    1.35 
  -2  -6  -6   20.58    1.39 
  -2  -6  -6   19.61    1.32 
  -2  -6  -6   19.75    1.38 
  -2   6  -7    0.85    0.50 
  -2   6  -7    0.31    0.40 
  -2   6  -7    0.90    0.43 
  -2  -6  -7    1.22    0.58 
  -2  -6  -7    0.65    0.59 
   2  -6   7    0.64    0.41 
  -2  -6  -7    0.58    0.51 
  -2  -6  -7    0.74    0.55 
   2   7  -7    5.08    0.76 
   2   7  -7    4.76    0.77 
   2   7  -7    3.71    0.66 
   2   7  -7    3.87    0.77 
   2   7  -7    4.19    0.68 
   2  -7  -7    4.20    0.71 
   2  -7  -7    5.09    0.81 
  -2  -7   7    4.20    0.73 
  -2  -7   7    3.47    0.56 
   2   7  -6   24.13    1.47 
   2   7  -6   23.05    1.39 
   2   7  -6   24.26    1.57 
   2   7  -6   24.58    1.48 
   2  -7  -6   24.03    1.58 
   2  -7  -6   24.84    1.61 
  -2  -7   6   22.30    1.47 
  -2  -7   6   24.78    1.47 
  -2  -7   6   22.03    1.50 
   2   7  -5    1.48    0.47 
   2   7  -5    1.68    0.53 
  -2  -7   5    1.51    0.39 
   2  -7  -5    2.09    0.65 
  -2  -7   5    2.25    0.59 
   2  -7  -5    1.96    0.71 
  -2  -7   5    2.54    0.58 
  -2  -7   5    2.21    0.61 
   2  -7  -5    1.44    0.58 
   2   7  -4    4.60    1.09 
   2   7  -4    2.83    0.98 
   2   7  -4    3.79    0.59 
   2   7  -4    2.69    1.23 
   2   7  -4    3.61    0.52 
  -2  -7   4    3.46    0.95 
  -2  -7   4    3.29    0.53 
   2  -7  -4    3.92    0.66 
   2  -7  -4    3.94    0.81 
   2  -7  -4    3.72    0.66 
  -2  -7   4    3.06    0.58 
  -2  -7   4    3.63    0.64 
  -2  -7   4    3.36    0.55 
   2   7  -3    0.80    0.76 
   2   7  -3    0.38    0.88 
   2   7  -3    0.96    0.75 
   2   7  -3    0.38    0.93 
   2   7  -3    0.11    0.89 
  -2  -7   3    0.73    0.72 
  -2  -7   3    0.35    0.87 
  -2  -7   3    0.70    0.41 
   2  -7  -3    0.66    0.46 
  -2  -7   3    0.91    0.49 
   2  -7  -3    0.66    0.52 
  -2  -7   3    0.77    0.52 
  -2  -7   3    1.06    0.48 
  -2  -7   3    0.68    0.55 
   2   7  -2   25.31    2.02 
   2   7  -2   24.53    2.05 
   2   7  -2   22.87    1.87 
  -2  -7   2   23.88    1.80 
   2  -7  -2   26.38    1.31 
  -2  -7   2   25.11    1.15 
  -2  -7   2   26.33    1.15 
  -2  -7   2   26.52    1.26 
   2   7  -1   21.66    1.95 
   2   7  -1   20.46    1.99 
  -2  -7   1   21.86    1.80 
  -2  -7   1   22.39    1.16 
  -2  -7   1   21.34    1.04 
  -2   7   0   16.56    1.87 
   2   7   0   16.36    1.80 
  -2  -7   0   15.13    1.50 
   2  -7   0   15.55    0.73 
  -2  -7   0   14.19    0.91 
  -2  -7   0   14.76    0.87 
  -2  -7   0   15.34    0.87 
   2   7   1   51.66    3.17 
  -2   7  -1   52.05    3.32 
   2  -7   1   50.56    1.66 
  -2  -7  -1   51.59    1.90 
  -2  -7  -1   50.90    1.87 
   2  -7   1   51.44    1.74 
  -2  -7  -1   52.87    1.92 
   2   7   2   41.79    2.92 
   2  -7   2   40.25    1.52 
  -2  -7  -2   44.34    1.83 
   2  -7   2   43.78    1.62 
  -2  -7  -2   44.04    1.77 
   2  -7   2   44.41    1.78 
   2   7   3   17.93    1.96 
  -2  -7  -3   22.77    1.27 
  -2  -7  -3   19.90    1.16 
   2  -7   3   20.56    1.01 
  -2  -7  -3   21.77    1.27 
  -2  -7  -3   22.24    1.25 
   2  -7   3   23.25    1.23 
  -2  -7  -4  127.70    4.80 
   2  -7   4  120.85    4.28 
  -2  -7  -4  124.18    4.66 
   2  -7   4  117.41    4.23 
  -2  -7  -4  127.92    4.78 
  -2  -7  -4  127.49    4.72 
   2  -7   4  130.99    4.89 
  -2   7  -5   17.05    0.92 
  -2  -7  -5   20.27    1.26 
   2  -7   5   19.17    0.97 
  -2  -7  -5   19.26    1.15 
  -2  -7  -5   17.70    1.11 
  -2  -7  -5   19.51    1.28 
  -2  -7  -5   20.63    1.27 
  -2  -7  -5   19.15    1.21 
  -2   7  -6    8.79    0.97 
  -2   7  -6   11.21    1.13 
  -2  -7  -6   12.80    1.29 
   2  -7   6    9.44    1.08 
   2  -7   6   10.75    1.06 
  -2  -7  -6   12.63    1.36 
  -2  -7  -6   11.90    1.20 
  -2   7  -7    1.48    0.46 
  -2  -7  -7    1.75    0.55 
   2  -7   7    1.56    0.44 
  -2  -7  -7    1.77    0.56 
  -2  -7  -7    1.60    0.51 
   2   8  -7    1.01    0.44 
   2   8  -7    6.59    1.52 
   2   8  -7    0.76    0.42 
   2   8  -7    0.69    0.42 
  -2  -8   7    0.74    0.44 
   2   8  -6  108.04    8.35 
   2   8  -6   93.13    9.04 
   2   8  -6   93.32    7.25 
   2  -8  -6  108.78   10.55 
  -2  -8   6   98.98    9.52 
   2   8  -5    3.88    0.60 
  -2  -8   5    3.74    0.50 
  -2  -8   5    4.06    0.59 
   2  -8  -5    4.22    0.68 
  -2  -8   5    4.00    0.73 
   2   8  -4  145.09    5.48 
   2   8  -4  159.17    5.74 
  -2  -8   4  142.07    5.14 
   2  -8  -4  162.76    5.95 
  -2  -8   4  159.50    5.83 
  -2  -8   4  161.27    5.77 
  -2  -8   3    9.00    0.76 
  -2  -8   3    7.83    0.70 
  -2  -8   3    8.35    0.73 
  -2  -8   3    8.74    0.71 
  -2  -8   3    9.47    0.81 
   2   8  -2   61.59    3.47 
   2   8  -2   59.77    3.40 
  -2  -8   2   55.52    2.97 
  -2  -8   2   54.76    2.06 
  -2  -8   2   59.33    2.20 
  -2  -8   2   57.64    2.14 
  -2  -8   2   58.40    2.28 
   2   8  -1   14.16    1.60 
   2   8  -1   13.03    1.63 
   2   8  -1   13.44    1.54 
  -2  -8   1   13.21    1.40 
  -2  -8   1   12.57    0.80 
  -2  -8   1   13.76    0.83 
  -2  -8   1   13.24    0.79 
   2   8   0    1.52    1.02 
   2  -8   0    2.00    0.32 
  -2  -8   0    1.56    0.51 
  -2  -8   0    2.66    0.57 
  -2  -8   0    2.29    0.50 
  -2  -8   0    1.58    0.51 
   2   8   1  104.24    4.92 
  -2   8  -1  100.14    4.95 
  -2  -8  -1  108.02    3.56 
   2  -8   1  105.08    3.28 
  -2  -8  -1   91.45    3.05 
  -2  -8  -1  109.90    3.62 
   2  -8   1  103.75    3.28 
  -2  -8  -1  104.81    3.52 
  -2  -8  -1  107.20    3.52 
   2   8   2  156.98    7.27 
  -2   8  -2  155.31    7.31 
  -2  -8  -2  165.43    6.04 
   2  -8   2  155.62    5.56 
  -2  -8  -2  161.03    5.93 
   2  -8   2  163.12    5.83 
  -2  -8  -2  169.39    6.28 
  -2  -8  -2  166.80    6.12 
  -2  -8  -3   92.77    3.40 
  -2  -8  -3   81.33    3.06 
   2  -8   3   84.89    2.99 
  -2  -8  -3   87.70    3.26 
  -2  -8  -4    2.13    0.69 
   2  -8   4    2.49    0.42 
  -2  -8  -4    1.78    0.54 
   2  -8   4    2.07    0.49 
  -2  -8  -4    2.46    0.60 
  -2   8  -5   45.31    3.66 
   2  -8   5   44.92    3.57 
  -2  -8  -5   50.39    4.06 
   2  -8   5   45.43    3.60 
  -2  -8  -5   50.10    4.03 
  -2   8  -6    0.45    0.39 
   2  -8   6    0.16    0.31 
  -2  -8  -6    0.63    0.51 
   2  -8   6    0.55    0.44 
  -2  -8  -6    0.29    0.45 
   2   9  -6    0.83    0.43 
   2   9  -6    0.69    0.43 
  -2  -9   6    0.86    0.41 
  -2  -9   6    0.94    0.49 
   2   9  -5  179.12   13.70 
  -2  -9   5  164.83   12.55 
  -2  -9   5  185.42   14.20 
  -2  -9   4   36.28    1.57 
  -2  -9   4   38.04    1.65 
  -2  -9   4   38.34    1.78 
  -2  -9   3  301.04   10.91 
  -2  -9   3  308.22   11.26 
  -2  -9   3  279.52    9.68 
  -2  -9   3  273.66    9.46 
  -2  -9   3  306.08   11.19 
  -2  -9   2    0.70    0.54 
  -2  -9   2    0.82    0.42 
  -2  -9   2    0.85    0.56 
  -2  -9   2    0.74    0.41 
  -2  -9   2    0.46    0.47 
  -2  -9   1   60.88    2.37 
  -2  -9   1   55.71    2.16 
  -2  -9   1   57.28    2.21 
  -2  -9   1   59.98    2.27 
   2  -9   0   15.42    0.81 
  -2  -9   0   13.68    0.90 
  -2  -9   0   15.50    0.98 
  -2  -9   0   14.72    0.90 
  -2  -9  -1   34.96    1.60 
   2  -9   1   32.66    1.35 
  -2  -9  -1   29.35    1.37 
  -2  -9  -1   31.70    1.47 
  -2  -9  -1   31.98    1.48 
  -2  -9  -2   51.36    2.21 
   2  -9   2   54.91    2.14 
   2  -9   2   50.86    2.05 
  -2  -9  -2   49.92    2.15 
  -2  -9  -2   52.13    2.20 
  -2  -9  -3   16.52    1.11 
   2  -9   3   17.04    0.99 
   2  -9   3   16.80    0.95 
  -2  -9  -3   17.58    1.16 
  -2  -9  -3   16.37    1.12 
  -2  -9  -4    0.00    0.56 
   2  -9   4    0.57    0.41 
   2  -9   4    0.33    0.48 
  -2  -9  -4    0.52    0.62 
  -2  -9  -4    0.67    0.58 
  -2  -9  -5    5.36    0.84 
   2  -9   5    5.28    0.75 
   2  -9   5    5.51    0.74 
  -2  -9  -5    4.82    0.80 
   2  10  -5    6.25    0.84 
  -2 -10   5    7.33    0.94 
  -2 -10   5    7.10    0.98 
  -2 -10   4    2.29    0.47 
  -2 -10   4    2.09    0.49 
  -2 -10   4    2.27    0.56 
  -2 -10   3    1.19    0.52 
  -2 -10   3    0.81    0.49 
  -2 -10   2    1.64    0.59 
  -2 -10   2    1.44    0.45 
  -2 -10   2    1.56    0.57 
  -2 -10   2    1.36    0.44 
  -2 -10   1   32.50    1.58 
  -2 -10   1   33.32    1.58 
  -2 -10   1   32.67    1.55 
  -2 -10   1   31.88    1.52 
   2 -10   0   51.50    2.11 
  -2 -10   0   46.85    2.11 
  -2 -10   0   49.00    2.13 
  -2 -10   0   50.98    2.20 
   2 -10   1   11.78    0.72 
  -2 -10  -1   11.47    0.82 
  -2 -10  -1   11.41    0.88 
  -2 -10  -1   11.59    0.85 
   2 -10   2   45.90    1.80 
   2 -10   2   42.09    1.71 
  -2 -10  -2   42.31    1.85 
  -2 -10  -2   42.76    1.86 
  -2 -10  -3   57.36    4.57 
   2 -10   3   58.21    4.54 
   2 -10   3   56.32    4.41 
  -2 -10  -3   57.05    4.53 
  -2 -10  -3   48.71    3.91 
  -2 -10  -4   10.39    1.25 
   2 -10   4    9.37    1.15 
  -2 -10  -4   10.05    1.23 
  -2 -10  -4    7.50    0.96 
   2 -10   5   13.32    1.76 
   2 -10   5   13.59    3.51 
  -2 -10  -5   17.06    1.79 
  -2 -11   4    0.79    0.33 
  -2 -11   4    1.14    0.40 
  -2 -11   3    4.24    0.65 
  -2 -11   2   12.86    1.23 
  -2 -11   2   13.41    1.24 
  -2 -11   2   11.57    1.11 
  -2 -11   1    2.16    0.51 
  -2 -11   1    1.76    0.54 
  -2 -11   1    1.51    0.42 
  -2 -11   0   12.94    1.23 
  -2 -11   0   13.43    1.26 
  -2 -11   0   13.44    1.26 
   2 -11   1    0.49    0.37 
  -2 -11  -1    0.48    0.55 
   2 -11   2    1.10    0.40 
  -2 -11  -2    1.46    0.50 
   2 -11   3    5.66    0.77 
  -2 -11  -3    5.68    0.86 
  -2 -11  -4    5.93    1.54 
  -2 -12   3    0.95    0.41 
  -2 -12   2    3.33    0.54 
  -2 -12   1   13.72    1.54 
  -2 -12   1   13.94    1.59 
  -2 -12   0    4.96    0.68 
  -2 -12   0    6.37    0.90 
  -2 -12  -1   17.57    1.96 
   2 -12   2    5.91    0.74 
  -2 -12  -2    7.58    0.94 
   3   0  -8  190.13   15.22 
   3   0  -8  235.74   22.57 
   3   0  -8  226.81   17.30 
   3   0  -8  183.25   16.02 
   3   0  -8  245.92   23.51 
   3   0  -8  246.80   23.61 
   3   0  -8  244.28   23.38 
  -3   0   8  240.77   23.13 
   3   0  -7   21.36    1.17 
   3   0  -7   19.94    1.20 
   3   0  -7   22.29    1.32 
   3   0  -7   20.62    1.22 
  -3   0   7   19.28    1.34 
   3   0  -7   19.74    1.34 
   3   0  -7   21.16    1.18 
   3   0  -7   20.34    1.25 
   3   0  -7   21.21    1.28 
   3   0  -7   20.78    1.30 
   3   0  -7   16.98    1.13 
   3   0  -7   19.86    1.27 
  -3   0   7   20.13    1.35 
   3   0  -6  613.35   21.37 
   3   0  -6  674.18   21.33 
   3   0  -6  612.91   21.21 
  -3   0   6  613.93   21.32 
   3   0  -6  655.90   20.82 
   3   0  -6  602.83   21.00 
   3   0  -6  627.52   21.96 
   3   0  -6  620.17   21.62 
   3   0  -6  644.19   20.26 
   3   0  -6  675.36   21.37 
  -3   0   6  672.30   21.22 
  -3   0   5  255.32    9.02 
   3   0  -5  261.82    9.13 
   3   0  -5  249.62    7.55 
   3   0  -5  253.68    7.73 
   3   0  -5  242.83    7.41 
   3   0  -5  234.42    7.14 
  -3   0   5  258.67    7.90 
   3   0  -5  254.17    7.80 
   3   0  -5  261.41    7.78 
  -3   0   5  245.29    8.40 
   3   0  -5  255.77    7.79 
   3   0  -5  264.83    7.98 
   3   0  -5  237.37    7.35 
  -3   0   5  258.22    7.96 
  -3   0   4  284.49   10.00 
   3   0  -4  276.91    9.41 
  -3   0   4  310.98   10.79 
   3   0  -4  269.87    9.48 
   3   0  -4  260.98    8.99 
   3   0  -4  272.94    9.83 
   3   0  -4  288.76    8.72 
   3   0  -4  255.46    7.66 
   3   0  -4  247.90    9.38 
  -3   0   4  270.84    8.27 
   3   0  -4  279.96    8.43 
   3   0  -4  266.37    8.17 
  -3   0   4  253.15    8.08 
   3   0  -4  284.55    8.49 
   3   0  -4  264.17    7.98 
   3   0  -4  263.60    8.14 
  -3   0   4  274.59    8.84 
  -3   0   3   28.26    2.16 
   3   0  -3   27.80    1.99 
  -3   0   3   28.29    2.13 
  -3   0   3   26.08    2.11 
   3   0  -3   26.19    2.17 
   3   0  -3   26.66    1.89 
   3   0  -2   17.35    1.78 
  -3   0   2   18.36    1.79 
   3   0  -2   22.91    1.97 
  -3   0   2   19.31    1.82 
   3   0  -2   28.61    2.22 
  -3   0   1  799.26   41.62 
   3   0  -1  776.30   40.51 
   3   0  -1  761.07   39.30 
   3   0   0  288.18   15.76 
  -3   0   0  298.80   16.14 
   3   0   0  314.33   16.68 
   3   0   1   22.34    2.19 
  -3   0  -1   23.79    2.27 
  -3   0  -1   24.41    2.18 
  -3   0  -2   12.15    1.32 
  -3   0  -2   11.54    1.57 
  -3   0  -2   11.99    1.47 
  -3   0  -3  216.64    8.80 
  -3   0  -3  220.89    9.54 
  -3   0  -3  221.31    8.07 
  -3   0  -3  209.57    7.70 
  -3   0  -4   63.35    2.96 
  -3   0  -4   65.71    3.54 
  -3   0  -4   72.86    3.47 
  -3   0  -4   67.43    2.17 
  -3   0  -4   66.53    2.11 
   3   0   4   65.92    2.17 
  -3   0  -4   67.50    2.26 
  -3   0  -4   62.30    2.14 
  -3   0  -4   64.64    2.17 
  -3   0  -5   19.55    1.82 
  -3   0  -5   23.43    1.18 
   3   0   5   19.58    1.05 
  -3   0  -5   22.00    1.20 
  -3   0  -5   23.58    1.23 
  -3   0  -5   24.90    1.33 
  -3   0  -6    1.58    0.61 
  -3   0  -6    1.15    0.44 
  -3   0  -6    1.39    0.68 
  -3   0  -6    1.00    0.58 
  -3   0  -6    1.57    0.93 
   3   0   6    1.04    0.58 
  -3   0  -7    0.56    0.59 
  -3   0  -7    0.47    0.40 
  -3   0  -7    1.01    0.57 
  -3   0  -7    0.68    0.58 
  -3   0  -7    0.61    0.62 
  -3   0  -7    1.03    0.78 
   3   0   7    1.53    0.77 
  -3   0  -8   16.84    2.07 
   3   0   8   17.82    1.89 
  -3   0  -8   16.84    1.81 
  -3   0  -8   16.51    2.26 
  -3   0  -8    9.32    2.51 
   3   0   8   13.73    2.29 
   3   1  -8    8.39    1.15 
   3   1  -8    9.00    1.23 
  -3   1   8   10.11    1.36 
   3   1  -8    9.85    1.24 
   3   1  -8   11.84    1.34 
   3   1  -8   12.24    1.50 
   3   1  -8   12.26    1.39 
   3  -1  -8   11.01    1.29 
   3  -1  -8   12.22    1.40 
   3  -1  -8   11.72    1.35 
   3  -1  -8   11.57    1.49 
   3  -1  -8   11.47    1.43 
   3  -1  -8   12.00    1.43 
   3  -1  -8   12.58    1.54 
  -3  -1   8   13.50    1.64 
   3   1  -7   60.75    2.53 
  -3   1   7   65.04    2.92 
   3   1  -7   60.12    3.17 
   3   1  -7   53.45    2.75 
   3   1  -7   63.01    2.74 
   3   1  -7   64.42    2.73 
   3   1  -7   60.94    2.75 
   3   1  -7   66.66    2.95 
   3   1  -7   65.73    2.74 
   3  -1  -7   63.48    2.83 
   3  -1  -7   64.13    2.70 
   3  -1  -7   61.83    2.63 
   3  -1  -7   65.05    2.83 
   3  -1  -7   68.09    2.89 
   3  -1  -7   64.47    2.84 
   3  -1  -7   60.87    2.72 
   3  -1  -7   68.33    2.89 
  -3  -1   7   69.78    3.11 
  -3  -1   7   66.33    3.02 
   3   1  -6    7.49    0.88 
   3   1  -6    6.67    0.61 
   3   1  -6    6.95    0.69 
   3   1  -6    7.71    0.80 
   3   1  -6    8.02    0.85 
   3   1  -6    7.28    0.74 
  -3   1   6    6.86    0.86 
   3   1  -6    7.35    0.74 
  -3   1   6    7.49    0.85 
   3   1  -6    7.52    0.84 
   3  -1  -6    6.77    0.69 
  -3  -1   6    6.88    1.13 
   3  -1  -6    7.16    0.68 
   3  -1  -6    7.24    0.77 
   3  -1  -6    6.78    0.77 
   3  -1  -6    7.53    0.86 
  -3  -1   6    6.43    0.73 
   3  -1  -6    8.29    0.89 
   3  -1  -6    7.45    0.77 
   3  -1  -6    8.09    0.76 
  -3  -1   6    6.41    0.96 
   3  -1  -6    7.26    0.93 
  -3  -1   6    6.18    0.88 
  -3   1   5   17.96    1.66 
   3   1  -5   17.19    1.11 
   3   1  -5   15.53    1.63 
   3   1  -5   16.00    1.65 
   3   1  -5   17.30    1.79 
   3   1  -5   18.76    1.14 
   3   1  -5   18.55    0.99 
   3   1  -5   17.41    0.96 
  -3   1   5   21.50    1.28 
   3   1  -5   19.18    1.00 
  -3   1   5   18.81    1.17 
   3   1  -5   16.54    0.97 
   3   1  -5   18.92    1.02 
   3  -1  -5   18.60    1.03 
   3  -1  -5   18.59    1.11 
   3  -1  -5   18.93    1.00 
   3  -1  -5   18.87    0.99 
   3  -1  -5   19.79    1.10 
   3  -1  -5   18.64    1.02 
  -3  -1   5   18.22    1.04 
   3  -1  -5   18.89    1.06 
   3  -1  -5   16.85    0.94 
   3  -1  -5   18.02    1.10 
  -3  -1   5   19.38    1.84 
  -3  -1   5   20.04    1.23 
  -3  -1   5   19.26    1.25 
   3   1  -4   75.85    2.85 
   3   1  -4   81.97    3.72 
   3   1  -4   81.18    3.63 
  -3   1   4   94.76    4.46 
   3   1  -4   85.81    3.02 
   3   1  -4   82.11    3.98 
   3   1  -4   78.23    2.74 
  -3   1   4   81.43    2.97 
   3   1  -4   83.12    2.83 
   3   1  -4   82.31    2.84 
   3   1  -4   81.63    2.86 
   3   1  -4   78.45    2.72 
   3   1  -4   80.58    2.80 
  -3   1   4   73.56    3.03 
  -3  -1   4   88.84    4.25 
   3  -1  -4   77.61    2.71 
   3  -1  -4   81.64    2.83 
   3  -1  -4   76.62    3.55 
  -3  -1   4   83.18    3.02 
   3  -1  -4   78.43    2.77 
   3  -1  -4   79.03    3.78 
   3  -1  -4   75.19    2.79 
  -3  -1   4   75.67    3.74 
  -3  -1   4   77.91    2.85 
  -3  -1   4   87.64    3.24 
   3   1  -3   86.03    4.44 
   3   1  -3   96.44    4.54 
  -3   1   3   86.08    4.47 
  -3   1   3   97.15    4.92 
   3   1  -3   92.97    4.49 
   3   1  -3   94.73    4.86 
  -3   1   3   92.28    4.58 
  -3  -1   3   98.23    4.92 
   3  -1  -3   92.96    4.50 
   3  -1  -3   88.17    4.54 
  -3  -1   3   85.54    4.23 
   3  -1  -3   95.00    4.54 
  -3  -1   3   90.82    4.61 
  -3   1   2  187.03   10.36 
  -3   1   2  200.33   11.20 
   3   1  -2  196.97   11.05 
   3   1  -2  184.28   10.52 
  -3  -1   2  188.93   10.70 
  -3  -1   2  201.45   11.42 
   3  -1  -2  181.75   10.47 
   3  -1  -2  192.63   10.77 
   3   1  -1  584.78   30.85 
   3   1  -1  749.94   38.93 
  -3   1   1  683.28   35.50 
   3  -1  -1  657.40   34.32 
  -3  -1   1  689.62   35.90 
  -3  -1   1  729.34   37.94 
   3   1   0   58.22    4.11 
   3  -1   0   62.05    4.14 
  -3  -1   0   62.24    4.11 
  -3   1  -1   11.05    1.26 
  -3   1  -1   12.39    1.50 
   3   1   1   11.11    1.59 
  -3   1  -1   11.57    1.77 
   3  -1   1   11.33    1.48 
  -3  -1  -1   12.00    1.53 
  -3   1  -2  304.53   12.02 
  -3   1  -2  339.90   13.33 
  -3   1  -2  337.38   13.70 
  -3  -1  -2  335.40   13.35 
  -3   1  -3   11.63    1.43 
  -3   1  -3   12.16    1.32 
  -3   1  -3   11.70    0.83 
  -3   1  -3   12.54    1.67 
  -3   1  -3   13.46    0.99 
  -3   1  -3   12.50    0.80 
   3   1   3   12.49    0.93 
  -3  -1  -3   11.87    1.24 
  -3  -1  -3   11.79    0.78 
  -3  -1  -3   12.06    0.80 
   3  -1   3   13.50    0.84 
   3  -1   3   12.33    0.75 
  -3  -1  -3   12.60    0.85 
  -3  -1  -3   11.44    1.44 
  -3  -1  -3   11.48    0.88 
  -3  -1  -3   13.21    1.59 
  -3  -1  -3   12.64    0.89 
   3  -1   3   12.95    0.97 
  -3   1  -4   13.99    1.37 
  -3   1  -4   15.80    1.83 
  -3   1  -4   15.95    0.92 
   3   1   4   12.27    0.77 
  -3   1  -4   13.87    0.77 
  -3   1  -4   16.39    1.08 
   3   1   4   14.15    1.03 
  -3   1  -4   14.37    0.87 
  -3   1  -4   13.20    0.88 
  -3   1  -4   14.33    0.90 
  -3  -1  -4   15.45    0.89 
   3  -1   4   15.33    0.84 
  -3  -1  -4   14.79    0.87 
  -3  -1  -4   13.13    1.48 
  -3  -1  -4   14.87    0.91 
  -3  -1  -4   17.70    0.96 
   3  -1   4   12.18    0.67 
  -3  -1  -4   14.26    0.79 
  -3   1  -5   14.00    0.94 
  -3   1  -5   13.18    1.34 
  -3   1  -5   15.70    0.99 
  -3   1  -5   13.82    1.54 
  -3   1  -5   15.71    0.98 
  -3   1  -5   14.89    0.90 
  -3   1  -5   16.84    1.26 
   3   1   5   15.58    1.22 
  -3   1  -5   14.68    0.94 
   3  -1   5   14.22    0.85 
  -3  -1  -5   15.53    1.01 
  -3  -1  -5   11.75    1.39 
  -3  -1  -5   15.27    1.00 
  -3  -1  -5   14.76    1.63 
  -3  -1  -5   12.89    0.93 
  -3  -1  -5   15.39    0.95 
  -3  -1  -5   15.54    1.20 
  -3  -1  -5   15.23    0.87 
  -3  -1  -5   13.98    0.89 
   3  -1   5   16.38    1.23 
  -3   1  -6   20.41    1.20 
  -3   1  -6   18.97    1.11 
   3   1   6   20.35    1.39 
  -3   1  -6   18.79    1.07 
  -3   1  -6   18.91    1.17 
  -3   1  -6   15.58    1.11 
  -3  -1  -6   20.39    1.25 
   3  -1   6   14.80    1.01 
  -3  -1  -6   20.75    1.21 
  -3  -1  -6   19.65    1.16 
  -3  -1  -6   19.40    1.17 
  -3  -1  -6   20.08    1.18 
  -3  -1  -6   20.14    1.39 
  -3  -1  -6   17.71    1.05 
   3  -1   6   19.06    1.35 
   3   1   7   10.97    1.23 
  -3   1  -7   10.28    1.20 
  -3   1  -7    9.89    1.11 
  -3   1  -7    9.14    1.40 
  -3   1  -7   11.21    1.21 
  -3   1  -7    6.57    1.15 
  -3  -1  -7    9.66    1.14 
  -3  -1  -7   11.40    1.18 
  -3  -1  -7   11.15    1.17 
  -3  -1  -7   10.39    1.53 
  -3  -1  -7    9.11    1.28 
  -3  -1  -7   10.54    1.14 
   3   1   8   19.34    2.03 
  -3   1  -8   15.29    1.90 
   3   1   8   16.11    2.04 
  -3  -1  -8   16.22    1.83 
  -3  -1  -8   14.80    1.95 
  -3  -1  -8    5.16    2.15 
  -3  -1  -8   15.65    2.24 
   3   2  -8    5.52    0.76 
   3   2  -8    6.45    1.02 
   3   2  -8    6.21    0.94 
   3   2  -8    6.69    0.92 
   3   2  -8    6.80    0.98 
   3   2  -8    6.52    0.90 
   3   2  -8    4.27    0.82 
   3   2  -8    6.05    0.97 
   3  -2  -8    7.50    1.06 
   3  -2  -8    6.21    0.96 
   3  -2  -8    6.60    0.93 
   3  -2  -8    7.02    0.99 
  -3  -2   8    6.32    1.08 
   3   2  -7    1.98    0.47 
   3   2  -7    2.50    0.73 
   3   2  -7    2.28    0.55 
   3   2  -7    2.40    0.66 
   3   2  -7    2.49    0.72 
   3   2  -7    2.54    0.63 
   3   2  -7    2.45    0.72 
  -3   2   7    2.18    0.60 
   3   2  -7    1.86    0.64 
   3   2  -7    2.68    0.55 
   3  -2  -7    2.19    0.53 
  -3  -2   7    1.85    0.53 
   3  -2  -7    2.47    0.66 
   3  -2  -7    2.74    0.72 
   3  -2  -7    1.56    0.59 
   3  -2  -7    1.99    0.49 
   3  -2  -7    1.96    0.57 
  -3  -2   7    2.30    0.84 
   3  -2  -7    2.37    0.78 
  -3  -2   7    2.35    0.76 
   3   2  -6   17.07    0.91 
   3   2  -6   16.02    1.02 
  -3   2   6   18.04    1.21 
   3   2  -6   15.69    1.02 
   3   2  -6   17.65    1.04 
  -3   2   6   16.13    1.09 
   3   2  -6   16.91    1.10 
   3   2  -6   17.25    0.99 
   3   2  -6   16.35    1.12 
   3   2  -6   16.45    1.04 
   3  -2  -6   17.01    1.02 
   3  -2  -6   17.95    1.15 
  -3  -2   6   16.36    1.08 
   3  -2  -6   17.61    1.08 
   3  -2  -6   16.76    0.98 
   3  -2  -6   16.67    1.02 
  -3  -2   6   18.52    1.26 
   3  -2  -6   18.03    1.15 
   3  -2  -6   17.98    1.20 
   3   2  -5    1.62    0.56 
   3   2  -5    2.09    0.94 
   3   2  -5    2.22    0.84 
   3   2  -5    2.18    0.92 
  -3   2   5    1.49    0.44 
   3   2  -5    2.09    0.48 
   3   2  -5    2.07    0.54 
   3   2  -5    1.85    0.54 
   3   2  -5    1.79    0.53 
  -3   2   5    1.42    0.56 
   3   2  -5    2.24    0.50 
  -3  -2   5    2.09    0.64 
   3  -2  -5    1.71    0.54 
  -3  -2   5    2.43    0.98 
   3  -2  -5    1.60    0.54 
   3  -2  -5    1.29    0.48 
   3  -2  -5    1.88    0.51 
   3  -2  -5    1.69    0.51 
   3  -2  -5    1.96    0.54 
  -3  -2   5    1.81    0.55 
   3   2  -4   13.77    0.82 
   3   2  -4   12.85    0.83 
  -3   2   4   13.91    1.52 
   3   2  -4   14.44    1.60 
   3   2  -4   14.52    1.35 
  -3   2   4   11.59    0.97 
   3   2  -4   14.50    0.84 
   3   2  -4   13.90    0.81 
   3   2  -4   13.18    0.85 
  -3  -2   4   13.02    1.42 
   3  -2  -4   11.97    0.74 
   3  -2  -4   14.04    0.99 
   3  -2  -4   11.69    0.78 
   3  -2  -4   14.28    0.86 
  -3  -2   4   13.16    1.52 
  -3  -2   4   14.27    1.00 
  -3  -2   4   12.98    0.89 
   3  -2  -4   13.37    0.85 
   3  -2  -4   13.10    0.79 
   3  -2  -4   15.26    0.97 
   3  -2  -4   14.57    0.90 
   3   2  -3   29.60    2.25 
   3   2  -3   29.73    2.10 
   3   2  -3   30.57    2.12 
  -3   2   3   30.04    2.14 
  -3   2   3   28.95    2.28 
   3   2  -3   32.71    2.56 
  -3  -2   3   32.98    2.39 
   3   2  -2   42.28    2.76 
  -3   2   2   35.74    2.38 
   3   2  -2   36.31    2.45 
  -3   2   2   42.50    2.65 
   3  -2  -2   41.64    2.71 
  -3  -2   2   44.14    2.81 
   3   2  -1   57.06    3.94 
  -3   2   1   59.36    4.04 
   3  -2  -1   49.04    3.39 
  -3  -2   1   57.56    3.88 
  -3  -2   1   54.54    3.70 
  -3   2   0  375.80   20.03 
   3   2   0  429.20   22.86 
  -3   2   0  414.73   22.20 
   3  -2   0  376.82   19.92 
  -3  -2   0  434.14   22.97 
  -3  -2   0  419.41   22.23 
  -3   2  -1    3.62    0.72 
   3   2   1    4.15    1.17 
  -3   2  -1    4.19    1.02 
  -3   2  -1    2.86    1.02 
  -3  -2  -1    3.77    0.96 
  -3   2  -2   11.85    1.27 
  -3   2  -2   10.52    1.14 
  -3   2  -2   11.42    1.72 
  -3   2  -2   11.66    1.44 
  -3  -2  -2   11.36    1.41 
  -3  -2  -2   12.13    1.36 
  -3   2  -3  206.19    7.35 
  -3   2  -3  201.49    7.89 
  -3   2  -3  189.41    7.07 
  -3   2  -3  199.85    6.16 
  -3   2  -3  219.63    8.05 
   3   2   3  193.66    6.23 
  -3   2  -3  204.38    6.30 
  -3   2  -3  220.92    6.92 
  -3  -2  -3  209.58    6.39 
   3  -2   3  208.80    6.25 
   3  -2   3  209.92    6.32 
  -3  -2  -3  213.45    6.59 
  -3  -2  -3  208.38    6.40 
  -3  -2  -3  192.33    7.16 
  -3  -2  -3  200.91    6.36 
  -3  -2  -3  209.40    6.51 
  -3  -2  -3  205.82    6.30 
   3  -2   3  219.58    6.87 
  -3   2  -4   34.80    2.15 
  -3   2  -4   33.75    2.64 
  -3   2  -4   27.80    1.89 
  -3   2  -4   34.15    1.43 
  -3   2  -4   34.33    2.36 
   3   2   4   32.06    1.56 
  -3   2  -4   32.63    1.29 
  -3   2  -4   34.55    1.37 
  -3   2  -4   33.86    1.43 
  -3   2  -4   36.54    1.65 
  -3  -2  -4   34.12    1.38 
  -3  -2  -4   33.87    2.26 
  -3  -2  -4   35.41    1.47 
  -3  -2  -4   34.94    1.49 
  -3  -2  -4   34.90    1.51 
  -3  -2  -4   34.19    1.46 
  -3  -2  -4   36.11    1.65 
   3  -2   4   35.43    1.36 
   3  -2   4   33.63    1.27 
   3  -2   4   35.83    1.62 
  -3   2  -5   14.88    1.45 
  -3   2  -5   17.57    1.08 
  -3   2  -5   17.62    1.08 
  -3   2  -5   16.92    0.97 
  -3   2  -5   19.16    1.34 
   3   2   5   18.06    1.28 
  -3   2  -5   16.04    1.02 
  -3   2  -5   16.20    1.07 
  -3  -2  -5   17.35    1.09 
   3  -2   5   16.94    1.01 
  -3  -2  -5   16.79    1.11 
  -3  -2  -5   16.91    1.67 
  -3  -2  -5   17.31    1.08 
  -3  -2  -5   16.65    1.03 
  -3  -2  -5   16.34    1.20 
  -3  -2  -5   16.18    0.96 
  -3  -2  -5   16.30    1.00 
   3  -2   5   17.46    1.26 
  -3   2  -6   33.13    1.64 
  -3   2  -6   31.02    1.51 
  -3   2  -6   30.07    1.80 
   3   2   6   31.50    1.71 
  -3   2  -6   30.00    1.43 
  -3   2  -6   27.04    1.90 
  -3   2  -6   25.88    1.46 
   3  -2   6   25.04    1.42 
  -3  -2  -6   30.07    1.55 
  -3  -2  -6   27.94    1.53 
  -3  -2  -6   31.48    1.58 
  -3  -2  -6   28.75    1.46 
  -3  -2  -6   32.59    1.81 
  -3  -2  -6   27.53    1.35 
  -3  -2  -6   29.07    1.46 
   3  -2   6   30.91    1.72 
   3   2   7   50.34    4.15 
  -3   2  -7   45.57    4.80 
  -3   2  -7   51.60    4.72 
  -3   2  -7   51.30    4.14 
  -3   2  -7   32.19    4.12 
  -3   2  -7   51.22    4.38 
  -3  -2  -7   43.41    3.75 
  -3  -2  -7   51.92    4.18 
  -3  -2  -7   55.62    4.44 
  -3  -2  -7   42.20    4.68 
  -3  -2  -7   50.84    4.60 
  -3  -2  -7   53.84    4.61 
   3  -2   7   58.95    4.80 
   3   2   8   12.69    1.46 
  -3   2  -8    7.03    1.54 
   3   2   8    7.71    1.06 
  -3  -2  -8    3.51    1.23 
  -3  -2  -8   10.61    1.30 
  -3  -2  -8    3.25    1.19 
  -3  -2  -8    8.97    1.14 
  -3  -2  -8    9.69    1.27 
   3  -2   8    6.04    2.29 
   3   3  -8    4.20    0.66 
   3   3  -8    5.21    0.82 
   3   3  -8    4.74    0.81 
   3   3  -8    4.86    0.76 
   3   3  -8    4.20    0.74 
   3   3  -8    4.32    0.85 
   3   3  -8    3.10    0.68 
   3  -3  -8    5.76    0.93 
   3  -3  -8    5.05    0.84 
   3  -3  -8    4.19    0.82 
   3  -3  -8    4.23    0.79 
   3   3  -7   16.45    0.91 
   3   3  -7   14.62    0.97 
   3   3  -7   16.95    1.08 
   3   3  -7   17.00    1.05 
   3   3  -7   17.20    1.02 
   3   3  -7   16.87    1.00 
   3   3  -7   13.69    1.06 
   3   3  -7   15.57    1.01 
   3   3  -7   16.20    1.05 
   3  -3  -7   17.30    1.22 
   3  -3  -7   16.65    1.05 
  -3  -3   7   15.41    1.04 
   3  -3  -7   17.22    1.06 
   3  -3  -7   16.36    1.10 
  -3  -3   7   16.68    1.19 
   3   3  -6   26.16    1.39 
   3   3  -6   26.57    1.36 
   3   3  -6   25.06    1.35 
   3   3  -6   26.42    1.40 
   3   3  -6   26.73    1.50 
   3   3  -6   25.74    1.44 
   3   3  -6   24.55    1.21 
   3   3  -6   28.11    1.47 
   3  -3  -6   27.34    1.40 
   3  -3  -6   27.19    1.58 
   3  -3  -6   27.84    1.47 
   3  -3  -6   26.55    1.42 
   3  -3  -6   24.66    1.31 
   3  -3  -6   24.61    1.42 
  -3  -3   6   26.79    1.41 
  -3  -3   6   26.92    1.53 
   3   3  -5   41.18    1.70 
   3   3  -5   41.18    2.44 
   3   3  -5   43.03    1.76 
   3   3  -5   39.69    2.61 
   3   3  -5   43.73    2.39 
   3   3  -5   36.14    2.64 
   3   3  -5   41.39    1.67 
   3   3  -5   41.12    1.63 
   3   3  -5   40.64    1.82 
   3   3  -5   42.77    1.72 
   3   3  -5   41.75    1.70 
  -3  -3   5   38.31    1.55 
   3  -3  -5   43.58    1.79 
   3  -3  -5   43.25    1.73 
  -3  -3   5   40.78    1.73 
   3  -3  -5   41.43    1.75 
  -3  -3   5   45.93    2.69 
   3  -3  -5   43.30    1.74 
  -3  -3   5   41.82    2.55 
   3  -3  -5   45.16    1.88 
  -3  -3   5   46.05    2.02 
   3   3  -4   31.46    2.12 
   3   3  -4   34.49    1.43 
   3   3  -4   32.49    2.04 
   3   3  -4   35.51    2.46 
   3   3  -4   33.15    2.01 
   3   3  -4   34.36    1.35 
   3   3  -4   34.73    1.57 
   3   3  -4   35.18    1.37 
   3   3  -4   33.20    1.34 
   3   3  -4   33.90    1.43 
   3  -3  -4   34.78    1.41 
   3  -3  -4   35.39    1.41 
  -3  -3   4   37.73    2.37 
   3  -3  -4   36.12    1.46 
  -3  -3   4   33.47    1.50 
  -3  -3   4   32.34    1.33 
  -3  -3   4   35.17    1.47 
   3  -3  -4   30.54    1.28 
   3  -3  -4   32.87    1.38 
   3  -3  -4   31.85    1.40 
   3   3  -3    7.46    1.26 
   3   3  -3    6.17    0.57 
  -3   3   3    5.53    0.91 
   3   3  -3    6.23    0.64 
  -3   3   3    7.30    1.14 
   3   3  -3    7.44    1.38 
   3   3  -3    6.35    1.09 
   3   3  -3    6.97    0.57 
   3   3  -3    6.35    0.71 
   3  -3  -3    6.70    0.59 
  -3  -3   3    6.89    0.70 
  -3  -3   3    6.70    0.58 
  -3  -3   3    6.71    1.15 
  -3  -3   3    7.17    0.59 
  -3  -3   3    6.82    1.12 
   3  -3  -3    7.30    0.76 
  -3  -3   3    7.47    0.79 
   3   3  -2   56.52    3.31 
  -3   3   2   63.56    3.44 
  -3   3   2   68.41    3.66 
  -3  -3   2   61.79    3.43 
  -3  -3   2   61.02    3.51 
  -3  -3   2   67.81    3.70 
   3   3  -1    1.62    1.09 
  -3   3   1    1.25    0.86 
  -3  -3   1    1.58    0.84 
  -3   3   0   16.86    1.69 
   3   3   0   15.25    1.87 
  -3   3   0   16.60    1.95 
  -3  -3   0   16.74    1.66 
  -3  -3   0   16.20    1.67 
  -3   3  -1   37.13    2.34 
  -3   3  -1   38.81    2.62 
   3   3   1   37.96    2.86 
  -3   3  -1   33.76    2.23 
  -3  -3  -1   37.59    2.54 
  -3  -3  -1   35.70    2.42 
  -3   3  -2  170.93    7.27 
  -3   3  -2  150.29    6.51 
  -3   3  -2  145.55    7.01 
  -3   3  -2  159.90    7.10 
  -3  -3  -2  153.60    6.84 
  -3   3  -3  131.96    5.38 
  -3   3  -3  134.36    4.49 
  -3   3  -3  122.53    5.61 
  -3   3  -3  117.00    4.75 
  -3   3  -3  135.44    5.56 
  -3   3  -3  128.04    4.13 
  -3   3  -3  122.44    4.00 
   3   3   3  130.25    4.42 
  -3  -3  -3  124.75    5.18 
  -3  -3  -3  130.99    4.22 
  -3  -3  -3  127.86    4.21 
   3  -3   3  129.25    4.03 
  -3  -3  -3  124.81    4.16 
  -3  -3  -3  139.71    4.52 
  -3  -3  -3  125.09    4.06 
  -3  -3  -3  124.90    4.08 
  -3  -3  -3  131.85    4.43 
   3  -3   3  136.48    4.20 
  -3  -3  -3  128.99    4.14 
   3  -3   3  132.88    4.44 
  -3   3  -4   17.64    1.58 
  -3   3  -4   17.00    1.99 
  -3   3  -4   15.74    1.44 
   3   3   4   17.60    1.13 
  -3   3  -4   16.33    1.75 
  -3   3  -4   19.12    1.08 
  -3   3  -4   16.47    0.86 
  -3   3  -4   18.74    1.20 
  -3   3  -4   17.16    0.97 
  -3  -3  -4   16.19    1.59 
  -3  -3  -4   16.89    1.00 
  -3  -3  -4   18.28    1.07 
   3  -3   4   17.58    0.91 
  -3  -3  -4   14.86    1.00 
  -3  -3  -4   16.38    1.01 
  -3  -3  -4   16.39    1.00 
  -3  -3  -4   15.64    0.97 
  -3  -3  -4   18.01    1.19 
   3  -3   4   17.18    0.85 
  -3  -3  -4   17.34    0.94 
   3  -3   4   16.82    1.11 
  -3   3  -5   49.11    2.82 
  -3   3  -5   49.07    3.41 
  -3   3  -5   44.27    3.07 
  -3   3  -5   54.01    2.47 
  -3   3  -5   49.62    2.11 
  -3   3  -5   45.05    2.13 
  -3   3  -5   52.34    2.25 
  -3   3  -5   51.63    2.29 
   3   3   5   55.95    2.56 
  -3   3  -5   51.85    2.23 
  -3  -3  -5   52.10    2.28 
  -3  -3  -5   50.53    2.21 
  -3  -3  -5   49.15    2.21 
  -3  -3  -5   44.01    2.06 
  -3  -3  -5   53.28    2.32 
   3  -3   5   46.62    2.05 
  -3  -3  -5   50.48    2.22 
  -3  -3  -5   48.60    2.08 
  -3  -3  -5   50.61    2.36 
  -3  -3  -5   50.64    2.19 
   3  -3   5   53.32    2.21 
   3  -3   5   51.78    2.38 
  -3   3  -6    8.14    0.93 
  -3   3  -6   12.55    0.89 
  -3   3  -6   10.15    0.97 
  -3   3  -6   12.12    1.10 
  -3   3  -6   12.30    0.97 
   3   3   6   11.69    1.08 
  -3   3  -6   12.94    1.01 
  -3  -3  -6   12.87    1.03 
  -3  -3  -6   11.36    0.97 
  -3  -3  -6   12.70    1.02 
  -3  -3  -6   12.31    0.96 
  -3  -3  -6   12.18    0.94 
  -3  -3  -6    8.87    0.86 
  -3  -3  -6   13.01    1.14 
  -3  -3  -6   13.36    0.96 
   3  -3   6   11.49    1.06 
   3  -3   6   13.04    1.10 
   3   3   7    6.07    1.01 
  -3   3  -7    4.49    0.88 
  -3   3  -7    6.24    0.79 
  -3   3  -7    5.09    1.24 
  -3   3  -7    7.34    0.90 
  -3   3  -7    1.92    0.88 
  -3   3  -7    6.22    0.89 
  -3  -3  -7    6.87    0.95 
  -3  -3  -7    4.96    0.84 
  -3  -3  -7    5.89    1.10 
  -3  -3  -7    5.37    0.81 
  -3  -3  -7    6.37    0.89 
   3  -3   7    3.72    0.63 
  -3  -3  -7    5.65    1.03 
  -3  -3  -7    7.34    0.89 
  -3  -3  -7    7.15    0.94 
   3  -3   7    7.28    1.03 
   3   4  -8    0.88    0.39 
   3   4  -8    0.80    0.50 
   3   4  -8    0.61    0.46 
   3   4  -8    1.37    0.60 
   3   4  -8    1.16    0.48 
   3   4  -8    0.72    0.50 
   3  -4  -8    0.62    0.47 
   3  -4  -8    0.90    0.56 
   3  -4  -8    0.91    0.47 
  -3  -4   8    1.08    0.67 
   3   4  -7    1.44    0.42 
   3   4  -7    1.68    0.74 
   3   4  -7    1.28    0.60 
   3   4  -7    1.43    0.62 
   3   4  -7    1.38    0.56 
   3   4  -7    0.93    0.60 
   3  -4  -7    1.08    0.70 
   3  -4  -7    1.51    0.70 
   3  -4  -7    1.13    0.54 
  -3  -4   7    1.45    0.54 
   3  -4  -7    1.34    0.50 
  -3  -4   7    1.10    0.77 
   3  -4  -7    1.14    0.61 
  -3  -4   7    1.32    0.74 
   3   4  -6   13.32    0.97 
   3   4  -6   12.80    0.87 
   3   4  -6   13.10    1.12 
   3   4  -6   12.32    0.92 
   3   4  -6   12.79    0.98 
   3   4  -6   12.58    0.93 
   3   4  -6   12.98    0.93 
   3  -4  -6   12.22    0.97 
  -3  -4   6   12.31    0.84 
   3  -4  -6   13.21    0.97 
  -3  -4   6   11.65    0.94 
   3  -4  -6   12.40    0.90 
  -3  -4   6   13.04    1.12 
   3  -4  -6   12.04    1.00 
  -3  -4   6   13.61    1.12 
   3   4  -5   12.98    0.86 
   3   4  -5   13.36    1.37 
   3   4  -5   13.91    1.53 
   3   4  -5   12.18    1.26 
   3   4  -5   12.50    1.74 
   3   4  -5   14.00    0.93 
   3   4  -5   13.99    0.86 
   3   4  -5   14.28    1.01 
   3   4  -5   14.72    0.95 
   3   4  -5   13.58    0.95 
  -3  -4   5   13.50    1.13 
   3  -4  -5   14.96    1.10 
  -3  -4   5   15.34    1.58 
   3  -4  -5   13.07    0.88 
   3  -4  -5   13.74    0.96 
  -3  -4   5   14.42    1.01 
   3  -4  -5   13.31    0.90 
   3  -4  -5   14.41    0.92 
  -3  -4   5   13.35    0.85 
  -3  -4   5   14.18    1.06 
   3   4  -4    7.52    1.21 
   3   4  -4    6.34    0.64 
   3   4  -4    6.37    1.07 
   3   4  -4    6.14    0.63 
   3   4  -4    6.40    1.35 
   3   4  -4    5.86    0.97 
   3   4  -4    6.00    0.77 
   3   4  -4    7.35    0.72 
   3   4  -4    6.52    0.56 
   3  -4  -4    6.16    0.66 
  -3  -4   4    6.54    0.67 
   3  -4  -4    5.38    0.63 
  -3  -4   4    6.19    1.20 
   3  -4  -4    6.60    0.60 
  -3  -4   4    6.93    1.31 
  -3  -4   4    5.96    0.68 
   3  -4  -4    6.13    0.71 
   3  -4  -4    6.51    0.64 
  -3  -4   4    6.18    0.80 
   3   4  -3  221.01    8.05 
   3   4  -3  225.69    7.09 
   3   4  -3  208.39    7.41 
   3   4  -3  223.36    6.90 
   3   4  -3  225.34    8.44 
   3   4  -3  249.30    8.75 
   3   4  -3  205.36    6.39 
   3   4  -3  213.92    6.51 
  -3  -4   3  225.07    8.11 
  -3  -4   3  241.18    7.41 
   3  -4  -3  235.53    7.48 
  -3  -4   3  237.41    8.60 
  -3  -4   3  218.79    6.69 
  -3  -4   3  215.41    6.95 
  -3  -4   3  231.13    6.97 
  -3  -4   3  225.09    6.96 
   3  -4  -3  216.77    6.62 
   3  -4  -3  224.43    6.85 
   3   4  -2  347.24   13.67 
  -3   4   2  383.83   14.86 
   3   4  -2  355.73   14.03 
  -3  -4   2  384.76   15.00 
  -3  -4   2  360.82   12.90 
  -3  -4   2  312.33   11.59 
  -3   4   1  203.37    8.73 
  -3  -4   1  194.67    8.26 
  -3  -4   1  204.97    8.70 
  -3   4   0  106.24    5.52 
  -3   4   0   99.26    4.83 
  -3  -4   0  100.10    4.96 
  -3  -4   0   95.94    4.87 
  -3   4  -1  209.79    8.63 
  -3   4  -1  206.41    8.85 
   3   4   1  202.06    8.94 
  -3   4  -1  201.54    9.00 
  -3  -4  -1  198.86    8.63 
  -3  -4  -1  199.90    8.49 
  -3   4  -2  130.94    5.29 
  -3   4  -2  122.54    5.60 
  -3  -4  -2  105.73    4.74 
  -3  -4  -2  120.08    3.96 
   3  -4   2  116.50    3.67 
  -3  -4  -2  118.40    3.90 
  -3  -4  -2  117.56    3.90 
  -3  -4  -2  122.03    4.02 
   3  -4   2  113.11    3.55 
  -3  -4  -2  118.75    3.99 
  -3  -4  -2  118.55    3.91 
  -3  -4  -2  112.48    3.74 
  -3  -4  -2  118.31    3.90 
  -3   4  -3  186.14    6.24 
  -3   4  -3  155.48    6.22 
  -3   4  -3  173.15    6.18 
   3   4   3  166.28    4.85 
  -3   4  -3  169.22    4.91 
   3  -4   3  178.66    4.70 
  -3  -4  -3  162.45    4.59 
  -3  -4  -3  162.82    4.55 
  -3  -4  -3  167.63    4.63 
  -3  -4  -3  169.98    4.71 
  -3  -4  -3  168.66    4.72 
  -3  -4  -3  166.43    4.85 
  -3  -4  -3  164.67    4.70 
  -3  -4  -3  166.32    4.62 
   3  -4   3  172.90    4.98 
  -3   4  -4   23.57    1.78 
  -3   4  -4   19.41    2.12 
  -3   4  -4   23.52    1.98 
  -3   4  -4   22.62    1.18 
   3   4   4   22.93    1.29 
  -3   4  -4   23.48    1.36 
  -3   4  -4   23.56    1.17 
  -3  -4  -4   24.28    1.25 
   3  -4   4   23.72    1.05 
   3  -4   4   22.75    1.02 
  -3  -4  -4   25.93    1.29 
  -3  -4  -4   23.04    1.23 
  -3  -4  -4   21.34    1.20 
  -3  -4  -4   22.47    1.21 
  -3  -4  -4   25.13    1.28 
  -3  -4  -4   21.98    1.26 
  -3  -4  -4   22.53    1.16 
  -3  -4  -4   24.30    1.25 
   3  -4   4   23.71    1.32 
  -3   4  -5  134.87    4.76 
  -3   4  -5  127.60    4.41 
  -3   4  -5  143.62    5.14 
   3   4   5  142.65    5.11 
  -3   4  -5  144.42    4.90 
  -3  -4  -5  140.58    4.82 
   3  -4   5  137.17    4.66 
  -3  -4  -5  149.83    5.17 
  -3  -4  -5  131.74    4.67 
  -3  -4  -5  138.76    4.84 
  -3  -4  -5  143.28    4.96 
  -3  -4  -5  146.78    5.06 
  -3  -4  -5  142.63    5.10 
   3  -4   5  131.42    4.50 
  -3  -4  -5  137.17    4.83 
   3  -4   5  140.43    5.06 
  -3   4  -6   85.33    3.72 
  -3   4  -6   80.18    5.50 
   3   4   6   79.00    3.25 
  -3   4  -6   85.17    3.35 
  -3   4  -6   94.55    3.58 
  -3  -4  -6   82.05    3.20 
  -3  -4  -6   88.28    3.44 
  -3  -4  -6   88.96    3.35 
  -3  -4  -6   89.89    3.40 
   3  -4   6   83.72    3.14 
  -3  -4  -6   84.59    3.50 
  -3  -4  -6   89.04    3.42 
  -3  -4  -6   90.04    3.41 
   3  -4   6   88.97    3.51 
  -3   4  -7   86.04   11.07 
  -3   4  -7  113.35   12.65 
  -3   4  -7  106.57   10.53 
  -3   4  -7  103.37   10.49 
  -3  -4  -7  103.06   10.22 
  -3  -4  -7  101.39   10.43 
  -3  -4  -7  118.29   11.55 
  -3  -4  -7  110.74   10.93 
  -3  -4  -7   99.06    9.59 
   3  -4   7   71.57    8.94 
   3  -4   7  113.81   11.16 
   3   5  -8    2.61    0.62 
   3   5  -8    2.18    0.54 
   3   5  -8    2.53    0.57 
   3   5  -8    2.66    0.57 
   3   5  -8    1.96    0.58 
   3  -5  -8    2.20    0.54 
  -3  -5   8    2.07    0.60 
   3   5  -7   14.65    1.32 
   3   5  -7   14.65    1.36 
   3   5  -7   14.18    1.34 
   3   5  -7   15.00    1.41 
   3   5  -7   12.61    1.27 
   3   5  -7   13.98    1.35 
   3   5  -7   14.01    1.47 
  -3  -5   7   13.05    1.33 
   3  -5  -7   14.06    1.38 
  -3  -5   7   15.30    1.57 
   3  -5  -7   14.06    1.38 
   3  -5  -7   15.44    1.55 
  -3  -5   7   15.90    1.58 
   3   5  -6   24.43    1.43 
   3   5  -6   24.41    1.34 
   3   5  -6   25.15    1.35 
   3   5  -6   23.43    1.33 
   3   5  -6   25.26    1.34 
   3  -5  -6   27.35    1.56 
   3  -5  -6   23.50    1.44 
  -3  -5   6   24.39    1.30 
   3  -5  -6   25.93    1.42 
  -3  -5   6   25.43    1.42 
  -3  -5   6   24.42    1.47 
   3  -5  -6   24.74    1.37 
  -3  -5   6   25.87    1.52 
   3   5  -5   52.67    2.13 
   3   5  -5   54.63    2.31 
   3   5  -5   55.26    2.34 
   3   5  -5   55.08    2.25 
   3   5  -5   50.13    2.06 
   3   5  -5   48.02    2.00 
  -3  -5   5   50.65    2.22 
  -3  -5   5   46.96    1.88 
  -3  -5   5   52.52    2.19 
   3  -5  -5   52.61    2.22 
   3  -5  -5   53.28    2.34 
   3  -5  -5   55.52    2.21 
   3  -5  -5   52.67    2.26 
  -3  -5   5   53.97    2.26 
   3   5  -4   74.36    3.60 
   3   5  -4   70.12    2.48 
   3   5  -4   58.96    2.97 
   3   5  -4   70.31    2.42 
   3   5  -4   68.26    3.23 
   3   5  -4   71.16    2.65 
   3   5  -4   69.21    2.44 
   3   5  -4   70.72    2.53 
   3  -5  -4   68.57    2.50 
   3  -5  -4   67.10    2.57 
  -3  -5   4   68.96    2.42 
   3  -5  -4   73.83    2.84 
  -3  -5   4   66.31    3.30 
  -3  -5   4   67.59    3.37 
  -3  -5   4   67.14    2.46 
  -3  -5   4   69.61    2.57 
   3  -5  -4   73.36    2.53 
  -3  -5   4   64.51    2.45 
   3   5  -3   28.03    2.22 
   3   5  -3   31.90    1.49 
   3   5  -3   34.23    2.20 
   3   5  -3   28.38    1.17 
   3   5  -3   29.52    2.37 
   3   5  -3   31.00    2.19 
   3   5  -3   31.59    1.34 
   3   5  -3   31.71    1.39 
   3  -5  -3   33.60    1.43 
  -3  -5   3   35.83    1.54 
  -3  -5   3   31.19    2.23 
   3  -5  -3   30.96    1.29 
  -3  -5   3   32.38    1.30 
  -3  -5   3   32.65    2.26 
  -3  -5   3   31.71    1.40 
  -3  -5   3   31.33    1.40 
   3  -5  -3   29.96    1.49 
  -3  -5   3   32.66    1.52 
   3   5  -2   87.44    3.15 
   3   5  -2   90.60    4.11 
  -3   5   2   93.49    4.18 
   3   5  -2   85.82    2.99 
   3   5  -2   83.30    4.07 
  -3  -5   2   89.95    4.23 
  -3  -5   2   96.96    3.29 
  -3  -5   2   81.23    3.85 
  -3  -5   2   96.20    3.17 
  -3  -5   2   89.55    3.13 
   3  -5  -2   83.01    2.85 
  -3  -5   2   95.88    3.40 
  -3   5   1  161.78    7.30 
   3   5  -1  166.21    7.43 
  -3  -5   1  148.91    6.82 
  -3  -5   1  162.99    7.29 
  -3  -5   1  151.43    5.64 
  -3   5   0  101.39    5.36 
   3   5   0   94.61    4.96 
  -3  -5   0   99.28    4.94 
  -3  -5   0  107.46    5.28 
  -3  -5   0   88.02    3.49 
  -3  -5   0   89.14    3.55 
  -3  -5   0   89.81    3.58 
  -3  -5   0   93.81    3.71 
  -3   5  -1  250.89    9.50 
  -3  -5  -1  257.97    9.32 
  -3  -5  -1  243.18    7.37 
   3  -5   1  234.75    7.12 
  -3  -5  -1  242.70    7.44 
  -3  -5  -1  238.97    7.30 
   3  -5   1  248.33    7.38 
  -3  -5  -1  230.22    7.10 
  -3  -5  -1  235.73    7.20 
  -3   5  -2   37.24    4.31 
  -3   5  -2   40.89    2.94 
  -3  -5  -2   39.84    2.51 
  -3  -5  -2   40.75    1.61 
   3  -5   2   42.38    1.42 
  -3  -5  -2   41.36    1.64 
   3  -5   2   40.56    1.41 
  -3  -5  -2   42.96    1.71 
  -3  -5  -2   41.15    1.60 
  -3   5  -3   17.95    1.59 
  -3   5  -3   15.77    1.61 
  -3  -5  -3   14.11    0.95 
   3  -5   3   15.96    0.81 
  -3  -5  -3   13.79    0.94 
  -3  -5  -3   16.64    1.03 
  -3  -5  -3   15.20    0.99 
   3  -5   3   15.88    0.84 
  -3  -5  -3   14.87    0.98 
  -3  -5  -3   15.65    0.96 
  -3   5  -4  178.09    7.38 
  -3   5  -4  165.88    7.67 
  -3   5  -4  161.48    7.08 
  -3   5  -4  177.87    6.50 
  -3   5  -4  157.87    6.00 
  -3   5  -4  170.83    6.27 
   3  -5   4  177.54    6.32 
  -3  -5  -4  156.80    5.82 
  -3  -5  -4  163.02    6.06 
  -3  -5  -4  172.56    6.41 
  -3  -5  -4  156.02    5.89 
  -3  -5  -4  154.74    5.75 
  -3  -5  -4  166.99    6.17 
  -3  -5  -4  177.25    6.47 
   3  -5   4  160.05    6.16 
  -3   5  -5  126.36    4.72 
  -3   5  -5  129.85    4.84 
  -3   5  -5  109.42    4.34 
  -3  -5  -5  125.21    4.67 
  -3  -5  -5  112.82    4.26 
   3  -5   5  120.22    4.61 
  -3  -5  -5  121.80    4.65 
   3  -5   5  123.57    4.51 
  -3  -5  -5  126.31    4.69 
  -3  -5  -5  121.00    4.52 
   3  -5   5  116.04    4.56 
  -3   5  -6   58.02    3.04 
  -3   5  -6   54.54    2.89 
  -3   5  -6   47.10    3.49 
  -3  -5  -6   65.44    3.39 
  -3  -5  -6   59.14    3.16 
   3  -5   6   59.03    3.25 
  -3  -5  -6   59.92    3.12 
  -3  -5  -6   58.67    3.08 
   3  -5   6   55.54    3.06 
   3   5   7   21.27    2.38 
  -3   5  -7   19.52    2.32 
  -3   5  -7   15.82    1.95 
  -3   5  -7   20.22    2.67 
   3  -5   7   12.06    2.02 
  -3  -5  -7   20.53    2.63 
  -3  -5  -7   17.60    2.18 
  -3  -5  -7   17.90    2.05 
   3   6  -7    0.13    0.40 
   3   6  -7    0.13    0.48 
   3   6  -7    0.15    0.50 
   3   6  -7   -0.12    0.51 
   3   6  -7    0.35    0.47 
   3   6  -7    0.09    0.40 
   3  -6  -7    0.28    0.51 
  -3  -6   7    0.25    0.50 
  -3  -6   7    0.14    0.29 
  -3  -6   7   -0.22    0.48 
   3   6  -6   19.67    1.31 
   3   6  -6   21.41    1.35 
   3   6  -6   20.69    1.47 
   3   6  -6   21.37    1.37 
   3   6  -6   18.65    1.26 
   3  -6  -6   21.91    1.59 
   3  -6  -6   20.97    1.46 
  -3  -6   6   19.88    1.25 
  -3  -6   6   20.70    1.38 
  -3  -6   6   19.45    1.38 
  -3  -6   6   19.96    1.41 
   3   6  -5    5.89    0.70 
   3   6  -5    6.43    0.69 
   3   6  -5    6.12    0.75 
   3   6  -5    6.69    0.82 
  -3  -6   5    5.61    0.54 
   3  -6  -5    6.47    0.70 
   3  -6  -5    6.56    0.85 
  -3  -6   5    6.35    0.82 
  -3  -6   5    5.93    0.65 
   3  -6  -5    6.90    0.80 
  -3  -6   5    6.13    0.81 
   3   6  -4   10.22    1.37 
   3   6  -4    9.88    1.49 
   3   6  -4    9.77    1.23 
   3   6  -4   11.37    0.85 
   3   6  -4   11.03    1.42 
   3   6  -4   10.75    1.30 
   3   6  -4   11.54    0.82 
   3   6  -4   11.29    0.89 
  -3  -6   4   11.39    0.79 
  -3  -6   4   12.32    0.99 
   3  -6  -4   10.48    0.83 
  -3  -6   4    9.00    1.22 
  -3  -6   4   11.37    0.87 
  -3  -6   4   11.07    0.97 
  -3  -6   4    9.82    1.36 
   3  -6  -4   10.95    1.02 
  -3  -6   4   11.58    0.96 
   3   6  -3   12.46    1.60 
   3   6  -3   11.44    1.38 
   3   6  -3   12.11    1.55 
   3   6  -3   12.89    1.74 
   3   6  -3   13.04    0.93 
   3   6  -3   11.60    0.80 
  -3  -6   3   12.02    1.42 
   3  -6  -3   11.90    0.96 
  -3  -6   3   12.26    0.87 
  -3  -6   3   13.44    0.97 
  -3  -6   3   10.59    0.72 
  -3  -6   3   12.65    0.90 
  -3  -6   3   11.64    0.89 
   3   6  -2   20.92    1.92 
   3   6  -2   18.97    1.86 
   3   6  -2   21.69    1.87 
   3   6  -2   20.93    1.92 
  -3  -6   2   18.26    1.74 
  -3  -6   2   19.61    1.71 
  -3  -6   2   19.59    1.07 
  -3  -6   2   18.96    0.99 
  -3  -6   2   21.03    1.12 
  -3   6   1   17.10    1.69 
   3   6  -1   15.06    1.58 
  -3  -6   1   16.53    1.67 
  -3  -6   1   16.61    1.57 
  -3  -6   1   17.63    0.97 
  -3  -6   1   17.18    0.96 
  -3  -6   1   17.90    0.96 
  -3  -6   1   17.64    0.96 
  -3  -6   1   15.90    0.92 
  -3   6   0   25.28    2.21 
   3   6   0   25.40    2.24 
  -3  -6   0   26.03    2.02 
  -3  -6   0   23.41    1.12 
   3  -6   0   23.79    0.95 
  -3  -6   0   23.13    1.08 
  -3  -6   0   21.80    1.08 
  -3  -6   0   25.48    1.14 
  -3   6  -1  173.67    7.17 
   3   6   1  159.54    6.61 
  -3  -6  -1  159.88    5.93 
  -3  -6  -1  167.09    5.28 
   3  -6   1  161.18    4.85 
  -3  -6  -1  162.36    5.14 
   3  -6   1  154.66    4.16 
  -3  -6  -1  160.74    5.03 
  -3  -6  -1  161.69    5.09 
   3   6   2    3.48    1.29 
  -3   6  -2    4.09    1.44 
  -3  -6  -2    4.45    0.65 
   3  -6   2    4.42    0.49 
  -3  -6  -2    4.38    0.64 
  -3  -6  -2    4.01    0.55 
   3  -6   2    4.39    0.50 
  -3  -6  -2    4.22    0.70 
  -3  -6  -2    4.72    0.71 
  -3   6  -3   26.57    2.43 
  -3  -6  -3   27.74    1.39 
  -3  -6  -3   22.88    1.24 
  -3  -6  -3   28.49    1.41 
   3  -6   3   26.74    1.17 
  -3  -6  -3   28.25    1.45 
  -3  -6  -3   25.60    1.34 
  -3  -6  -3   26.60    1.33 
  -3  -6  -3   24.95    1.29 
  -3   6  -4   67.79    2.59 
  -3  -6  -4   69.26    2.69 
  -3  -6  -4   71.72    2.79 
   3  -6   4   69.85    2.51 
   3  -6   4   66.35    2.44 
  -3  -6  -4   67.03    2.70 
  -3  -6  -4   71.04    2.75 
  -3  -6  -4   67.37    2.61 
  -3  -6  -4   70.29    2.73 
  -3   6  -5    1.16    0.52 
  -3  -6  -5    1.21    0.66 
  -3  -6  -5    1.02    0.61 
   3  -6   5    0.97    0.47 
   3  -6   5    1.04    0.48 
  -3  -6  -5    1.14    0.69 
  -3  -6  -5    1.81    0.69 
  -3  -6  -5    0.82    0.71 
  -3  -6  -5    1.21    0.54 
  -3   6  -6   13.41    1.32 
  -3  -6  -6   15.24    1.43 
  -3  -6  -6   14.57    1.43 
   3  -6   6   14.67    1.43 
  -3  -6  -6   14.08    1.41 
  -3  -6  -6   15.98    1.52 
  -3  -6  -6   14.59    1.38 
  -3  -6  -6   14.41    1.37 
  -3   6  -7    4.02    0.77 
  -3   6  -7    4.17    0.63 
   3   6   7    5.59    0.84 
   3  -6   7    2.61    0.54 
  -3  -6  -7    4.35    0.68 
  -3  -6  -7    5.37    0.94 
   3   7  -7    1.49    0.45 
   3   7  -7    1.15    0.51 
   3   7  -7    1.46    0.50 
   3   7  -7    1.36    0.46 
   3   7  -7    1.09    0.53 
  -3  -7   7    1.25    0.46 
  -3  -7   7    1.08    0.31 
   3   7  -6   18.70    1.85 
   3   7  -6   22.11    1.91 
   3   7  -6   19.58    1.73 
   3   7  -6   23.03    1.99 
   3   7  -6   18.64    1.73 
   3  -7  -6   24.56    2.21 
   3  -7  -6   21.13    1.89 
  -3  -7   6   22.60    1.92 
  -3  -7   6   21.33    1.94 
  -3  -7   6   19.48    2.04 
   3   7  -5    2.00    0.52 
   3   7  -5    1.54    0.58 
   3   7  -5    1.88    0.58 
   3   7  -5    2.15    0.48 
   3  -7  -5    2.52    0.59 
   3  -7  -5    1.94    0.78 
  -3  -7   5    1.95    0.42 
  -3  -7   5    2.23    0.59 
  -3  -7   5    1.89    0.68 
  -3  -7   5    1.87    0.65 
  -3  -7   5    1.80    0.58 
   3   7  -4   11.54    0.89 
   3   7  -4   13.30    0.90 
   3   7  -4   11.97    0.82 
  -3  -7   4   11.53    0.86 
  -3  -7   4   12.58    0.86 
  -3  -7   4   12.16    0.88 
  -3  -7   4   13.97    1.05 
  -3  -7   4   12.75    0.99 
   3  -7  -4   10.73    1.01 
   3   7  -3   17.81    1.88 
   3   7  -3   19.92    2.01 
   3   7  -3   18.27    1.62 
   3   7  -3   20.44    1.15 
   3   7  -3   19.80    1.84 
  -3  -7   3   18.39    1.72 
  -3  -7   3   17.47    1.11 
   3  -7  -3   17.90    1.19 
  -3  -7   3   19.48    1.12 
  -3  -7   3   19.60    1.21 
  -3  -7   3   16.51    1.01 
   3   7  -2    8.10    1.34 
   3   7  -2    7.21    1.24 
   3   7  -2    8.24    1.38 
  -3  -7   2    7.74    1.28 
  -3  -7   2    6.03    0.58 
  -3  -7   2    8.26    0.76 
  -3  -7   2    8.88    0.75 
  -3  -7   2    8.20    0.72 
   3   7  -1   11.91    1.58 
   3   7  -1    9.16    1.44 
  -3  -7   1   11.54    1.40 
  -3  -7   1   11.13    0.78 
  -3  -7   1   10.77    0.80 
  -3  -7   1   11.03    0.83 
  -3   7   0   27.26    2.30 
   3   7   0   25.38    2.21 
  -3  -7   0   25.03    1.99 
  -3  -7   0   27.37    1.29 
   3  -7   0   27.26    1.10 
  -3  -7   0   25.99    1.28 
  -3  -7   0   26.54    1.26 
  -3  -7   0   28.10    1.31 
   3   7   1   45.93    3.02 
  -3   7  -1   54.31    3.46 
  -3  -7  -1   54.89    2.06 
   3  -7   1   51.84    1.79 
  -3  -7  -1   50.14    1.97 
   3  -7   1   52.33    1.86 
  -3  -7  -1   49.16    1.95 
  -3  -7  -1   48.92    1.94 
   3   7   2   97.55    4.88 
  -3   7  -2  102.95    5.20 
  -3  -7  -2  103.30    3.55 
   3  -7   2  105.39    3.41 
  -3  -7  -2   90.77    4.01 
  -3  -7  -2  104.96    3.64 
   3  -7   2  103.59    3.42 
  -3  -7  -2  102.84    3.58 
  -3  -7  -2  104.42    3.65 
  -3  -7  -2   97.37    3.43 
  -3  -7  -3    2.36    0.68 
  -3  -7  -3    2.02    0.52 
  -3  -7  -3    1.95    0.52 
   3  -7   3    1.99    0.45 
  -3  -7  -3    2.16    0.62 
  -3  -7  -3    1.89    0.60 
  -3  -7  -3    1.91    0.55 
   3   7   4   13.09    0.96 
  -3   7  -4   15.36    0.93 
  -3  -7  -4   15.48    1.05 
   3  -7   4   16.79    0.96 
   3  -7   4   16.04    0.94 
  -3  -7  -4   13.77    1.02 
  -3  -7  -4   15.39    1.13 
  -3  -7  -4   15.11    1.07 
  -3  -7  -4   15.33    1.02 
  -3   7  -5   10.43    0.87 
   3   7   5   10.17    0.93 
   3  -7   5   11.06    0.82 
  -3  -7  -5   12.21    1.05 
  -3  -7  -5   12.30    1.08 
  -3  -7  -5   12.42    1.03 
  -3   7  -6    2.98    0.56 
   3   7   6    2.77    0.62 
   3  -7   6    2.41    0.58 
  -3  -7  -6    3.20    0.68 
  -3  -7  -6    3.02    0.69 
   3   8  -6   88.98    8.63 
   3   8  -6   90.88    8.79 
   3   8  -6   89.72    8.70 
  -3  -8   6   84.19    8.12 
  -3  -8   6   85.57    8.32 
   3   8  -5   32.98    2.93 
   3   8  -5   37.21    3.04 
  -3  -8   5   34.48    2.82 
  -3  -8   5   36.12    3.02 
  -3  -8   5   35.80    2.99 
  -3  -8   5   32.52    2.84 
   3   8  -4   14.79    1.02 
   3   8  -4   13.42    0.94 
  -3  -8   4   14.90    0.96 
  -3  -8   4   14.94    1.09 
  -3  -8   3   20.12    1.15 
  -3  -8   3   17.51    1.07 
  -3  -8   3   18.53    1.05 
  -3  -8   3   20.68    1.08 
  -3  -8   3   20.07    1.21 
  -3  -8   2   22.57    1.15 
  -3  -8   2   20.87    1.18 
   3   8  -1   60.78    3.54 
   3   8  -1   67.90    3.94 
   3   8  -1   61.97    3.56 
   3   8  -1   62.28    3.66 
  -3  -8   1   69.54    3.73 
  -3  -8   1   54.66    2.27 
  -3  -8   1   72.76    2.98 
  -3  -8   1   65.78    2.66 
   3   8   0  253.01   10.29 
   3  -8   0  269.13    9.42 
  -3  -8   0  276.21    9.83 
  -3  -8   0  260.68    9.21 
   3   8   1   79.97    4.41 
  -3  -8  -1   73.62    2.95 
   3  -8   1   79.47    3.00 
  -3  -8  -1   79.18    3.21 
   3  -8   1   73.08    2.84 
  -3  -8  -1   71.62    2.86 
  -3  -8  -1   75.30    3.00 
   3  -8   2    3.77    0.48 
  -3  -8  -2    3.29    0.58 
  -3  -8  -2    3.37    0.65 
   3  -8   2    3.65    0.48 
  -3  -8  -2    3.57    0.67 
  -3  -8  -2    3.84    0.71 
   3  -8   3  128.94    4.62 
  -3  -8  -3  118.48    4.48 
   3  -8   3  128.24    4.61 
  -3  -8  -3  132.07    4.93 
  -3  -8  -3  125.31    4.66 
   3  -8   4   19.39    1.20 
  -3  -8  -4   17.26    1.25 
   3  -8   4   19.41    1.22 
  -3  -8  -4   19.51    1.36 
  -3  -8  -4   20.10    1.40 
   3  -8   5    4.64    0.64 
   3  -8   5    5.43    0.71 
  -3  -8  -5    5.26    0.78 
  -3  -8  -5    4.94    0.72 
  -3  -8  -6    0.44    0.45 
  -3  -8  -6    0.44    0.44 
   3   9  -6   17.28    1.84 
   3   9  -6   14.42    1.59 
  -3  -9   6   16.34    1.67 
  -3  -9   6   16.04    2.17 
   3   9  -5  123.74   11.91 
  -3  -9   5   96.44    9.37 
  -3  -9   5  127.52   13.00 
   3   9  -4    2.88    0.54 
   3   9  -4    2.03    0.49 
  -3  -9   4    3.00    0.59 
  -3  -9   4    2.98    0.60 
  -3  -9   4    2.37    0.54 
  -3  -9   3   22.22    1.20 
  -3  -9   3   21.35    1.13 
  -3  -9   3   18.50    1.07 
  -3  -9   3   21.30    1.13 
  -3  -9   3   21.53    1.20 
  -3  -9   2    4.73    0.63 
  -3  -9   2    5.03    0.63 
  -3  -9   2    5.09    0.59 
  -3  -9   1   62.74    2.59 
  -3  -9   1   66.45    2.65 
  -3  -9   1   68.49    2.70 
  -3  -9   1   71.74    2.78 
   3  -9   0   51.25    2.02 
  -3  -9   0   40.33    1.83 
  -3  -9   0   46.86    2.02 
   3  -9   1   16.81    0.90 
  -3  -9  -1   13.31    0.94 
  -3  -9  -1   15.96    1.08 
  -3  -9  -1   15.04    0.96 
   3  -9   2    5.57    0.57 
  -3  -9  -2    4.03    0.56 
   3  -9   2    4.78    0.56 
  -3  -9  -2    4.96    0.76 
   3  -9   3    8.15    0.73 
   3  -9   3    8.82    0.76 
  -3  -9  -3    7.57    0.84 
  -3  -9  -3    8.10    0.90 
   3  -9   4    1.52    0.49 
  -3  -9  -4    2.11    0.65 
  -3  -9  -4    1.72    0.56 
  -3  -9  -5   11.34    1.36 
   3  -9   5    8.03    1.18 
   3  -9   5    9.79    1.31 
  -3  -9  -5   10.88    1.33 
  -3  -9  -5    7.99    1.19 
   3  10  -5    1.72    0.43 
   3  10  -5    2.14    0.48 
  -3 -10   5    1.98    0.44 
  -3 -10   5    1.94    0.49 
  -3 -10   4    1.66    0.45 
  -3 -10   4    1.33    0.51 
  -3 -10   4    1.41    0.50 
  -3 -10   3    3.67    0.61 
  -3 -10   3    3.85    0.67 
  -3 -10   2    4.79    0.72 
  -3 -10   2    4.58    0.63 
  -3 -10   2    4.74    0.63 
  -3 -10   2    5.07    0.60 
  -3 -10   1    3.13    0.61 
  -3 -10   1    3.09    0.54 
  -3 -10   1    2.56    0.53 
  -3 -10   1    2.72    0.55 
  -3 -10   0   12.85    0.89 
  -3 -10   0   13.21    0.87 
  -3 -10   0   13.62    0.91 
   3 -10   1   74.31    3.65 
  -3 -10  -1   65.59    3.35 
  -3 -10  -1   66.63    3.36 
  -3 -10  -1   66.35    3.36 
   3 -10   2    6.04    0.70 
  -3 -10  -2    5.89    0.79 
   3 -10   3    6.67    0.76 
   3 -10   3    5.26    0.69 
  -3 -10  -3    6.33    0.80 
   3 -10   4   16.47    2.03 
  -3 -10  -4   16.23    1.86 
  -3 -11   4    4.69    0.63 
  -3 -11   3    2.29    0.49 
  -3 -11   2   15.26    1.67 
  -3 -11   2   12.63    1.39 
  -3 -11   2   13.10    1.45 
  -3 -11   1    5.40    0.76 
  -3 -11   1    5.69    0.75 
  -3 -11   1    4.94    0.68 
  -3 -11   0    7.87    0.87 
  -3 -11   0    8.06    0.94 
  -3 -11   0    7.82    0.88 
   3 -11   1    6.82    0.82 
  -3 -11  -1    6.98    0.87 
  -3 -11  -1    8.57    1.07 
  -3 -11  -1    7.05    0.91 
   3 -11   2    9.89    1.14 
  -3 -11  -2    9.81    1.21 
  -3 -11  -2    7.64    1.00 
   3 -11   3    1.69    0.39 
  -3 -11  -3    1.97    0.54 
  -3 -12   2   14.99    1.87 
  -3 -12   1   12.02    1.29 
  -3 -12   1   13.78    1.47 
  -3 -12   0    8.05    0.98 
  -3 -12  -1   13.47    2.27 
   4   0  -8  117.31   12.19 
   4   0  -8  138.28   12.94 
   4   0  -8  131.06   12.27 
   4   0  -8   93.12   11.89 
   4   0  -8  133.48   12.77 
   4   0  -8  141.27   13.21 
   4   0  -8  119.58   12.22 
  -4   0   8  104.30   12.36 
   4   0  -7   48.22    2.59 
   4   0  -7   49.67    2.71 
   4   0  -7   51.70    2.71 
  -4   0   7   48.98    2.74 
   4   0  -7   46.46    2.64 
   4   0  -7   47.80    2.63 
   4   0  -7   48.78    2.63 
   4   0  -7   46.66    2.63 
  -4   0   7   49.89    2.80 
   4   0  -6   32.14    1.50 
   4   0  -6   31.68    1.56 
   4   0  -6   33.75    1.63 
   4   0  -6   33.40    1.56 
  -4   0   6   29.53    1.60 
   4   0  -6   33.69    1.76 
   4   0  -6   32.69    1.51 
   4   0  -6   35.37    1.74 
   4   0  -6   32.37    1.54 
   4   0  -6   30.57    1.60 
  -4   0   6   34.00    1.76 
  -4   0   5   20.83    1.91 
   4   0  -5   24.70    1.21 
   4   0  -5   22.80    1.16 
   4   0  -5   23.81    1.16 
   4   0  -5   22.81    1.15 
  -4   0   5   21.85    1.24 
   4   0  -5   22.92    1.31 
   4   0  -5   23.96    1.26 
  -4   0   5   23.39    1.24 
   4   0  -5   24.66    1.23 
   4   0  -5   24.54    1.22 
   4   0  -5   24.80    1.33 
  -4   0   5   25.19    1.39 
   4   0  -4   30.57    2.04 
  -4   0   4   30.46    2.26 
   4   0  -4   29.08    2.07 
   4   0  -4   28.53    1.25 
   4   0  -4   29.31    1.23 
  -4   0   4   28.26    1.37 
   4   0  -4   31.03    1.37 
  -4   0   4   30.73    1.39 
   4   0  -4   28.78    1.24 
   4   0  -4   24.37    1.13 
   4   0  -4   30.31    1.42 
  -4   0   4   29.13    1.46 
  -4   0   3  239.50    8.81 
   4   0  -3  250.52    8.59 
  -4   0   3  255.45    8.92 
  -4   0   3  234.75    8.51 
   4   0  -3  255.68    9.23 
   4   0  -3  244.97    7.34 
   4   0  -3  242.50    7.30 
  -4   0   3  238.26    7.37 
   4   0  -3  253.52    7.72 
   4   0  -3  246.52    7.49 
   4   0  -3  228.00    6.95 
   4   0  -3  254.51    7.84 
  -4   0   3  230.16    7.67 
   4   0  -2   15.61    1.56 
  -4   0   2   16.77    1.57 
   4   0  -2   18.65    1.61 
  -4   0   2   17.25    1.63 
  -4   0   1  267.88   10.75 
   4   0  -1  256.72   10.41 
   4   0   0    0.67    0.60 
  -4   0   0    0.90    0.89 
   4   0   1  151.50    6.99 
  -4   0  -1  151.72    6.81 
   4   0   2   28.22    2.27 
  -4   0  -2   30.79    2.30 
  -4   0  -2   33.59    2.29 
  -4   0  -2   32.05    1.36 
  -4   0  -2   28.97    1.27 
   4   0   2   27.87    1.27 
  -4   0  -2   29.46    1.33 
  -4   0  -2   32.32    1.65 
   4   0   2   30.18    1.55 
  -4   0  -3    4.08    1.08 
  -4   0  -3    3.38    1.08 
  -4   0  -3    4.33    0.55 
   4   0   3    3.90    0.53 
  -4   0  -3    3.99    0.55 
  -4   0  -3    3.96    0.59 
  -4   0  -3    4.13    0.87 
   4   0   3    4.68    0.76 
  -4   0  -4   75.67    2.65 
  -4   0  -4   82.82    2.78 
  -4   0  -4   82.25    2.81 
   4   0   4   72.36    2.55 
  -4   0  -4   82.58    2.88 
  -4   0  -4   72.91    2.66 
  -4   0  -4   80.76    2.82 
  -4   0  -5   20.04    1.16 
  -4   0  -5   20.40    1.14 
  -4   0  -5   19.95    1.13 
  -4   0  -5   19.63    1.21 
  -4   0  -5   19.67    1.30 
  -4   0  -5   18.53    1.17 
  -4   0  -6   34.68    2.97 
  -4   0  -6   42.16    1.80 
  -4   0  -6   42.51    1.93 
  -4   0  -6   34.49    1.86 
  -4   0  -6   30.83    1.91 
  -4   0  -6   43.27    1.92 
  -4   0  -7    0.73    0.49 
  -4   0  -7    2.18    0.55 
   4   0   7    3.00    0.64 
  -4   0  -7    0.99    0.52 
  -4   0  -7    2.72    0.57 
  -4   0  -7    3.34    0.73 
  -4   0  -7    2.27    0.95 
   4   0   7    2.82    0.81 
   4   1  -8    4.18    0.77 
   4   1  -8    1.64    0.49 
  -4   1   8    3.00    0.69 
   4   1  -8    3.74    0.75 
   4   1  -8    3.48    0.65 
   4   1  -8    4.46    0.82 
   4   1  -8    2.66    0.65 
   4   1  -8    3.60    0.74 
   4  -1  -8    2.94    0.63 
   4  -1  -8    3.73    0.69 
   4  -1  -8    2.81    0.75 
   4  -1  -8    3.30    0.66 
   4  -1  -8    3.35    0.74 
   4  -1  -8    3.55    0.74 
  -4  -1   8    3.43    0.83 
   4   1  -7    3.56    0.63 
   4   1  -7    3.72    0.72 
   4   1  -7    3.43    0.76 
   4   1  -7    3.77    0.76 
   4   1  -7    3.42    0.64 
   4   1  -7    3.84    0.67 
   4   1  -7    2.51    0.55 
   4   1  -7    3.58    0.80 
   4   1  -7    3.99    0.80 
   4   1  -7    3.56    0.56 
  -4   1   7    3.72    0.68 
  -4  -1   7    3.78    0.82 
   4  -1  -7    3.41    0.70 
   4  -1  -7    3.20    0.72 
   4  -1  -7    3.87    0.72 
   4  -1  -7    3.71    0.56 
   4  -1  -7    3.73    0.64 
   4  -1  -7    3.40    0.63 
   4  -1  -7    3.79    0.76 
   4  -1  -7    4.29    0.64 
  -4  -1   7    4.66    0.89 
   4   1  -6    1.74    0.50 
   4   1  -6    1.65    0.59 
   4   1  -6    1.60    0.56 
   4   1  -6    1.83    0.61 
   4   1  -6    2.03    0.64 
   4   1  -6    2.03    0.59 
   4   1  -6    1.73    0.44 
  -4   1   6    1.67    0.65 
   4   1  -6    1.75    0.64 
   4   1  -6    2.06    0.73 
   4   1  -6    2.13    0.74 
  -4   1   6    2.14    0.66 
   4  -1  -6    1.77    0.63 
   4  -1  -6    2.34    0.66 
  -4  -1   6    1.95    0.60 
   4  -1  -6    2.57    0.62 
   4  -1  -6    1.73    0.57 
   4  -1  -6    2.09    0.60 
  -4  -1   6    1.90    0.71 
   4  -1  -6    1.65    0.62 
   4  -1  -6    2.72    0.84 
   4  -1  -6    1.74    0.49 
  -4  -1   6    1.97    0.80 
  -4   1   5    1.23    0.82 
  -4   1   5    1.32    0.57 
   4   1  -5    1.49    0.39 
   4   1  -5    1.33    0.52 
   4   1  -5    1.36    0.50 
   4   1  -5    1.70    0.51 
   4   1  -5    1.64    0.53 
   4   1  -5    1.94    0.52 
   4   1  -5    1.75    0.54 
  -4   1   5    1.97    0.56 
   4   1  -5    1.57    0.44 
   4   1  -5    2.02    0.57 
   4   1  -5    1.27    0.53 
   4   1  -5    1.55    0.62 
   4  -1  -5    1.21    0.61 
   4  -1  -5    1.61    0.48 
  -4  -1   5    1.62    0.51 
   4  -1  -5    1.15    0.47 
   4  -1  -5    1.60    0.46 
   4  -1  -5    1.42    0.53 
  -4  -1   5    1.48    0.69 
   4  -1  -5    1.73    0.54 
   4  -1  -5    1.73    0.48 
  -4  -1   5    1.02    0.77 
  -4  -1   5    1.44    0.62 
   4   1  -4   88.15    2.98 
   4   1  -4   84.88    3.66 
  -4   1   4   73.45    3.46 
   4   1  -4   84.75    2.67 
  -4   1   4   74.79    3.67 
   4   1  -4   80.56    3.77 
  -4   1   4   73.62    2.55 
   4   1  -4   82.79    2.70 
   4   1  -4   84.47    2.74 
   4   1  -4   74.29    2.45 
   4   1  -4   82.96    2.64 
  -4   1   4   80.92    2.76 
  -4   1   4   81.04    2.86 
   4   1  -4   85.81    2.72 
   4  -1  -4   84.68    2.75 
  -4  -1   4   83.44    2.75 
   4  -1  -4   88.09    2.83 
   4  -1  -4   79.40    2.59 
  -4  -1   4   78.64    3.78 
   4  -1  -4   81.71    2.65 
   4  -1  -4   83.10    2.70 
   4  -1  -4   79.75    2.73 
  -4  -1   4   78.41    3.72 
  -4  -1   4   85.83    2.89 
  -4  -1   4   83.49    2.93 
   4   1  -3   95.65    4.32 
  -4   1   3  101.09    4.36 
  -4   1   3   97.20    4.37 
   4   1  -3  102.68    3.45 
   4   1  -3  103.97    4.33 
   4   1  -3  106.90    3.56 
  -4   1   3   90.94    3.20 
   4   1  -3  110.33    3.79 
   4   1  -3   89.69    4.33 
   4   1  -3   91.18    3.06 
   4   1  -3   93.13    3.26 
  -4  -1   3  100.34    4.46 
  -4  -1   3   99.37    4.48 
   4  -1  -3  105.29    3.56 
   4  -1  -3   89.79    4.03 
   4  -1  -3   95.76    3.17 
  -4  -1   3   96.35    4.26 
  -4  -1   3   99.66    3.46 
   4  -1  -3   92.15    3.10 
   4  -1  -3   94.10    3.22 
   4  -1  -3  106.75    3.56 
   4  -1  -3   95.74    3.36 
   4  -1  -3   93.69    3.17 
  -4  -1   3  104.06    3.78 
  -4   1   2   78.75    3.94 
  -4   1   2   78.63    4.04 
   4   1  -2   69.82    2.88 
   4   1  -2   82.44    4.14 
  -4  -1   2   79.03    4.06 
   4  -1  -2   76.36    4.16 
   4  -1  -2   83.74    4.14 
   4   1  -1   77.99    4.11 
   4   1  -1   68.87    3.75 
  -4   1   1   74.67    3.87 
   4  -1  -1   78.65    3.95 
  -4  -1   1   77.98    3.94 
  -4  -1   1   76.24    4.00 
   4   1   0  293.72   11.90 
   4  -1   0  292.66   11.65 
  -4  -1   0  317.53   12.41 
   4   1   1   28.47    2.39 
  -4   1  -1   28.11    2.18 
  -4   1  -1   25.04    2.15 
  -4  -1  -1   24.03    1.93 
  -4   1  -2    3.28    0.84 
   4   1   2    3.42    1.01 
  -4   1  -2    4.36    1.07 
  -4   1  -2    4.22    1.18 
  -4   1  -2    3.91    0.73 
  -4   1  -2    3.93    0.48 
  -4  -1  -2    3.89    1.03 
  -4  -1  -2    3.82    0.43 
  -4  -1  -2    3.94    0.57 
  -4  -1  -2    3.06    0.45 
  -4  -1  -2    3.26    0.67 
   4  -1   2    3.72    0.53 
   4  -1   2    3.28    0.65 
  -4   1  -3    3.07    0.88 
   4   1   3    2.35    0.86 
  -4   1  -3    3.27    0.58 
  -4   1  -3    3.69    1.15 
  -4   1  -3    3.43    1.09 
  -4   1  -3    3.20    0.55 
  -4   1  -3    3.10    0.48 
   4   1   3    2.82    0.47 
   4   1   3    3.14    0.66 
  -4   1  -3    3.53    0.79 
   4  -1   3    3.03    0.44 
  -4  -1  -3    3.52    0.52 
  -4  -1  -3    2.58    0.54 
  -4  -1  -3    3.08    0.83 
  -4  -1  -3    3.06    0.60 
  -4  -1  -3    3.16    0.51 
   4  -1   3    3.22    0.69 
  -4   1  -4   33.40    2.15 
  -4   1  -4   34.76    1.54 
  -4   1  -4   35.75    2.46 
  -4   1  -4   39.74    1.83 
   4   1   4   35.90    1.71 
  -4   1  -4   32.35    1.47 
  -4   1  -4   35.26    1.47 
  -4  -1  -4   35.63    1.53 
  -4  -1  -4   35.68    1.58 
   4  -1   4   35.16    1.50 
  -4  -1  -4   35.67    1.53 
  -4  -1  -4   33.03    1.45 
  -4  -1  -4   28.85    2.10 
  -4  -1  -4   35.27    1.76 
  -4  -1  -4   33.31    1.44 
  -4  -1  -4   35.27    1.47 
   4  -1   4   31.62    1.55 
  -4   1  -5   51.96    2.18 
  -4   1  -5   47.57    2.11 
   4   1   5   49.74    2.32 
  -4   1  -5   51.15    2.14 
  -4   1  -5   56.29    2.54 
  -4   1  -5   52.27    2.27 
  -4   1  -5   47.74    2.61 
  -4  -1  -5   55.62    2.31 
  -4  -1  -5   56.66    2.44 
  -4  -1  -5   45.02    2.05 
  -4  -1  -5   45.64    2.07 
  -4  -1  -5   51.02    2.39 
  -4  -1  -5   49.06    2.13 
  -4  -1  -5   49.61    2.08 
   4  -1   5   50.08    2.30 
  -4   1  -6   41.38    1.90 
  -4   1  -6   32.25    2.40 
   4   1   6   39.68    1.99 
  -4   1  -6   43.36    1.84 
  -4   1  -6   42.49    1.92 
  -4   1  -6   36.40    1.98 
  -4   1  -6   31.22    2.51 
  -4  -1  -6   32.82    1.64 
  -4  -1  -6   33.22    2.09 
  -4  -1  -6   39.80    1.80 
  -4  -1  -6   33.63    2.42 
  -4  -1  -6   42.79    2.18 
   4  -1   6   36.35    1.69 
  -4  -1  -6   40.38    1.74 
   4  -1   6   38.16    1.94 
  -4   1  -7   23.07    4.54 
   4   1   7   33.02    3.65 
  -4   1  -7   27.17    3.52 
  -4   1  -7   28.14    3.03 
  -4   1  -7   32.41    3.52 
   4   1   7   34.57    3.50 
  -4  -1  -7   31.05    3.24 
   4  -1   7   31.77    3.23 
  -4  -1  -7   32.31    3.31 
  -4  -1  -7   15.13    2.91 
  -4  -1  -7   25.31    3.91 
  -4  -1  -7   15.07    2.77 
  -4  -1  -7   17.49    2.12 
   4  -1   7   33.98    3.64 
   4   2  -8    4.86    0.71 
   4   2  -8    7.17    1.09 
   4   2  -8    6.96    1.02 
   4   2  -8    6.70    0.89 
   4  -2  -8    7.17    1.04 
   4  -2  -8    6.75    1.01 
   4  -2  -8    6.27    0.87 
   4  -2  -8    6.07    0.90 
  -4  -2   8    7.25    1.10 
   4   2  -7    2.69    0.54 
   4   2  -7    2.49    0.70 
   4   2  -7    2.72    0.60 
   4   2  -7    2.59    0.63 
  -4   2   7    2.00    0.58 
   4   2  -7    2.99    0.54 
   4   2  -7    3.07    0.73 
   4   2  -7    2.94    0.59 
   4  -2  -7    2.54    0.67 
   4  -2  -7    2.49    0.76 
   4  -2  -7    2.50    0.64 
   4  -2  -7    3.02    0.59 
  -4  -2   7    2.34    0.55 
   4  -2  -7    2.35    0.57 
   4  -2  -7    2.57    0.54 
  -4  -2   7    3.20    0.73 
  -4  -2   7    3.00    0.79 
   4   2  -6    0.69    0.56 
  -4   2   6    0.44    0.53 
   4   2  -6    0.72    0.55 
   4   2  -6    0.66    0.46 
   4   2  -6    0.62    0.58 
   4   2  -6    0.49    0.61 
   4   2  -6    0.71    0.69 
   4   2  -6    0.67    0.67 
   4   2  -6    0.55    0.63 
   4  -2  -6    0.39    0.52 
   4  -2  -6    0.49    0.41 
   4  -2  -6    1.24    0.65 
   4  -2  -6    0.78    0.50 
   4  -2  -6    0.77    0.53 
   4  -2  -6    0.46    0.50 
   4  -2  -6    0.92    0.54 
  -4  -2   6    0.65    0.51 
  -4  -2   6    0.50    0.56 
  -4  -2   6    1.00    0.70 
   4   2  -5   21.29    1.72 
  -4   2   5   21.37    1.26 
   4   2  -5   19.70    1.82 
   4   2  -5   20.01    1.92 
   4   2  -5   22.74    1.14 
   4   2  -5   23.18    1.17 
   4   2  -5   21.07    1.23 
   4   2  -5   24.68    1.21 
   4   2  -5   23.47    1.18 
   4   2  -5   23.64    1.22 
   4   2  -5   20.67    1.10 
   4   2  -5   24.02    1.22 
   4   2  -5   23.08    1.22 
   4  -2  -5   23.13    1.42 
   4  -2  -5   23.50    1.19 
   4  -2  -5   24.14    1.23 
   4  -2  -5   22.93    1.18 
  -4  -2   5   24.06    1.25 
   4  -2  -5   24.94    1.27 
   4  -2  -5   22.60    1.23 
   4  -2  -5   20.31    1.08 
   4  -2  -5   20.28    1.14 
  -4  -2   5   24.04    1.38 
  -4  -2   5   23.24    1.99 
  -4   2   4   18.31    1.15 
   4   2  -4   20.42    1.57 
  -4   2   4   20.18    1.67 
   4   2  -4   20.01    1.08 
  -4   2   4   17.66    1.71 
   4   2  -4   19.71    1.84 
   4   2  -4   21.08    1.03 
   4   2  -4   20.27    1.06 
   4   2  -4   20.32    1.00 
   4   2  -4   20.19    1.04 
   4   2  -4   20.06    1.04 
  -4  -2   4   22.54    1.26 
   4  -2  -4   20.53    1.03 
   4  -2  -4   21.80    1.14 
   4  -2  -4   20.81    1.09 
   4  -2  -4   20.50    1.06 
   4  -2  -4   19.14    1.10 
  -4  -2   4   20.14    1.09 
   4  -2  -4   21.52    1.10 
  -4  -2   4   20.17    1.88 
   4  -2  -4   19.79    1.00 
   4  -2  -4   19.75    1.11 
  -4  -2   4   18.53    1.70 
   4   2  -3   25.82    1.98 
   4   2  -3   27.93    1.30 
   4   2  -3   21.14    1.63 
   4   2  -3   25.36    1.19 
  -4   2   3   26.38    1.91 
   4   2  -3   26.17    2.15 
   4   2  -3   25.23    1.81 
   4   2  -3   24.99    1.22 
   4   2  -3   24.37    1.14 
   4   2  -3   26.15    1.16 
   4  -2  -3   24.80    1.15 
  -4  -2   3   27.54    1.36 
   4  -2  -3   26.97    1.22 
   4  -2  -3   24.81    1.19 
  -4  -2   3   24.81    1.87 
  -4  -2   3   24.77    1.14 
  -4  -2   3   26.21    1.32 
  -4  -2   3   25.98    2.02 
   4  -2  -3   25.41    1.30 
   4   2  -2  134.82    5.12 
  -4   2   2  139.71    6.26 
   4   2  -2  142.45    6.31 
   4   2  -2  130.85    5.94 
  -4   2   2  142.74    6.28 
   4   2  -2  126.95    4.82 
   4   2  -2  136.53    5.20 
   4   2  -2  121.81    4.83 
  -4  -2   2  141.52    6.25 
   4  -2  -2  134.69    5.12 
   4  -2  -2  130.70    4.97 
  -4  -2   2  151.61    6.73 
  -4  -2   2  143.36    5.52 
  -4  -2   2  130.29    5.18 
   4   2  -1   56.55    3.34 
   4   2  -1   58.26    3.42 
  -4   2   1   63.04    3.51 
  -4  -2   1   58.11    3.29 
  -4  -2   1   58.31    3.29 
   4   2   0   34.51    2.52 
  -4  -2   0   32.08    2.25 
   4   2   1  286.13   10.63 
   4   2   1  289.92   12.02 
   4   2   1  257.32    9.45 
  -4   2  -1  291.13   11.93 
   4  -2   1  280.82   10.09 
  -4  -2  -1  299.67   11.90 
   4  -2   1  275.17    9.92 
  -4  -2  -1  292.01   11.62 
  -4  -2  -1  303.28   10.99 
  -4  -2  -1  262.93    9.80 
  -4  -2  -1  290.74   10.48 
  -4   2  -2   61.34    3.10 
   4   2   2   65.01    3.71 
   4   2   2   64.81    2.58 
  -4   2  -2   61.69    3.59 
  -4   2  -2   61.68    3.28 
  -4   2  -2   65.46    2.61 
  -4  -2  -2   63.32    2.29 
  -4  -2  -2   61.39    2.21 
  -4  -2  -2   66.94    2.43 
  -4  -2  -2   58.78    2.21 
  -4  -2  -2   62.71    2.34 
  -4  -2  -2   66.24    2.63 
   4  -2   2   59.69    2.27 
  -4  -2  -2   59.38    3.07 
   4  -2   2   61.07    2.42 
  -4   2  -3    0.18    0.64 
   4   2   3    0.35    0.80 
  -4   2  -3   -0.20    0.93 
  -4   2  -3    0.33    0.76 
  -4   2  -3    0.16    0.42 
   4   2   3    0.44    0.62 
  -4   2  -3    0.02    0.56 
  -4   2  -3    0.01    0.37 
   4  -2   3    0.18    0.33 
   4  -2   3    0.30    0.40 
  -4  -2  -3   -0.03    0.52 
   4  -2   3    0.14    0.44 
  -4  -2  -3    0.16    0.37 
  -4  -2  -3   -0.24    0.42 
  -4  -2  -3   -0.10    0.46 
  -4  -2  -3    0.00    0.38 
  -4  -2  -3   -0.20    0.69 
  -4  -2  -3    0.09    0.41 
  -4  -2  -3    0.30    0.42 
   4  -2   3   -0.06    0.42 
  -4   2  -4    3.81    0.93 
  -4   2  -4    5.31    1.29 
  -4   2  -4    5.24    1.10 
   4   2   4    5.44    0.86 
  -4   2  -4    4.71    0.64 
  -4   2  -4    5.05    0.66 
  -4   2  -4    5.15    0.66 
  -4   2  -4    6.03    0.85 
  -4  -2  -4    5.50    0.73 
   4  -2   4    5.15    0.65 
  -4  -2  -4    4.50    0.62 
  -4  -2  -4    5.24    0.59 
  -4  -2  -4    5.79    0.94 
  -4  -2  -4    5.18    0.78 
  -4  -2  -4    5.21    0.63 
   4  -2   4    4.98    0.74 
  -4   2  -5  114.74    4.52 
   4   2   5  107.03    4.22 
  -4   2  -5  105.73    3.94 
  -4   2  -5   87.22    5.41 
  -4   2  -5  101.25    3.88 
   4  -2   5  103.59    4.31 
   4  -2   5   97.78    3.77 
  -4  -2  -5  110.65    4.18 
  -4  -2  -5  108.51    4.10 
  -4  -2  -5  100.85    3.88 
  -4  -2  -5  101.39    4.09 
  -4  -2  -5  101.51    3.87 
  -4  -2  -5  104.41    3.88 
   4  -2   5  102.86    4.04 
  -4   2  -6   36.67    2.14 
   4   2   6   36.62    2.27 
  -4   2  -6   38.36    2.12 
  -4   2  -6   37.21    2.10 
  -4   2  -6   40.06    2.44 
  -4  -2  -6   35.06    1.96 
   4  -2   6   28.66    2.65 
   4  -2   6   36.06    2.07 
  -4  -2  -6   32.21    3.20 
  -4  -2  -6   41.75    2.31 
  -4  -2  -6   39.46    2.23 
  -4  -2  -6   31.00    1.94 
  -4  -2  -6   34.30    2.21 
  -4  -2  -6   28.54    1.93 
  -4  -2  -6   36.10    2.05 
   4  -2   6   39.45    2.33 
   4   2   7   10.92    1.56 
  -4   2  -7   10.04    1.54 
   4   2   7   13.66    1.65 
  -4   2  -7   12.01    1.53 
  -4   2  -7   12.86    1.68 
  -4   2  -7    9.75    1.98 
  -4  -2  -7   11.95    1.45 
  -4  -2  -7   12.52    1.54 
  -4  -2  -7   11.49    1.41 
  -4  -2  -7   10.14    1.70 
  -4  -2  -7    5.44    1.33 
  -4  -2  -7    7.60    1.23 
   4  -2   7   11.73    1.55 
   4   3  -8    2.74    0.67 
   4   3  -8    3.21    0.60 
   4   3  -8    3.00    0.60 
   4   3  -8    2.88    0.55 
   4  -3  -8    1.80    0.60 
   4  -3  -8    3.15    0.64 
   4  -3  -8    2.76    0.57 
   4   3  -7    2.62    0.66 
   4   3  -7    2.97    0.58 
   4   3  -7    3.05    0.58 
   4   3  -7    3.49    0.73 
   4   3  -7    3.22    0.59 
   4   3  -7    2.89    0.64 
   4   3  -7    3.55    0.65 
   4   3  -7    3.20    0.61 
   4  -3  -7    3.55    0.71 
  -4  -3   7    3.56    0.80 
   4  -3  -7    3.22    0.82 
   4  -3  -7    3.29    0.65 
  -4  -3   7    3.27    0.65 
   4  -3  -7    3.24    0.58 
   4  -3  -7    3.44    0.70 
   4   3  -6   19.47    1.02 
   4   3  -6   18.19    1.05 
   4   3  -6   19.54    1.13 
   4   3  -6   19.02    1.15 
   4   3  -6   20.05    1.14 
   4   3  -6   17.99    1.17 
   4   3  -6   18.71    1.10 
   4   3  -6   20.12    1.19 
   4  -3  -6   19.98    1.20 
   4  -3  -6   19.01    1.16 
  -4  -3   6   18.12    1.25 
  -4  -3   6   19.28    1.19 
   4  -3  -6   19.79    1.18 
   4  -3  -6   19.62    1.15 
   4  -3  -6   18.22    1.19 
  -4  -3   6   19.05    1.32 
   4   3  -5   21.18    1.23 
   4   3  -5   17.30    1.74 
   4   3  -5   16.82    1.86 
   4   3  -5   20.70    1.22 
   4   3  -5   22.20    1.22 
   4   3  -5   21.88    1.37 
   4   3  -5   20.89    1.15 
   4   3  -5   19.86    1.19 
   4  -3  -5   19.97    1.32 
   4  -3  -5   20.09    1.17 
  -4  -3   5   20.23    1.87 
  -4  -3   5   20.61    1.19 
   4  -3  -5   20.39    1.18 
   4  -3  -5   20.14    1.12 
   4  -3  -5   20.21    1.19 
   4  -3  -5   20.27    1.20 
  -4  -3   5   21.84    1.42 
   4   3  -4   21.32    1.72 
   4   3  -4   23.80    1.21 
   4   3  -4   21.68    1.65 
   4   3  -4   23.39    1.98 
   4   3  -4   23.29    1.16 
   4   3  -4   23.05    1.11 
   4   3  -4   25.35    1.37 
   4   3  -4   23.17    1.09 
   4   3  -4   23.10    1.14 
   4  -3  -4   24.50    1.17 
   4  -3  -4   21.40    1.12 
  -4  -3   4   22.41    1.85 
   4  -3  -4   22.22    1.15 
   4  -3  -4   24.27    1.39 
  -4  -3   4   21.22    1.09 
  -4  -3   4   24.57    1.30 
   4  -3  -4   24.68    1.22 
  -4  -3   4   26.22    1.47 
   4   3  -3   26.10    2.02 
   4   3  -3   25.59    2.18 
   4   3  -3   27.01    1.95 
  -4   3   3   27.12    1.92 
   4   3  -3   25.22    1.18 
  -4   3   3   23.81    1.91 
   4   3  -3   23.63    1.07 
   4   3  -3   24.61    1.80 
   4   3  -3   25.43    1.08 
   4   3  -3   25.64    1.36 
   4   3  -3   27.67    1.26 
  -4  -3   3   23.97    1.18 
  -4  -3   3   24.65    1.96 
   4  -3  -3   26.03    1.17 
  -4  -3   3   25.38    2.06 
  -4  -3   3   23.58    1.06 
   4  -3  -3   25.19    1.15 
   4  -3  -3   22.68    1.22 
  -4  -3   3   28.13    1.20 
   4  -3  -3   24.61    1.11 
   4   3  -2    7.57    1.15 
   4   3  -2    7.31    1.09 
   4   3  -2    6.40    0.66 
  -4   3   2    6.99    1.13 
   4   3  -2    6.07    0.71 
   4   3  -2    6.61    0.62 
   4   3  -2    6.41    0.52 
  -4  -3   2    6.99    1.06 
  -4  -3   2    7.31    0.70 
  -4  -3   2    7.77    1.16 
  -4  -3   2    6.07    1.18 
  -4  -3   2    6.94    0.58 
  -4  -3   2    7.14    0.65 
  -4  -3   2    6.73    0.58 
   4  -3  -2    6.65    0.58 
  -4  -3   2    7.23    0.77 
   4   3  -1   87.96    4.50 
   4   3  -1   86.47    3.46 
  -4   3   1   89.96    4.52 
   4   3  -1   83.53    3.28 
   4   3  -1   88.55    3.67 
   4   3  -1   78.75    3.21 
  -4  -3   1   92.50    3.66 
  -4  -3   1   88.94    3.57 
  -4  -3   1   91.69    4.53 
  -4  -3   1   88.00    3.64 
   4   3   0   40.72    1.90 
   4   3   0   45.81    3.07 
   4   3   0   47.13    2.26 
  -4   3   0   43.81    2.99 
  -4  -3   0   42.97    2.75 
  -4  -3   0   40.67    1.84 
  -4  -3   0   45.80    2.82 
  -4  -3   0   47.55    2.10 
  -4  -3   0   43.49    1.95 
  -4  -3   0   44.39    2.15 
   4   3   1   52.79    2.08 
   4   3   1   57.72    3.46 
  -4   3  -1   56.48    3.09 
   4   3   1   56.90    2.39 
  -4  -3  -1   57.99    3.11 
   4  -3   1   53.52    1.88 
   4  -3   1   55.32    2.06 
  -4  -3  -1   53.75    2.05 
  -4  -3  -1   58.57    2.22 
  -4  -3  -1   58.81    2.20 
  -4  -3  -1   53.92    2.11 
  -4  -3  -1   54.02    2.27 
  -4  -3  -1   58.57    3.12 
  -4   3  -2   41.32    2.95 
  -4   3  -2   50.79    3.19 
   4   3   2   49.55    3.10 
   4   3   2   49.97    2.03 
  -4   3  -2   47.37    2.74 
  -4   3  -2   45.07    1.91 
  -4  -3  -2   50.58    2.70 
  -4  -3  -2   45.09    1.69 
   4  -3   2   45.52    1.54 
  -4  -3  -2   48.71    1.74 
  -4  -3  -2   49.60    1.82 
  -4  -3  -2   44.39    1.66 
  -4  -3  -2   46.24    1.95 
  -4  -3  -2   44.95    1.67 
   4  -3   2   49.77    1.74 
   4  -3   2   44.18    1.83 
  -4   3  -3   27.68    1.91 
  -4   3  -3   29.77    2.52 
   4   3   3   23.89    2.22 
   4   3   3   28.82    1.55 
  -4   3  -3   27.79    2.14 
  -4   3  -3   28.35    1.25 
  -4   3  -3   27.47    1.30 
  -4   3  -3   27.74    1.49 
  -4  -3  -3   27.35    2.01 
  -4  -3  -3   27.24    1.24 
   4  -3   3   27.68    1.19 
  -4  -3  -3   27.28    1.32 
  -4  -3  -3   26.01    1.30 
  -4  -3  -3   26.73    1.24 
  -4  -3  -3   30.05    1.64 
  -4  -3  -3   29.42    1.41 
  -4  -3  -3   29.12    1.35 
   4  -3   3   30.05    1.52 
  -4   3  -4   29.24    2.02 
  -4   3  -4   36.54    2.79 
  -4   3  -4   33.17    2.46 
  -4   3  -4   35.60    1.71 
  -4   3  -4   37.41    1.93 
   4   3   4   34.07    1.86 
  -4   3  -4   34.16    1.58 
   4  -3   4   36.16    1.66 
  -4  -3  -4   33.75    1.63 
  -4  -3  -4   34.78    1.73 
  -4  -3  -4   33.20    1.65 
  -4  -3  -4   32.91    1.62 
  -4  -3  -4   37.43    1.77 
  -4  -3  -4   34.82    1.72 
  -4  -3  -4   35.26    1.91 
   4  -3   4   31.93    1.46 
  -4  -3  -4   35.45    1.65 
   4  -3   4   33.17    1.73 
  -4   3  -5    0.99    0.55 
  -4   3  -5    1.26    0.67 
   4   3   5    1.69    0.79 
  -4   3  -5    0.96    0.50 
   4  -3   5    1.02    0.54 
  -4  -3  -5    1.73    0.60 
  -4  -3  -5    0.91    0.49 
  -4  -3  -5    1.04    0.65 
  -4  -3  -5    1.24    0.59 
  -4  -3  -5    1.47    0.61 
  -4  -3  -5    0.88    0.64 
  -4  -3  -5    1.41    0.87 
  -4  -3  -5    1.55    0.48 
  -4  -3  -5    1.04    0.64 
   4  -3   5    1.50    0.62 
  -4   3  -6   27.13    2.25 
   4   3   6   27.56    1.86 
  -4   3  -6   29.11    1.71 
  -4   3  -6   26.87    1.67 
  -4   3  -6   26.25    1.77 
  -4  -3  -6   29.24    1.73 
  -4  -3  -6   23.53    1.74 
   4  -3   6   21.15    1.44 
  -4  -3  -6   29.48    1.79 
  -4  -3  -6   28.28    1.71 
  -4  -3  -6   25.78    1.95 
  -4  -3  -6   26.52    1.69 
  -4  -3  -6   23.64    1.48 
   4  -3   6   28.10    1.80 
   4   3   7    0.46    0.56 
  -4   3  -7    0.39    0.42 
   4   3   7    0.45    0.56 
  -4   3  -7    0.33    0.47 
  -4   3  -7    0.58    0.46 
  -4   3  -7    0.25    0.67 
  -4  -3  -7    0.24    0.49 
  -4  -3  -7    0.30    0.52 
  -4  -3  -7    0.71    0.48 
  -4  -3  -7    0.46    0.60 
  -4  -3  -7    0.31    0.49 
  -4  -3  -7    0.17    0.45 
   4  -3   7    0.63    0.55 
   4   4  -8    6.65    0.88 
   4   4  -8    6.25    0.85 
   4   4  -8    5.34    0.84 
   4   4  -8    6.77    1.09 
   4  -4  -8    6.22    1.04 
  -4  -4   8    5.79    1.27 
   4   4  -7    9.70    1.11 
   4   4  -7    9.11    1.09 
   4   4  -7   12.18    1.21 
   4   4  -7   13.04    1.39 
   4   4  -7   12.90    1.24 
   4   4  -7   13.09    1.30 
   4   4  -7   11.81    1.24 
   4  -4  -7   13.03    1.32 
  -4  -4   7   12.15    1.23 
   4  -4  -7   10.06    1.22 
   4  -4  -7   11.91    1.20 
  -4  -4   7   12.83    1.40 
   4   4  -6   22.88    1.30 
   4   4  -6   21.92    1.20 
   4   4  -6   23.37    1.32 
   4   4  -6   23.93    1.28 
   4   4  -6   23.02    1.45 
   4   4  -6   22.38    1.32 
   4   4  -6   23.01    1.35 
   4   4  -6   21.98    1.25 
   4   4  -6   22.66    1.30 
   4  -4  -6   23.99    1.54 
  -4  -4   6   24.98    1.55 
  -4  -4   6   23.16    1.39 
   4  -4  -6   23.37    1.33 
   4  -4  -6   22.67    1.34 
   4  -4  -6   22.50    1.29 
  -4  -4   6   23.53    1.22 
  -4  -4   6   23.88    1.49 
   4   4  -5  132.26    4.61 
   4   4  -5  146.12    5.04 
   4   4  -5  134.22    4.58 
   4   4  -5  137.39    4.87 
   4   4  -5  136.65    4.75 
   4   4  -5  135.30    4.67 
   4  -4  -5  147.58    5.28 
  -4  -4   5  140.47    4.95 
   4  -4  -5  136.22    4.79 
  -4  -4   5  128.58    4.37 
  -4  -4   5  145.89    5.06 
   4  -4  -5  136.53    4.65 
   4  -4  -5  136.93    4.78 
   4  -4  -5  132.76    4.61 
  -4  -4   5  144.66    5.09 
   4   4  -4  108.38    4.58 
   4   4  -4  117.27    3.84 
   4   4  -4  109.74    3.61 
   4   4  -4  115.29    5.05 
   4   4  -4  108.68    4.41 
   4   4  -4  116.17    3.95 
   4   4  -4  110.78    3.58 
   4   4  -4  107.30    3.45 
   4   4  -4  115.47    3.80 
  -4  -4   4  103.20    4.50 
  -4  -4   4  111.54    3.74 
   4  -4  -4  129.10    4.43 
   4  -4  -4  110.91    3.62 
   4  -4  -4  116.45    3.78 
  -4  -4   4  108.46    3.53 
  -4  -4   4  103.01    4.53 
   4  -4  -4  109.79    3.64 
  -4  -4   4  119.41    4.04 
   4   4  -3  114.95    4.78 
   4   4  -3  111.38    3.46 
   4   4  -3  110.86    3.30 
   4   4  -3  122.68    5.20 
   4   4  -3  110.08    4.44 
   4   4  -3  114.66    3.49 
   4   4  -3  108.48    3.41 
   4   4  -3  110.49    3.58 
   4  -4  -3  113.05    3.41 
  -4  -4   3  113.63    4.75 
   4  -4  -3  116.06    3.78 
   4  -4  -3  113.96    3.49 
  -4  -4   3  110.23    4.59 
  -4  -4   3  104.33    6.19 
  -4  -4   3  116.34    3.62 
  -4  -4   3  118.55    3.50 
  -4  -4   3  117.05    3.67 
   4  -4  -3  112.48    3.47 
  -4  -4   3  109.66    3.33 
  -4  -4   3  113.72    3.67 
   4   4  -2   34.17    1.42 
   4   4  -2   33.70    2.26 
  -4   4   2   33.88    2.17 
   4   4  -2   32.48    1.35 
   4   4  -2   31.07    2.15 
   4   4  -2   29.82    1.20 
   4   4  -2   31.37    1.43 
  -4  -4   2   32.14    2.20 
  -4  -4   2   34.17    1.37 
  -4  -4   2   31.53    1.27 
   4  -4  -2   33.77    1.38 
  -4  -4   2   34.56    1.35 
  -4  -4   2   33.71    1.45 
  -4  -4   2   31.22    2.19 
  -4  -4   2   31.58    1.44 
   4   4  -1  141.87    4.56 
   4   4  -1  152.60    6.05 
   4   4  -1  147.41    4.72 
  -4   4   1  150.15    5.99 
   4   4  -1  135.15    4.29 
   4   4  -1  149.62    4.92 
  -4  -4   1  140.95    5.66 
  -4  -4   1  144.63    4.64 
  -4  -4   1  148.85    4.77 
  -4  -4   1  143.98    4.62 
  -4  -4   1  146.99    4.61 
  -4  -4   1  147.97    5.84 
  -4  -4   1  140.84    4.49 
  -4  -4   1  153.57    5.07 
   4  -4  -1  140.01    4.50 
  -4  -4   1  149.33    4.89 
   4   4   0   72.10    2.76 
   4   4   0   71.06    3.76 
   4   4   0   63.52    2.35 
  -4   4   0   64.95    3.61 
  -4  -4   0   61.44    3.26 
   4  -4   0   64.03    2.19 
  -4  -4   0   62.21    2.23 
   4  -4   0   67.54    2.40 
  -4  -4   0   63.72    2.32 
  -4  -4   0   67.01    2.38 
  -4  -4   0   63.62    2.35 
  -4  -4   0   66.08    3.40 
  -4  -4   0   71.59    2.72 
  -4   4  -1  214.47    7.88 
   4   4   1  228.89    8.21 
   4   4   1  218.33    6.15 
  -4   4  -1  217.35    7.52 
   4   4   1  205.90    5.86 
  -4  -4  -1  199.27    6.85 
  -4  -4  -1  214.48    5.98 
  -4  -4  -1  203.40    5.57 
  -4  -4  -1  214.39    6.06 
   4  -4   1  222.86    6.15 
  -4  -4  -1  211.01    5.66 
  -4  -4  -1  190.28    5.22 
  -4  -4  -1  209.00    5.91 
  -4  -4  -1  207.68    5.64 
  -4   4  -2   38.03    2.46 
   4   4   2   33.57    2.61 
   4   4   2   35.49    1.68 
   4   4   2   31.47    1.42 
  -4  -4  -2   36.95    2.38 
  -4  -4  -2   37.21    1.51 
  -4  -4  -2   36.88    1.53 
  -4  -4  -2   34.34    1.49 
   4  -4   2   37.71    1.45 
  -4  -4  -2   40.70    1.68 
  -4  -4  -2   38.31    1.58 
  -4  -4  -2   37.35    1.74 
  -4  -4  -2   35.52    1.49 
   4   4   3  298.61   10.53 
  -4   4  -3  327.72   11.41 
  -4   4  -3  326.72   11.77 
   4   4   3  341.78   10.15 
  -4   4  -3  309.46    9.30 
   4  -4   3  330.34    9.45 
   4  -4   3  347.34   10.02 
  -4  -4  -3  327.22    9.54 
  -4  -4  -3  324.89    9.50 
  -4  -4  -3  311.24    9.24 
  -4  -4  -3  341.71   10.01 
  -4  -4  -3  328.22    9.80 
  -4  -4  -3  343.22   10.06 
  -4  -4  -3  341.98   10.02 
   4  -4   3  326.23    9.79 
  -4   4  -4  102.09    3.70 
  -4   4  -4   97.98    3.76 
   4   4   4  109.46    4.08 
  -4   4  -4  110.07    3.85 
  -4  -4  -4  105.29    3.79 
  -4  -4  -4  105.64    3.81 
  -4  -4  -4  108.78    3.94 
  -4  -4  -4  115.34    4.10 
  -4  -4  -4  106.09    3.79 
  -4  -4  -4   99.33    3.62 
   4  -4   4  105.61    3.68 
  -4  -4  -4  112.19    4.18 
   4  -4   4   97.69    3.61 
  -4  -4  -4  106.10    3.76 
   4  -4   4  106.16    3.94 
  -4   4  -5  203.44    7.88 
   4   4   5  217.64    8.32 
  -4   4  -5  222.37    7.64 
  -4   4  -5  221.03    8.02 
  -4  -4  -5  223.39    7.67 
  -4  -4  -5  225.63    7.76 
  -4  -4  -5  239.64    8.20 
  -4  -4  -5  212.14    7.96 
  -4  -4  -5  237.42    8.10 
   4  -4   5  205.11    7.74 
  -4  -4  -5  207.38   10.12 
  -4  -4  -5  222.38    7.63 
  -4  -4  -5  225.74    7.68 
   4  -4   5  208.50    7.98 
   4   4   6    5.72    0.83 
  -4   4  -6    5.53    0.74 
   4   4   6    3.95    0.83 
  -4   4  -6    4.69    0.72 
  -4   4  -6    5.22    0.74 
  -4   4  -6    3.87    0.93 
   4  -4   6    3.97    0.68 
  -4  -4  -6    3.94    0.67 
  -4  -4  -6    5.08    0.77 
  -4  -4  -6    5.63    0.88 
  -4  -4  -6    4.79    0.80 
  -4  -4  -6    4.35    0.89 
  -4  -4  -6    5.29    0.87 
  -4  -4  -6    5.70    0.79 
   4  -4   6    4.81    0.82 
  -4   4  -7   10.62    1.34 
  -4   4  -7    7.10    1.34 
  -4  -4  -7    4.98    1.01 
   4   5  -7   16.09    1.69 
   4   5  -7   17.04    1.85 
   4   5  -7   19.10    2.11 
   4   5  -7   18.48    1.96 
   4   5  -7   15.41    1.73 
  -4  -5   7   15.49    1.72 
  -4  -5   7   19.25    2.13 
   4  -5  -7   18.42    2.03 
  -4  -5   7   18.22    2.01 
   4   5  -6   59.49    3.17 
   4   5  -6   56.21    2.96 
   4   5  -6   59.76    3.13 
   4   5  -6   59.99    3.14 
   4   5  -6   65.19    3.45 
  -4  -5   6   64.00    3.24 
   4  -5  -6   63.62    3.34 
  -4  -5   6   63.87    3.34 
  -4  -5   6   64.01    3.39 
   4  -5  -6   65.23    3.48 
   4  -5  -6   64.35    3.32 
  -4  -5   6   65.52    3.48 
   4   5  -5   45.65    2.00 
   4   5  -5   48.41    2.06 
   4   5  -5   52.72    2.27 
   4   5  -5   51.06    2.19 
   4   5  -5   49.61    2.27 
   4   5  -5   48.22    2.11 
   4  -5  -5   45.40    1.99 
  -4  -5   5   44.96    1.91 
  -4  -5   5   51.76    2.28 
   4  -5  -5   50.14    2.35 
  -4  -5   5   50.03    2.24 
   4   5  -4   54.64    3.20 
   4   5  -4   60.81    2.50 
   4   5  -4   65.73    3.44 
   4   5  -4   59.85    2.50 
   4   5  -4   63.58    3.70 
   4   5  -4   58.09    3.13 
   4   5  -4   59.84    2.68 
   4   5  -4   61.77    2.51 
   4   5  -4   61.37    2.61 
  -4  -5   4   54.18    3.13 
  -4  -5   4   58.37    2.55 
  -4  -5   4   51.21    2.17 
  -4  -5   4   55.78    3.17 
   4  -5  -4   60.04    2.53 
  -4  -5   4   57.92    2.39 
  -4  -5   4   56.85    2.45 
   4  -5  -4   61.79    2.78 
   4  -5  -4   60.84    2.54 
  -4  -5   4   58.95    2.63 
   4   5  -3   35.72    2.43 
   4   5  -3   39.61    1.64 
   4   5  -3   38.44    2.39 
   4   5  -3   39.74    2.42 
   4   5  -3   37.77    2.71 
   4   5  -3   38.66    1.53 
   4   5  -3   40.19    1.79 
   4   5  -3   35.61    1.56 
  -4  -5   3   37.56    2.44 
  -4  -5   3   36.62    1.64 
  -4  -5   3   41.71    1.73 
   4  -5  -3   37.11    1.55 
  -4  -5   3   34.68    2.37 
  -4  -5   3   39.51    1.59 
  -4  -5   3   39.49    1.70 
   4  -5  -3   35.14    1.72 
  -4  -5   3   37.78    1.54 
  -4  -5   3   38.24    1.72 
  -4   5   2  126.07    4.90 
   4   5  -2  137.95    4.26 
   4   5  -2  120.48    4.92 
   4   5  -2  128.38    3.93 
  -4  -5   2  130.00    3.95 
  -4  -5   2  126.97    5.11 
  -4  -5   2  128.63    3.77 
   4  -5  -2  132.12    3.92 
  -4  -5   2  126.77    3.75 
  -4  -5   2  132.06    4.04 
  -4  -5   2  126.62    3.84 
  -4  -5   2  138.72    4.25 
   4   5  -1   53.60    2.07 
  -4   5   1   56.74    3.03 
   4   5  -1   57.11    2.04 
   4   5  -1   54.72    1.88 
  -4  -5   1   58.07    2.07 
  -4  -5   1   59.14    3.13 
  -4  -5   1   58.46    1.99 
  -4  -5   1   54.05    3.05 
  -4  -5   1   57.25    2.00 
  -4  -5   1   53.91    2.05 
  -4  -5   1   53.62    2.01 
  -4  -5   1   57.82    2.15 
   4   5   0  102.74    3.09 
   4   5   0  117.03    5.00 
  -4   5   0  113.79    4.98 
   4   5   0  109.55    3.56 
   4   5   0  113.08    3.53 
  -4  -5   0  106.22    3.22 
   4  -5   0  112.09    3.26 
  -4  -5   0  109.73    3.39 
  -4  -5   0  116.99    4.91 
  -4  -5   0  107.90    3.39 
  -4  -5   0  112.28    4.68 
  -4  -5   0  108.91    3.31 
  -4  -5   0  119.06    3.70 
  -4  -5   0  106.97    3.31 
  -4  -5   0  111.77    3.58 
  -4   5  -1   13.86    1.85 
   4   5   1   13.19    1.62 
   4   5   1   13.07    0.91 
   4   5   1   13.41    1.00 
  -4  -5  -1   13.15    1.48 
   4  -5   1   14.03    0.76 
  -4  -5  -1   12.76    0.91 
  -4  -5  -1   13.96    0.94 
  -4  -5  -1   13.55    0.87 
  -4  -5  -1   13.35    0.88 
  -4  -5  -1   13.68    0.91 
  -4  -5  -1   15.20    0.98 
   4  -5   1   14.94    0.84 
  -4  -5  -1   14.57    1.02 
   4   5   2  197.50    7.80 
  -4   5  -2  205.32    8.01 
   4   5   2  191.47    5.88 
   4   5   2  206.53    6.48 
  -4  -5  -2  188.66    5.76 
   4  -5   2  204.82    6.07 
  -4  -5  -2  200.85    6.20 
   4  -5   2  208.55    6.26 
  -4  -5  -2  196.54    5.96 
  -4  -5  -2  192.97    5.96 
  -4  -5  -2  197.81    6.26 
  -4  -5  -2  205.48    6.29 
   4   5   3  114.25    5.76 
  -4   5  -3  107.05    5.51 
   4   5   3  111.23    4.44 
   4   5   3  107.64    4.21 
  -4  -5  -3  107.68    4.16 
   4  -5   3  114.41    4.27 
  -4  -5  -3  114.78    4.39 
  -4  -5  -3  111.69    4.26 
  -4  -5  -3  106.23    4.13 
  -4  -5  -3  109.25    4.24 
  -4  -5  -3  109.80    4.26 
  -4  -5  -3  109.52    4.41 
  -4  -5  -3  108.60    4.18 
   4   5   4  106.86    4.25 
  -4   5  -4  103.63    3.88 
   4  -5   4  104.86    3.82 
  -4  -5  -4  103.37    3.93 
  -4  -5  -4  107.70    4.08 
  -4  -5  -4  109.80    4.13 
  -4  -5  -4  112.07    4.27 
  -4  -5  -4  104.20    3.96 
  -4  -5  -4  106.91    4.09 
  -4  -5  -4  109.25    4.32 
  -4  -5  -4  104.47    3.99 
   4   5   5   14.01    1.32 
  -4   5  -5   13.58    1.71 
  -4   5  -5   14.70    0.92 
   4   5   5   16.50    1.10 
  -4  -5  -5   17.37    1.13 
   4  -5   5   15.44    0.98 
  -4  -5  -5   16.47    1.13 
  -4  -5  -5   13.96    1.02 
  -4  -5  -5   15.67    1.06 
  -4  -5  -5   17.07    1.12 
  -4  -5  -5   17.51    1.10 
  -4  -5  -5   13.89    1.14 
   4  -5   5   12.90    0.79 
  -4  -5  -5   15.99    1.00 
   4  -5   5   14.00    1.15 
  -4   5  -6    2.05    0.51 
   4   5   6    2.66    0.74 
  -4  -5  -6    2.64    0.63 
   4  -5   6    2.10    0.57 
  -4  -5  -6    1.93    0.60 
  -4  -5  -6    2.22    0.56 
  -4  -5  -6    2.31    0.67 
  -4  -5  -6    3.01    0.70 
  -4  -5  -6    2.17    0.60 
   4   6  -7    3.93    0.71 
   4   6  -7    4.00    0.71 
   4   6  -7    3.66    0.64 
   4   6  -7    3.47    0.62 
   4   6  -7    3.16    0.65 
   4   6  -7    3.83    0.72 
  -4  -6   7    3.52    0.63 
  -4  -6   7    3.21    0.69 
   4   6  -6    1.72    0.54 
   4   6  -6    1.87    0.65 
   4   6  -6    1.90    0.51 
   4   6  -6    2.33    0.73 
   4   6  -6    1.48    0.55 
  -4  -6   6    1.97    0.68 
  -4  -6   6    2.05    0.49 
  -4  -6   6    1.59    0.66 
   4  -6  -6    1.95    0.75 
  -4  -6   6    2.01    0.64 
   4   6  -5    4.36    0.62 
   4   6  -5    4.89    0.72 
   4   6  -5    4.47    0.75 
   4   6  -5    4.84    0.77 
   4   6  -5    3.91    0.67 
   4  -6  -5    5.38    0.88 
  -4  -6   5    4.24    0.59 
   4  -6  -5    4.19    0.57 
  -4  -6   5    4.58    0.72 
  -4  -6   5    4.18    0.74 
   4   6  -4    7.68    0.74 
   4   6  -4    7.10    0.65 
   4   6  -4    7.28    0.65 
   4   6  -4    7.06    0.83 
   4   6  -4    7.39    0.76 
  -4  -6   4    6.87    0.82 
   4  -6  -4    6.75    0.69 
  -4  -6   4    7.15    0.77 
  -4  -6   4    8.16    0.83 
   4  -6  -4    7.49    0.91 
  -4  -6   4    6.84    0.62 
  -4  -6   4    6.92    0.81 
   4   6  -3    8.26    1.31 
   4   6  -3    8.40    0.73 
   4   6  -3    8.44    1.27 
   4   6  -3    8.33    0.68 
   4   6  -3    7.88    1.51 
   4   6  -3    8.27    1.24 
   4   6  -3    8.61    0.88 
   4   6  -3    7.93    0.75 
  -4  -6   3    6.62    0.65 
  -4  -6   3    8.56    0.86 
  -4  -6   3    8.40    1.24 
   4  -6  -3    8.27    0.68 
  -4  -6   3    8.61    1.25 
  -4  -6   3    8.93    0.80 
  -4  -6   3    8.09    0.80 
   4  -6  -3    7.50    0.81 
  -4  -6   3    8.39    0.71 
  -4  -6   3    8.89    0.90 
   4   6  -2   25.78    2.06 
   4   6  -2   21.56    1.03 
   4   6  -2   23.85    1.87 
   4   6  -2   22.87    1.24 
   4   6  -2   23.24    2.16 
   4   6  -2   23.52    1.96 
   4   6  -2   22.37    1.14 
  -4  -6   2   25.25    1.23 
  -4  -6   2   23.90    1.89 
  -4  -6   2   22.63    1.08 
  -4  -6   2   23.01    1.94 
  -4  -6   2   22.57    1.12 
  -4  -6   2   23.87    1.28 
  -4  -6   2   22.52    1.20 
  -4  -6   2   24.11    1.33 
  -4   6   1   74.20    3.70 
   4   6  -1   73.31    3.69 
   4   6  -1   69.43    2.61 
   4   6  -1   60.40    3.29 
   4   6  -1   70.42    2.56 
  -4  -6   1   73.10    2.52 
  -4  -6   1   71.88    3.63 
  -4  -6   1   76.04    2.63 
  -4  -6   1   66.77    2.53 
  -4  -6   1   73.75    2.65 
  -4  -6   1   67.81    2.57 
  -4   6   0   17.35    1.91 
   4   6   0   16.90    0.91 
  -4  -6   0   17.56    1.76 
  -4  -6   0   19.48    1.02 
   4  -6   0   17.76    0.86 
  -4  -6   0   17.36    1.09 
  -4  -6   0   16.86    1.00 
  -4  -6   0   16.86    0.99 
  -4  -6   0   15.89    0.95 
  -4  -6   0   16.67    0.99 
   4   6   1    2.91    0.56 
  -4   6  -1    3.18    1.17 
  -4  -6  -1    2.84    1.00 
   4  -6   1    3.47    0.49 
  -4  -6  -1    3.26    0.60 
   4  -6   1    3.44    0.46 
  -4  -6  -1    2.51    0.47 
  -4  -6  -1    3.14    0.62 
  -4  -6  -1    2.73    0.53 
  -4  -6  -1    3.14    0.68 
  -4  -6  -1    3.53    0.59 
   4   6   2   60.40    3.73 
  -4   6  -2   57.86    3.59 
   4   6   2   57.40    2.26 
   4  -6   2   60.59    2.14 
  -4  -6  -2   57.08    2.28 
  -4  -6  -2   55.25    2.21 
   4  -6   2   56.93    2.31 
  -4  -6  -2   60.13    2.29 
  -4  -6  -2   54.41    2.15 
  -4  -6  -2   58.30    2.34 
  -4  -6  -2   54.43    2.15 
   4   6   3   11.56    0.89 
  -4  -6  -3   10.93    0.86 
  -4  -6  -3   12.64    0.96 
   4  -6   3   11.92    0.80 
  -4  -6  -3   11.23    0.97 
  -4  -6  -3   11.25    0.92 
  -4  -6  -3   11.28    0.88 
  -4  -6  -3   12.91    1.01 
   4   6   4    5.18    0.74 
   4  -6   4    5.07    0.59 
  -4  -6  -4    5.13    0.66 
  -4  -6  -4    5.43    0.69 
   4  -6   4    5.62    0.73 
  -4  -6  -4    5.27    0.75 
  -4  -6  -4    5.10    0.73 
  -4  -6  -4    4.98    0.76 
  -4  -6  -4    5.71    0.78 
   4   6   5    3.92    0.79 
  -4   6  -5    3.32    0.54 
  -4  -6  -5    4.14    0.77 
   4  -6   5    2.70    0.52 
  -4  -6  -5    3.89    0.72 
  -4  -6  -5    3.75    0.69 
  -4  -6  -5    3.23    0.66 
  -4  -6  -5    3.74    0.66 
   4   6   6    4.20    0.79 
  -4   6  -6    4.42    0.77 
  -4  -6  -6    4.08    0.83 
   4  -6   6    3.86    0.76 
  -4  -6  -6    4.61    0.75 
  -4  -6  -6    3.21    0.60 
  -4  -6  -6    4.25    0.78 
  -4  -6  -6    3.60    0.65 
   4   7  -6    2.13    0.60 
   4   7  -6    1.74    0.49 
   4   7  -6    2.15    0.59 
   4   7  -6    2.01    0.57 
   4   7  -6    2.34    0.53 
   4   7  -6    2.10    0.58 
  -4  -7   6    2.10    0.52 
  -4  -7   6    2.26    0.63 
  -4  -7   6    1.44    0.53 
   4   7  -5   21.07    1.38 
   4   7  -5   24.11    1.49 
   4   7  -5   24.75    1.54 
   4   7  -5   23.28    1.47 
   4   7  -5   23.29    1.55 
  -4  -7   5   23.87    1.42 
  -4  -7   5   25.33    1.63 
  -4  -7   5   22.53    1.34 
  -4  -7   5   23.68    1.57 
   4  -7  -5   25.76    1.72 
  -4  -7   5   22.21    2.02 
   4   7  -4    8.94    0.78 
   4   7  -4    9.62    0.82 
   4   7  -4    9.24    0.80 
   4   7  -4    7.97    0.81 
  -4  -7   4    8.61    0.76 
  -4  -7   4    8.96    0.89 
  -4  -7   4    7.34    0.74 
  -4  -7   4    9.15    0.88 
   4  -7  -4    9.67    0.98 
  -4  -7   4    8.76    0.86 
   4   7  -3   15.36    1.02 
   4   7  -3   14.76    0.89 
   4   7  -3   15.00    1.05 
  -4  -7   3   15.87    0.98 
  -4  -7   3   15.93    1.07 
  -4  -7   3   14.39    0.94 
  -4  -7   3   16.54    1.15 
  -4  -7   3   14.54    1.03 
   4   7  -2   14.93    1.73 
   4   7  -2   12.54    1.72 
   4   7  -2   15.28    1.64 
   4   7  -2   14.31    0.87 
   4   7  -2   14.95    1.63 
  -4  -7   2   13.40    1.49 
  -4  -7   2   14.27    0.95 
  -4  -7   2   14.87    0.96 
  -4  -7   2   14.87    1.02 
   4   7  -1   64.03    3.69 
   4   7  -1   59.27    3.42 
   4   7  -1   67.52    2.78 
  -4  -7   1   72.89    2.99 
  -4  -7   1   65.71    3.70 
  -4  -7   1   65.92    2.67 
  -4  -7   1   67.54    2.81 
   4   7   0   22.50    1.26 
   4   7   0   25.59    2.19 
  -4  -7   0   21.19    1.97 
  -4  -7   0   23.16    1.30 
   4  -7   0   23.12    1.11 
  -4  -7   0   23.59    1.28 
  -4  -7   0   22.88    1.31 
   4   7   1    0.80    1.10 
  -4   7  -1    0.22    0.73 
  -4  -7  -1    0.17    0.45 
   4  -7   1    0.30    0.35 
  -4  -7  -1    0.53    0.60 
  -4  -7  -1    0.34    0.59 
   4  -7   1    0.20    0.35 
  -4  -7  -1    0.10    0.49 
  -4  -7  -2   19.72    1.09 
   4  -7   2   20.60    1.07 
  -4  -7  -2   18.15    1.13 
  -4  -7  -2   19.54    1.21 
   4  -7   2   21.01    1.12 
  -4  -7  -2   19.80    1.19 
   4   7   3    0.20    0.47 
   4  -7   3    0.88    0.50 
  -4  -7  -3    0.78    0.52 
  -4  -7  -3    0.19    0.63 
   4  -7   3    0.87    0.49 
  -4  -7  -3    0.19    0.57 
  -4  -7  -3    0.50    0.53 
  -4  -7  -3    0.41    0.57 
   4   7   4   16.46    1.20 
   4  -7   4   16.22    1.05 
  -4  -7  -4   17.86    1.25 
   4  -7   4   17.99    1.20 
  -4  -7  -4   17.76    1.26 
  -4  -7  -4   15.04    1.14 
  -4  -7  -4   17.50    1.23 
   4   7   5   18.77    2.17 
  -4  -7  -5   25.47    2.65 
  -4  -7  -5   25.03    2.59 
   4  -7   5   17.38    1.88 
  -4  -7  -5   21.90    2.30 
  -4   7  -6    0.42    0.46 
  -4  -7  -6    0.66    0.43 
   4  -7   6    0.47    0.40 
   4   8  -6    0.55    0.37 
   4   8  -6    0.27    0.43 
   4   8  -6    0.41    0.41 
  -4  -8   6    0.20    0.33 
  -4  -8   6    0.35    0.42 
   4   8  -5    2.38    0.55 
   4   8  -5    2.62    0.62 
   4   8  -5    2.23    0.57 
  -4  -8   5    1.70    0.36 
  -4  -8   5    2.43    0.51 
  -4  -8   5    2.46    0.62 
  -4  -8   5    2.19    0.60 
   4   8  -4   23.20    1.43 
   4   8  -4   25.86    1.55 
   4   8  -4   25.43    1.54 
  -4  -8   4   23.51    1.85 
  -4  -8   4   26.58    1.70 
  -4  -8   4   26.32    1.55 
   4   8  -3   92.88    3.73 
  -4  -8   3   92.98    3.81 
  -4  -8   3   84.23    3.37 
  -4  -8   3   87.92    3.50 
  -4  -8   3   90.42    3.74 
  -4  -8   3   83.02    3.31 
   4   8  -2   89.85    3.49 
   4   8  -2   90.62    3.42 
  -4  -8   2   94.70    3.57 
  -4  -8   2   95.11    3.55 
  -4  -8   2   85.08    3.40 
  -4  -8   2   79.11    3.06 
  -4  -8   1  118.62    4.48 
  -4  -8   1  116.08    4.27 
  -4  -8   1  112.44    4.15 
   4  -8   0    6.49    0.55 
  -4  -8   0    6.76    0.84 
  -4  -8   0    6.12    0.74 
  -4  -8   0    6.06    0.65 
  -4  -8  -1  144.40    5.24 
   4  -8   1  138.60    4.90 
  -4  -8  -1  133.29    4.93 
  -4  -8  -1  133.22    4.81 
  -4  -8  -1  134.60    4.87 
  -4  -8  -2    8.60    0.86 
   4  -8   2    8.73    0.69 
  -4  -8  -2    7.33    0.79 
  -4  -8  -2    9.57    0.92 
   4  -8   2    8.88    0.73 
  -4  -8  -2    8.47    0.87 
  -4  -8  -2    8.48    0.87 
  -4  -8  -3    6.25    0.79 
   4  -8   3    6.23    0.64 
  -4  -8  -3    6.12    0.72 
  -4  -8  -3    6.75    0.83 
   4  -8   3    7.13    0.68 
  -4  -8  -3    6.58    0.75 
  -4  -8  -3    6.99    0.84 
  -4  -8  -4   12.47    1.25 
  -4  -8  -4   13.89    1.36 
   4  -8   4   12.99    1.25 
  -4  -8  -4   13.35    1.28 
  -4  -8  -4   12.20    1.24 
  -4   8  -5   11.26    1.44 
  -4  -8  -5   11.07    1.54 
   4  -8   5   10.49    1.50 
  -4  -8  -5    9.82    1.85 
  -4  -8  -5   11.93    1.43 
   4   9  -5    3.18    0.60 
   4   9  -5    2.80    0.55 
  -4  -9   5    3.09    0.58 
  -4  -9   5    3.01    0.60 
   4   9  -4   17.43    1.57 
   4   9  -4   16.22    1.53 
  -4  -9   4   17.29    1.54 
  -4  -9   4   17.42    1.60 
  -4  -9   4   17.42    1.53 
   4   9  -3   32.22    2.68 
  -4  -9   3   31.74    2.63 
  -4  -9   3   33.47    2.75 
  -4  -9   3   31.45    2.60 
  -4  -9   3   31.20    2.64 
  -4  -9   2   46.61    1.95 
  -4  -9   2   50.15    2.03 
  -4  -9   2   49.62    2.03 
   4   9  -1    0.16    0.37 
  -4  -9   1   -0.03    0.59 
  -4  -9   1    0.34    0.53 
  -4  -9   1    0.10    0.45 
  -4  -9   0   28.49    1.44 
  -4  -9   0   37.51    1.78 
  -4  -9   0   32.61    1.52 
  -4  -9   0   34.67    1.57 
   4  -9   1    1.23    0.41 
  -4  -9  -1    1.38    0.51 
  -4  -9  -1    1.15    0.55 
  -4  -9  -1    1.67    0.59 
  -4  -9  -1    1.59    0.56 
   4  -9   2    9.22    0.76 
  -4  -9  -2    7.72    0.74 
  -4  -9  -2    9.54    0.89 
   4  -9   2    9.65    0.81 
  -4  -9  -2    9.50    0.85 
  -4  -9  -2    9.61    0.89 
   4   9   3    0.39    0.34 
  -4  -9  -3    0.23    0.53 
   4  -9   3    0.27    0.37 
   4  -9   3    0.50    0.41 
  -4  -9  -3   -0.03    0.50 
  -4  -9  -3    0.31    0.48 
   4   9   4   11.15    1.36 
  -4  -9  -4   14.90    1.71 
   4  -9   4   11.75    1.67 
  -4  -9  -4   12.54    1.49 
  -4  -9  -4   12.46    1.65 
  -4 -10   4    1.74    0.41 
  -4 -10   4    2.27    0.48 
   4  10  -3    8.44    1.04 
  -4 -10   3    9.96    1.18 
  -4 -10   3   10.23    1.19 
  -4 -10   2   17.51    1.57 
  -4 -10   2   17.03    1.51 
  -4 -10   1   16.16    1.53 
  -4 -10   1   13.26    1.25 
  -4 -10   1   14.91    1.41 
  -4 -10   0    2.12    0.61 
  -4 -10   0    2.69    0.62 
  -4 -10   0    2.48    0.61 
   4 -10   1    2.91    0.47 
  -4 -10  -1    3.23    0.63 
  -4 -10  -1    3.80    0.66 
  -4 -10  -1    2.93    0.61 
   4 -10   2    9.23    1.04 
  -4 -10  -2    9.45    1.14 
  -4 -10  -2    9.12    1.11 
   4 -10   3    3.61    0.56 
  -4 -10  -3    3.93    0.67 
  -4 -10  -3    3.61    0.67 
  -4 -11   3    0.18    0.34 
  -4 -11   2   12.38    1.35 
  -4 -11   1   15.76    1.78 
  -4 -11   1   12.65    1.58 
  -4 -11   0   10.95    1.32 
  -4 -11   0   10.81    1.35 
  -4 -11  -1    4.77    0.72 
  -4 -11  -1    4.35    0.74 
  -4 -11  -2    2.20    0.50 
  -4 -11  -2    2.20    0.49 
   5   0  -8    8.20    1.05 
   5   0  -8    9.04    1.17 
   5   0  -8    8.55    1.17 
   5   0  -8    9.08    1.11 
   5   0  -7    2.80    0.59 
   5   0  -7    3.40    0.66 
  -5   0   7    2.89    0.66 
   5   0  -7    2.77    0.81 
   5   0  -7    3.47    0.68 
   5   0  -7    2.80    0.57 
   5   0  -7    3.06    0.69 
  -5   0   7    2.94    0.70 
   5   0  -6    0.61    0.45 
   5   0  -6    0.58    0.55 
   5   0  -6    0.43    0.41 
  -5   0   6    0.95    0.60 
   5   0  -6    0.76    0.73 
   5   0  -6    0.69    0.56 
  -5   0   6    0.62    0.51 
   5   0  -6    0.66    0.57 
   5   0  -6    0.19    0.53 
   5   0  -6    0.81    0.59 
  -5   0   6    0.50    0.59 
   5   0  -5   48.05    2.01 
   5   0  -5   47.45    1.97 
   5   0  -5   42.00    1.76 
  -5   0   5   46.76    2.04 
   5   0  -5   49.06    2.09 
   5   0  -5   44.80    1.90 
  -5   0   5   45.71    2.00 
   5   0  -5   49.64    2.05 
   5   0  -5   47.54    1.97 
   5   0  -5   46.22    2.05 
  -5   0   5   48.43    2.17 
   5   0  -4   22.31    1.72 
  -5   0   4   17.25    1.58 
  -5   0   4   19.55    1.86 
   5   0  -4   21.88    1.11 
   5   0  -4   20.20    1.09 
   5   0  -4   19.05    0.97 
  -5   0   4   23.85    1.29 
   5   0  -4   23.27    1.30 
   5   0  -4   20.57    1.11 
  -5   0   4   21.70    1.19 
   5   0  -4   23.17    1.14 
   5   0  -4   21.78    1.11 
   5   0  -4   20.01    1.17 
  -5   0   4   25.08    1.41 
  -5   0   3  131.14    5.38 
   5   0  -3  126.58    5.03 
  -5   0   3  126.86    5.03 
  -5   0   3  133.73    5.57 
   5   0  -3  128.88    4.07 
   5   0  -3  127.34    4.09 
  -5   0   3  128.70    4.22 
   5   0  -3  130.26    4.24 
   5   0  -3  118.37    3.83 
   5   0  -3  126.04    4.10 
   5   0  -3  125.25    4.09 
   5   0  -3  124.22    4.14 
  -5   0   3  142.80    4.77 
  -5   0   2   36.77    2.24 
   5   0  -2   37.32    2.17 
  -5   0   2   39.84    2.32 
   5   0  -2   40.23    1.49 
  -5   0   2   38.40    1.56 
   5   0  -2   37.93    1.48 
   5   0  -2   37.76    1.46 
   5   0  -2   36.35    1.46 
   5   0  -2   37.30    1.61 
  -5   0   2   37.17    1.66 
  -5   0   1    2.13    0.90 
   5   0  -1    2.53    0.76 
   5   0  -1    1.91    0.49 
   5   0  -1    1.61    0.37 
  -5   0   1    1.53    0.47 
   5   0  -1    1.88    0.42 
   5   0  -1    1.74    0.41 
   5   0  -1    1.75    0.50 
  -5   0   1    1.33    0.54 
  -5   0   0   16.71    1.49 
   5   0   0   15.19    0.82 
  -5   0   0   15.19    0.82 
   5   0   0   15.04    0.86 
  -5   0   0   15.50    0.88 
  -5   0   0   14.53    1.13 
   5   0   1    9.86    0.72 
  -5   0  -1    9.77    0.70 
  -5   0  -1    9.91    0.75 
  -5   0  -1    9.70    0.95 
  -5   0  -2   83.88    3.90 
   5   0   2   80.55    2.72 
  -5   0  -2   88.13    2.96 
  -5   0  -2   83.38    2.87 
   5   0   2   86.48    3.03 
  -5   0  -2   89.36    3.10 
  -5   0  -2   99.51    3.59 
   5   0   2   88.54    3.25 
   5   0   3    7.10    0.61 
  -5   0  -3    8.72    0.77 
  -5   0  -3    9.27    0.74 
   5   0   3    8.22    0.79 
  -5   0  -3    8.57    0.79 
  -5   0  -3    9.59    1.15 
   5   0   3    9.38    1.06 
   5   0   4    5.52    0.62 
  -5   0  -4    5.66    0.66 
  -5   0  -4    6.37    0.71 
   5   0   4    5.14    0.72 
  -5   0  -4    5.59    0.80 
  -5   0  -4    6.09    1.01 
   5   0   4    5.79    0.89 
   5   0   5   12.45    0.82 
  -5   0  -5   12.77    0.93 
  -5   0  -5   12.87    0.94 
   5   0   5   12.04    1.00 
  -5   0  -5   13.82    0.99 
  -5   0  -6   11.35    1.13 
  -5   0  -6   11.09    1.19 
   5   0   6   12.16    1.23 
  -5   0  -6   12.25    1.31 
  -5   0  -7    0.01    0.55 
  -5   0  -7   -0.23    0.49 
   5   1  -8    0.25    0.56 
   5   1  -8    0.85    0.37 
   5   1  -8    0.93    0.53 
   5  -1  -8    0.86    0.52 
   5  -1  -8    1.57    0.55 
  -5  -1   8    0.99    0.49 
   5   1  -7    1.10    0.54 
   5   1  -7    1.31    0.60 
   5   1  -7    1.25    0.61 
   5   1  -7    1.18    0.43 
  -5   1   7    1.20    0.59 
   5   1  -7    1.37    0.59 
   5   1  -7    1.08    0.60 
   5   1  -7    1.47    0.68 
   5   1  -7    1.01    0.61 
   5  -1  -7    1.15    0.61 
   5  -1  -7    1.44    0.73 
   5  -1  -7    1.32    0.50 
   5  -1  -7    1.27    0.58 
   5  -1  -7    1.33    0.52 
   5  -1  -7    0.99    0.52 
  -5  -1   7    1.41    0.63 
  -5  -1   7    0.93    0.66 
   5   1  -6    3.24    0.63 
   5   1  -6    2.66    0.54 
   5   1  -6    3.08    0.68 
   5   1  -6    3.28    0.64 
   5   1  -6    3.54    0.62 
  -5   1   6    2.81    0.59 
   5   1  -6    3.06    0.54 
   5   1  -6    3.56    0.74 
  -5   1   6    3.27    0.69 
   5   1  -6    2.87    0.73 
   5  -1  -6    3.32    0.57 
  -5  -1   6    3.13    0.61 
   5  -1  -6    3.57    0.62 
  -5  -1   6    3.29    0.75 
   5  -1  -6    3.56    0.59 
   5  -1  -6    3.59    0.57 
   5  -1  -6    3.53    0.64 
   5  -1  -6    3.63    0.56 
   5  -1  -6    3.11    0.62 
  -5  -1   6    3.34    0.75 
   5   1  -5    0.89    0.52 
   5   1  -5    0.55    0.51 
  -5   1   5    0.82    0.54 
   5   1  -5    0.97    0.42 
   5   1  -5    0.49    0.48 
   5   1  -5    0.63    0.59 
   5   1  -5    0.47    0.49 
  -5   1   5    0.78    0.53 
   5   1  -5    0.97    0.70 
  -5   1   5    1.00    0.61 
   5   1  -5    0.55    0.54 
   5  -1  -5    0.70    0.63 
   5  -1  -5    0.94    0.57 
   5  -1  -5    0.88    0.60 
   5  -1  -5    0.62    0.49 
   5  -1  -5    0.59    0.47 
   5  -1  -5    0.93    0.53 
  -5  -1   5    0.78    0.51 
   5  -1  -5    1.01    0.60 
  -5  -1   5    0.58    0.62 
   5  -1  -5    0.69    0.66 
  -5  -1   5   -0.06    0.73 
   5   1  -4   32.31    2.11 
  -5   1   4   31.40    2.17 
   5   1  -4   36.75    1.67 
  -5   1   4   35.89    2.49 
   5   1  -4   31.57    1.45 
   5   1  -4   34.53    1.51 
   5   1  -4   35.69    1.61 
   5   1  -4   36.51    1.52 
  -5   1   4   33.46    1.58 
  -5   1   4   37.34    1.71 
  -5   1   4   37.18    1.76 
   5   1  -4   36.30    1.57 
   5   1  -4   37.18    1.72 
   5  -1  -4   34.10    1.60 
   5  -1  -4   37.42    1.62 
   5  -1  -4   35.78    1.57 
   5  -1  -4   34.24    1.50 
  -5  -1   4   36.22    1.66 
  -5  -1   4   32.37    2.39 
   5  -1  -4   35.20    1.53 
  -5  -1   4   37.52    1.74 
   5  -1  -4   34.56    1.64 
   5  -1  -4   36.91    1.58 
   5  -1  -4   33.62    1.57 
  -5  -1   4   34.00    1.65 
   5   1  -3    2.18    0.93 
   5   1  -3    2.80    0.86 
   5   1  -3    1.69    0.58 
  -5   1   3    2.39    0.82 
  -5   1   3    1.68    0.50 
  -5   1   3    1.94    0.62 
   5   1  -3    2.11    0.49 
   5   1  -3    1.67    0.48 
   5   1  -3    1.80    0.40 
   5   1  -3    2.27    0.46 
   5   1  -3    2.01    0.62 
   5  -1  -3    2.27    0.56 
  -5  -1   3    2.63    0.82 
   5  -1  -3    2.27    0.58 
  -5  -1   3    1.67    0.97 
  -5  -1   3    2.65    0.59 
   5  -1  -3    2.24    0.48 
   5  -1  -3    2.66    0.52 
   5  -1  -3    2.17    0.58 
  -5  -1   3    2.08    1.06 
   5  -1  -3    2.73    0.49 
  -5  -1   3    2.34    0.66 
   5   1  -2   30.87    1.33 
  -5   1   2   28.94    1.95 
   5   1  -2   31.68    2.08 
  -5   1   2   30.41    2.08 
   5   1  -2   29.91    1.23 
   5   1  -2   25.86    1.13 
  -5   1   2   29.71    1.35 
  -5   1   2   26.40    1.39 
  -5  -1   2   30.02    2.05 
  -5  -1   2   30.09    1.36 
   5  -1  -2   27.92    1.24 
   5  -1  -2   31.75    1.33 
   5  -1  -2   29.70    1.20 
  -5  -1   2   29.81    1.47 
   5  -1  -2   27.18    1.29 
   5   1  -1   77.98    2.66 
  -5   1   1   73.52    3.36 
   5   1  -1   65.38    3.16 
  -5   1   1   65.48    2.27 
  -5   1   1   65.73    3.16 
  -5  -1   1   73.20    3.36 
  -5  -1   1   66.82    2.21 
  -5  -1   1   72.37    3.29 
  -5  -1   1   68.99    2.33 
   5  -1  -1   70.94    2.31 
   5  -1  -1   71.33    2.23 
   5  -1  -1   68.90    2.41 
  -5  -1   1   76.08    2.64 
   5   1   0   54.15    1.83 
   5   1   0   52.78    2.85 
  -5   1   0   52.67    1.80 
  -5   1   0   53.83    2.83 
   5  -1   0   53.53    1.82 
  -5  -1   0   54.58    2.84 
  -5  -1   0   52.80    1.82 
  -5  -1   0   53.40    2.77 
   5  -1   0   49.69    1.80 
   5  -1   0   47.60    1.73 
  -5  -1   0   52.36    1.88 
   5  -1   0   55.75    2.16 
   5   1   1   21.03    1.84 
   5   1   1   23.58    1.19 
  -5   1  -1   23.47    1.99 
  -5   1  -1   23.46    1.06 
  -5   1  -1   24.53    1.37 
  -5  -1  -1   23.00    1.78 
  -5  -1  -1   23.66    1.09 
   5  -1   1   23.84    1.17 
  -5  -1  -1   23.51    1.12 
  -5  -1  -1   24.10    1.18 
   5  -1   1   23.70    1.03 
   5  -1   1   23.38    1.32 
  -5   1  -2   27.93    1.64 
  -5   1  -2   25.51    2.03 
   5   1   2   27.66    1.42 
  -5   1  -2   26.62    1.29 
  -5   1  -2   26.40    1.21 
  -5  -1  -2   25.96    1.17 
   5  -1   2   23.79    1.25 
  -5  -1  -2   23.52    1.82 
  -5  -1  -2   26.35    1.33 
   5  -1   2   25.17    1.15 
  -5  -1  -2   25.41    1.22 
   5  -1   2   27.01    1.45 
  -5   1  -3   12.15    1.45 
  -5   1  -3   13.03    1.43 
  -5   1  -3   15.10    1.26 
  -5   1  -3   14.12    0.88 
   5   1   3   12.74    1.00 
  -5   1  -3   13.46    0.84 
  -5   1  -3   14.74    0.98 
   5  -1   3   15.23    1.01 
   5  -1   3   13.75    0.80 
  -5  -1  -3   14.15    1.02 
  -5  -1  -3   14.41    0.89 
   5  -1   3   12.23    0.90 
   5  -1   3   13.77    1.08 
  -5   1  -4   91.43    3.75 
  -5   1  -4   82.31    3.23 
  -5   1  -4   78.28    3.07 
   5   1   4   75.73    3.07 
  -5  -1  -4   81.75    3.19 
  -5  -1  -4   82.17    3.16 
  -5  -1  -4   79.05    3.11 
  -5  -1  -4   80.41    3.19 
   5  -1   4   78.41    3.12 
  -5  -1  -4   82.69    3.44 
  -5  -1  -4   73.69    2.98 
   5  -1   4   79.44    3.27 
   5   1   5   38.25    1.96 
  -5   1  -5   35.56    1.63 
  -5   1  -5   35.38    1.70 
  -5   1  -5   35.97    1.69 
  -5   1  -5   31.54    1.88 
   5   1   5   32.08    1.59 
  -5  -1  -5   34.28    1.62 
  -5  -1  -5   34.48    1.70 
   5  -1   5   34.17    1.63 
  -5  -1  -5   32.12    1.77 
  -5  -1  -5   34.34    1.60 
  -5  -1  -5   35.46    1.60 
   5  -1   5   34.46    1.83 
   5   1   6   22.29    1.99 
  -5   1  -6   21.83    1.90 
  -5   1  -6   21.59    2.01 
  -5   1  -6   20.70    1.87 
  -5   1  -6   18.44    2.86 
   5   1   6   20.63    2.01 
  -5  -1  -6   19.56    1.81 
  -5  -1  -6   21.00    1.88 
  -5  -1  -6   18.95    2.00 
   5  -1   6   20.99    1.88 
  -5  -1  -6   19.92    1.76 
   5  -1   6   22.42    2.07 
   5   1   7    9.70    1.61 
  -5   1  -7    5.94    0.89 
  -5   1  -7    4.74    0.82 
  -5  -1  -7    8.42    1.20 
  -5  -1  -7   15.96    3.59 
  -5  -1  -7    8.51    1.19 
   5  -1   7   12.17    1.78 
   5   2  -7    3.76    0.67 
   5   2  -7    3.96    0.72 
   5   2  -7    3.91    0.80 
   5   2  -7    4.29    0.75 
   5   2  -7    4.13    0.68 
   5   2  -7    3.83    0.74 
   5   2  -7    4.55    0.86 
   5   2  -7    3.86    0.68 
   5  -2  -7    3.84    0.73 
   5  -2  -7    4.12    0.69 
  -5  -2   7    3.38    0.61 
   5  -2  -7    4.35    0.71 
  -5  -2   7    4.47    0.87 
   5  -2  -7    4.32    0.73 
  -5  -2   7    4.54    0.93 
   5   2  -6    1.96    0.55 
   5   2  -6    1.96    0.49 
   5   2  -6    2.54    0.64 
   5   2  -6    2.23    0.54 
   5   2  -6    2.07    0.61 
   5   2  -6    2.14    0.44 
   5   2  -6    2.31    0.60 
   5   2  -6    2.36    0.62 
   5   2  -6    2.13    0.66 
   5   2  -6    2.37    0.74 
  -5   2   6    2.34    0.62 
   5  -2  -6    1.97    0.61 
   5  -2  -6    2.27    0.61 
  -5  -2   6    2.50    0.62 
   5  -2  -6    2.56    0.57 
   5  -2  -6    1.92    0.57 
   5  -2  -6    1.90    0.54 
  -5  -2   6    1.98    0.68 
   5  -2  -6    2.42    0.57 
   5  -2  -6    2.47    0.77 
   5  -2  -6    2.17    0.55 
  -5  -2   6    2.13    0.71 
   5   2  -5   22.34    1.22 
   5   2  -5   21.09    1.17 
   5   2  -5   23.92    1.48 
   5   2  -5   21.26    1.20 
   5   2  -5   22.69    1.17 
   5   2  -5   20.18    1.11 
   5   2  -5   22.03    1.26 
   5   2  -5   21.47    1.22 
   5   2  -5   21.22    1.27 
  -5   2   5   22.63    1.33 
   5   2  -5   22.89    1.22 
   5  -2  -5   23.21    1.24 
   5  -2  -5   20.23    1.21 
  -5  -2   5   23.27    1.41 
  -5  -2   5   22.47    1.30 
   5  -2  -5   22.61    1.23 
   5  -2  -5   23.27    1.28 
   5  -2  -5   23.69    1.23 
   5  -2  -5   23.69    1.47 
   5  -2  -5   22.41    1.29 
  -5  -2   5   21.95    1.42 
   5   2  -4   38.51    2.31 
   5   2  -4   39.71    1.69 
   5   2  -4   38.32    2.58 
   5   2  -4   38.71    1.64 
   5   2  -4   44.38    1.78 
   5   2  -4   40.44    1.66 
   5   2  -4   42.81    1.73 
   5   2  -4   40.32    1.84 
  -5   2   4   41.27    1.88 
   5   2  -4   40.18    1.75 
   5   2  -4   42.13    1.77 
   5  -2  -4   39.24    1.64 
  -5  -2   4   35.82    2.45 
  -5  -2   4   42.43    1.80 
   5  -2  -4   39.03    1.67 
   5  -2  -4   39.04    1.64 
   5  -2  -4   41.02    1.73 
   5  -2  -4   35.89    1.66 
  -5  -2   4   41.65    1.85 
   5  -2  -4   39.51    1.82 
   5   2  -3   12.51    0.83 
   5   2  -3   13.50    1.37 
  -5   2   3   11.31    1.34 
   5   2  -3   10.07    1.41 
   5   2  -3   12.15    0.89 
   5   2  -3   12.29    0.78 
  -5   2   3    9.91    0.93 
   5   2  -3   11.18    0.89 
   5  -2  -3   11.02    0.86 
  -5  -2   3   12.11    0.92 
   5  -2  -3   11.02    0.85 
   5  -2  -3   11.01    0.77 
   5  -2  -3   11.45    0.78 
  -5  -2   3   10.33    0.71 
   5  -2  -3   11.31    0.81 
   5  -2  -3   11.09    0.87 
  -5  -2   3   11.00    1.43 
   5   2  -2   21.85    1.69 
  -5   2   2   24.23    1.82 
  -5   2   2   23.80    1.78 
   5   2  -2   21.84    1.09 
   5   2  -2   23.18    1.07 
  -5  -2   2   22.59    1.80 
  -5  -2   2   22.36    1.80 
   5  -2  -2   23.37    1.12 
  -5  -2   2   22.20    1.19 
  -5  -2   2   26.62    1.33 
   5  -2  -2   24.13    1.21 
   5  -2  -2   24.56    1.16 
   5  -2  -2   21.99    1.04 
   5  -2  -2   22.43    1.08 
   5  -2  -2   24.77    1.23 
   5   2  -1  186.30    5.09 
  -5   2   1  198.91    6.68 
   5   2  -1  186.67    6.40 
   5   2  -1  190.31    5.20 
  -5   2   1  197.47    6.61 
   5   2  -1  198.51    5.34 
  -5  -2   1  197.03    6.56 
  -5  -2   1  192.79    6.48 
  -5  -2   1  176.44    4.95 
   5  -2  -1  196.89    5.31 
   5  -2  -1  194.58    5.21 
   5  -2  -1  189.50    5.17 
  -5  -2   1  184.25    5.92 
   5  -2  -1  197.48    5.49 
  -5  -2   1  183.39    5.17 
   5   2   0   49.43    2.85 
   5   2   0   46.95    1.67 
   5   2   0   49.42    1.84 
   5   2   0   50.15    2.00 
  -5  -2   0   49.78    2.65 
  -5  -2   0   47.29    1.74 
   5  -2   0   48.14    1.74 
   5  -2   0   48.61    1.70 
  -5  -2   0   51.24    1.88 
  -5  -2   0   53.00    1.83 
   5  -2   0   50.21    1.97 
  -5  -2   0   51.21    2.03 
   5   2   1    1.47    0.56 
   5   2   1    1.49    0.89 
   5   2   1    1.46    0.68 
  -5   2  -1    1.66    1.01 
  -5   2  -1    1.55    0.42 
  -5   2  -1    1.38    0.59 
   5  -2   1    1.32    0.34 
  -5  -2  -1    1.08    0.93 
   5  -2   1    1.24    0.44 
   5  -2   1    1.11    0.41 
  -5  -2  -1    1.01    0.51 
  -5  -2  -1    1.21    0.42 
  -5  -2  -1    1.55    0.48 
  -5  -2  -1    1.72    0.78 
   5  -2   1    1.39    0.51 
  -5   2  -2   27.56    1.57 
   5   2   2   20.80    1.92 
  -5   2  -2   24.51    2.11 
  -5   2  -2   22.42    1.91 
  -5   2  -2   23.66    1.13 
   5   2   2   26.25    1.52 
   5  -2   2   23.96    1.11 
  -5  -2  -2   24.76    1.25 
  -5  -2  -2   23.28    1.19 
  -5  -2  -2   25.23    1.28 
  -5  -2  -2   24.91    1.56 
  -5  -2  -2   21.71    1.79 
   5  -2   2   23.51    1.21 
   5  -2   2   23.22    1.34 
   5   2   3  229.25    8.42 
  -5   2  -3  204.22    8.67 
  -5   2  -3  212.88    8.76 
  -5   2  -3  234.90    8.64 
  -5   2  -3  216.39    7.77 
  -5   2  -3  232.08    8.37 
  -5   2  -3  216.99    7.80 
  -5  -2  -3  204.01    8.28 
   5  -2   3  221.37    7.99 
  -5  -2  -3  216.86    7.89 
  -5  -2  -3  227.11    8.18 
  -5  -2  -3  199.83    7.27 
   5  -2   3  206.67    7.46 
  -5  -2  -3  244.11    8.95 
  -5  -2  -3  218.49    7.91 
  -5  -2  -3  231.34    8.32 
   5  -2   3  231.60    8.47 
  -5   2  -4   11.89    0.92 
  -5   2  -4   11.60    0.87 
   5   2   4   12.77    1.12 
  -5   2  -4   12.50    0.90 
   5   2   4   10.63    0.95 
  -5   2  -4   12.37    1.22 
   5  -2   4   10.44    0.89 
  -5  -2  -4   11.31    0.91 
  -5  -2  -4   11.12    0.85 
  -5  -2  -4   12.62    0.98 
   5  -2   4   11.53    0.89 
  -5  -2  -4   12.23    1.17 
  -5  -2  -4   11.39    0.92 
  -5  -2  -4   12.01    0.90 
   5  -2   4   10.60    1.02 
   5   2   5   14.06    1.20 
  -5   2  -5   12.52    0.89 
  -5   2  -5   12.88    0.96 
   5   2   5   12.49    1.02 
  -5   2  -5   12.43    1.20 
  -5  -2  -5   13.00    0.90 
  -5  -2  -5   12.98    0.91 
  -5  -2  -5   12.64    0.92 
   5  -2   5   12.39    0.91 
  -5  -2  -5   12.91    1.18 
  -5  -2  -5   11.04    1.22 
  -5  -2  -5   10.58    1.06 
   5  -2   5   12.66    1.13 
   5   2   6   10.31    1.18 
   5   2   6   11.99    1.46 
  -5   2  -6   12.04    1.37 
  -5   2  -6   10.16    1.29 
  -5   2  -6   10.53    1.33 
  -5   2  -6    8.68    1.69 
   5   2   6   10.59    1.69 
  -5  -2  -6   10.73    1.24 
  -5  -2  -6   11.27    1.31 
  -5  -2  -6   12.58    1.47 
  -5  -2  -6    9.35    1.81 
   5  -2   6   12.05    1.48 
   5   3  -7    0.98    0.58 
   5   3  -7    0.76    0.47 
   5   3  -7    0.94    0.52 
   5   3  -7    1.14    0.51 
   5   3  -7    1.29    0.55 
   5   3  -7    1.04    0.52 
   5   3  -7    0.90    0.39 
   5  -3  -7    1.25    0.55 
  -5  -3   7    0.48    0.42 
  -5  -3   7    1.14    0.62 
   5   3  -6    0.08    0.47 
   5   3  -6    0.19    0.46 
   5   3  -6    0.26    0.56 
   5   3  -6    0.30    0.49 
   5   3  -6   -0.18    0.60 
   5   3  -6    0.05    0.42 
   5   3  -6    0.24    0.62 
   5  -3  -6    0.11    0.64 
   5  -3  -6    0.13    0.51 
  -5  -3   6    0.43    0.64 
  -5  -3   6    0.25    0.53 
   5  -3  -6    0.39    0.57 
   5   3  -5   46.28    2.00 
   5   3  -5   48.76    2.10 
   5   3  -5   52.87    2.24 
   5   3  -5   49.80    2.10 
   5   3  -5   44.75    1.95 
   5   3  -5   47.01    2.08 
   5   3  -5   50.16    2.21 
   5   3  -5   47.03    2.08 
   5  -3  -5   46.07    2.22 
   5  -3  -5   48.20    2.11 
  -5  -3   5   53.48    2.41 
  -5  -3   5   49.88    2.22 
   5  -3  -5   48.58    2.13 
   5   3  -4    2.19    0.47 
   5   3  -4    1.69    0.71 
   5   3  -4    2.54    1.03 
   5   3  -4    2.06    0.59 
   5   3  -4    2.12    0.50 
   5   3  -4    1.79    0.68 
   5   3  -4    2.23    0.50 
   5   3  -4    1.97    0.54 
   5   3  -4    1.84    0.50 
  -5  -3   4    1.87    0.73 
   5  -3  -4    2.06    0.64 
  -5  -3   4    2.00    0.90 
   5  -3  -4    2.75    0.58 
   5  -3  -4    2.11    0.69 
  -5  -3   4    2.70    0.60 
   5  -3  -4    2.19    0.64 
   5  -3  -4    2.19    0.57 
  -5  -3   4    2.14    0.67 
  -5   3   3    6.09    1.07 
   5   3  -3    6.44    1.03 
   5   3  -3    6.02    1.33 
   5   3  -3    7.08    0.73 
   5   3  -3    6.62    0.61 
   5   3  -3    6.69    0.85 
   5   3  -3    6.98    0.66 
   5   3  -3    6.17    0.74 
   5   3  -3    6.14    0.69 
   5  -3  -3    6.83    0.67 
  -5  -3   3    7.17    1.25 
  -5  -3   3    5.07    0.66 
   5  -3  -3    6.98    0.81 
   5  -3  -3    7.44    0.64 
  -5  -3   3    6.82    1.27 
   5  -3  -3    6.78    0.61 
  -5  -3   3    6.29    0.77 
  -5  -3   3    7.04    0.63 
   5  -3  -3    6.64    0.67 
  -5  -3   3    7.19    0.88 
   5   3  -2  112.16    3.70 
   5   3  -2  103.24    4.40 
   5   3  -2  107.87    3.73 
  -5   3   2  103.25    4.38 
   5   3  -2  111.02    3.67 
   5   3  -2  103.90    3.40 
  -5  -3   2   96.85    4.33 
  -5  -3   2  100.17    4.34 
   5  -3  -2  104.44    3.47 
  -5  -3   2  101.45    4.48 
   5  -3  -2   97.60    3.23 
  -5  -3   2  110.85    3.57 
  -5  -3   2   92.54    4.13 
  -5  -3   2  108.01    3.74 
   5   3  -1   59.71    2.04 
   5   3  -1   61.36    3.12 
   5   3  -1   59.09    2.28 
  -5   3   1   61.90    3.13 
   5   3  -1   59.17    2.10 
   5   3  -1   57.35    2.12 
  -5  -3   1   57.67    2.05 
  -5  -3   1   49.89    3.09 
   5  -3  -1   51.75    1.88 
   5  -3  -1   61.20    2.11 
  -5  -3   1   54.71    2.97 
  -5  -3   1   54.46    1.92 
  -5  -3   1   59.57    2.09 
  -5  -3   1   56.69    2.22 
   5   3   0  113.00    3.39 
   5   3   0  127.46    5.18 
   5   3   0  111.41    3.60 
  -5   3   0  124.17    5.02 
   5   3   0  118.68    3.66 
  -5  -3   0  119.96    4.75 
  -5  -3   0  123.13    3.69 
  -5  -3   0  115.63    4.67 
   5  -3   0  109.10    3.34 
   5  -3   0  108.68    3.31 
  -5  -3   0  127.17    3.89 
  -5  -3   0  121.86    3.72 
   5  -3   0  109.86    3.35 
  -5  -3   0  124.83    3.96 
  -5   3  -1   35.11    1.76 
   5   3   1   32.88    2.46 
   5   3   1   32.84    1.55 
   5   3   1   36.26    1.80 
  -5   3  -1   35.19    1.46 
  -5  -3  -1   36.15    1.55 
   5  -3   1   30.91    1.36 
  -5  -3  -1   34.91    1.51 
  -5  -3  -1   36.03    1.55 
  -5  -3  -1   35.83    1.61 
  -5  -3  -1   33.20    1.71 
  -5  -3  -1   33.29    2.25 
  -5  -3  -1   36.28    2.30 
   5  -3   1   31.98    1.61 
  -5   3  -2   15.48    0.90 
   5   3   2   16.02    1.80 
  -5   3  -2   15.61    1.79 
  -5   3  -2   13.11    1.47 
   5   3   2   16.03    1.03 
  -5   3  -2   14.58    1.10 
   5   3   2   15.47    1.22 
  -5  -3  -2   13.84    0.90 
  -5  -3  -2   15.22    0.97 
  -5  -3  -2   14.20    1.45 
  -5  -3  -2   14.02    1.01 
  -5  -3  -2   15.38    0.96 
   5  -3   2   14.85    0.93 
  -5  -3  -2   15.71    1.27 
   5  -3   2   15.35    1.09 
  -5   3  -3   11.07    1.51 
  -5   3  -3   10.10    1.38 
  -5   3  -3   11.50    0.90 
  -5   3  -3   12.75    1.10 
   5   3   3   10.86    1.00 
   5   3   3   11.64    1.13 
  -5  -3  -3   10.95    0.84 
  -5  -3  -3   11.36    0.92 
  -5  -3  -3   10.82    0.86 
  -5  -3  -3   10.96    0.92 
  -5  -3  -3   11.63    0.89 
  -5  -3  -3   10.93    1.13 
   5  -3   3   11.19    0.97 
  -5   3  -4   32.19    1.82 
   5   3   4   33.53    1.85 
  -5   3  -4   32.77    1.56 
  -5   3  -4   29.45    1.49 
  -5   3  -4   31.31    1.50 
   5   3   4   27.91    1.50 
  -5  -3  -4   33.60    1.68 
   5  -3   4   31.33    1.56 
  -5  -3  -4   30.37    1.51 
  -5  -3  -4   33.50    1.65 
  -5  -3  -4   32.86    1.87 
  -5  -3  -4   32.90    1.60 
  -5  -3  -4   33.67    1.61 
   5  -3   4   32.66    1.76 
  -5   3  -5   13.67    1.07 
  -5   3  -5   13.33    1.09 
   5   3   5   12.28    1.38 
  -5   3  -5   13.04    1.29 
  -5  -3  -5   10.77    0.97 
  -5  -3  -5   13.04    1.04 
  -5  -3  -5   13.85    1.02 
  -5  -3  -5   11.01    1.38 
   5  -3   5   11.54    1.00 
  -5  -3  -5   12.46    1.14 
   5  -3   5   13.87    1.21 
   5   3   6    3.02    0.84 
   5   3   6    3.21    0.58 
  -5   3  -6    2.59    0.60 
  -5   3  -6    3.46    0.64 
  -5   3  -6    2.97    0.60 
  -5   3  -6    1.43    0.73 
  -5  -3  -6    3.70    0.73 
  -5  -3  -6    1.06    0.46 
  -5  -3  -6    2.73    0.87 
  -5  -3  -6    3.01    0.59 
  -5  -3  -6    1.93    0.54 
   5  -3   6    3.17    0.73 
   5   4  -7   27.95    2.97 
   5   4  -7   27.08    2.93 
   5   4  -7   30.25    3.22 
   5   4  -7   28.43    3.05 
   5   4  -7   23.24    2.67 
   5   4  -7   29.05    3.17 
   5   4  -7   22.41    2.54 
   5  -4  -7   28.84    3.09 
   5  -4  -7   30.38    3.31 
  -5  -4   7   24.64    2.75 
  -5  -4   7   28.67    3.16 
   5   4  -6   15.77    1.54 
   5   4  -6   15.68    1.45 
   5   4  -6   14.70    1.38 
   5   4  -6   15.44    1.46 
   5   4  -6   14.81    1.43 
   5   4  -6   15.00    1.50 
   5   4  -6   14.78    1.36 
   5   4  -6   14.67    1.38 
  -5  -4   6   14.72    1.44 
   5  -4  -6   14.17    1.46 
   5  -4  -6   14.86    1.41 
  -5  -4   6   13.63    1.43 
   5   4  -5   31.99    1.79 
   5   4  -5   30.95    1.49 
   5   4  -5   28.56    1.44 
   5   4  -5   28.98    1.53 
   5   4  -5   29.98    1.53 
   5   4  -5   29.98    1.53 
   5   4  -5   29.50    1.54 
   5  -4  -5   31.06    1.57 
   5  -4  -5   28.74    1.47 
   5  -4  -5   30.76    1.70 
  -5  -4   5   30.34    1.59 
   5  -4  -5   29.52    1.54 
  -5  -4   5   30.20    1.71 
   5   4  -4    8.79    0.86 
   5   4  -4    9.76    0.97 
   5   4  -4    9.35    0.75 
   5   4  -4    9.52    0.79 
   5   4  -4    9.94    0.82 
   5   4  -4    9.25    0.79 
   5   4  -4    8.02    0.74 
   5  -4  -4    9.10    0.76 
   5  -4  -4    9.36    0.92 
  -5  -4   4    7.95    0.69 
  -5  -4   4    9.20    0.88 
   5  -4  -4    9.18    0.79 
   5  -4  -4    9.51    0.78 
  -5  -4   4   10.65    0.96 
   5   4  -3   36.10    1.54 
   5   4  -3   32.05    2.15 
   5   4  -3   31.56    1.49 
   5   4  -3   32.57    2.46 
   5   4  -3   33.43    1.68 
   5   4  -3   33.04    1.45 
   5   4  -3   32.50    1.50 
  -5  -4   3   37.46    2.47 
   5  -4  -3   38.05    1.64 
  -5  -4   3   34.99    1.66 
  -5  -4   3   28.86    1.51 
   5  -4  -3   35.58    1.57 
   5  -4  -3   32.38    1.65 
  -5  -4   3   32.44    2.31 
  -5  -4   3   35.13    1.51 
  -5  -4   3   36.13    1.73 
   5  -4  -3   31.78    1.46 
  -5  -4   3   37.70    1.82 
   5   4  -2   90.15    2.98 
   5   4  -2   93.91    4.16 
  -5   4   2   83.00    3.76 
   5   4  -2   90.63    3.07 
   5   4  -2   88.57    3.16 
   5   4  -2   96.80    3.30 
   5   4  -2   83.87    2.78 
  -5  -4   2   86.54    4.09 
  -5  -4   2   85.99    3.03 
   5  -4  -2   79.81    2.86 
  -5  -4   2   82.44    3.89 
  -5  -4   2   86.08    2.89 
  -5  -4   2   85.19    2.93 
  -5  -4   2   90.07    2.97 
  -5  -4   2   90.01    3.08 
   5  -4  -2   90.51    3.04 
  -5  -4   2   86.51    3.09 
   5   4  -1  388.45   12.61 
   5   4  -1  358.49   10.60 
  -5   4   1  359.99   13.10 
   5   4  -1  350.63   10.27 
   5   4  -1  396.82   11.79 
   5   4  -1  359.28   10.62 
  -5  -4   1  372.28   12.26 
  -5  -4   1  371.03   10.95 
   5  -4  -1  357.32   10.46 
  -5  -4   1  377.81   11.03 
  -5  -4   1  375.47   11.06 
  -5  -4   1  361.91   10.57 
  -5  -4   1  387.90   11.52 
  -5  -4   1  361.66   12.08 
  -5  -4   1  388.24   11.44 
   5   4   0  109.95    3.80 
   5   4   0   97.17    4.52 
   5   4   0  101.45    3.31 
  -5   4   0  111.21    4.93 
   5   4   0  105.50    3.51 
  -5  -4   0  103.21    4.47 
  -5  -4   0  105.48    3.48 
  -5  -4   0  110.82    3.67 
  -5  -4   0   95.72    3.26 
  -5  -4   0   97.45    4.35 
  -5  -4   0  101.39    3.45 
  -5  -4   0  102.94    3.46 
   5  -4   0   91.12    3.06 
  -5  -4   0  109.33    3.79 
  -5   4  -1  362.25   12.58 
   5   4   1  318.85   10.89 
   5   4   1  352.89   10.79 
   5   4   1  353.20   10.99 
  -5  -4  -1  349.78   11.47 
   5  -4   1  352.48   10.71 
  -5  -4  -1  353.95   10.89 
  -5  -4  -1  348.28   10.18 
   5  -4   1  323.22    9.24 
  -5  -4  -1  366.04   11.31 
  -5   4  -2  187.29    8.56 
   5   4   2  190.13    7.63 
   5   4   2  207.84    6.70 
   5   4   2  225.69    7.34 
  -5   4  -2  207.15    6.59 
  -5  -4  -2  208.03    6.57 
  -5  -4  -2  195.81    7.35 
  -5  -4  -2  200.02    6.36 
   5  -4   2  198.34    6.25 
   5  -4   2  188.14    5.84 
  -5  -4  -2  210.12    6.69 
  -5  -4  -2  194.09    6.44 
  -5  -4  -2  205.05    6.58 
   5   4   3  148.87    5.15 
   5   4   3  167.83    6.24 
  -5   4  -3  159.72    5.70 
  -5   4  -3  141.51    5.17 
  -5  -4  -3  153.87    5.25 
  -5  -4  -3  159.83    5.76 
  -5  -4  -3  141.62    4.90 
  -5  -4  -3  138.77    4.79 
  -5  -4  -3  158.82    5.64 
   5  -4   3  145.34    4.95 
  -5  -4  -3  151.86    5.17 
   5  -4   3  155.05    5.55 
  -5   4  -4   49.64    2.18 
   5   4   4   44.60    2.15 
   5   4   4   48.30    2.41 
  -5   4  -4   44.30    2.30 
  -5  -4  -4   46.65    2.12 
  -5  -4  -4   46.40    2.11 
  -5  -4  -4   46.81    2.14 
  -5  -4  -4   48.77    2.43 
  -5  -4  -4   47.89    2.21 
  -5  -4  -4   50.51    2.31 
   5  -4   4   47.20    2.32 
   5   4   5   14.07    1.43 
  -5   4  -5   10.83    1.23 
  -5   4  -5   13.63    1.32 
   5   4   5   11.78    1.48 
  -5   4  -5    9.18    1.37 
  -5  -4  -5   12.91    1.26 
  -5  -4  -5   14.33    1.40 
  -5  -4  -5   13.39    1.40 
  -5  -4  -5   11.30    1.34 
   5  -4   5   10.79    1.14 
  -5  -4  -5   10.35    1.17 
   5  -4   5   12.16    1.33 
  -5   4  -6    0.41    0.54 
   5   4   6    1.53    0.67 
  -5  -4  -6    1.38    0.55 
  -5  -4  -6    0.96    0.50 
  -5  -4  -6    1.22    0.57 
  -5  -4  -6    0.37    0.38 
   5  -4   6    1.43    0.54 
  -5  -4  -6    1.21    0.52 
   5   5  -7    7.72    0.97 
   5   5  -7    7.92    0.97 
   5   5  -7    7.33    0.94 
   5   5  -7    8.14    1.08 
   5   5  -7    7.54    0.90 
   5   5  -7    7.39    1.10 
  -5  -5   7    6.09    0.85 
  -5  -5   7    7.29    1.03 
   5  -5  -7    8.64    1.11 
  -5  -5   7    6.26    0.99 
   5   5  -6   14.30    1.38 
   5   5  -6   14.09    1.50 
   5   5  -6   16.86    1.53 
   5   5  -6   15.32    1.40 
   5   5  -6   16.89    1.55 
   5   5  -6   15.96    1.53 
   5   5  -6   15.59    1.55 
   5   5  -6   13.19    1.29 
   5   5  -6   15.50    1.46 
  -5  -5   6   15.63    1.59 
   5  -5  -6   16.03    1.58 
   5  -5  -6   15.03    1.40 
  -5  -5   6   15.46    1.51 
  -5  -5   6   15.39    1.38 
  -5  -5   6   15.11    1.50 
   5   5  -5    1.60    0.72 
   5   5  -5    1.31    0.49 
   5   5  -5    1.39    0.57 
   5   5  -5    1.60    0.56 
   5   5  -5    1.47    0.52 
   5   5  -5    1.16    0.60 
   5   5  -5    1.63    0.53 
   5  -5  -5    1.71    0.66 
  -5  -5   5    1.17    0.39 
   5  -5  -5    1.38    0.51 
  -5  -5   5    1.45    0.60 
  -5  -5   5    1.44    0.70 
   5   5  -4   45.59    2.16 
   5   5  -4   46.26    2.04 
   5   5  -4   45.22    1.97 
   5   5  -4   48.94    2.06 
   5   5  -4   46.45    2.06 
  -5  -5   4   46.41    2.13 
  -5  -5   4   40.31    1.76 
   5  -5  -4   46.57    2.05 
  -5  -5   4   43.38    1.86 
  -5  -5   4   47.38    2.11 
   5  -5  -4   48.00    2.26 
   5  -5  -4   43.99    1.93 
  -5  -5   4   46.06    2.14 
   5   5  -3   44.42    2.02 
   5   5  -3   45.65    1.84 
   5   5  -3   41.09    1.78 
   5   5  -3   41.72    1.81 
   5   5  -3   41.36    1.81 
  -5  -5   3   44.31    1.94 
   5  -5  -3   35.06    2.05 
  -5  -5   3   43.63    2.12 
  -5  -5   3   39.51    1.72 
  -5  -5   3   45.82    1.97 
  -5  -5   3   45.67    1.86 
   5  -5  -3   40.66    1.77 
  -5  -5   3   43.85    1.99 
   5   5  -2   77.01    3.88 
   5   5  -2   83.28    3.90 
   5   5  -2   84.15    3.03 
   5   5  -2   78.69    4.06 
   5   5  -2   75.85    2.67 
   5   5  -2   83.00    2.92 
   5   5  -2   85.23    3.18 
   5   5  -2   79.50    2.91 
  -5  -5   2   80.20    3.98 
  -5  -5   2   78.97    2.91 
  -5  -5   2   86.14    2.98 
  -5  -5   2   83.75    3.00 
  -5  -5   2   87.22    3.01 
  -5  -5   2   85.61    3.13 
   5  -5  -2   81.08    2.89 
  -5  -5   2   88.78    3.28 
  -5   5   1   56.29    3.09 
   5   5  -1   58.62    3.25 
   5   5  -1   58.34    2.17 
   5   5  -1   54.42    2.14 
   5   5  -1   56.83    2.34 
   5   5  -1   55.54    2.22 
  -5  -5   1   53.86    3.07 
  -5  -5   1   53.66    3.13 
  -5  -5   1   53.77    2.16 
  -5  -5   1   58.26    2.28 
  -5  -5   1   56.91    2.14 
  -5  -5   1   55.38    2.26 
  -5  -5   1   55.42    2.10 
  -5  -5   1   57.82    2.35 
   5   5   0  224.06    7.24 
   5   5   0  251.75    9.22 
  -5   5   0  249.55    9.17 
   5   5   0  235.30    7.28 
   5   5   0  239.03    7.89 
  -5  -5   0  249.79    7.80 
   5  -5   0  213.07    6.56 
  -5  -5   0  243.49    7.64 
   5  -5   0  213.17    6.69 
  -5  -5   0  247.00    7.65 
  -5  -5   0  226.40    7.64 
  -5  -5   0  234.98    8.58 
  -5  -5   0  241.70    7.66 
   5   5   1  198.84    7.22 
   5   5   1  172.75    7.64 
  -5   5  -1  188.09    8.16 
   5   5   1  192.67    7.14 
   5   5   1  185.92    6.75 
  -5  -5  -1  183.03    7.76 
  -5  -5  -1  194.85    7.11 
  -5  -5  -1  190.56    6.90 
   5  -5   1  183.26    6.64 
  -5  -5  -1  188.33    6.93 
   5  -5   1  176.27    6.28 
  -5  -5  -1  170.14    6.20 
  -5  -5  -1  185.92    6.82 
  -5  -5  -1  181.80    6.67 
  -5  -5  -1  184.16    6.66 
  -5  -5  -1  191.57    7.08 
   5   5   2   81.32    3.22 
   5   5   2   77.93    2.98 
  -5   5  -2   82.30    3.02 
  -5  -5  -2   83.24    3.10 
  -5  -5  -2   81.43    3.08 
  -5  -5  -2   79.50    2.92 
   5  -5   2   75.64    2.70 
  -5  -5  -2   78.64    2.93 
  -5  -5  -2   80.21    2.98 
  -5  -5  -2   82.68    3.08 
   5  -5   2   80.10    2.93 
  -5  -5  -2   85.07    3.29 
   5   5   3   52.23    2.32 
  -5  -5  -3   51.11    2.18 
   5  -5   3   51.20    2.15 
  -5  -5  -3   54.37    2.33 
  -5  -5  -3   52.47    2.21 
  -5  -5  -3   54.44    2.32 
  -5  -5  -3   53.19    2.29 
  -5   5  -4    5.80    0.72 
   5   5   4    5.45    0.81 
  -5  -5  -4    4.71    0.66 
  -5  -5  -4    4.55    0.68 
  -5  -5  -4    5.00    0.72 
  -5  -5  -4    5.20    0.79 
   5   5   5    1.04    0.68 
   5   5   5    0.50    0.55 
  -5   5  -5    0.73    0.52 
  -5  -5  -5    0.91    0.47 
   5  -5   5    0.93    0.57 
  -5  -5  -5    0.78    0.51 
  -5  -5  -5    1.50    0.57 
  -5  -5  -5    1.13    0.63 
  -5  -5  -5    0.99    0.65 
  -5  -5  -5    1.12    0.57 
   5   5   6    1.86    0.46 
  -5   5  -6    1.61    0.49 
   5   5   6    1.74    0.56 
  -5  -5  -6    1.52    0.52 
  -5  -5  -6    1.12    0.48 
  -5  -5  -6    1.27    0.49 
   5   6  -6   10.52    1.23 
   5   6  -6   10.23    1.23 
   5   6  -6   10.19    1.23 
   5   6  -6   11.15    1.39 
   5   6  -6    9.53    1.21 
   5   6  -6   11.32    1.30 
  -5  -6   6   10.13    1.15 
  -5  -6   6    9.96    1.27 
   5  -6  -6   11.57    1.40 
  -5  -6   6   10.08    1.29 
   5   6  -5    2.50    0.55 
   5   6  -5    2.98    0.61 
   5   6  -5    2.52    0.61 
   5   6  -5    2.53    0.67 
   5   6  -5    2.46    0.53 
   5   6  -5    2.52    0.60 
   5   6  -5    2.72    0.72 
  -5  -6   5    2.74    0.71 
  -5  -6   5    2.54    0.51 
   5  -6  -5    2.87    0.72 
  -5  -6   5    2.59    0.75 
  -5  -6   5    3.24    0.72 
   5   6  -4   15.08    0.97 
   5   6  -4   14.76    0.94 
   5   6  -4   15.25    0.99 
   5   6  -4   14.29    1.01 
   5   6  -4   15.57    1.14 
   5   6  -4   15.37    1.07 
  -5  -6   4   14.81    1.14 
  -5  -6   4   12.79    0.92 
   5  -6  -4   15.17    1.14 
  -5  -6   4   14.93    1.06 
  -5  -6   4   13.02    0.89 
  -5  -6   4   15.93    1.10 
   5   6  -3   52.67    2.27 
   5   6  -3   53.98    2.20 
   5   6  -3   54.60    2.31 
   5   6  -3   53.14    2.40 
   5  -6  -3   52.15    2.19 
  -5  -6   3   56.99    2.30 
  -5  -6   3   55.75    2.38 
  -5  -6   3   53.69    2.33 
  -5  -6   3   49.71    2.09 
  -5  -6   3   54.86    2.43 
   5   6  -2    0.24    0.47 
   5   6  -2    0.08    0.55 
   5   6  -2   -0.20    0.40 
  -5  -6   2    0.12    0.51 
  -5  -6   2    0.27    0.45 
  -5  -6   2    0.39    0.47 
  -5  -6   2    0.20    0.57 
  -5  -6   2    0.10    0.55 
  -5  -6   2    0.11    0.54 
   5   6  -1   37.05    1.59 
   5   6  -1   36.85    1.77 
   5   6  -1   38.41    1.75 
  -5  -6   1   37.28    1.70 
  -5  -6   1   39.33    1.65 
  -5  -6   1   34.91    1.53 
  -5  -6   1   34.71    1.63 
  -5  -6   1   35.71    1.67 
  -5  -6   1   37.11    1.76 
   5   6   0   67.85    2.52 
   5   6   0   68.19    2.65 
   5   6   0   67.06    2.61 
   5   6   0   65.60    2.67 
  -5  -6   0   62.70    2.43 
  -5  -6   0   67.62    2.54 
   5  -6   0   58.93    2.17 
  -5  -6   0   62.53    2.63 
  -5  -6   0   65.08    2.58 
  -5  -6   0   65.80    2.65 
   5   6   1   15.64    1.10 
   5   6   1   16.34    0.96 
   5   6   1   16.30    1.03 
  -5  -6  -1   16.32    1.06 
  -5  -6  -1   15.83    1.00 
  -5  -6  -1   15.32    0.94 
  -5  -6  -1   15.58    1.06 
   5  -6   1   15.05    0.82 
  -5  -6  -1   14.71    0.90 
  -5  -6  -1   17.13    1.04 
   5  -6   1   14.84    0.92 
  -5  -6  -1   15.25    1.07 
   5   6   2    7.49    0.81 
   5   6   2    7.36    0.74 
  -5   6  -2    7.46    0.65 
  -5  -6  -2    7.42    0.80 
   5  -6   2    7.06    0.65 
  -5  -6  -2    6.80    0.67 
   5  -6   2    7.04    0.56 
  -5  -6  -2    7.19    0.72 
  -5  -6  -2    6.97    0.82 
  -5  -6  -2    7.29    0.87 
  -5  -6  -2    7.15    0.77 
  -5  -6  -2    9.51    0.88 
   5   6   3    9.24    0.87 
  -5   6  -3   11.47    0.83 
  -5  -6  -3   11.85    0.95 
   5  -6   3   10.39    0.76 
   5  -6   3   10.79    0.84 
  -5  -6  -3   11.25    0.86 
  -5  -6  -3   10.90    0.81 
  -5  -6  -3   11.61    0.96 
  -5  -6  -3   11.35    0.90 
  -5   6  -4    3.37    0.63 
   5   6   4    2.56    0.65 
  -5  -6  -4    3.24    0.63 
  -5  -6  -4    3.17    0.73 
   5  -6   4    3.30    0.66 
  -5  -6  -4    3.67    0.65 
  -5  -6  -4    2.54    0.57 
  -5  -6  -4    2.54    0.54 
  -5  -6  -4    3.00    0.73 
  -5  -6  -4    2.50    0.61 
  -5   6  -5    4.71    0.74 
   5   6   5    3.96    0.78 
  -5  -6  -5    2.78    0.62 
  -5  -6  -5    4.17    0.74 
  -5  -6  -5    3.38    0.69 
  -5  -6  -5    3.44    0.70 
   5   7  -6    0.19    0.41 
   5   7  -6   -0.00    0.40 
   5   7  -6    0.51    0.41 
   5   7  -6    0.15    0.39 
  -5  -7   6    0.17    0.30 
  -5  -7   6    0.42    0.45 
   5   7  -5   26.60    2.72 
   5   7  -5   26.54    2.74 
   5   7  -5   26.38    2.72 
   5   7  -5   24.12    2.55 
   5   7  -5   23.98    2.50 
   5   7  -5   25.81    2.65 
  -5  -7   5   24.64    2.51 
  -5  -7   5   26.55    2.75 
  -5  -7   5   25.63    2.69 
   5   7  -4    3.55    0.66 
   5   7  -4    3.13    0.52 
   5   7  -4    2.80    0.56 
   5   7  -4    2.73    0.62 
   5   7  -4    3.30    0.60 
  -5  -7   4    3.16    0.69 
  -5  -7   4    3.10    0.53 
  -5  -7   4    2.85    0.51 
  -5  -7   4    3.11    0.66 
  -5  -7   4    2.89    0.65 
   5   7  -3   22.70    1.33 
   5   7  -3   21.92    1.17 
   5   7  -3   19.62    1.13 
   5   7  -3   21.71    1.32 
  -5  -7   3   18.33    1.08 
  -5  -7   3   20.83    1.17 
  -5  -7   3   22.77    1.32 
  -5  -7   3   22.22    1.32 
  -5  -7   3   20.36    1.15 
  -5  -7   3   22.82    1.36 
   5   7  -2   41.26    1.79 
   5   7  -2   38.36    1.88 
   5   7  -2   41.89    1.88 
  -5  -7   2   46.08    2.04 
  -5  -7   2   44.42    1.93 
  -5  -7   2   43.73    1.85 
  -5  -7   2   40.95    1.95 
  -5  -7   2   40.02    1.88 
  -5  -7   2   43.07    2.05 
   5   7  -1   14.67    1.01 
  -5  -7   1   16.47    1.00 
  -5  -7   1   14.98    1.04 
  -5  -7   1   16.51    1.06 
   5   7   0   55.60    2.27 
   5   7   0   54.83    2.35 
  -5  -7   0   58.91    2.49 
  -5  -7   0   55.02    2.24 
  -5  -7   0   57.84    2.46 
  -5  -7   0   57.17    2.41 
   5   7   1    1.42    0.50 
   5   7   1    0.83    0.59 
  -5  -7  -1    1.78    0.67 
   5  -7   1    1.08    0.43 
  -5  -7  -1    1.07    0.55 
  -5  -7  -1    0.95    0.47 
   5  -7   1    1.27    0.36 
  -5  -7  -1    0.89    0.66 
   5   7   2    2.03    0.52 
   5   7   2    2.60    0.50 
  -5  -7  -2    3.00    0.57 
  -5  -7  -2    2.81    0.66 
   5  -7   2    2.98    0.50 
  -5  -7  -2    2.60    0.58 
   5  -7   2    2.45    0.54 
  -5  -7  -2    2.00    0.52 
  -5  -7  -2    2.61    0.67 
  -5   7  -3    1.29    0.47 
   5   7   3    1.08    0.55 
   5   7   3    1.25    0.53 
  -5  -7  -3    1.64    0.58 
   5  -7   3    1.59    0.44 
  -5  -7  -3    1.49    0.58 
   5  -7   3    1.48    0.49 
  -5  -7  -3    1.33    0.52 
  -5  -7  -3    1.40    0.53 
  -5  -7  -3    1.30    0.50 
  -5  -7  -3    1.61    0.62 
   5   7   4    0.50    0.45 
   5   7   4    0.45    0.43 
  -5   7  -4    0.54    0.43 
  -5  -7  -4    0.52    0.50 
   5  -7   4    0.22    0.47 
  -5  -7  -4    0.30    0.48 
  -5  -7  -4    0.28    0.40 
  -5  -7  -4    0.48    0.55 
  -5   7  -5    1.70    0.46 
   5   7   5    3.07    0.56 
  -5  -7  -5    1.53    0.45 
  -5  -7  -5    2.70    0.61 
   5   8  -5   33.71    3.67 
   5   8  -5   39.15    4.12 
  -5  -8   5   35.31    3.70 
  -5  -8   5   36.69    3.89 
  -5  -8   5   29.42    3.23 
   5   8  -4   25.18    2.14 
   5   8  -4   26.24    2.23 
   5   8  -4   27.83    2.34 
  -5  -8   4   21.22    2.12 
  -5  -8   4   27.32    2.35 
  -5  -8   4   26.02    2.17 
   5   8  -3   50.86    4.07 
   5   8  -3   47.64    3.80 
   5   8  -3   54.62    4.35 
  -5  -8   3   50.04    4.14 
  -5  -8   3   56.87    4.55 
  -5  -8   3   49.95    3.98 
   5   8  -2    5.80    0.71 
   5   8  -2    6.30    0.62 
  -5  -8   2    5.64    0.62 
  -5  -8   2    6.12    0.65 
  -5  -8   2    6.21    0.73 
   5   8  -1   26.03    1.27 
  -5  -8   1   30.74    1.56 
  -5  -8   1   26.11    1.41 
  -5  -8   1   29.48    1.42 
   5   8   0   11.20    0.87 
  -5  -8   0   12.60    0.87 
  -5  -8   0   14.17    1.06 
   5   8   1   11.20    0.85 
   5   8   1   11.42    0.95 
   5  -8   1   11.30    0.80 
  -5  -8  -1   11.67    0.92 
  -5  -8  -1   13.84    1.10 
   5   8   2    4.05    0.63 
   5   8   2    3.71    0.69 
  -5  -8  -2    5.74    0.83 
   5  -8   2    4.50    0.57 
  -5  -8  -2    4.14    0.66 
   5  -8   2    3.77    0.59 
   5   8   3   36.65    3.05 
   5   8   3   25.84    3.12 
  -5  -8  -3   35.73    2.94 
  -5  -8  -3   33.23    2.74 
   5  -8   3   30.78    2.62 
   5   8   4    6.71    0.89 
   5   8   4    4.97    0.80 
  -5  -8  -4    3.89    0.60 
   5   9  -4   11.37    1.36 
   5   9  -4   10.59    1.29 
  -5  -9   4    9.94    1.17 
  -5  -9   4   10.30    1.24 
   5   9  -3    2.33    0.56 
   5   9  -3    2.14    0.60 
  -5  -9   3    2.07    0.54 
  -5  -9   3    1.82    0.47 
   5   9  -2    5.21    0.74 
  -5  -9   2    5.38    0.73 
  -5  -9   2    4.64    0.68 
  -5  -9   2    5.81    0.72 
   5   9  -1   13.93    1.29 
   5   9  -1   12.99    1.26 
  -5  -9   1   12.00    1.22 
  -5  -9   1   15.74    1.46 
   5   9   0   36.24    2.94 
  -5  -9   0   32.05    2.65 
  -5  -9   0   42.22    3.46 
  -5  -9   0   36.70    2.99 
  -5  -9  -1    0.20    0.46 
  -5  -9  -1    0.49    0.55 
  -5  -9  -1    0.52    0.45 
  -5  -9  -2    2.97    0.53 
  -5  -9  -2    3.46    0.63 
  -5  -9  -3    8.95    1.16 
   5  10  -3   14.22    1.55 
  -5 -10   3   17.89    1.84 
  -5 -10   3   11.50    1.32 
   5  10  -2    2.78    0.56 
  -5 -10   2    2.45    0.55 
  -5 -10   2    2.24    0.56 
  -5 -10   1   12.81    1.53 
  -5 -10   1   11.91    1.39 
  -5 -10   1   11.97    1.40 
  -5 -10   1   12.08    1.41 
  -5 -10   0    9.02    1.14 
  -5 -10   0    9.12    1.12 
  -5 -10   0    7.99    1.03 
   5  10   1    2.68    0.50 
  -5 -10  -1    2.78    0.55 
  -5 -10  -1    3.02    0.59 
  -5 -10  -1    3.10    0.60 
   5  10   2    1.78    0.41 
  -5 -10  -2    1.98    0.45 
  -5 -10  -2    1.94    0.53 
   6   0  -7   44.12    4.67 
   6   0  -7   41.60    4.36 
   6   0  -7   38.16    4.03 
   6   0  -7   42.19    4.42 
   6   0  -7   42.04    4.44 
  -6   0   7   33.40    3.76 
   6   0  -6    0.26    0.48 
  -6   0   6    0.17    0.49 
   6   0  -6    0.18    0.49 
  -6   0   6   -0.02    0.42 
   6   0  -6    0.15    0.45 
   6   0  -6    0.12    0.45 
   6   0  -6   -0.15    0.54 
  -6   0   6   -0.35    0.61 
   6   0  -5   65.59    2.60 
   6   0  -5   66.52    2.63 
  -6   0   5   64.84    2.69 
   6   0  -5   70.53    2.95 
   6   0  -5   69.11    2.69 
  -6   0   5   62.22    2.58 
   6   0  -5   67.91    2.66 
   6   0  -5   66.57    2.62 
   6   0  -5   64.03    2.66 
  -6   0   5   69.44    2.86 
   6   0  -4   13.30    0.99 
   6   0  -4   12.14    0.91 
  -6   0   4   10.65    0.88 
   6   0  -4   13.16    1.01 
   6   0  -4   12.02    0.91 
  -6   0   4   12.84    1.00 
   6   0  -4   12.09    0.84 
   6   0  -4   11.98    0.88 
   6   0  -4   12.33    1.05 
  -6   0   4   12.58    1.09 
  -6   0   3    6.20    1.03 
  -6   0   3    7.39    1.24 
   6   0  -3    7.23    0.78 
   6   0  -3    7.49    0.71 
  -6   0   3    7.85    0.82 
   6   0  -3    7.18    0.72 
   6   0  -3    7.74    0.73 
   6   0  -3    6.88    0.68 
   6   0  -3    7.04    0.81 
  -6   0   3    8.28    0.89 
  -6   0   2    9.06    1.21 
  -6   0   2    8.85    1.30 
   6   0  -2   10.09    0.75 
  -6   0   2    8.74    0.83 
   6   0  -2    8.88    0.71 
   6   0  -2   10.10    0.83 
   6   0  -2    9.98    0.84 
   6   0  -2    9.58    0.78 
   6   0  -2   10.18    0.93 
  -6   0   2    8.95    1.11 
  -6   0   1   10.98    1.30 
  -6   0   1   11.78    1.39 
   6   0  -1   12.45    0.87 
   6   0  -1   11.79    0.75 
  -6   0   1   10.69    0.87 
   6   0  -1   11.22    0.77 
   6   0  -1   12.11    0.91 
   6   0  -1   13.19    0.94 
   6   0  -1   12.84    1.02 
  -6   0   1   12.04    0.96 
  -6   0   0   72.48    3.49 
  -6   0   0   70.77    3.40 
   6   0   0   76.83    2.61 
   6   0   0   70.76    2.40 
  -6   0   0   76.55    2.77 
   6   0   0   73.74    2.63 
   6   0   0   73.92    2.61 
   6   0   0   79.21    2.95 
  -6   0   0   80.90    3.00 
  -6   0  -1   10.50    1.34 
  -6   0  -1   11.38    1.40 
   6   0   1   12.29    0.82 
  -6   0  -1   12.05    0.86 
   6   0   1   11.70    0.94 
   6   0   1   10.35    0.86 
  -6   0  -1   12.61    0.89 
  -6   0  -1   12.49    1.23 
   6   0   1   11.68    1.15 
   6   0   2   34.54    1.51 
  -6   0  -2   33.22    1.51 
  -6   0  -2   31.19    1.48 
   6   0   2   33.89    1.61 
  -6   0  -2   35.07    1.63 
  -6   0  -2   33.46    1.88 
   6   0   2   31.71    1.77 
   6   0   3   54.75    2.24 
  -6   0  -3   54.19    2.27 
  -6   0  -3   52.21    2.23 
   6   0   3   52.73    2.29 
  -6   0  -3   53.79    2.31 
  -6   0  -3   60.63    2.85 
   6   0   3   53.53    2.51 
   6   0   4   86.30    3.17 
  -6   0  -4   91.49    3.55 
   6   0   4   94.40    3.54 
  -6   0  -4   87.16    3.36 
  -6   0  -4   89.60    4.40 
   6   0   4   89.47    3.81 
  -6   0  -5    0.20    0.50 
  -6   0  -5    0.33    0.48 
   6   0   5    0.45    0.56 
  -6   0  -5    0.05    0.57 
  -6   0  -5    0.52    0.89 
   6   0   5    0.26    0.73 
  -6   0  -6    6.29    0.93 
  -6   0  -6    4.11    0.69 
  -6   0  -6    4.30    0.73 
   6   0   6    5.41    1.39 
   6   1  -7    2.11    0.58 
   6   1  -7    1.93    0.57 
   6   1  -7    2.01    0.70 
   6   1  -7    2.30    0.55 
   6   1  -7    2.46    0.54 
   6  -1  -7    2.43    0.56 
  -6  -1   7    1.61    0.58 
   6   1  -6   24.67    2.30 
   6   1  -6   30.14    2.52 
   6   1  -6   27.78    2.34 
   6   1  -6   26.30    2.24 
   6   1  -6   30.32    2.55 
   6   1  -6   26.91    2.26 
  -6   1   6   26.71    2.35 
   6   1  -6   29.07    2.50 
   6  -1  -6   27.71    2.44 
  -6  -1   6   26.59    2.28 
   6  -1  -6   30.31    2.55 
   6  -1  -6   26.85    2.46 
   6  -1  -6   29.62    2.47 
   6  -1  -6   29.84    2.52 
   6  -1  -6   26.99    2.33 
   6  -1  -6   28.73    2.42 
  -6  -1   6   29.28    2.53 
  -6  -1   6   27.68    2.42 
  -6   1   5    8.27    0.81 
   6   1  -5    9.76    0.77 
   6   1  -5    9.08    0.80 
   6   1  -5   10.13    0.78 
   6   1  -5    9.28    0.73 
   6   1  -5    9.15    0.81 
   6   1  -5    9.26    0.75 
   6   1  -5    7.87    0.87 
   6   1  -5   10.15    0.98 
   6   1  -5    8.78    0.93 
  -6   1   5    9.56    0.81 
  -6   1   5    9.37    0.90 
   6  -1  -5    9.24    0.84 
  -6  -1   5    9.86    0.87 
   6  -1  -5    8.85    0.77 
   6  -1  -5    9.25    0.75 
  -6  -1   5    9.36    0.90 
   6  -1  -5    8.79    0.74 
   6  -1  -5    9.77    0.99 
   6  -1  -5    8.93    0.86 
   6  -1  -5    8.67    0.83 
   6  -1  -5    9.91    0.90 
  -6  -1   5    8.64    0.96 
   6   1  -4    3.66    0.62 
   6   1  -4    4.85    0.63 
  -6   1   4    4.54    0.67 
   6   1  -4    4.72    0.69 
  -6   1   4    4.50    0.66 
   6   1  -4    5.05    0.64 
  -6   1   4    5.00    0.74 
   6   1  -4    4.95    0.73 
   6   1  -4    4.56    0.56 
   6   1  -4    4.91    0.69 
   6   1  -4    4.70    0.85 
   6  -1  -4    4.90    0.77 
   6  -1  -4    4.83    0.71 
   6  -1  -4    4.75    0.70 
  -6  -1   4    4.71    0.81 
   6  -1  -4    3.93    0.57 
  -6  -1   4    4.51    0.72 
   6  -1  -4    4.37    0.69 
   6  -1  -4    4.84    0.66 
   6  -1  -4    4.72    0.67 
  -6  -1   4    4.33    0.84 
   6   1  -3    9.32    0.79 
  -6   1   3    9.28    1.24 
  -6   1   3    8.87    0.81 
  -6   1   3    9.87    1.34 
   6   1  -3    8.69    0.77 
   6   1  -3    9.28    0.73 
   6   1  -3    9.88    0.74 
   6   1  -3   10.21    0.90 
   6   1  -3    9.71    0.98 
  -6   1   3    8.61    0.86 
   6   1  -3    9.09    0.77 
   6   1  -3    8.47    0.75 
   6  -1  -3    9.37    0.79 
   6  -1  -3    9.48    0.77 
  -6  -1   3    7.16    1.11 
   6  -1  -3    8.71    0.71 
   6  -1  -3    8.33    0.71 
  -6  -1   3    7.88    1.35 
   6  -1  -3    9.11    0.82 
  -6  -1   3    9.13    0.84 
   6  -1  -3    8.93    0.77 
  -6  -1   3    8.87    0.97 
   6   1  -2    1.78    0.45 
  -6   1   2    1.59    0.92 
   6   1  -2    2.17    0.65 
   6   1  -2    2.25    0.62 
   6   1  -2    1.46    0.51 
   6   1  -2    2.16    0.62 
  -6   1   2    2.27    0.53 
  -6   1   2    1.23    0.61 
   6  -1  -2    1.90    0.48 
  -6  -1   2    2.52    0.89 
   6  -1  -2    1.56    0.60 
   6  -1  -2    1.41    0.56 
  -6  -1   2    2.22    0.58 
   6  -1  -2    1.24    0.53 
   6  -1  -2    2.03    0.47 
  -6  -1   2    2.01    0.67 
   6  -1  -2    1.64    0.47 
   6   1  -1   26.62    1.21 
  -6   1   1   24.05    1.86 
  -6   1   1   27.27    1.36 
   6   1  -1   25.33    1.45 
  -6   1   1   27.30    1.45 
   6   1  -1   26.12    1.32 
   6   1  -1   27.72    1.28 
  -6  -1   1   24.55    1.20 
  -6  -1   1   27.64    1.36 
  -6  -1   1   26.06    1.98 
   6  -1  -1   28.56    1.36 
   6  -1  -1   26.82    1.28 
  -6  -1   1   25.60    1.89 
   6  -1  -1   27.72    1.43 
   6  -1  -1   28.00    1.25 
   6  -1  -1   23.58    1.09 
  -6  -1   1   26.47    1.47 
   6   1   0   47.92    1.84 
  -6   1   0   42.49    2.55 
  -6   1   0   39.41    1.72 
  -6   1   0   39.31    2.35 
  -6   1   0   44.90    1.96 
   6   1   0   43.33    1.77 
   6   1   0   46.20    2.04 
  -6   1   0   43.87    1.83 
  -6  -1   0   46.43    1.81 
  -6  -1   0   36.16    2.29 
  -6  -1   0   45.30    1.89 
   6  -1   0   43.13    1.76 
   6  -1   0   45.20    1.84 
   6  -1   0   45.28    1.96 
  -6  -1   0   41.89    2.49 
   6  -1   0   44.65    1.75 
  -6  -1   0   45.81    2.01 
  -6   1  -1   13.86    0.87 
  -6   1  -1   13.40    1.51 
   6   1   1   13.94    1.04 
   6   1   1   15.19    0.95 
  -6  -1  -1   14.96    0.91 
  -6  -1  -1   13.01    1.36 
   6  -1   1   14.88    1.02 
   6  -1   1   15.17    0.90 
   6  -1   1   13.59    0.88 
  -6  -1  -1   14.94    1.01 
   6  -1   1   14.79    1.21 
  -6   1  -2   88.70    3.56 
   6   1   2   86.02    3.08 
   6   1   2   91.09    3.37 
  -6   1  -2   91.53    3.29 
  -6   1  -2   85.67    3.32 
   6  -1   2   95.88    3.49 
   6  -1   2   88.26    3.15 
  -6  -1  -2   92.50    3.42 
  -6  -1  -2   88.23    3.18 
  -6  -1  -2   87.59    3.21 
   6  -1   2   82.63    3.32 
  -6   1  -3   93.65    3.77 
   6   1   3  102.77    3.83 
   6   1   3   98.84    3.83 
  -6   1  -3  101.93    3.84 
  -6   1  -3   94.89    3.72 
  -6   1  -3  112.25    4.49 
   6  -1   3  103.12    3.98 
  -6  -1  -3  100.65    3.80 
  -6  -1  -3  111.03    4.25 
  -6  -1  -3  106.40    4.04 
   6  -1   3  104.45    3.87 
   6  -1   3   97.34    3.94 
   6   1   4   21.33    1.13 
  -6   1  -4   21.78    1.20 
  -6   1  -4   19.45    1.20 
  -6   1  -4   19.96    1.14 
  -6   1  -4   21.95    1.52 
   6   1   4   20.78    1.22 
   6  -1   4   21.40    1.23 
  -6  -1  -4   20.22    1.20 
  -6  -1  -4   20.83    1.23 
   6  -1   4   20.83    1.40 
   6   1   5   40.29    3.23 
  -6   1  -5   36.30    3.36 
  -6   1  -5   33.44    2.97 
   6   1   5   45.60    3.69 
  -6   1  -5   37.26    3.63 
  -6  -1  -5   44.33    3.58 
  -6  -1  -5   36.69    3.05 
  -6  -1  -5   40.01    3.50 
  -6  -1  -5   36.94    3.49 
   6  -1   5   43.60    3.61 
   6  -1   5   45.49    3.84 
  -6   1  -6    1.83    0.55 
  -6  -1  -6    1.49    0.51 
  -6  -1  -6    1.55    0.51 
  -6  -1  -6    1.44    0.54 
   6   2  -7    1.49    0.50 
   6   2  -7    1.39    0.50 
   6   2  -7    1.59    0.53 
   6   2  -7    2.05    0.64 
   6   2  -7    1.42    0.58 
   6   2  -7    1.77    0.52 
   6  -2  -7    1.36    0.47 
  -6  -2   7    1.25    0.52 
   6  -2  -7    1.61    0.60 
  -6  -2   7    1.40    0.59 
   6   2  -6    8.13    0.93 
   6   2  -6    8.53    0.97 
   6   2  -6    8.89    0.97 
   6   2  -6    8.53    0.92 
   6   2  -6    9.45    1.12 
   6   2  -6    8.72    1.00 
   6   2  -6    8.78    1.04 
   6   2  -6    8.48    1.02 
  -6  -2   6    8.78    1.10 
  -6  -2   6    7.64    0.91 
   6  -2  -6    8.84    1.13 
   6  -2  -6    8.80    1.02 
   6  -2  -6    7.91    0.92 
  -6  -2   6    8.33    1.08 
   6   2  -5    6.64    0.71 
   6   2  -5    6.06    0.70 
   6   2  -5    5.86    0.63 
   6   2  -5    6.13    0.67 
   6   2  -5    5.20    0.63 
  -6   2   5    5.31    0.74 
  -6   2   5    5.50    0.63 
   6   2  -5    6.05    0.72 
   6   2  -5    5.66    0.67 
   6   2  -5    5.70    0.73 
   6   2  -5    5.80    0.77 
   6  -2  -5    5.20    0.82 
   6  -2  -5    6.18    0.72 
   6  -2  -5    5.78    0.73 
   6  -2  -5    5.62    0.71 
  -6  -2   5    5.97    0.79 
  -6  -2   5    5.69    0.78 
  -6  -2   5    6.31    0.88 
  -6   2   4    6.48    0.78 
   6   2  -4    6.31    0.70 
   6   2  -4    6.38    0.77 
   6   2  -4    6.82    0.64 
   6   2  -4    5.88    0.76 
  -6   2   4    6.36    0.77 
   6   2  -4    6.22    0.77 
   6   2  -4    7.02    0.68 
   6   2  -4    7.11    0.83 
   6  -2  -4    6.75    0.68 
  -6  -2   4    7.16    0.86 
   6  -2  -4    5.81    0.68 
   6  -2  -4    6.79    0.76 
   6  -2  -4    6.53    0.68 
   6  -2  -4    5.73    0.74 
  -6  -2   4    7.39    0.89 
   6  -2  -4    5.80    0.85 
  -6  -2   4    6.77    0.95 
   6   2  -3   50.21    2.07 
   6   2  -3   47.42    1.94 
   6   2  -3   53.03    2.28 
   6   2  -3   48.78    1.92 
  -6   2   3   52.84    2.30 
   6   2  -3   48.93    1.99 
   6   2  -3   52.05    2.13 
   6   2  -3   50.96    2.11 
   6  -2  -3   51.07    2.14 
  -6  -2   3   49.94    2.14 
   6  -2  -3   57.23    2.38 
   6  -2  -3   52.91    2.17 
   6  -2  -3   51.01    2.18 
   6  -2  -3   48.52    1.97 
   6  -2  -3   48.39    1.96 
  -6  -2   3   45.78    2.10 
   6   2  -2    8.11    0.76 
   6   2  -2    7.73    1.09 
   6   2  -2    8.45    0.77 
  -6   2   2    7.93    1.09 
   6   2  -2    6.51    1.22 
   6   2  -2    7.61    0.74 
   6   2  -2    7.32    0.68 
  -6   2   2    7.57    0.78 
   6   2  -2    8.10    0.73 
  -6  -2   2    7.37    0.69 
   6  -2  -2    9.02    0.82 
  -6  -2   2    6.92    1.23 
   6  -2  -2    7.02    0.63 
  -6  -2   2    7.23    1.11 
   6  -2  -2    6.95    0.66 
  -6  -2   2    7.47    0.84 
   6  -2  -2    7.68    0.79 
   6  -2  -2    7.79    0.82 
   6   2  -1   61.99    2.24 
  -6   2   1   66.23    3.33 
  -6   2   1   61.60    3.16 
   6   2  -1   62.55    2.38 
   6   2  -1   61.26    2.27 
   6   2  -1   68.87    2.55 
  -6   2   1   61.99    2.66 
  -6  -2   1   73.20    2.72 
   6  -2  -1   71.28    2.60 
   6  -2  -1   66.01    2.44 
  -6  -2   1   66.11    3.38 
   6  -2  -1   69.44    2.66 
   6  -2  -1   62.77    2.38 
  -6   2   0    7.40    1.13 
   6   2   0    7.45    0.83 
   6   2   0    8.23    0.87 
  -6   2   0    6.88    0.80 
  -6   2   0    8.43    0.75 
  -6  -2   0    7.55    1.16 
   6  -2   0    8.09    0.72 
   6  -2   0    7.85    0.66 
  -6  -2   0    8.08    0.77 
   6  -2   0    8.98    0.86 
  -6  -2   0    6.80    0.83 
  -6   2  -1  188.02    7.49 
  -6   2  -1  181.95    7.65 
   6   2   1  185.99    6.75 
  -6   2  -1  193.76    7.03 
   6  -2   1  189.67    6.81 
  -6  -2  -1  203.64    7.33 
  -6  -2  -1  197.46    7.16 
   6  -2   1  176.88    6.44 
  -6  -2  -1  198.95    7.24 
   6  -2   1  193.87    7.25 
  -6  -2  -1  192.91    7.18 
  -6  -2  -1  185.29    7.67 
   6   2   2   41.77    2.09 
   6   2   2   35.28    1.53 
  -6   2  -2   39.62    2.01 
  -6   2  -2   36.59    1.61 
   6  -2   2   33.10    1.46 
   6  -2   2   35.08    1.59 
  -6  -2  -2   37.56    1.67 
  -6  -2  -2   39.05    2.06 
  -6  -2  -2   41.10    1.85 
  -6  -2  -2   37.49    1.71 
   6  -2   2   41.00    1.98 
   6   2   3    0.04    0.53 
  -6   2  -3    0.56    0.58 
   6   2   3    0.30    0.90 
  -6   2  -3    0.60    0.88 
   6  -2   3    0.04    0.51 
  -6  -2  -3   -0.07    0.91 
  -6  -2  -3   -0.18    0.61 
  -6  -2  -3    0.29    0.52 
   6  -2   3   -0.13    0.72 
   6   2   4   62.27    3.16 
   6   2   4   61.49    3.23 
  -6   2  -4   63.65    3.25 
  -6   2  -4   54.27    3.03 
  -6   2  -4   59.61    3.37 
   6   2   4   59.14    3.33 
  -6  -2  -4   63.68    3.27 
  -6  -2  -4   63.84    3.32 
  -6  -2  -4   60.46    3.20 
   6  -2   4   60.25    3.13 
  -6  -2  -4   61.96    3.44 
   6  -2   4   64.25    3.50 
   6   2   5    7.40    0.91 
   6   2   5    7.68    1.08 
  -6   2  -5    6.85    0.93 
  -6   2  -5    5.00    0.83 
  -6   2  -5    5.26    0.81 
  -6   2  -5    6.19    1.26 
   6   2   5    6.92    1.16 
  -6  -2  -5    8.22    1.07 
  -6  -2  -5    5.96    0.90 
  -6  -2  -5    7.36    1.01 
  -6  -2  -5    5.54    1.18 
   6  -2   5    8.65    1.22 
  -6   2  -6    1.95    0.64 
  -6   2  -6    1.08    0.53 
   6   2   6    2.70    0.69 
  -6  -2  -6    1.60    0.50 
  -6  -2  -6    2.21    0.81 
  -6  -2  -6    1.10    0.62 
   6   3  -7    4.03    0.65 
   6   3  -7    3.73    0.59 
   6   3  -7    5.09    0.78 
   6   3  -7    4.32    0.80 
   6   3  -7    4.07    0.73 
   6   3  -7    4.16    0.73 
   6  -3  -7    4.17    0.67 
  -6  -3   7    3.29    0.70 
   6  -3  -7    4.92    2.61 
  -6  -3   7    3.43    0.73 
   6   3  -6    4.57    0.81 
   6   3  -6    5.52    0.85 
   6   3  -6    5.39    0.81 
   6   3  -6    5.59    0.81 
   6   3  -6    5.60    0.96 
   6   3  -6    5.26    0.79 
   6   3  -6    5.00    0.83 
   6  -3  -6    5.05    0.77 
  -6  -3   6    5.06    0.90 
  -6  -3   6    5.23    0.82 
   6  -3  -6    5.30    0.94 
   6  -3  -6    5.50    0.82 
   6   3  -5    7.70    0.78 
   6   3  -5    6.67    0.78 
   6   3  -5    7.84    0.80 
   6   3  -5    7.95    0.77 
   6   3  -5    8.44    0.77 
   6   3  -5    7.81    0.81 
   6   3  -5    8.19    0.95 
   6   3  -5    8.40    0.79 
  -6  -3   5    8.61    0.97 
   6  -3  -5    8.06    0.79 
   6  -3  -5    7.35    0.82 
  -6  -3   5    8.04    0.87 
   6  -3  -5    8.20    0.95 
   6  -3  -5    8.50    0.81 
  -6   3   4   41.12    1.89 
   6   3  -4   39.83    1.85 
   6   3  -4   42.00    1.92 
   6   3  -4   42.71    1.90 
   6   3  -4   42.34    1.82 
   6   3  -4   42.13    1.90 
   6   3  -4   42.39    1.96 
   6   3  -4   43.00    1.87 
   6  -3  -4   40.67    1.99 
   6  -3  -4   38.39    1.77 
  -6  -3   4   38.42    1.87 
   6  -3  -4   42.22    1.92 
   6  -3  -4   38.32    1.78 
   6  -3  -4   41.03    1.85 
   6   3  -3    9.36    0.90 
   6   3  -3    8.74    0.78 
   6   3  -3    8.05    0.77 
   6   3  -3    7.74    0.94 
   6   3  -3    8.19    0.78 
   6   3  -3    8.38    0.77 
   6  -3  -3    8.62    0.82 
   6  -3  -3    8.02    0.78 
  -6  -3   3    8.45    0.93 
   6  -3  -3    9.01    0.74 
   6  -3  -3    8.46    0.83 
  -6  -3   3    7.36    0.64 
  -6  -3   3    8.36    0.88 
   6  -3  -3    8.25    0.70 
  -6  -3   3    6.04    0.68 
  -6  -3   3    8.42    0.94 
   6   3  -2   19.46    1.88 
   6   3  -2   22.01    1.80 
   6   3  -2   20.76    1.12 
  -6   3   2   19.98    1.69 
   6   3  -2   22.36    1.38 
   6   3  -2   23.07    1.25 
   6   3  -2   21.58    1.11 
  -6  -3   2   18.92    1.78 
   6  -3  -2   21.57    1.16 
  -6  -3   2   16.38    1.38 
  -6  -3   2   21.88    1.24 
   6  -3  -2   23.23    1.22 
  -6  -3   2   19.19    1.76 
  -6  -3   2   18.23    1.33 
  -6  -3   2   22.74    1.37 
  -6  -3   2   22.55    2.02 
  -6  -3   2   23.24    1.40 
   6   3  -1   12.32    1.11 
   6   3  -1   11.74    1.40 
  -6   3   1    9.14    0.89 
  -6   3   1   11.31    1.30 
   6   3  -1   12.35    0.94 
   6   3  -1   11.17    0.87 
   6   3  -1   12.27    0.90 
  -6  -3   1   10.63    1.29 
   6  -3  -1   11.34    0.86 
   6  -3  -1   11.88    0.85 
  -6  -3   1   11.14    0.78 
  -6  -3   1   10.32    1.33 
  -6  -3   1   11.55    0.87 
  -6  -3   1   12.94    1.03 
   6   3   0   23.46    1.47 
   6   3   0   24.37    1.36 
  -6   3   0   23.33    1.97 
   6   3   0   22.15    1.18 
  -6  -3   0   21.89    1.84 
  -6  -3   0   23.80    1.33 
  -6  -3   0   23.81    1.28 
   6  -3   0   21.71    1.21 
   6  -3   0   22.85    1.18 
  -6  -3   0   22.88    1.20 
   6  -3   0   23.13    1.36 
  -6  -3   0   21.99    1.84 
  -6  -3   0   23.72    1.43 
  -6   3  -1   12.20    1.09 
   6   3   1   16.38    1.19 
  -6   3  -1   14.75    0.92 
   6   3   1   15.91    1.08 
   6  -3   1   13.49    0.89 
  -6  -3  -1   16.30    1.06 
  -6  -3  -1   14.79    0.94 
  -6  -3  -1   15.38    1.02 
  -6  -3  -1   14.47    0.98 
   6  -3   1   15.56    1.09 
  -6  -3  -1   16.40    1.19 
   6  -3   1   13.52    0.84 
   6   3   2   23.95    1.28 
  -6   3  -2   27.26    1.34 
  -6   3  -2   26.64    1.63 
   6   3   2   23.13    1.46 
   6   3   2   26.95    1.47 
  -6  -3  -2   26.55    1.37 
  -6  -3  -2   29.12    1.55 
  -6  -3  -2   27.31    1.44 
   6  -3   2   23.43    1.25 
   6  -3   2   25.35    1.57 
  -6  -3  -2   27.75    1.61 
   6   3   3   18.58    1.10 
  -6   3  -3   20.52    1.48 
  -6   3  -3   20.03    1.17 
   6   3   3   21.59    1.52 
   6   3   3   19.30    1.25 
  -6  -3  -3   21.63    1.26 
  -6  -3  -3   20.54    1.31 
  -6  -3  -3   19.70    1.17 
  -6  -3  -3   20.94    1.28 
  -6  -3  -3   21.65    1.52 
   6  -3   3   21.57    1.43 
   6   3   4    8.61    0.81 
   6   3   4    8.93    1.06 
  -6   3  -4    8.96    0.84 
  -6   3  -4    7.90    1.21 
  -6  -3  -4    8.21    0.79 
  -6  -3  -4    9.68    0.88 
  -6  -3  -4    8.16    1.02 
  -6  -3  -4   10.04    1.01 
  -6  -3  -4    9.46    0.90 
   6  -3   4    8.94    1.01 
   6   3   5   17.44    1.84 
   6   3   5    8.20    2.41 
  -6   3  -5   16.71    1.81 
  -6   3  -5   11.73    1.70 
  -6  -3  -5   14.22    1.65 
  -6  -3  -5   15.01    1.72 
  -6  -3  -5   16.55    1.81 
   6  -3   5   14.21    1.71 
  -6  -3  -5   16.46    1.89 
   6   4  -6   12.30    1.55 
   6   4  -6   11.63    1.39 
   6   4  -6   13.08    1.53 
   6   4  -6   12.40    1.46 
   6   4  -6   12.69    1.51 
   6   4  -6   11.47    1.40 
   6   4  -6   12.64    1.57 
   6  -4  -6   12.04    1.41 
  -6  -4   6   11.66    1.44 
  -6  -4   6   11.96    1.50 
   6  -4  -6   12.14    1.53 
  -6  -4   6   11.81    1.48 
   6   4  -5   14.28    1.46 
   6   4  -5   15.14    1.39 
   6   4  -5   15.40    1.43 
   6   4  -5   13.96    1.34 
   6   4  -5   14.44    1.37 
   6   4  -5   15.22    1.49 
   6   4  -5   15.20    1.45 
   6  -4  -5   14.91    1.39 
  -6  -4   5   13.39    1.24 
  -6  -4   5   14.87    1.46 
   6  -4  -5   14.55    1.46 
   6  -4  -5   15.53    1.45 
  -6  -4   5   13.35    1.39 
   6   4  -4   61.20    2.79 
   6   4  -4   59.75    2.40 
   6   4  -4   57.78    2.53 
   6   4  -4   60.68    2.56 
   6   4  -4   60.73    2.38 
   6   4  -4   58.70    2.53 
   6   4  -4   61.79    2.67 
   6  -4  -4   62.07    2.50 
  -6  -4   4   57.27    2.39 
   6  -4  -4   64.51    2.55 
   6  -4  -4   60.55    2.58 
  -6  -4   4   64.14    2.89 
   6   4  -3  140.07    5.17 
   6   4  -3  134.23    4.95 
   6   4  -3  151.06    5.41 
   6   4  -3  146.75    5.37 
   6   4  -3  139.69    5.30 
   6   4  -3  140.70    5.18 
   6  -4  -3  138.42    5.14 
  -6  -4   3  131.91    4.85 
  -6  -4   3  142.38    5.27 
   6  -4  -3  140.81    5.63 
  -6  -4   3  147.53    5.56 
   6   4  -2   77.74    3.08 
   6   4  -2   74.38    2.92 
   6   4  -2   71.63    2.88 
   6   4  -2   80.35    3.29 
  -6  -4   2   69.34    2.88 
   6  -4  -2   83.93    3.26 
  -6  -4   2   77.55    2.99 
  -6  -4   2   76.92    3.09 
  -6  -4   2   72.05    2.97 
  -6  -4   2   77.51    3.19 
   6   4  -1   86.82    3.20 
   6   4  -1   84.93    3.06 
   6   4  -1   87.40    3.36 
   6   4  -1   88.20    3.25 
  -6  -4   1   83.39    3.15 
   6  -4  -1   89.18    3.24 
  -6  -4   1   90.85    3.31 
  -6  -4   1   86.58    3.16 
  -6  -4   1   90.30    3.36 
   6  -4  -1   81.06    3.15 
  -6  -4   1   90.05    3.40 
   6   4   0  167.64    5.95 
   6   4   0  162.44    5.99 
   6   4   0  163.08    5.86 
   6   4   0  165.10    5.96 
  -6  -4   0  156.02    5.32 
  -6  -4   0  161.98    5.83 
  -6  -4   0  152.32    5.16 
  -6  -4   0  155.17    5.30 
  -6  -4   0  153.80    5.28 
  -6  -4   0  152.24    5.35 
   6   4   1   85.91    3.28 
   6   4   1   94.55    3.79 
   6   4   1   85.90    3.37 
  -6  -4  -1   89.57    3.46 
  -6  -4  -1   88.31    3.46 
  -6  -4  -1   91.14    3.50 
  -6  -4  -1   90.27    3.47 
  -6  -4  -1   91.96    3.55 
  -6  -4  -1   90.11    3.61 
   6   4   2    7.25    0.70 
  -6   4  -2    6.56    0.66 
   6   4   2    8.54    0.94 
   6   4   2    8.21    0.88 
  -6  -4  -2    8.54    0.83 
  -6  -4  -2    8.66    0.83 
  -6  -4  -2    8.36    0.79 
  -6  -4  -2    8.86    0.91 
   6   4   3   18.47    1.37 
  -6   4  -3   18.54    1.07 
   6   4   3   18.41    1.20 
  -6  -4  -3   19.49    1.18 
  -6  -4  -3   17.34    1.08 
  -6  -4  -3   18.98    1.12 
  -6  -4  -3   20.35    1.37 
   6   4   4   19.68    1.73 
   6   4   4   14.40    2.34 
  -6   4  -4   20.52    1.78 
   6   4   4   21.66    1.95 
  -6  -4  -4   21.13    1.90 
  -6  -4  -4   20.21    1.81 
  -6  -4  -4   21.10    1.88 
  -6  -4  -4   22.80    2.11 
   6   4   5    2.40    0.57 
   6   4   5    1.07    0.62 
  -6   4  -5    1.96    0.55 
   6   4   5    2.22    0.64 
  -6  -4  -5    1.81    0.48 
  -6  -4  -5    2.25    0.62 
  -6  -4  -5    1.78    0.58 
   6   5  -6   18.93    2.14 
   6   5  -6   25.47    2.54 
   6   5  -6   23.95    2.41 
   6   5  -6   24.80    2.50 
   6   5  -6   24.04    2.43 
   6   5  -6   24.33    2.70 
   6   5  -6   19.19    2.04 
   6   5  -6   24.26    2.51 
  -6  -5   6   22.68    2.54 
   6  -5  -6   25.86    2.64 
  -6  -5   6   20.70    2.19 
  -6  -5   6   22.82    2.37 
   6   5  -5   41.29    3.34 
   6   5  -5   42.78    3.43 
   6   5  -5   42.76    3.47 
   6   5  -5   41.32    3.34 
   6   5  -5   40.31    3.28 
   6   5  -5   41.56    3.45 
   6   5  -5   43.09    3.52 
   6   5  -5   43.48    3.51 
  -6  -5   5   38.32    3.09 
  -6  -5   5   40.27    3.33 
   6  -5  -5   40.71    3.36 
  -6  -5   5   44.91    3.69 
   6   5  -4   32.36    3.04 
   6   5  -4   42.75    2.31 
   6   5  -4   41.99    2.29 
   6   5  -4   43.55    2.34 
   6   5  -4   41.96    2.31 
   6   5  -4   43.13    2.49 
   6   5  -4   42.79    2.34 
  -6  -5   4   40.89    2.34 
   6  -5  -4   40.54    2.32 
  -6  -5   4   40.90    2.31 
   6  -5  -4   40.72    2.21 
  -6  -5   4   41.84    2.42 
   6   5  -3   40.68    2.21 
   6   5  -3   41.84    1.95 
   6   5  -3   42.07    1.87 
   6   5  -3   46.18    2.23 
   6   5  -3   38.75    1.89 
   6   5  -3   42.46    1.98 
  -6  -5   3   39.95    2.00 
  -6  -5   3   39.24    1.83 
  -6  -5   3   45.60    2.15 
  -6  -5   3   41.93    2.05 
   6  -5  -3   40.55    1.90 
  -6  -5   3   44.08    2.15 
   6   5  -2   96.14    3.73 
   6   5  -2   94.72    3.63 
   6   5  -2   91.11    3.41 
   6   5  -2  102.99    4.05 
   6   5  -2  102.88    3.94 
  -6  -5   2   92.22    4.10 
   6  -5  -2   99.34    3.80 
  -6  -5   2   96.79    3.66 
  -6  -5   2   98.07    3.83 
  -6  -5   2   96.29    3.77 
  -6  -5   2  101.94    4.04 
   6   5  -1  125.63    4.58 
   6   5  -1  123.52    4.61 
   6   5  -1  120.42    4.62 
   6   5  -1  128.98    4.80 
  -6  -5   1  125.38    4.63 
  -6  -5   1  117.22    4.31 
  -6  -5   1  122.33    4.58 
  -6  -5   1  123.76    4.64 
  -6  -5   1  124.32    4.70 
   6   5   0   37.43    1.68 
   6   5   0   34.61    1.82 
   6   5   0   33.28    1.65 
   6   5   0   33.49    1.59 
  -6  -5   0   34.51    1.74 
  -6  -5   0   34.60    1.60 
  -6  -5   0   35.54    1.70 
  -6  -5   0   33.88    1.78 
   6   5   1   20.22    1.16 
   6   5   1   21.59    1.36 
   6   5   1   20.11    1.24 
   6   5   1   21.35    1.24 
  -6  -5  -1   21.76    1.31 
  -6  -5  -1   20.38    1.16 
  -6  -5  -1   21.18    1.23 
  -6  -5  -1   19.74    1.26 
   6   5   2   -0.35    0.57 
   6   5   2    0.35    0.54 
  -6   5  -2    0.23    0.36 
   6   5   2    0.05    0.67 
  -6  -5  -2    0.40    0.57 
  -6  -5  -2    0.32    0.64 
  -6  -5  -2   -0.16    0.48 
  -6  -5  -2    0.45    0.62 
  -6  -5  -2    0.10    0.65 
   6   5   3   40.20    2.18 
   6   5   3   41.47    2.33 
  -6   5  -3   40.15    2.27 
   6   5   3   36.15    2.60 
  -6  -5  -3   42.24    2.35 
  -6  -5  -3   42.15    2.33 
  -6  -5  -3   38.43    2.14 
  -6  -5  -3   43.42    2.39 
  -6  -5  -3   40.59    2.35 
   6   5   4    4.33    0.94 
  -6   5  -4    5.24    0.77 
   6   5   4    6.73    0.99 
  -6  -5  -4    6.48    0.93 
  -6  -5  -4    6.22    0.89 
  -6  -5  -4    5.54    0.81 
  -6  -5  -4    6.44    0.96 
  -6  -5  -4    7.22    0.99 
  -6  -5  -4    5.89    0.92 
   6   5   5   28.00    2.75 
  -6   5  -5   21.15    2.36 
   6   5   5   24.90    2.75 
  -6  -5  -5   19.83    2.10 
   6   6  -6   17.90    4.30 
   6   6  -6    1.22    0.58 
   6   6  -6    0.85    0.42 
   6   6  -5   10.22    1.21 
   6   6  -5   10.95    1.25 
   6   6  -5   10.80    1.35 
   6   6  -5   11.11    1.36 
   6   6  -5    8.59    1.12 
   6   6  -5   10.70    1.31 
   6   6  -5   10.85    1.31 
  -6  -6   5   10.82    1.33 
  -6  -6   5    9.01    1.07 
  -6  -6   5   10.96    1.35 
  -6  -6   5   10.28    1.31 
   6   6  -4    1.59    0.56 
   6   6  -4    2.14    0.56 
   6   6  -4    1.59    0.51 
   6   6  -4    1.44    0.63 
   6   6  -4    1.79    0.55 
   6   6  -4    1.55    0.64 
  -6  -6   4    2.10    0.66 
  -6  -6   4    1.88    0.60 
  -6  -6   4    1.17    0.40 
  -6  -6   4    1.36    0.60 
   6   6  -3    7.93    0.81 
   6   6  -3    8.28    0.88 
   6   6  -3    8.07    0.75 
   6   6  -3    8.09    0.94 
   6   6  -3    8.99    0.90 
  -6  -6   3    6.08    0.65 
  -6  -6   3    7.19    0.73 
   6  -6  -3    7.34    0.72 
  -6  -6   3    9.48    0.95 
  -6  -6   3    8.68    0.85 
  -6  -6   3    8.28    0.91 
   6   6  -2   19.46    1.09 
   6   6  -2   17.97    1.18 
   6   6  -2   17.60    1.09 
  -6  -6   2   17.93    1.16 
  -6  -6   2   17.96    1.02 
  -6  -6   2   17.08    1.06 
  -6  -6   2   19.42    1.16 
  -6  -6   2   18.39    1.19 
   6   6  -1    7.17    0.65 
   6   6  -1    7.81    0.66 
   6   6  -1    7.02    0.71 
   6   6  -1    6.88    0.86 
   6   6  -1    7.58    0.85 
  -6  -6   1    6.78    0.78 
  -6  -6   1    7.66    0.80 
  -6  -6   1    7.76    0.68 
  -6  -6   1    7.66    0.74 
  -6  -6   1    6.66    0.71 
  -6  -6   1    7.90    0.87 
   6   6   0   21.23    1.18 
   6   6   0   18.62    1.18 
   6   6   0   18.60    1.14 
   6   6   0   20.10    1.30 
  -6  -6   0   18.48    1.08 
  -6  -6   0   20.64    1.30 
  -6  -6   0   20.63    1.36 
   6   6   1   10.05    0.82 
   6   6   1   10.17    0.91 
   6   6   1   11.62    0.97 
   6   6   1   10.38    0.84 
  -6  -6  -1   10.77    0.88 
  -6  -6  -1   10.05    0.83 
  -6  -6  -1   12.08    1.00 
  -6  -6  -1   11.12    0.94 
   6   6   2    1.82    0.55 
   6   6   2    1.98    0.64 
   6   6   2    1.41    0.55 
   6   6   2    1.69    0.55 
  -6  -6  -2    2.40    0.68 
  -6  -6  -2    1.98    0.61 
  -6  -6  -2    1.77    0.53 
  -6  -6  -2    1.73    0.63 
  -6  -6  -2    1.68    0.55 
   6   6   3   18.47    1.64 
   6   6   3   14.85    1.43 
  -6   6  -3   11.92    1.69 
  -6  -6  -3   18.47    1.68 
  -6  -6  -3   18.26    1.68 
  -6  -6  -3   17.26    1.58 
  -6  -6  -3   15.93    1.49 
   6   6   4    7.19    0.97 
  -6   6  -4    4.89    0.75 
   6   6   4    5.57    0.86 
  -6  -6  -4    6.15    0.84 
  -6  -6  -4    5.28    0.81 
  -6  -6  -4    5.97    0.85 
   6   7  -5    1.07    0.45 
   6   7  -5    1.20    0.52 
   6   7  -5    0.93    0.42 
   6   7  -5    0.95    0.50 
   6   7  -5    1.06    0.41 
  -6  -7   5    0.87    0.48 
  -6  -7   5    0.94    0.39 
  -6  -7   5    0.89    0.51 
   6   7  -4   27.36    2.81 
   6   7  -4   26.04    2.68 
   6   7  -4   30.35    3.05 
   6   7  -4   27.61    2.87 
   6   7  -4   28.34    2.90 
  -6  -7   4   26.22    2.75 
  -6  -7   4   29.74    3.05 
  -6  -7   4   24.84    2.53 
  -6  -7   4   25.65    2.61 
  -6  -7   4   22.55    2.49 
   6   7  -3    6.91    0.90 
   6   7  -3    7.64    0.87 
   6   7  -3    6.36    0.79 
   6   7  -3    7.40    0.91 
   6   7  -3    6.50    0.85 
  -6  -7   3    5.57    0.75 
  -6  -7   3    6.11    0.76 
  -6  -7   3    6.01    0.83 
  -6  -7   3    6.69    0.85 
  -6  -7   3    4.81    0.82 
   6   7  -2    9.06    0.88 
   6   7  -2    8.81    0.77 
   6   7  -2    8.83    0.84 
   6   7  -2    8.48    0.89 
  -6  -7   2    6.64    0.69 
  -6  -7   2    8.59    0.82 
  -6  -7   2    8.47    0.82 
  -6  -7   2   10.19    0.95 
  -6  -7   2    8.56    0.89 
  -6  -7   2    9.03    0.90 
   6   7  -1    6.22    0.70 
   6   7  -1    6.40    0.79 
   6   7  -1    6.78    0.77 
  -6  -7   1    7.09    0.70 
  -6  -7   1    6.90    0.81 
  -6  -7   1    6.37    0.68 
  -6  -7   1    7.18    0.86 
  -6  -7   1    6.31    0.77 
   6   7   0    8.37    0.74 
   6   7   0    9.39    0.88 
  -6  -7   0    8.96    0.75 
  -6  -7   0    8.66    0.88 
  -6  -7   0    9.45    0.87 
   6   7   1    3.66    0.62 
   6   7   1    3.29    0.70 
  -6  -7  -1    3.62    0.73 
  -6  -7  -1    2.86    0.51 
  -6  -7  -1    4.04    0.74 
  -6  -7  -1    3.52    0.69 
   6   7   2    7.26    0.84 
   6   7   2    6.92    0.91 
  -6  -7  -2    7.66    0.92 
  -6  -7  -2    7.40    0.92 
  -6  -7  -2    7.11    0.87 
   6   7   3    7.66    0.99 
   6   7   3    6.75    1.15 
  -6  -7  -3    8.07    1.04 
  -6  -7  -3    7.20    0.98 
   6   7   4    2.54    0.53 
   6   7   4    2.13    0.53 
  -6  -7  -4    1.74    0.48 
   6   8  -4    3.62    0.59 
   6   8  -4    3.30    0.57 
   6   8  -4    4.12    0.68 
   6   8  -4    3.21    0.65 
   6   8  -4    3.58    0.67 
  -6  -8   4    2.69    0.53 
  -6  -8   4    3.38    0.57 
   6   8  -3   24.51    2.67 
   6   8  -3   22.31    2.41 
   6   8  -3   24.57    2.66 
   6   8  -3   23.51    2.55 
  -6  -8   3   21.38    2.50 
  -6  -8   3   21.30    2.34 
  -6  -8   3   21.13    2.30 
  -6  -8   3   20.21    2.20 
   6   8  -2    3.25    0.67 
   6   8  -2    3.20    0.58 
  -6  -8   2    3.02    0.58 
  -6  -8   2    3.09    0.64 
  -6  -8   2    3.66    0.66 
   6   8  -1   13.35    1.26 
   6   8  -1   13.42    1.33 
  -6  -8   1   12.91    1.30 
  -6  -8   1   13.56    1.28 
  -6  -8   1   12.13    1.17 
   6   8   0   10.79    1.08 
   6   8   0    8.19    0.96 
  -6  -8   0   11.53    1.21 
  -6  -8   0    9.23    0.96 
  -6  -8   0    9.60    1.04 
  -6  -8   0   10.63    1.09 
   6   8   1   26.85    3.34 
  -6  -8  -1   28.54    2.93 
  -6  -8  -1   37.89    3.80 
  -6  -8  -1   33.80    3.40 
   6   8   2   28.23    3.10 
   6   8   2   27.31    3.34 
  -6  -8  -2   37.15    3.93 
  -6  -8  -2   22.81    2.69 
  -6  -8  -2   27.60    3.06 
  -6  -8  -3    2.09    0.53 
   6   9  -3    4.78    0.71 
   6   9  -3    4.35    0.68 
   6   9  -3    4.04    0.76 
  -6  -9   3    3.68    1.65 
  -6  -9   3    4.01    0.59 
   6   9  -2    6.10    0.86 
  -6  -9   2    4.97    0.70 
  -6  -9   2    5.20    0.75 
  -6  -9   2    4.03    0.69 
   6   9  -1    1.61    0.44 
   6   9  -1    1.97    0.51 
  -6  -9   1    1.69    0.52 
  -6  -9   1    1.74    0.46 
   6   9   0    3.31    0.63 
   6   9   0    3.33    0.56 
  -6  -9   0    3.51    0.64 
  -6  -9   0    3.34    0.62 
  -6  -9   0    2.61    0.50 
   6   9   1   29.09    2.93 
   6   9   1   26.57    2.81 
  -6  -9  -1   27.35    2.71 
  -6  -9  -1   24.99    2.68 
   6   9   2    5.02    0.74 
  -6  -9  -2    3.51    0.71 
   7   0  -6    4.03    0.73 
   7   0  -6    4.33    0.83 
   7   0  -6    3.82    0.69 
   7   0  -6    3.88    0.70 
  -7   0   6    3.27    0.70 
   7   0  -5    2.59    0.55 
   7   0  -5    3.29    0.63 
  -7   0   5    2.41    0.59 
   7   0  -5    2.84    0.79 
   7   0  -5    2.38    0.66 
  -7   0   5    2.27    0.57 
   7   0  -5    2.53    0.54 
   7   0  -5    2.19    0.60 
  -7   0   5    2.31    0.65 
   7   0  -4   12.37    0.97 
   7   0  -4   12.17    0.99 
  -7   0   4   11.33    1.00 
   7   0  -4   12.09    1.12 
   7   0  -4   11.48    0.98 
  -7   0   4   11.45    1.00 
   7   0  -4   10.88    0.89 
   7   0  -4   11.42    1.02 
  -7   0   4   13.33    1.19 
   7   0  -3    0.39    0.46 
  -7   0   3    0.06    0.50 
   7   0  -3    0.07    0.55 
   7   0  -3   -0.04    0.61 
   7   0  -3   -0.36    0.57 
   7   0  -3    0.46    0.48 
   7   0  -3    0.36    0.63 
  -7   0   3    0.16    0.65 
   7   0  -2   27.00    1.33 
  -7   0   2   26.72    1.44 
   7   0  -2   27.18    1.41 
   7   0  -2   26.13    1.45 
   7   0  -2   26.74    1.38 
   7   0  -2   25.30    1.32 
   7   0  -2   26.69    1.53 
  -7   0   2   27.30    1.56 
   7   0  -1   73.90    2.91 
   7   0  -1   70.63    2.75 
  -7   0   1   82.09    3.28 
   7   0  -1   77.47    3.05 
   7   0  -1   77.91    3.08 
   7   0  -1   75.61    2.99 
   7   0  -1   74.23    3.04 
  -7   0   1   85.83    3.50 
   7   0   0   45.38    1.92 
   7   0   0   46.31    1.94 
  -7   0   0   48.39    2.11 
  -7   0   0   50.10    2.23 
   7   0   0   47.05    2.12 
   7   0   0   48.73    2.13 
   7   0   0   50.65    2.36 
  -7   0   0   48.41    2.28 
   7   0   1   70.10    2.89 
  -7   0  -1   68.44    2.85 
  -7   0  -1   64.73    2.81 
   7   0   1   66.08    2.82 
   7   0   1   63.24    2.70 
   7   0   1   66.69    2.98 
  -7   0  -1   72.60    3.17 
   7   0   2   41.92    1.79 
  -7   0  -2   44.25    1.90 
   7   0   2   44.28    1.91 
   7   0   2   43.01    1.94 
  -7   0  -2   37.72    2.00 
   7   0   2   44.87    2.36 
  -7   0  -2   46.16    2.20 
   7   0   3    1.57    0.49 
  -7   0  -3    2.00    0.57 
   7   0   3    2.03    0.65 
   7   0   3    1.34    0.49 
  -7   0  -3    1.44    0.56 
   7   0   3    1.81    0.77 
  -7   0  -3    1.77    0.78 
  -7   0  -4    5.06    0.81 
   7   0   4    4.73    0.77 
  -7   0  -4    2.95    0.65 
   7   0   4    2.88    0.86 
  -7   0  -4    5.61    1.04 
  -7   0  -5   -0.19    0.39 
   7   0   5   -0.35    0.59 
   7   1  -6    0.24    0.46 
   7   1  -6    0.33    0.63 
   7   1  -6    0.24    0.40 
   7   1  -6    0.36    0.52 
  -7  -1   6    0.18    0.41 
   7  -1  -6    0.28    0.48 
   7  -1  -6    0.12    0.44 
   7  -1  -6    0.27    0.57 
  -7  -1   6    0.13    0.39 
  -7  -1   6    0.00    0.51 
   7   1  -5    8.31    0.91 
   7   1  -5    7.75    0.92 
   7   1  -5    8.60    0.94 
   7   1  -5    7.90    0.89 
  -7   1   5    7.49    0.93 
  -7   1   5    7.29    0.87 
   7   1  -5    9.35    1.12 
   7   1  -5    7.55    0.99 
   7   1  -5    8.54    1.01 
   7  -1  -5    8.17    0.91 
   7  -1  -5    8.55    1.06 
   7  -1  -5    8.05    0.97 
   7  -1  -5    7.63    0.91 
   7  -1  -5    7.98    0.96 
  -7  -1   5    7.78    0.96 
  -7  -1   5    7.24    0.92 
  -7  -1   5    7.78    1.04 
   7   1  -4    2.17    0.62 
   7   1  -4    1.38    0.53 
   7   1  -4    2.10    0.60 
   7   1  -4    1.81    0.65 
  -7   1   4    1.89    0.66 
   7   1  -4    2.03    0.73 
  -7   1   4    1.52    0.58 
   7   1  -4    1.52    0.57 
   7   1  -4    1.99    0.59 
   7  -1  -4    1.44    0.60 
  -7  -1   4    1.98    0.61 
   7  -1  -4    1.73    0.59 
   7  -1  -4    1.52    0.59 
   7  -1  -4    1.36    0.60 
  -7  -1   4    1.85    0.64 
   7  -1  -4    1.41    0.66 
  -7  -1   4    2.09    0.77 
   7   1  -3   10.28    0.88 
   7   1  -3   10.88    0.91 
   7   1  -3   10.29    0.81 
   7   1  -3   10.83    0.85 
  -7   1   3   10.54    0.86 
  -7   1   3   10.73    0.98 
   7   1  -3   11.00    1.02 
   7   1  -3   11.38    0.95 
   7   1  -3   10.13    0.91 
   7  -1  -3   10.99    0.97 
   7  -1  -3   11.10    0.98 
   7  -1  -3   11.12    0.93 
  -7  -1   3   10.95    5.64 
   7  -1  -3   10.83    0.79 
   7  -1  -3   11.70    0.98 
   7  -1  -3   11.08    0.87 
  -7  -1   3   10.83    0.95 
  -7  -1   3   11.34    1.08 
   7   1  -2   13.77    0.93 
   7   1  -2   13.62    0.96 
  -7   1   2   14.90    1.11 
   7   1  -2   15.54    0.98 
  -7   1   2   13.45    0.98 
   7   1  -2   13.01    1.07 
   7   1  -2   13.84    0.94 
   7   1  -2   14.04    1.01 
   7  -1  -2   15.22    1.00 
   7  -1  -2   14.21    1.00 
  -7  -1   2   14.32    1.07 
   7  -1  -2   13.56    1.06 
   7  -1  -2   14.20    1.01 
   7  -1  -2   13.09    0.86 
  -7  -1   2   14.48    1.12 
  -7   1   1   15.47    1.13 
   7   1  -1   16.23    0.95 
   7   1  -1   14.82    0.97 
  -7   1   1   15.52    1.06 
   7   1  -1   15.12    1.07 
   7   1  -1   14.80    0.96 
  -7  -1   1   13.70    0.98 
   7  -1  -1   15.76    1.02 
  -7  -1   1   15.41    1.14 
   7  -1  -1   14.90    1.13 
   7  -1  -1   16.22    1.07 
   7  -1  -1   16.52    1.03 
  -7  -1   1   17.60    1.27 
   7   1   0   85.52    3.48 
   7   1   0   94.59    3.61 
   7   1   0   94.38    3.54 
  -7   1   0   86.95    3.57 
  -7   1   0   84.25    3.37 
   7   1   0   87.43    3.39 
   7   1   0   92.29    3.59 
   7  -1   0   92.75    3.58 
  -7  -1   0   90.46    3.56 
   7  -1   0   87.64    3.37 
  -7  -1   0   99.10    3.86 
   7  -1   0   86.12    3.50 
  -7  -1   0   87.00    3.56 
   7  -1   0   87.93    3.40 
   7   1   1   82.58    3.60 
   7   1   1   82.09    3.30 
   7   1   1   75.04    3.02 
  -7   1  -1   90.27    3.85 
  -7   1  -1   87.64    3.63 
   7   1   1   85.92    3.50 
   7   1   1   75.07    3.11 
   7  -1   1   81.80    3.36 
  -7  -1  -1   80.92    3.40 
   7  -1   1   79.97    3.24 
  -7  -1  -1   80.39    3.40 
   7  -1   1   82.59    3.53 
  -7  -1  -1   90.77    3.88 
   7  -1   1   81.72    3.34 
   7   1   2    5.97    0.71 
   7   1   2    6.92    0.72 
  -7   1  -2    6.26    0.76 
  -7   1  -2    5.84    0.67 
   7   1   2    6.43    0.72 
  -7   1  -2    6.87    0.95 
   7   1   2    5.98    0.90 
   7  -1   2    5.95    0.60 
  -7  -1  -2    5.81    0.74 
   7  -1   2    6.06    0.67 
   7  -1   2    6.10    0.92 
  -7  -1  -2    6.22    0.90 
  -7  -1  -2    6.06    0.74 
  -7   1  -3    8.04    1.16 
   7   1   3    7.41    0.88 
   7   1   3    6.40    0.84 
  -7   1  -3    7.25    0.89 
   7   1   3    5.18    0.97 
   7   1   3    7.67    0.98 
   7  -1   3    8.05    0.93 
  -7  -1  -3    8.25    0.96 
  -7  -1  -3    7.02    0.92 
  -7  -1  -3    6.42    0.83 
   7  -1   3    6.34    1.13 
   7  -1   3    7.73    0.84 
   7   1   4    3.00    0.57 
  -7   1  -4    3.07    0.68 
   7   1   4    3.18    0.66 
  -7   1  -4    3.36    0.87 
   7   1   4    2.31    0.57 
  -7  -1  -4    2.23    0.55 
  -7  -1  -4    1.68    0.55 
   7  -1   4    2.32    0.79 
   7  -1   4    2.84    0.58 
  -7   1  -5    9.85    1.71 
  -7   1  -5   12.37    1.48 
  -7  -1  -5   12.65    1.71 
  -7  -1  -5   12.64    1.67 
   7   2  -6    5.37    0.76 
   7   2  -6    4.96    0.75 
   7   2  -6    5.26    0.84 
   7  -2  -6    5.81    0.89 
  -7  -2   6    3.84    0.73 
   7  -2  -6    5.24    0.75 
  -7  -2   6    4.68    0.71 
  -7  -2   6    4.79    0.85 
   7   2  -5   12.43    1.46 
   7   2  -5   14.48    1.60 
   7   2  -5   15.63    1.71 
   7   2  -5   14.17    1.65 
   7   2  -5   17.95    1.98 
   7  -2  -5   15.52    1.70 
  -7  -2   5   13.84    1.55 
   7  -2  -5   15.52    1.69 
   7  -2  -5   14.72    1.69 
  -7  -2   5   15.19    1.74 
  -7  -2   5   14.98    1.75 
   7   2  -4    1.65    0.71 
   7   2  -4    1.38    0.57 
   7   2  -4    1.81    0.53 
   7   2  -4    1.17    0.52 
   7   2  -4    1.22    0.47 
   7   2  -4    2.06    0.70 
  -7   2   4    0.99    0.52 
   7   2  -4    1.11    0.60 
  -7   2   4    1.47    0.61 
   7   2  -4    1.72    0.57 
   7  -2  -4    1.46    0.59 
  -7  -2   4    1.35    0.63 
   7  -2  -4    1.53    0.66 
   7  -2  -4    1.01    0.49 
   7  -2  -4    1.38    0.55 
   7  -2  -4    1.22    0.47 
  -7  -2   4    1.53    0.67 
   7  -2  -4    1.84    0.67 
  -7  -2   4    1.61    0.71 
   7   2  -3   19.78    1.08 
   7   2  -3   18.46    1.10 
   7   2  -3   19.45    1.13 
   7   2  -3   19.62    1.12 
  -7   2   3   19.00    1.21 
   7   2  -3   18.76    1.14 
   7   2  -3   17.98    1.10 
   7   2  -3   18.11    1.23 
   7   2  -3   19.72    1.24 
   7  -2  -3   18.59    1.06 
   7  -2  -3   20.35    1.25 
   7  -2  -3   19.31    1.12 
   7  -2  -3   19.37    1.19 
   7  -2  -3   18.56    1.17 
   7  -2  -3   19.71    1.10 
  -7  -2   3   18.57    1.15 
  -7  -2   3   20.64    1.30 
   7   2  -2    3.88    0.67 
   7   2  -2    4.60    0.58 
   7   2  -2    5.14    0.65 
  -7   2   2    5.41    0.81 
   7   2  -2    4.46    0.58 
   7   2  -2    4.56    0.56 
   7   2  -2    5.34    0.76 
   7   2  -2    5.44    0.86 
   7   2  -2    5.31    0.75 
   7  -2  -2    4.37    0.59 
   7  -2  -2    5.31    0.69 
  -7  -2   2    5.23    0.70 
   7  -2  -2    5.24    0.73 
   7  -2  -2    5.58    0.66 
  -7  -2   2    4.98    0.82 
  -7  -2   2    4.35    0.79 
  -7   2   1   41.53    2.02 
   7   2  -1   46.10    2.02 
   7   2  -1   44.18    1.90 
   7   2  -1   44.95    1.96 
   7   2  -1   47.19    2.10 
   7   2  -1   47.63    2.11 
   7  -2  -1   46.20    2.02 
  -7  -2   1   39.07    2.05 
   7  -2  -1   41.54    1.82 
  -7  -2   1   48.78    2.20 
   7  -2  -1   42.47    2.01 
   7  -2  -1   45.85    2.02 
   7   2   0   26.04    1.43 
   7   2   0   29.37    1.39 
   7   2   0   30.24    1.55 
  -7   2   0   29.63    1.61 
  -7  -2   0   30.86    1.55 
   7  -2   0   28.76    1.41 
   7  -2   0   30.42    1.49 
   7  -2   0   31.36    1.66 
  -7  -2   0   31.83    1.68 
  -7   2  -1    1.46    0.52 
   7   2   1    1.17    0.60 
   7   2   1    1.46    0.49 
   7   2   1    1.26    0.68 
  -7   2  -1    1.43    0.49 
  -7   2  -1    1.62    0.73 
  -7  -2  -1    1.32    0.70 
   7  -2   1    1.40    0.56 
  -7  -2  -1    1.45    0.61 
   7  -2   1    1.49    0.61 
   7  -2   1    1.36    0.47 
   7   2   2   18.22    1.16 
   7   2   2   19.94    1.26 
  -7   2  -2   19.56    1.30 
  -7   2  -2   19.95    1.45 
  -7   2  -2   17.59    1.25 
   7   2   2   19.15    1.31 
   7  -2   2   19.92    1.25 
  -7  -2  -2   18.61    1.26 
   7  -2   2   18.10    1.24 
  -7  -2  -2   17.08    1.19 
  -7  -2  -2   18.27    1.31 
   7  -2   2   17.06    1.31 
  -7  -2  -2   19.90    1.43 
  -7  -2  -2   19.87    1.50 
   7   2   3    3.78    0.59 
  -7   2  -3    3.57    0.85 
  -7   2  -3    3.27    0.64 
   7   2   3    3.09    0.69 
  -7   2  -3    3.36    0.64 
   7   2   3    2.17    0.83 
   7   2   3    3.21    0.67 
  -7  -2  -3    3.51    0.66 
  -7  -2  -3    3.33    0.71 
   7  -2   3    3.38    0.59 
   7  -2   3    3.10    0.79 
  -7  -2  -3    3.88    0.95 
  -7  -2  -3    3.75    0.71 
   7   2   4   41.03    4.28 
  -7   2  -4   39.18    4.16 
   7   2   4   27.82    4.49 
  -7   2  -4   29.72    3.33 
   7   2   4   31.02    3.89 
   7   2   4   38.24    4.04 
  -7   2  -4   33.76    4.45 
  -7  -2  -4   29.09    4.11 
  -7  -2  -4   28.16    3.36 
  -7  -2  -4   38.47    4.09 
   7  -2   4   23.96    4.63 
  -7  -2  -4   41.41    4.43 
   7   3  -6   18.83    1.95 
   7   3  -6   20.04    2.13 
   7   3  -6   21.66    2.28 
   7   3  -6   19.42    2.05 
   7   3  -6   19.52    2.52 
  -7  -3   6   17.48    1.86 
  -7  -3   6   15.06    1.78 
  -7  -3   6   16.52    1.97 
   7   3  -5    3.97    0.69 
   7   3  -5    3.85    0.70 
   7   3  -5    4.19    0.71 
   7   3  -5    3.69    0.64 
   7   3  -5    3.46    0.65 
   7  -3  -5    4.12    0.73 
   7  -3  -5    3.17    0.63 
  -7  -3   5    3.92    0.73 
   7  -3  -5    3.56    0.62 
  -7  -3   5    3.45    0.77 
   7   3  -4    5.86    0.81 
   7   3  -4    4.98    0.72 
   7   3  -4    5.69    0.81 
   7   3  -4    5.55    0.78 
  -7   3   4    6.09    0.84 
   7   3  -4    5.13    0.78 
   7   3  -4    5.32    0.73 
   7  -3  -4    5.40    0.72 
   7  -3  -4    5.58    0.81 
   7  -3  -4    6.24    0.84 
  -7  -3   4    5.08    0.79 
   7  -3  -4    5.61    0.79 
   7   3  -3   20.24    1.31 
   7   3  -3   18.76    1.26 
   7   3  -3   19.62    1.35 
   7   3  -3   19.73    1.28 
   7   3  -3   18.99    1.30 
   7   3  -3   20.71    1.36 
   7  -3  -3   21.49    1.41 
   7  -3  -3   17.69    1.23 
  -7  -3   3   19.30    1.35 
  -7  -3   3   21.10    1.46 
   7   3  -2   37.56    1.75 
   7   3  -2   33.45    1.61 
   7   3  -2   35.29    1.70 
   7   3  -2   35.91    1.76 
   7   3  -2   34.73    1.74 
   7  -3  -2   35.46    1.75 
   7  -3  -2   35.34    1.71 
  -7  -3   2   37.10    1.95 
  -7  -3   2   34.95    1.77 
  -7  -3   2   36.69    1.93 
   7   3  -1    6.04    0.70 
   7   3  -1    6.85    0.74 
   7   3  -1    6.46    0.65 
   7   3  -1    6.49    0.77 
   7   3  -1    5.83    0.91 
   7   3  -1    7.29    0.84 
  -7  -3   1    7.16    0.85 
   7  -3  -1    6.84    0.70 
  -7  -3   1    5.80    0.72 
  -7  -3   1    8.17    0.97 
   7  -3  -1    6.62    0.70 
  -7  -3   1    6.26    0.99 
   7   3   0   40.31    2.08 
   7   3   0   39.78    1.83 
   7   3   0   36.76    1.70 
   7   3   0   38.17    1.82 
  -7   3   0   33.39    1.86 
   7   3   0   37.39    1.75 
   7   3   0   40.65    1.94 
  -7  -3   0   35.84    1.88 
   7  -3   0   37.47    1.80 
  -7  -3   0   43.42    2.04 
  -7  -3   0   39.65    1.90 
   7  -3   0   40.16    1.84 
   7  -3   0   35.04    1.79 
  -7  -3   0   39.70    2.05 
   7   3   1   31.54    1.42 
   7   3   1   37.07    1.91 
   7   3   1   36.62    1.73 
   7   3   1   34.62    1.68 
  -7   3  -1   28.83    1.70 
  -7  -3  -1   34.69    1.60 
  -7  -3  -1   29.17    1.49 
  -7  -3  -1   35.16    1.64 
   7  -3   1   30.27    1.50 
   7  -3   1   29.70    1.60 
  -7  -3  -1   35.18    1.85 
   7   3   2   11.39    0.90 
  -7   3  -2    9.67    1.02 
  -7   3  -2    8.60    0.80 
   7   3   2   10.44    0.96 
   7   3   2   10.51    0.97 
   7   3   2   10.87    1.18 
   7  -3   2    8.74    1.09 
  -7  -3  -2   11.78    1.02 
  -7  -3  -2   10.54    0.90 
  -7  -3  -2   10.77    1.10 
   7   3   3    4.82    0.72 
   7   3   3    3.28    0.56 
  -7   3  -3    3.45    0.63 
  -7   3  -3    3.23    0.75 
   7   3   3    3.80    0.74 
   7   3   3    2.96    0.85 
  -7  -3  -3    4.05    0.66 
  -7  -3  -3    4.35    0.75 
  -7  -3  -3    4.56    0.88 
   7  -3   3    3.45    0.78 
   7   3   4    3.93    0.67 
   7   3   4    1.67    0.72 
  -7   3  -4    2.70    0.59 
   7   3   4    3.02    0.75 
  -7   3  -4    2.00    0.58 
  -7  -3  -4    3.83    0.76 
  -7  -3  -4    4.46    0.76 
  -7  -3  -4    3.15    0.61 
  -7  -3  -4    3.98    0.82 
   7   4  -5   61.85    6.38 
   7   4  -5   65.38    6.74 
   7   4  -5   64.33    6.63 
   7   4  -5   68.01    7.03 
   7   4  -5   64.31    6.68 
   7   4  -5   64.01    6.60 
  -7  -4   5   61.01    6.36 
  -7  -4   5   68.24    7.08 
   7   4  -4   45.01    4.25 
   7   4  -4   46.63    4.07 
   7   4  -4   57.26    4.54 
   7   4  -4   62.02    4.89 
   7   4  -4   60.14    4.79 
   7   4  -4   58.90    4.74 
   7   4  -4   57.19    4.55 
   7   4  -4   60.23    4.79 
  -7  -4   4   53.71    4.33 
  -7  -4   4   58.35    4.67 
   7  -4  -4   58.48    4.65 
  -7  -4   4   60.12    4.85 
   7   4  -3   84.73    4.27 
   7   4  -3   75.23    3.83 
   7   4  -3   82.79    4.14 
   7   4  -3   77.18    3.91 
   7   4  -3   73.24    4.03 
   7   4  -3   83.36    4.15 
   7   4  -3   86.38    4.43 
  -7  -4   3   84.22    4.25 
   7  -4  -3   69.91    3.75 
   7  -4  -3   81.80    4.11 
  -7  -4   3   82.20    4.24 
   7   4  -2  109.45    4.08 
   7   4  -2  118.04    4.27 
   7   4  -2  116.42    4.15 
   7   4  -2  114.64    4.13 
   7   4  -2  111.63    4.19 
   7   4  -2  117.67    4.27 
   7   4  -2  114.57    4.20 
   7  -4  -2  106.74    3.88 
  -7  -4   2  116.49    4.26 
   7  -4  -2  105.39    4.16 
  -7  -4   2  122.10    4.54 
   7   4  -1  132.50    4.92 
   7   4  -1  141.99    6.82 
   7   4  -1  135.41    4.76 
   7   4  -1  137.57    5.03 
   7   4  -1  147.37    7.07 
   7   4  -1  141.31    6.84 
   7  -4  -1  142.42    6.83 
  -7  -4   1  137.16    4.91 
  -7  -4   1  129.49    4.90 
  -7  -4   1  139.58    6.82 
   7   4   0    0.73    0.59 
   7   4   0    1.16    0.48 
   7   4   0    1.53    0.57 
   7   4   0    0.83    0.75 
  -7  -4   0    1.15    0.54 
  -7  -4   0    1.02    0.51 
  -7  -4   0    1.31    0.64 
  -7  -4   0    1.25    0.77 
   7   4   1   14.97    1.09 
   7   4   1   11.97    1.01 
   7   4   1   13.12    1.19 
  -7  -4  -1   13.21    1.08 
  -7  -4  -1   12.98    1.14 
  -7  -4  -1   14.84    1.22 
   7   4   2    6.69    0.91 
   7   4   2    6.92    0.91 
   7   4   2    5.56    0.97 
  -7  -4  -2    6.26    0.96 
  -7  -4  -2    6.82    0.85 
  -7  -4  -2    6.46    1.01 
   7   4   3    2.15    0.56 
   7   4   3    2.23    0.58 
  -7   4  -3    1.28    0.44 
   7   4   3    1.84    0.54 
   7   4   3    1.53    0.66 
  -7  -4  -3    2.09    0.68 
  -7  -4  -3    2.20    0.63 
  -7  -4  -3    1.91    0.56 
  -7  -4  -3    1.94    0.65 
   7   4   4   10.25    1.59 
   7   4   4   11.34    1.32 
  -7  -4  -4   10.77    1.30 
  -7  -4  -4    9.44    1.24 
  -7  -4  -4    6.86    1.63 
  -7  -4  -4    9.82    1.24 
   7   5  -5   23.54    2.38 
   7   5  -5   26.57    2.65 
   7   5  -5   25.73    2.64 
   7   5  -5   21.36    2.31 
   7   5  -5   25.21    2.58 
   7   5  -5   27.08    2.70 
  -7  -5   5   24.08    2.46 
  -7  -5   5   20.62    2.22 
   7   5  -4   55.49    5.44 
   7   5  -4   56.62    5.62 
   7   5  -4   56.03    5.51 
   7   5  -4   60.20    5.88 
  -7  -5   4   54.68    5.42 
  -7  -5   4   55.72    5.50 
  -7  -5   4   52.83    5.27 
   7   5  -3   73.74    5.80 
   7   5  -3   62.71    5.73 
   7   5  -3   74.05    5.82 
   7   5  -3   75.99    5.93 
   7   5  -3   80.64    6.29 
   7   5  -3   72.98    5.81 
   7   5  -3   55.95    5.65 
  -7  -5   3   56.50    4.89 
  -7  -5   3   74.01    5.83 
  -7  -5   3   73.94    5.84 
   7  -5  -3   67.19    5.32 
  -7  -5   3   77.45    6.14 
   7   5  -2   16.51    1.75 
   7   5  -2   17.40    1.64 
   7   5  -2   19.15    1.70 
   7   5  -2   19.21    1.81 
   7   5  -2   18.90    1.73 
   7   5  -2   17.60    1.63 
  -7  -5   2   16.20    1.54 
  -7  -5   2   17.36    1.67 
  -7  -5   2   18.32    1.66 
  -7  -5   2   13.26    1.77 
   7  -5  -2   17.34    1.56 
  -7  -5   2   18.91    1.84 
   7   5  -1   12.86    0.99 
   7   5  -1   13.17    1.13 
   7   5  -1   13.61    1.10 
   7   5  -1   11.78    1.01 
  -7  -5   1   12.30    1.06 
  -7  -5   1   11.20    0.92 
  -7  -5   1   13.17    1.06 
  -7  -5   1   14.98    1.26 
   7   5   0   13.24    1.02 
   7   5   0   12.96    0.99 
   7   5   0   11.13    0.96 
   7   5   0   12.74    1.10 
   7   5   0   12.94    1.13 
  -7  -5   0   12.85    1.13 
  -7  -5   0   12.22    1.00 
  -7  -5   0   12.54    1.10 
   7   5   1   30.16    2.49 
   7   5   1   25.66    2.34 
   7   5   1   27.05    2.34 
   7   5   1   26.86    2.37 
  -7  -5  -1   28.02    2.42 
  -7  -5  -1   21.94    2.08 
  -7  -5  -1   30.40    2.55 
  -7  -5  -1   28.24    2.45 
   7   5   2    9.14    0.98 
   7   5   2    7.75    0.96 
   7   5   2    6.71    1.02 
  -7  -5  -2    8.85    1.05 
  -7  -5  -2    5.76    0.73 
  -7  -5  -2    8.17    1.05 
   7   5   3   13.18    1.77 
   7   5   3   11.60    1.57 
  -7  -5  -3   17.04    1.93 
  -7  -5  -3   15.91    1.85 
  -7  -5  -3   13.46    1.70 
   7   6  -4    1.95    0.52 
   7   6  -4    1.99    0.55 
   7   6  -4    1.97    0.54 
   7   6  -4    1.54    0.50 
   7   6  -4    2.33    0.64 
   7   6  -4    2.34    0.59 
   7   6  -4    2.36    0.61 
  -7  -6   4    2.04    0.58 
  -7  -6   4    1.72    0.59 
  -7  -6   4    1.74    0.44 
  -7  -6   4    1.50    0.57 
   7   6  -3   -0.03    0.47 
   7   6  -3    0.15    0.48 
   7   6  -3    0.20    0.60 
   7   6  -3    0.01    0.48 
   7   6  -3   -0.02    0.54 
  -7  -6   3    0.09    0.37 
  -7  -6   3    0.06    0.46 
  -7  -6   3    0.17    0.54 
  -7  -6   3    0.29    0.55 
   7   6  -2   16.64    1.50 
   7   6  -2   14.93    1.43 
   7   6  -2   17.55    1.62 
   7   6  -2   17.09    1.64 
  -7  -6   2   14.41    1.48 
  -7  -6   2   15.74    1.53 
  -7  -6   2   18.34    1.72 
   7   6  -1    7.05    0.84 
   7   6  -1    8.51    0.96 
   7   6  -1    8.81    1.09 
   7   6  -1    8.49    0.96 
   7   6  -1    6.59    0.88 
  -7  -6   1    8.81    1.04 
  -7  -6   1    6.98    0.83 
  -7  -6   1    8.56    1.00 
  -7  -6   1    8.57    1.06 
   7   6   0    1.44    0.53 
   7   6   0    1.68    0.64 
   7   6   0    1.72    0.63 
   7   6   0    1.41    0.47 
  -7  -6   0    1.71    0.62 
  -7  -6   0    1.50    0.48 
  -7  -6   0    1.38    0.59 
  -7  -6   0    1.79    0.64 
   7   6   1   25.83    2.63 
   7   6   1   26.00    2.64 
   7   6   1   24.01    2.52 
   7   6   1   19.12    2.56 
   7   6   1   19.68    2.25 
  -7  -6  -1   19.35    2.09 
  -7  -6  -1   24.74    2.58 
  -7  -6  -1   15.63    2.60 
   7   6   2    3.23    0.62 
   7   6   2    2.61    0.57 
   7   6   2    2.45    0.58 
   7   6   2    2.97    0.71 
  -7  -6  -2    3.27    0.69 
  -7  -6  -2    3.23    0.67 
  -7  -6  -2    2.13    0.48 
   7   6   3    4.08    0.73 
   7   6   3    3.44    0.59 
   7   6   3    3.96    0.78 
  -7  -6  -3    4.36    0.70 
   7   7  -3    5.12    0.76 
   7   7  -3    4.43    0.66 
   7   7  -3    5.14    0.75 
  -7  -7   3    3.92    0.59 
  -7  -7   3    4.35    0.75 
   7   7  -2    2.12    0.51 
   7   7  -2    2.36    0.56 
   7   7  -2    2.08    0.60 
   7   7  -2    2.55    0.63 
  -7  -7   2    2.01    0.53 
  -7  -7   2    1.36    0.46 
  -7  -7   2    2.22    0.63 
   7   7  -1    0.12    0.41 
   7   7  -1    0.14    0.46 
   7   7  -1   -0.12    0.52 
   7   7  -1    0.26    0.52 
  -7  -7   1    0.50    0.49 
  -7  -7   1    0.25    0.43 
  -7  -7   1    0.07    0.37 
  -7  -7   1    0.29    0.54 
   7   7   0   31.65    3.34 
   7   7   0   26.34    2.88 
  -7  -7   0   30.06    3.24 
  -7  -7   0   24.65    2.95 
   7   7   1    3.72    0.64 
   7   7   1    4.02    0.77 
  -7  -7  -1    4.05    0.69 
  -7  -7  -1    4.25    0.76 
  -7  -7  -1    2.63    0.56 
   7   7   2    1.81    0.45 
   7   7   2    1.70    0.46 
   7   7   2    1.75    0.52 
  -7  -7  -2    1.20    0.39 
  -7  -7  -2    1.97    0.55 
   7   8  -2    7.20    0.94 
   7   8  -2    7.21    0.91 
  -7  -8   2    6.32    0.81 
  -7  -8   2   12.80    1.89 
   7   8  -1    0.49    0.46 
   7   8  -1    0.59    0.40 
   7   8  -1    0.62    0.48 
  -7  -8   1    0.40    0.34 
  -7  -8   1    0.68    0.38 
   7   8   0   30.76    3.03 
   7   8   0   31.37    3.14 
   7   8   0   29.57    2.97 
  -7  -8   0   26.29    2.63 
   8   0  -5    0.77    0.43 
   8   0  -4   16.79    1.95 
   8   0  -4   21.97    2.40 
   8   0  -4   22.05    2.47 
   8   0  -4   21.06    2.32 
  -8   0   4   19.95    2.24 
   8   0  -4   19.80    2.24 
  -8   0   4   16.64    2.06 
   8   0  -3   13.13    1.24 
  -8   0   3   11.37    1.19 
   8   0  -3   13.88    1.38 
   8   0  -3   14.34    1.36 
  -8   0   3   13.87    1.38 
   8   0  -3   14.51    1.45 
  -8   0   3   13.70    1.43 
   8   0  -2   45.95    3.71 
   8   0  -2   46.88    3.74 
  -8   0   2   44.42    3.63 
   8   0  -2   44.19    3.59 
   8   0  -2   44.07    3.56 
   8   0  -2   49.95    4.07 
  -8   0   2   50.58    4.15 
   8   0  -1    4.75    0.77 
  -8   0   1    5.00    0.77 
   8   0  -1    4.59    0.83 
   8   0  -1    4.66    0.70 
   8   0  -1    4.66    0.90 
  -8   0   1    4.86    0.91 
   8   0   0   22.89    1.98 
  -8   0   0   20.93    1.90 
   8   0   0   19.47    1.77 
   8   0   0   20.79    1.83 
   8   0   0   20.82    1.93 
  -8   0   0   22.35    2.07 
   8   0   1    3.79    0.63 
  -8   0  -1    2.20    0.53 
  -8   0  -1    2.60    0.60 
   8   0   1    4.56    0.72 
   8   0   1    3.24    0.60 
   8   0   1    3.64    0.80 
  -8   0  -1    3.74    0.86 
   8   0   2   -0.11    0.41 
  -8   0  -2   -0.14    0.42 
  -8   0  -2    0.08    0.51 
   8   0   2    0.05    0.49 
   8   0   2   -0.05    0.59 
  -8   0  -2    0.17    0.61 
  -8   0  -3    1.66    0.52 
  -8   0  -3    1.61    0.52 
   8   0   3    1.91    0.50 
   8   0   3    1.50    0.59 
  -8   0  -3    1.75    0.63 
   8   1  -5    5.33    0.84 
   8   1  -5    3.90    0.61 
   8   1  -5    5.23    0.91 
   8   1  -5    4.77    0.90 
   8  -1  -5    4.26    0.97 
  -8  -1   5    4.72    0.72 
  -8  -1   5    4.12    0.72 
   8   1  -4    6.21    0.90 
   8   1  -4    6.21    0.93 
   8   1  -4    7.41    1.01 
   8   1  -4    7.73    1.04 
   8   1  -4    7.86    1.11 
  -8   1   4    6.81    0.98 
   8   1  -4    7.35    1.09 
   8  -1  -4    7.02    0.95 
  -8  -1   4    5.46    0.87 
  -8  -1   4    6.97    1.00 
   8  -1  -4    6.25    0.99 
   8  -1  -4    7.56    0.99 
  -8  -1   4    6.49    1.01 
   8   1  -3   22.36    2.37 
   8   1  -3   22.53    2.35 
  -8   1   3   19.60    2.19 
   8   1  -3   21.31    2.21 
  -8   1   3   22.37    2.39 
   8   1  -3   19.89    2.08 
   8   1  -3   21.40    2.26 
   8   1  -3   21.01    2.29 
   8  -1  -3   19.82    2.20 
  -8  -1   3   18.61    2.03 
   8  -1  -3   21.97    2.31 
   8  -1  -3   21.10    2.27 
   8  -1  -3   21.20    2.22 
   8  -1  -3   23.04    2.38 
  -8  -1   3   24.44    2.63 
   8   1  -2   36.73    3.01 
   8   1  -2   35.86    2.92 
   8   1  -2   35.41    2.90 
  -8   1   2   36.66    3.13 
   8   1  -2   37.86    3.16 
   8  -1  -2   37.87    3.16 
  -8  -1   2   37.90    3.13 
  -8  -1   2   36.49    3.05 
   8  -1  -2   35.10    2.95 
   8  -1  -2   36.06    2.94 
   8  -1  -2   37.59    3.09 
  -8  -1   2   42.27    3.53 
  -8   1   1   45.34    3.77 
   8   1  -1   43.95    3.54 
   8   1  -1   41.72    3.34 
   8   1  -1   41.21    3.35 
   8   1  -1   41.90    3.50 
   8   1  -1   44.61    3.61 
  -8  -1   1   43.72    3.59 
   8  -1  -1   42.46    3.44 
   8  -1  -1   41.63    3.44 
   8  -1  -1   42.94    3.49 
   8  -1  -1   41.09    3.32 
  -8  -1   1   44.53    3.69 
  -8   1   0    0.73    0.66 
   8   1   0    1.24    0.61 
   8   1   0    1.06    0.55 
  -8   1   0    0.93    0.48 
   8   1   0    0.79    0.76 
   8   1   0    1.04    0.62 
   8  -1   0    1.03    0.53 
  -8  -1   0    0.54    0.45 
   8  -1   0    1.00    0.63 
  -8  -1   0    1.00    0.55 
   8  -1   0    1.30    0.60 
  -8  -1   0    0.69    0.77 
  -8   1  -1    5.22    0.88 
   8   1   1    4.91    0.74 
   8   1   1    4.53    0.68 
  -8   1  -1    3.72    0.65 
   8   1   1    4.79    0.89 
   8   1   1    4.53    0.75 
   8  -1   1    4.69    0.72 
  -8  -1  -1    4.62    0.73 
   8  -1   1    4.41    0.76 
  -8  -1  -1    4.96    0.80 
  -8  -1  -1    4.82    0.94 
   8  -1   1    4.77    0.68 
   8   1   2    5.20    0.75 
   8   1   2    5.60    0.84 
  -8   1  -2    2.77    0.66 
  -8   1  -2    3.84    0.69 
   8   1   2    4.21    0.92 
  -8   1  -2    4.61    0.90 
   8   1   2    4.51    0.73 
  -8  -1  -2    5.04    0.79 
   8  -1   2    3.79    0.88 
  -8  -1  -2    5.10    0.87 
   8  -1   2    4.67    0.74 
  -8  -1  -2    4.31    0.90 
  -8   1  -3    5.24    0.87 
  -8   1  -3    2.51    0.61 
   8   1   3    4.85    0.93 
   8   1   3    4.27    0.68 
  -8  -1  -3    4.62    0.77 
   8  -1   3    2.79    0.67 
  -8  -1  -3    5.80    0.93 
  -8  -1  -3    5.15    0.83 
   8   2  -4    0.65    0.51 
   8   2  -4    0.92    0.44 
   8   2  -4    0.68    0.48 
  -8   2   4    0.87    0.47 
   8   2  -4    0.86    0.57 
   8   2  -4    0.96    0.65 
   8   2  -4    1.12    0.52 
   8   2  -4    1.01    0.44 
  -8  -2   4    0.33    0.47 
  -8  -2   4    1.26    0.54 
   8  -2  -4    0.63    0.50 
  -8  -2   4    0.86    0.61 
   8   2  -3   33.02    3.40 
   8   2  -3   29.60    3.03 
   8   2  -3   32.29    3.25 
   8   2  -3   32.76    3.30 
   8   2  -3   31.91    3.26 
   8   2  -3   30.28    3.08 
   8   2  -3   25.13    2.65 
  -8   2   3   31.18    3.20 
  -8  -2   3   31.21    3.17 
  -8  -2   3   29.76    3.07 
   8  -2  -3   28.85    3.16 
   8  -2  -3   33.43    3.37 
  -8  -2   3   32.39    3.34 
  -8   2   2   13.19    1.43 
   8   2  -2   16.44    1.51 
   8   2  -2   16.24    1.47 
   8   2  -2   17.34    1.69 
   8   2  -2   16.62    1.55 
   8   2  -2   15.99    1.50 
   8   2  -2   16.09    1.53 
   8   2  -2   16.70    1.53 
  -8  -2   2   16.31    1.57 
  -8  -2   2   17.91    1.70 
   8  -2  -2   15.96    1.52 
   8  -2  -2   17.56    1.62 
  -8  -2   2   17.48    1.77 
   8   2  -1   14.60    1.42 
   8   2  -1   12.01    1.16 
   8   2  -1   11.92    1.19 
  -8   2   1   11.05    1.26 
   8   2  -1   12.74    1.26 
   8   2  -1   13.00    1.44 
  -8  -2   1   13.44    1.38 
   8  -2  -1   12.41    1.24 
   8  -2  -1   12.78    1.35 
  -8  -2   1   13.71    1.39 
   8  -2  -1   13.41    1.30 
  -8  -2   1   13.72    1.49 
   8   2   0    3.64    0.64 
   8   2   0    3.37    0.54 
   8   2   0    2.96    0.57 
  -8   2   0    2.84    0.68 
   8   2   0    3.41    0.73 
  -8  -2   0    3.83    0.80 
  -8  -2   0    2.89    0.64 
  -8  -2   0    2.64    0.61 
   8  -2   0    2.62    0.63 
   8  -2   0    3.37    0.64 
   8  -2   0    3.55    0.59 
   8   2   1    0.18    0.48 
   8   2   1   -0.09    0.48 
  -8   2  -1   -0.04    0.49 
  -8  -2  -1    0.27    0.45 
   8  -2   1   -0.02    0.45 
   8  -2   1    0.20    0.36 
  -8  -2  -1    0.02    0.42 
   8  -2   1    0.46    0.54 
  -8  -2  -1    0.23    0.59 
   8   2   2    8.97    1.14 
  -8   2  -2    7.21    1.09 
   8   2   2    9.23    1.22 
   8   2   2    8.93    1.16 
  -8  -2  -2    9.56    1.28 
   8  -2   2    7.24    1.11 
  -8  -2  -2    7.39    1.03 
   8   2   3    5.58    0.76 
   8   2   3    5.65    0.83 
  -8  -2  -3    5.10    0.96 
  -8  -2  -3    2.79    0.99 
  -8  -2  -3    5.13    0.94 
   8   3  -4   13.98    1.51 
   8   3  -4    9.39    1.11 
   8   3  -4   14.67    1.57 
   8   3  -4   15.23    1.68 
   8   3  -4   13.87    1.59 
  -8  -3   4   11.98    1.44 
   8  -3  -4   12.96    1.46 
   8   3  -3    0.53    0.51 
   8   3  -3    0.72    0.47 
   8   3  -3    0.97    0.52 
   8   3  -3    0.78    0.48 
   8   3  -3    0.92    0.58 
  -8   3   3    0.59    0.61 
  -8  -3   3    1.10    0.59 
   8  -3  -3    0.83    0.48 
  -8  -3   3    0.70    0.60 
   8   3  -2   10.06    1.18 
   8   3  -2    9.66    1.20 
   8   3  -2    9.61    1.16 
   8   3  -2   10.03    1.22 
   8   3  -2    8.38    1.11 
   8   3  -2    9.67    1.18 
   8  -3  -2    9.70    1.16 
  -8  -3   2    9.46    1.19 
  -8  -3   2   10.04    1.24 
   8  -3  -2    8.48    1.10 
   8   3  -1   23.14    1.97 
   8   3  -1   24.32    2.09 
   8   3  -1   21.94    1.90 
   8   3  -1   25.38    2.21 
   8   3  -1   25.30    2.20 
   8   3  -1   23.01    2.01 
   8  -3  -1   22.95    1.98 
  -8  -3   1   24.66    2.19 
  -8  -3   1   24.12    2.11 
   8  -3  -1   17.50    2.27 
  -8  -3   1   24.68    2.20 
   8   3   0    4.16    0.74 
   8   3   0    4.28    0.65 
   8   3   0    4.30    0.90 
   8   3   0    4.42    0.80 
   8   3   0    4.30    0.77 
  -8  -3   0    4.97    0.87 
  -8  -3   0    3.43    0.68 
  -8  -3   0    2.95    0.63 
  -8  -3   0    4.96    0.92 
   8   3   1    0.43    0.36 
   8   3   1    0.86    0.57 
   8   3   1    0.75    0.56 
   8   3   1    0.38    0.67 
  -8  -3  -1    0.39    0.60 
  -8  -3  -1    0.45    0.48 
  -8  -3  -1    0.64    0.59 
   8   3   2    7.23    0.96 
   8   3   2    6.12    0.90 
   8   3   2    6.18    0.88 
   8   3   2    5.47    1.08 
  -8  -3  -2    6.53    0.98 
  -8  -3  -2    6.72    0.97 
  -8  -3  -2    6.73    1.05 
   8   4  -4   59.38    5.71 
   8   4  -4   59.71    5.75 
   8   4  -4   55.11    5.33 
   8   4  -4   59.66    5.68 
  -8  -4   4   50.95    4.91 
  -8  -4   4   45.73    4.98 
  -8  -4   4   46.94    4.85 
   8   4  -3   19.54    2.37 
   8   4  -3   20.27    2.31 
   8   4  -3   27.21    2.91 
   8   4  -3   25.38    2.73 
   8   4  -3   27.12    2.92 
   8   4  -3   26.75    2.94 
   8   4  -3   28.27    3.04 
  -8   4   3   21.40    2.38 
  -8  -4   3   25.20    2.74 
  -8  -4   3   25.50    2.81 
   8  -4  -3   21.97    2.51 
  -8  -4   3   25.51    2.82 
   8   4  -2    0.01    0.45 
   8   4  -2    0.19    0.47 
   8   4  -2    0.38    0.46 
   8   4  -2    0.51    0.62 
   8   4  -2    0.45    0.47 
   8   4  -2    0.40    0.55 
  -8  -4   2    0.22    0.48 
   8  -4  -2    0.19    0.38 
  -8  -4   2    0.16    0.58 
  -8  -4   2    0.30    0.62 
   8   4  -1    2.09    0.59 
   8   4  -1    1.56    0.54 
   8   4  -1    1.88    0.68 
   8   4  -1    1.66    0.49 
   8   4  -1    1.36    0.55 
   8   4  -1    1.64    0.63 
  -8  -4   1    1.25    0.49 
  -8  -4   1    1.01    0.50 
  -8  -4   1    1.87    0.68 
   8   4   0    8.73    1.07 
   8   4   0    9.14    1.07 
   8   4   0    8.83    1.11 
   8   4   0    8.56    1.15 
   8   4   0    9.60    1.26 
  -8  -4   0    7.70    1.02 
  -8  -4   0    9.17    1.24 
   8   4   1    0.21    0.46 
   8   4   1    0.10    0.37 
   8   4   1    0.33    0.50 
   8   4   1   -0.05    0.51 
   8   4   1    0.31    0.59 
  -8  -4  -1    0.19    0.47 
  -8  -4  -1    0.20    0.58 
   8   4   2   37.49    4.48 
   8   4   2   37.71    4.08 
   8   4   2   33.46    3.93 
  -8  -4  -2   37.22    4.02 
  -8  -4  -2   35.40    4.01 
  -8  -4  -2   35.62    3.74 
   8   5  -3    4.64    0.70 
   8   5  -3    5.08    0.81 
   8   5  -3    4.99    0.74 
   8   5  -3    5.51    0.85 
   8   5  -3    5.24    0.76 
  -8  -5   3    4.07    0.68 
  -8  -5   3    3.95    0.76 
   8   5  -2    1.02    0.41 
   8   5  -2    1.46    0.53 
   8   5  -2    1.26    0.48 
   8   5  -2    1.30    0.51 
   8   5  -2    1.32    0.52 
  -8   5   2    1.24    0.51 
   8   5  -2    0.95    0.58 
  -8  -5   2    0.84    0.42 
  -8  -5   2    1.33    0.54 
  -8  -5   2    0.92    0.38 
  -8  -5   2    1.13    0.55 
   8   5  -1   15.25    1.80 
   8   5  -1   20.10    2.20 
   8   5  -1   20.26    2.25 
   8   5  -1   18.99    2.19 
   8   5  -1   17.27    1.93 
   8   5  -1   14.20    1.78 
   8   5  -1   18.36    2.06 
  -8  -5   1   13.40    1.79 
  -8  -5   1   18.41    2.10 
   8   5   0    2.97    0.61 
   8   5   0    3.23    0.58 
   8   5   0    2.38    0.65 
   8   5   0    3.16    0.66 
   8   5   0    2.29    0.57 
   8   5   0    2.94    0.65 
  -8  -5   0    2.94    0.65 
  -8  -5   0    2.56    0.57 
  -8  -5   0    2.86    0.70 
   8   5   1   13.09    1.43 
   8   5   1   11.83    1.31 
   8   5   1   11.79    1.44 
   8   5   1   11.63    1.44 
  -8  -5  -1    6.23    1.83 
  -8  -5  -1   13.26    1.51 
  -8  -5  -1   12.36    1.49 
   8   6  -2    1.31    0.52 
  -8  -6   2    1.08    0.66 
   8   6  -1    4.61    0.70 
   8   6  -1    5.20    0.82 
  -8  -6   1    4.06    0.60 
  -8  -6   1    3.96    0.76 
   8   6   0    7.10    1.03 
   8   6   0    7.76    0.98 
   8   6   0    7.74    1.07 
  -8  -6   0    5.98    0.81 
   9   0  -2   11.49    1.48 
   9   0  -2   21.66    2.93 
   9   0  -1    2.63    0.56 
   9   0  -1    2.43    0.59 
   9   0  -1    2.07    0.58 
  -9   0   1    2.78    0.62 
  -9   1   2    7.25    1.06 
   9   1  -2   27.38    5.35 
   9  -1  -2    6.98    1.01 
  -9  -1   2    6.19    2.02 
  -9  -1   2    5.74    0.91 
  -9   1   1    2.89    0.69 
   9   1  -1    2.53    0.59 
   9   1  -1    2.66    0.69 
   9   1  -1    2.44    0.64 
   9  -1  -1    1.67    0.53 
   9  -1  -1    1.70    0.54 
  -9  -1   1    2.18    0.62 
  -9  -1   1    2.56    0.66 
   9   1   0    1.12    0.53 
   9   1   0    0.95    0.70 
  -9   1   0    1.34    0.65 
   9   1   0    1.09    0.70 
  -9  -1   0    0.66    0.54 
   9   2  -1    7.80    1.14 
   9   2  -1    7.27    2.48 
  -9  -2   1    7.35    1.23 
;
_shelx_hkl_checksum              36206
loop_
_space_group_symop_operation_xyz
'x, y, z'
'-x, y+1/2, -z'
loop_
_atom_site_label
_atom_site_type_symbol
_atom_site_fract_x
_atom_site_fract_y
_atom_site_fract_z
_atom_site_U_iso_or_equiv
_atom_site_adp_type
_atom_site_occupancy
_atom_site_site_symmetry_order
_atom_site_calc_flag
_atom_site_refinement_flags_posn
_atom_site_refinement_flags_adp
O1 O 0.53829(18) 0.37900(14) 0.26942(17) 0.0283(3) Uani 1 1 d . .
O2 O 0.83478(18) 0.36313(16) 0.40371(19) 0.0352(3) Uani 1 1 d . .
O3 O 0.37874(15) 0.05265(13) 0.19362(17) 0.0253(3) Uani 1 1 d . .
O4 O 0.9888(2) 0.18655(17) 0.0270(2) 0.0415(4) Uani 1 1 d . .
O5 O 0.9009(3) -0.01243(19) -0.0065(2) 0.0507(5) Uani 1 1 d . .
N1 N 0.95286(18) 0.08043(17) 0.0893(2) 0.0269(3) Uani 1 1 d . .
C1 C 0.6935(2) 0.3088(2) 0.3368(2) 0.0259(4) Uani 1 1 d . .
C2 C 0.6538(2) 0.17086(19) 0.3133(2) 0.0225(4) Uani 1 1 d . .
C3 C 0.4760(2) 0.16145(19) 0.2357(2) 0.0214(4) Uani 1 1 d . .
C4 C 0.3893(2) 0.29141(19) 0.2016(2) 0.0246(4) Uani 1 1 d . .
H4A H 0.3507 0.3053 0.0671 0.030 Uiso 1 1 calc R U
H4B H 0.2793 0.3022 0.2717 0.030 Uiso 1 1 calc R U
C5 C 0.7750(2) 0.0566(2) 0.3693(2) 0.0231(4) Uani 1 1 d . .
H5 H 0.7963 0.0568 0.5086 0.028 Uiso 1 1 calc R U
C6 C 0.6652(2) -0.0665(2) 0.3119(2) 0.0217(4) Uani 1 1 d . .
C7 C 0.4779(2) -0.06343(19) 0.2340(2) 0.0217(4) Uani 1 1 d . .
C8 C 0.3752(2) -0.1756(2) 0.1904(2) 0.0261(4) Uani 1 1 d . .
H8 H 0.2487 -0.1701 0.1379 0.031 Uiso 1 1 calc R U
C9 C 0.4589(3) -0.2956(2) 0.2241(2) 0.0291(4) Uani 1 1 d . .
H9 H 0.3896 -0.3728 0.1965 0.035 Uiso 1 1 calc R U
C10 C 0.6472(3) -0.3024(2) 0.2995(3) 0.0297(4) Uani 1 1 d . .
H10 H 0.7062 -0.3842 0.3211 0.036 Uiso 1 1 calc R U
C11 C 0.7458(3) -0.1895(2) 0.3419(2) 0.0274(4) Uani 1 1 d . .
H11 H 0.8727 -0.1953 0.3931 0.033 Uiso 1 1 calc R U
C12 C 0.9693(2) 0.0647(2) 0.2965(2) 0.0267(4) Uani 1 1 d . .
H12A H 1.0392 0.1391 0.3559 0.032 Uiso 1 1 calc R U
H12B H 1.0407 -0.0151 0.3318 0.032 Uiso 1 1 calc R U
loop_
_atom_site_aniso_label
_atom_site_aniso_U_11
_atom_site_aniso_U_22
_atom_site_aniso_U_33
_atom_site_aniso_U_23
_atom_site_aniso_U_13
_atom_site_aniso_U_12
O1 0.0281(6) 0.0193(8) 0.0366(6) -0.0021(5) -0.0016(5) 0.0006(5)
O2 0.0324(7) 0.0272(8) 0.0440(7) -0.0060(6) -0.0060(5) -0.0064(6)
O3 0.0188(6) 0.0198(7) 0.0365(6) -0.0028(5) -0.0004(4) -0.0013(5)
O4 0.0431(8) 0.0331(9) 0.0475(8) 0.0146(6) 0.0005(6) -0.0019(7)
O5 0.0678(10) 0.0446(10) 0.0414(7) -0.0137(7) 0.0137(7) -0.0222(9)
N1 0.0179(6) 0.0274(9) 0.0354(7) 0.0021(7) 0.0024(5) -0.0003(6)
C1 0.0259(8) 0.0233(10) 0.0281(8) -0.0012(7) 0.0014(6) -0.0011(7)
C2 0.0214(8) 0.0226(10) 0.0232(7) -0.0008(7) 0.0009(6) -0.0020(7)
C3 0.0209(7) 0.0203(10) 0.0235(7) -0.0025(7) 0.0041(5) -0.0015(7)
C4 0.0226(7) 0.0207(10) 0.0304(7) -0.0016(7) 0.0021(6) 0.0000(7)
C5 0.0203(7) 0.0235(10) 0.0247(7) 0.0009(7) -0.0013(5) -0.0015(7)
C6 0.0215(7) 0.0211(9) 0.0225(6) 0.0004(7) 0.0021(5) -0.0023(7)
C7 0.0202(7) 0.0198(9) 0.0253(7) 0.0001(7) 0.0038(6) -0.0004(8)
C8 0.0231(7) 0.0260(11) 0.0294(7) -0.0035(7) 0.0041(6) -0.0052(8)
C9 0.0348(10) 0.0227(11) 0.0303(8) -0.0016(7) 0.0064(7) -0.0074(8)
C10 0.0382(10) 0.0206(11) 0.0301(8) 0.0035(7) 0.0036(7) 0.0000(8)
C11 0.0275(8) 0.0254(10) 0.0286(7) 0.0041(7) -0.0003(6) 0.0003(8)
C12 0.0197(7) 0.0261(10) 0.0332(8) 0.0021(8) -0.0025(5) -0.0007(7)
loop_
_atom_type_symbol
_atom_type_description
_atom_type_scat_dispersion_real
_atom_type_scat_dispersion_imag
_atom_type_scat_source
C C 0.0181 0.0091 'International Tables Vol C Tables 4.2.6.8 and 6.1.1.4'
H H 0.0000 0.0000 'International Tables Vol C Tables 4.2.6.8 and 6.1.1.4'
N N 0.0311 0.0180 'International Tables Vol C Tables 4.2.6.8 and 6.1.1.4'
O O 0.0492 0.0322 'International Tables Vol C Tables 4.2.6.8 and 6.1.1.4'
loop_
_geom_angle_atom_site_label_1
_geom_angle_atom_site_label_2
_geom_angle_atom_site_label_3
_geom_angle
C1 O1 C4 109.59(15)
C3 O3 C7 115.08(12)
O5 N1 O4 124.18(16)
O5 N1 C12 117.95(16)
O4 N1 C12 117.85(16)
O2 C1 O1 120.74(19)
O2 C1 C2 129.93(18)
O1 C1 C2 109.33(15)
C3 C2 C1 106.56(17)
C3 C2 C5 123.85(18)
C1 C2 C5 129.52(15)
O3 C3 C2 127.29(18)
O3 C3 C4 121.12(14)
C2 C3 C4 111.58(17)
O1 C4 C3 102.93(14)
O1 C4 H4A 111.2
C3 C4 H4A 111.2
O1 C4 H4B 111.2
C3 C4 H4B 111.2
H4A C4 H4B 109.1
C2 C5 C6 108.18(13)
C2 C5 C12 112.81(15)
C6 C5 C12 114.36(14)
C2 C5 H5 107.0
C6 C5 H5 107.0
C12 C5 H5 107.0
C11 C6 C7 116.48(17)
C11 C6 C5 121.10(14)
C7 C6 C5 122.37(17)
C8 C7 C6 122.41(18)
C8 C7 O3 114.52(14)
C6 C7 O3 123.08(16)
C9 C8 C7 119.49(16)
C9 C8 H8 120.3
C7 C8 H8 120.3
C8 C9 C10 119.67(18)
C8 C9 H9 120.2
C10 C9 H9 120.2
C11 C10 C9 119.62(19)
C11 C10 H10 120.2
C9 C10 H10 120.2
C10 C11 C6 122.32(17)
C10 C11 H11 118.8
C6 C11 H11 118.8
N1 C12 C5 111.47(12)
N1 C12 H12A 109.3
C5 C12 H12A 109.3
N1 C12 H12B 109.3
C5 C12 H12B 109.3
H12A C12 H12B 108.0
loop_
_geom_bond_atom_site_label_1
_geom_bond_atom_site_label_2
_geom_bond_distance
O1 C1 1.377(2)
O1 C4 1.448(2)
O2 C1 1.216(2)
O3 C3 1.341(2)
O3 C7 1.410(2)
O4 N1 1.222(2)
O5 N1 1.217(2)
N1 C12 1.495(2)
C1 C2 1.459(3)
C2 C3 1.345(3)
C2 C5 1.497(3)
C3 C4 1.489(3)
C4 H4A 0.9900
C4 H4B 0.9900
C5 C6 1.530(3)
C5 C12 1.549(2)
C5 H5 1.0000
C6 C11 1.403(3)
C6 C7 1.405(2)
C7 C8 1.392(3)
C8 C9 1.388(3)
C8 H8 0.9500
C9 C10 1.408(3)
C9 H9 0.9500
C10 C11 1.382(3)
C10 H10 0.9500
C11 H11 0.9500
C12 H12A 0.9900
C12 H12B 0.9900
loop_
_geom_torsion_atom_site_label_1
_geom_torsion_atom_site_label_2
_geom_torsion_atom_site_label_3
_geom_torsion_atom_site_label_4
_geom_torsion
C4 O1 C1 O2 -178.82(15)
C4 O1 C1 C2 0.90(17)
O2 C1 C2 C3 178.69(17)
O1 C1 C2 C3 -1.00(17)
O2 C1 C2 C5 1.7(3)
O1 C1 C2 C5 -178.03(14)
C7 O3 C3 C2 -1.0(2)
C7 O3 C3 C4 -179.73(13)
C1 C2 C3 O3 -178.13(14)
C5 C2 C3 O3 -0.9(3)
C1 C2 C3 C4 0.71(18)
C5 C2 C3 C4 177.95(13)
C1 O1 C4 C3 -0.46(17)
O3 C3 C4 O1 178.74(12)
C2 C3 C4 O1 -0.18(18)
C3 C2 C5 C6 3.4(2)
C1 C2 C5 C6 179.99(15)
C3 C2 C5 C12 130.94(16)
C1 C2 C5 C12 -52.5(2)
C2 C5 C6 C11 178.10(13)
C12 C5 C6 C11 51.46(19)
C2 C5 C6 C7 -4.50(19)
C12 C5 C6 C7 -131.14(15)
C11 C6 C7 C8 0.8(2)
C5 C6 C7 C8 -176.71(13)
C11 C6 C7 O3 -179.16(13)
C5 C6 C7 O3 3.3(2)
C3 O3 C7 C8 179.75(13)
C3 O3 C7 C6 -0.28(19)
C6 C7 C8 C9 0.0(2)
O3 C7 C8 C9 179.93(13)
C7 C8 C9 C10 -0.9(3)
C8 C9 C10 C11 1.0(3)
C9 C10 C11 C6 -0.2(3)
C7 C6 C11 C10 -0.7(2)
C5 C6 C11 C10 176.88(15)
O5 N1 C12 C5 -71.9(2)
O4 N1 C12 C5 106.71(18)
C2 C5 C12 N1 -56.0(2)
C6 C5 C12 N1 68.17(19)
